data_PCOD8246086
_publ_section_title
;
Structure prediction by ZEFSAII (Michael W. Deem and Ramdas Pophale) SiO2 
 PCOD8246086
Probable space group: P M M N
;
_chemical_formula_sum "Si O2"
_cell_formula_units_Z 48
_cell_length_a 8.732762
_cell_length_b 24.966393
_cell_length_c 11.681218
_cell_angle_alpha 90.000000
_cell_angle_beta 90.000000
_cell_angle_gamma 90.000000
_cell_volume 2546.804190
_symmetry_space_group_name_H-M "P M M N"
_symmetry_group_IT_number 59
_space_group.IT_coordinate_system_code '2'
_symmetry_cell_setting 'orthorhombic'
loop_
_space_group_symop_operation_xyz
x,y,z
1/2-x,1/2-y,z
1/2+x,-y,-z
-x,1/2+y,-z
-x,-y,-z
1/2+x,1/2+y,-z
1/2-x,y,z
x,1/2-y,z
loop_
_atom_site_type_symbol
_atom_site_label
_atom_site_fract_x
_atom_site_fract_y
_atom_site_fract_z
Si Si1 0.928119 0.496051 0.376421
Si Si2 0.929690 0.441131 0.000295
Si Si3 0.573702 0.312009 0.630254
Si Si4 0.074118 0.401085 0.774964
Si Si5 0.429431 0.402891 0.228008
Si Si6 0.926892 0.311873 0.368373
O O1 0.750000 0.481614 0.385126
O O2 0.957368 0.551894 0.314354
O O3 0.000000 0.500000 0.500000
O O4 0.012801 0.449859 0.308694
O O5 0.750000 0.447928 0.012832
O O6 0.969308 0.409328 0.885438
O O7 0.000000 0.500000 0.000000
O O8 0.990746 0.406211 0.105275
O O9 0.750000 0.327997 0.649507
O O10 0.547350 0.250000 0.658940
O O11 0.467452 0.345369 0.715168
O O12 0.526538 0.324035 0.499368
O O13 0.250000 0.399948 0.814223
O O14 0.250000 0.408690 0.210481
O O15 0.467451 0.345931 0.284252
O O16 0.750000 0.327061 0.348845
O O17 0.955657 0.250000 0.339386
#
# Coordination Sequence:
#
# PCOD8246086 Si02
#       6
#     8   8   8   8   8   8
#     4  11  23  37  56  84 120 154 192 242 296 354
#     4  12  24  41  63  85 114 155 199 244 294 353
#     4   9  19  37  61  88 119 157 198 241 293 350
#     4  11  23  38  58  86 118 154 196 242 293 349
#     4  12  24  38  59  87 120 156 196 242 295 354
#     4   9  19  38  63  89 120 158 199 244 295 350
#
# _framework density 18.847149999999999
#
# number of rings (size 3 to 8) (size 9 to 14) (size 15 to 20)
#    0.000    1.333    1.667    6.000    0.000    6.000 
#    0.000    2.500    0.000    5.000    0.000    0.000 
#    0.000    0.000    0.000    0.000    0.000    0.000 
#
# Total GULP energy -595479.937746 kJ/mol
# GULP energy per Si atom -12405.832036 kJ/mol
# Density = 1.880425 g / cm^3
# Si number density = 18.847150 Si / 1000 Ang^3
#
#
#
# Elastic Constant Matrix: (Units=GPa)
#
#
# Indices 1 2 3 4 5 6 
#
# 1 130.8372 48.5032 66.3516 0.0000 0.0000 0.0000
# 2 48.5032 94.6331 48.9952 0.0000 0.0000 0.0000
# 3 66.3516 48.9952 119.0909 0.0000 0.0000 0.0000
# 4 0.0000 0.0000 0.0000 109.9039 0.0000 0.0000
# 5 0.0000 0.0000 0.0000 0.0000 34.8882 0.0000
# 6 0.0000 0.0000 0.0000 0.0000 0.0000 35.3623
#
#
#
# Elastic Compliance Matrix: (Units=1/GPa)
#
#
# Indices 1 2 3 4 5 6 
#
# 1 0.011385 -0.003242 -0.005010 0.000000 0.000000 0.000000
# 2 -0.003242 0.014350 -0.004098 0.000000 0.000000 0.000000
# 3 -0.005010 -0.004098 0.012874 0.000000 0.000000 0.000000
# 4 0.000000 0.000000 0.000000 0.009099 0.000000 0.000000
# 5 0.000000 0.000000 0.000000 0.000000 0.028663 0.000000
# 6 0.000000 0.000000 0.000000 0.000000 0.000000 0.028279
#
#
# Mechanical properties :
#
#
# Convention : Reuss Voigt Hill
#
# Bulk Modulus (GPa) = 71.88412 74.69568 73.28990
# Shear Modulus (GPa) = 37.31752 48.07832 42.69792
#
# Velocity S-wave (km/s) = 4.45456 5.05618 4.76487
# Velocity P-wave (km/s) = 8.04244 8.59098 8.32123
#
# Compressibility (1/GPa) = 0.01391128
#
# Stress axis : x y z
#
# Youngs Moduli (GPa) = 87.83160 69.68565 77.67646
#
# Poissons Ratio (x) = 0.22590 0.38914
# Poissons Ratio (y) = 0.28473 0.31829
# Poissons Ratio (z) = 0.44001 0.28555
#
# Static dielectric constant tensor:
#      x y z
#    x 3.465730 0.000000 0.000000 
#    y 0.000000 3.526820 0.000000 
#    z 0.000000 0.000000 3.717620 
# 
# 
# High freq. dielectric constant tensor:
#      x y z
#    x 1.741020 0.000000 0.000000 
#    y 0.000000 1.733480 0.000000 
#    z 0.000000 0.000000 1.737560 
# 
# From -- ./inp_files/14313.got.cif
#   From: 2010.03.12/outbox.cif.g09.slc.cpg/sg59_8_cif.got.tgz:14313.got - 2010.04.16 16:29:54.
