data_PCOD8246601
_publ_section_title
;
Structure prediction by ZEFSAII (Michael W. Deem and Ramdas Pophale) SiO2 
 PCOD8246601
Probable space group: P B C N
;
_chemical_formula_sum "Si O2"
_cell_formula_units_Z 40
_cell_length_a 8.205549
_cell_length_b 23.044735
_cell_length_c 10.422421
_cell_angle_alpha 90.000000
_cell_angle_beta 90.000000
_cell_angle_gamma 90.000000
_cell_volume 1970.824596
_symmetry_space_group_name_H-M "P B C N"
_symmetry_group_IT_number 60
_symmetry_cell_setting 'orthorhombic'
loop_
_space_group_symop_operation_xyz
x,y,z
1/2-x,1/2-y,1/2+z
1/2+x,1/2-y,-z
-x,y,1/2-z
-x,-y,-z
1/2+x,1/2+y,1/2-z
1/2-x,1/2+y,z
x,-y,1/2+z
loop_
_atom_site_type_symbol
_atom_site_label
_atom_site_fract_x
_atom_site_fract_y
_atom_site_fract_z
Si Si1 0.194204 0.038256 0.757643
Si Si2 0.670928 0.670739 0.995729
Si Si3 0.814949 0.343213 0.222674
Si Si4 0.089459 0.753863 0.384907
Si Si5 0.155419 0.040223 0.477937
O O1 0.287652 0.091380 0.827955
O O2 0.260729 0.032306 0.609938
O O3 0.000000 0.050232 0.750000
O O4 0.240303 0.983093 0.847090
O O5 0.706152 0.660517 0.848266
O O6 0.527174 0.719081 0.995722
O O7 0.833020 0.693021 0.068541
O O8 0.614944 0.608071 0.051243
O O9 0.742273 0.297574 0.123001
O O10 0.000000 0.327490 0.250000
O O11 0.000000 0.742009 0.250000
O O12 0.000000 0.000000 0.500000
#
# Coordination Sequence:
#
# PCOD8246601 Si02
#       5
#     8   8   8   8   8
#     4   9  17  33  54  76 104 141 184 227 272 329
#     4  10  20  36  57  80 111 146 184 231 281 335
#     4  10  19  34  55  78 107 147 187 226 280 340
#     4  10  20  36  56  81 112 146 185 233 286 342
#     4   9  17  33  55  79 106 142 186 227 272 334
#
# _framework density 20.296073
#
# number of rings (size 3 to 8) (size 9 to 14) (size 15 to 20)
#    0.000    2.400    0.000    5.400    0.000    0.000 
#    0.000   26.000    0.000    0.000    0.000    0.000 
#    0.000    0.000    0.000    0.000    0.000    0.000 
#
# Total GULP energy -495531.691871 kJ/mol
# GULP energy per Si atom -12388.292297 kJ/mol
# Density = 2.024988 g / cm^3
# Si number density = 20.296073 Si / 1000 Ang^3
#
#
#
# Elastic Constant Matrix: (Units=GPa)
#
#
# Indices 1 2 3 4 5 6 
#
# 1 72.6353 34.4726 8.2080 0.0000 0.0000 0.0000
# 2 34.4726 143.9776 43.5413 0.0000 0.0000 0.0000
# 3 8.2080 43.5413 77.8572 0.0000 0.0000 0.0000
# 4 0.0000 0.0000 0.0000 17.2059 0.0000 0.0000
# 5 0.0000 0.0000 0.0000 0.0000 21.8026 0.0000
# 6 0.0000 0.0000 0.0000 0.0000 0.0000 30.4667
#
#
#
# Elastic Compliance Matrix: (Units=1/GPa)
#
#
# Indices 1 2 3 4 5 6 
#
# 1 0.015551 -0.003885 0.000533 0.000000 0.000000 0.000000
# 2 -0.003885 0.009330 -0.004808 0.000000 0.000000 0.000000
# 3 0.000533 -0.004808 0.015477 0.000000 0.000000 0.000000
# 4 0.000000 0.000000 0.000000 0.058120 0.000000 0.000000
# 5 0.000000 0.000000 0.000000 0.000000 0.045866 0.000000
# 6 0.000000 0.000000 0.000000 0.000000 0.000000 0.032823
#
#
# Mechanical properties :
#
#
# Convention : Reuss Voigt Hill
#
# Bulk Modulus (GPa) = 41.60087 51.87933 46.74010
# Shear Modulus (GPa) = 24.81423 27.77825 26.29624
#
# Velocity S-wave (km/s) = 3.50038 3.70354 3.60339
# Velocity P-wave (km/s) = 6.07276 6.62609 6.35545
#
# Compressibility (1/GPa) = 0.02403796
#
# Stress axis : x y z
#
# Youngs Moduli (GPa) = 64.30550 107.18543 64.61326
#
# Poissons Ratio (x) = 0.41636 -0.03444
# Poissons Ratio (y) = 0.24980 0.31066
# Poissons Ratio (z) = -0.03427 0.51535
#
# Static dielectric constant tensor:
#      x y z
#    x 3.425750 0.000000 0.000000 
#    y 0.000000 4.010670 0.000000 
#    z 0.000000 0.000000 4.161830 
# 
# 
# High freq. dielectric constant tensor:
#      x y z
#    x 1.762210 0.000000 0.000000 
#    y 0.000000 1.798720 0.000000 
#    z 0.000000 0.000000 1.780910 
# 
# From -- ./inp_files/3786.got.cif
#   From: 2010.03.12/outbox.cif.g09.slc.cpg/sg60_2_cif.got.tgz:3786.got - 2010.04.10 18:46:24.
