data_PCOD8246696
_publ_section_title
;
Structure prediction by ZEFSAII (Michael W. Deem and Ramdas Pophale) SiO2 
 PCOD8246696
Probable space group: P B C N
;
_chemical_formula_sum "Si O2"
_cell_formula_units_Z 60
_cell_length_a 17.510515
_cell_length_b 11.303843
_cell_length_c 14.659806
_cell_angle_alpha 90.000000
_cell_angle_beta 90.000000
_cell_angle_gamma 90.000000
_cell_volume 2901.705008
_symmetry_space_group_name_H-M "P B C N"
_symmetry_group_IT_number 60
_symmetry_cell_setting 'orthorhombic'
loop_
_space_group_symop_operation_xyz
x,y,z
1/2-x,1/2-y,1/2+z
1/2+x,1/2-y,-z
-x,y,1/2-z
-x,-y,-z
1/2+x,1/2+y,1/2-z
1/2-x,1/2+y,z
x,-y,1/2+z
loop_
_atom_site_type_symbol
_atom_site_label
_atom_site_fract_x
_atom_site_fract_y
_atom_site_fract_z
Si Si1 0.105887 0.004327 0.066868
Si Si2 0.516035 0.146891 0.906671
Si Si3 0.368703 0.724473 0.338118
Si Si4 0.438946 0.477793 0.368189
Si Si5 0.832533 0.223336 0.360835
Si Si6 0.815229 0.762108 0.467101
Si Si7 0.500000 0.714751 0.750000
Si Si8 0.057367 0.615612 0.097080
O O1 0.169255 0.082133 0.119876
O O2 0.129096 0.867823 0.062765
O O3 0.097671 0.057307 0.964887
O O4 0.026966 0.013847 0.120541
O O5 0.441869 0.189238 0.850005
O O6 0.584588 0.237235 0.894625
O O7 0.544059 0.018865 0.871385
O O8 0.498954 0.145884 0.014004
O O9 0.395456 0.589549 0.325872
O O10 0.322664 0.756536 0.245840
O O11 0.309879 0.739309 0.422513
O O12 0.435440 0.366559 0.299329
O O13 0.766397 0.283301 0.420822
O O14 0.854826 0.639391 0.434120
O O15 0.456806 0.797818 0.680149
#
# Coordination Sequence:
#
# PCOD8246696 Si02
#       8
#     8   8   8   8   8   8   4   8
#     4  10  20  39  63  89 123 167 201 262 321 370
#     4  10  22  42  66  91 121 169 214 260 311 375
#     4  10  22  42  66  94 121 163 218 266 303 382
#     4  10  19  36  64  95 122 151 217 272 310 351
#     4  12  23  38  69  91 124 168 210 251 323 381
#     4  10  24  44  58  88 138 163 202 262 324 381
#     4  12  20  32  62 100 116 158 208 270 304 368
#     4  10  23  41  61  88 132 164 207 260 313 372
#
# _framework density 20.677498
#
# number of rings (size 3 to 8) (size 9 to 14) (size 15 to 20)
#    0.000    1.600    2.667    2.000    3.733    0.000 
#    4.800    0.000    0.000    0.000    0.000    0.000 
#    0.000    0.000    0.000    0.000    0.000    0.000 
#
# Total GULP energy -743974.512697 kJ/mol
# GULP energy per Si atom -12399.575212 kJ/mol
# Density = 2.063044 g / cm^3
# Si number density = 20.677498 Si / 1000 Ang^3
#
#
#
# Elastic Constant Matrix: (Units=GPa)
#
#
# Indices 1 2 3 4 5 6 
#
# 1 82.7824 15.9040 54.4780 0.0000 0.0000 0.0000
# 2 15.9040 88.1573 43.0541 0.0000 0.0000 0.0000
# 3 54.4780 43.0541 123.5805 0.0000 0.0000 0.0000
# 4 0.0000 0.0000 0.0000 34.4758 0.0000 0.0000
# 5 0.0000 0.0000 0.0000 0.0000 27.9181 0.0000
# 6 0.0000 0.0000 0.0000 0.0000 0.0000 15.1527
#
#
#
# Elastic Compliance Matrix: (Units=1/GPa)
#
#
# Indices 1 2 3 4 5 6 
#
# 1 0.017054 0.000717 -0.007768 0.000000 0.000000 0.000000
# 2 0.000717 0.013699 -0.005089 0.000000 0.000000 0.000000
# 3 -0.007768 -0.005089 0.013289 0.000000 0.000000 0.000000
# 4 0.000000 0.000000 0.000000 0.029006 0.000000 0.000000
# 5 0.000000 0.000000 0.000000 0.000000 0.035819 0.000000
# 6 0.000000 0.000000 0.000000 0.000000 0.000000 0.065995
#
#
# Mechanical properties :
#
#
# Convention : Reuss Voigt Hill
#
# Bulk Modulus (GPa) = 50.59896 57.93249 54.26573
# Shear Modulus (GPa) = 24.30387 27.58159 25.94273
#
# Velocity S-wave (km/s) = 3.43210 3.65621 3.54593
# Velocity P-wave (km/s) = 6.34266 6.77509 6.56244
#
# Compressibility (1/GPa) = 0.01976325
#
# Stress axis : x y z
#
# Youngs Moduli (GPa) = 58.63763 72.99677 75.25048
#
# Poissons Ratio (x) = -0.05233 0.58452
# Poissons Ratio (y) = -0.04204 0.38293
# Poissons Ratio (z) = 0.45548 0.37146
#
# Static dielectric constant tensor:
#      x y z
#    x 3.342030 0.000000 0.000000 
#    y 0.000000 3.890020 0.000000 
#    z 0.000000 0.000000 3.962520 
# 
# 
# High freq. dielectric constant tensor:
#      x y z
#    x 1.770650 0.000000 0.000000 
#    y 0.000000 1.813440 0.000000 
#    z 0.000000 0.000000 1.823530 
# 
# From -- ./inp_files/17470.got.cif
#   From: 2010.03.12/outbox.cif.g09.slc.cpg/sg60_9_cif.got.tgz:17470.got - 2010.04.10 18:46:24.
