data_PCOD8246648
_publ_section_title
;
Structure prediction by ZEFSAII (Michael W. Deem and Ramdas Pophale) SiO2 
 PCOD8246648
Probable space group: P B C N
;
_chemical_formula_sum "Si O2"
_cell_formula_units_Z 40
_cell_length_a 17.700200
_cell_length_b 5.150672
_cell_length_c 22.949924
_cell_angle_alpha 90.000000
_cell_angle_beta 90.000000
_cell_angle_gamma 90.000000
_cell_volume 2092.296939
_symmetry_space_group_name_H-M "P B C N"
_symmetry_group_IT_number 60
_symmetry_cell_setting 'orthorhombic'
loop_
_space_group_symop_operation_xyz
x,y,z
1/2-x,1/2-y,1/2+z
1/2+x,1/2-y,-z
-x,y,1/2-z
-x,-y,-z
1/2+x,1/2+y,1/2-z
1/2-x,1/2+y,z
x,-y,1/2+z
loop_
_atom_site_type_symbol
_atom_site_label
_atom_site_fract_x
_atom_site_fract_y
_atom_site_fract_z
Si Si1 0.703490 0.150494 0.656157
Si Si2 0.058508 0.388703 0.419435
Si Si3 0.203476 0.659779 0.708747
Si Si4 0.424251 0.198187 0.047969
Si Si5 0.907151 0.793580 0.889294
O O1 0.767035 0.937117 0.640359
O O2 0.630431 0.064828 0.620354
O O3 0.680981 0.155350 0.723765
O O4 0.083980 0.247215 0.479302
O O5 0.014171 0.658055 0.436170
O O6 0.998711 0.209910 0.383880
O O7 0.232850 0.372968 0.692809
O O8 0.128659 0.738302 0.673515
O O9 0.384686 0.429303 0.083881
O O10 0.380177 0.933785 0.066126
#
# Coordination Sequence:
#
# PCOD8246648 Si02
#       5
#     8   8   8   8   8
#     4  10  23  38  57  80 112 152 185 229 283 325
#     4   9  21  36  61  79 118 140 192 225 279 335
#     4  10  21  39  56  78 115 148 184 232 280 327
#     4   9  20  34  60  82 110 143 177 233 281 319
#     4  10  19  35  59  81 107 146 187 221 282 327
#
# _framework density 19.117747000000001
#
# number of rings (size 3 to 8) (size 9 to 14) (size 15 to 20)
#    1.200    1.200    0.000    1.800    2.800    0.800 
#    0.000    6.000    4.400    0.000    0.000    0.000 
#    0.000    0.000    0.000    0.000    0.000    0.000 
#
# Total GULP energy -495584.922547 kJ/mol
# GULP energy per Si atom -12389.623064 kJ/mol
# Density = 1.907423 g / cm^3
# Si number density = 19.117747 Si / 1000 Ang^3
#
#
#
# Elastic Constant Matrix: (Units=GPa)
#
#
# Indices 1 2 3 4 5 6 
#
# 1 51.6309 19.8183 56.0671 0.0000 0.0000 0.0000
# 2 19.8183 110.4551 32.4046 0.0000 0.0000 0.0000
# 3 56.0671 32.4046 97.9866 0.0000 0.0000 0.0000
# 4 0.0000 0.0000 0.0000 23.0050 0.0000 0.0000
# 5 0.0000 0.0000 0.0000 0.0000 30.2480 0.0000
# 6 0.0000 0.0000 0.0000 0.0000 0.0000 17.5032
#
#
#
# Elastic Compliance Matrix: (Units=1/GPa)
#
#
# Indices 1 2 3 4 5 6 
#
# 1 0.051194 -0.000655 -0.029076 0.000000 0.000000 0.000000
# 2 -0.000655 0.010035 -0.002944 0.000000 0.000000 0.000000
# 3 -0.029076 -0.002944 0.027816 0.000000 0.000000 0.000000
# 4 0.000000 0.000000 0.000000 0.043469 0.000000 0.000000
# 5 0.000000 0.000000 0.000000 0.000000 0.033060 0.000000
# 6 0.000000 0.000000 0.000000 0.000000 0.000000 0.057132
#
#
# Mechanical properties :
#
#
# Convention : Reuss Voigt Hill
#
# Bulk Modulus (GPa) = 42.20328 52.96141 47.58235
# Shear Modulus (GPa) = 16.89449 24.27007 20.58228
#
# Velocity S-wave (km/s) = 2.97595 3.56688 3.28473
# Velocity P-wave (km/s) = 5.82509 6.68778 6.27129
#
# Compressibility (1/GPa) = 0.02369484
#
# Stress axis : x y z
#
# Youngs Moduli (GPa) = 19.53345 99.65535 35.95043
#
# Poissons Ratio (x) = 0.06530 1.04530
# Poissons Ratio (y) = 0.01280 0.10582
# Poissons Ratio (z) = 0.56796 0.29334
#
# Static dielectric constant tensor:
#      x y z
#    x 3.102510 0.000000 0.000000 
#    y 0.000000 3.535310 0.000000 
#    z 0.000000 0.000000 3.332510 
# 
# 
# High freq. dielectric constant tensor:
#      x y z
#    x 1.709350 0.000000 0.000000 
#    y 0.000000 1.750690 0.000000 
#    z 0.000000 0.000000 1.737300 
# 
# From -- ./inp_files/23008.got.cif
#   From: 2010.03.12/outbox.cif.g09.slc.cpg/sg60_12_cif.got.tgz:23008.got - 2010.04.10 18:46:24.
