data_PCOD8246480
_publ_section_title
;
Structure prediction by ZEFSAII (Michael W. Deem and Ramdas Pophale) SiO2 
 PCOD8246480
Probable space group: P B C N
;
_chemical_formula_sum "Si O2"
_cell_formula_units_Z 60
_cell_length_a 14.424381
_cell_length_b 8.861138
_cell_length_c 21.589982
_cell_angle_alpha 90.000000
_cell_angle_beta 90.000000
_cell_angle_gamma 90.000000
_cell_volume 2759.554436
_symmetry_space_group_name_H-M "P B C N"
_symmetry_group_IT_number 60
_symmetry_cell_setting 'orthorhombic'
loop_
_space_group_symop_operation_xyz
x,y,z
1/2-x,1/2-y,1/2+z
1/2+x,1/2-y,-z
-x,y,1/2-z
-x,-y,-z
1/2+x,1/2+y,1/2-z
1/2-x,1/2+y,z
x,-y,1/2+z
loop_
_atom_site_type_symbol
_atom_site_label
_atom_site_fract_x
_atom_site_fract_y
_atom_site_fract_z
Si Si1 0.159627 0.281690 0.187826
Si Si2 0.297668 0.429450 0.354635
Si Si3 0.500000 0.248181 0.250000
Si Si4 0.899728 0.519546 0.700234
Si Si5 0.624480 0.901940 0.007394
Si Si6 0.150273 0.934854 0.216179
Si Si7 0.460517 0.929831 0.095886
Si Si8 0.255524 0.833616 0.938723
O O1 0.102665 0.357545 0.244516
O O2 0.158135 0.102761 0.192211
O O3 0.264774 0.339275 0.190012
O O4 0.118827 0.314801 0.119364
O O5 0.188123 0.458455 0.343188
O O6 0.353773 0.438080 0.291567
O O7 0.321703 0.566408 0.401763
O O8 0.310854 0.270507 0.389296
O O9 0.588581 0.149272 0.227284
O O10 0.551657 0.356451 0.301177
O O11 0.992126 0.527437 0.660065
O O12 0.535548 0.857243 0.049273
O O13 0.668679 0.062629 0.027577
O O14 0.700228 0.768991 0.011410
O O15 0.588898 0.925933 0.937055
#
# Coordination Sequence:
#
# PCOD8246480 Si02
#       8
#     8   8   4   8   8   8   8   8
#     4  11  24  41  65  91 134 170 219 259 339 382
#     4  10  19  35  64  86 122 154 211 265 307 368
#     4  12  24  36  60  96 136 162 220 252 318 398
#     4  11  20  39  65  89 122 172 207 266 323 382
#     4  10  24  38  67  91 118 171 219 266 320 384
#     4  11  25  38  60 101 127 176 210 266 325 398
#     4  11  22  42  65  87 128 171 218 259 327 393
#     4  10  18  37  60  92 113 156 213 263 308 368
#
# _framework density 21.742640000000002
#
# number of rings (size 3 to 8) (size 9 to 14) (size 15 to 20)
#    0.000    1.333    4.000    4.000    1.867    1.067 
#    0.000    0.000    0.000    6.400    0.000    0.000 
#    0.000    0.000    0.000    0.000    0.000    0.000 
#
# Total GULP energy -743391.388859 kJ/mol
# GULP energy per Si atom -12389.856481 kJ/mol
# Density = 2.169315 g / cm^3
# Si number density = 21.742640 Si / 1000 Ang^3
#
#
#
# Elastic Constant Matrix: (Units=GPa)
#
#
# Indices 1 2 3 4 5 6 
#
# 1 94.5671 32.0153 22.5166 0.0000 0.0000 0.0000
# 2 32.0153 118.1628 1.9755 0.0000 0.0000 0.0000
# 3 22.5166 1.9755 28.8576 0.0000 0.0000 0.0000
# 4 0.0000 0.0000 0.0000 18.9818 0.0000 0.0000
# 5 0.0000 0.0000 0.0000 0.0000 28.1923 0.0000
# 6 0.0000 0.0000 0.0000 0.0000 0.0000 26.9068
#
#
#
# Elastic Compliance Matrix: (Units=1/GPa)
#
#
# Indices 1 2 3 4 5 6 
#
# 1 0.014466 -0.003735 -0.011031 0.000000 0.000000 0.000000
# 2 -0.003735 0.009437 0.002268 0.000000 0.000000 0.000000
# 3 -0.011031 0.002268 0.043105 0.000000 0.000000 0.000000
# 4 0.000000 0.000000 0.000000 0.052682 0.000000 0.000000
# 5 0.000000 0.000000 0.000000 0.000000 0.035471 0.000000
# 6 0.000000 0.000000 0.000000 0.000000 0.000000 0.037165
#
#
# Mechanical properties :
#
#
# Convention : Reuss Voigt Hill
#
# Bulk Modulus (GPa) = 23.80302 39.40027 31.60165
# Shear Modulus (GPa) = 21.61459 27.15485 24.38472
#
# Velocity S-wave (km/s) = 3.15637 3.53784 3.35254
# Velocity P-wave (km/s) = 4.92493 5.90330 5.43617
#
# Compressibility (1/GPa) = 0.04201147
#
# Stress axis : x y z
#
# Youngs Moduli (GPa) = 69.12994 105.96676 23.19915
#
# Poissons Ratio (x) = 0.39577 0.25592
# Poissons Ratio (y) = 0.25819 -0.05262
# Poissons Ratio (z) = 0.76259 -0.24035
#
# Static dielectric constant tensor:
#      x y z
#    x 4.014850 0.000000 0.000000 
#    y 0.000000 3.952830 0.000000 
#    z 0.000000 0.000000 3.880420 
# 
# 
# High freq. dielectric constant tensor:
#      x y z
#    x 1.854510 0.000000 0.000000 
#    y 0.000000 1.853350 0.000000 
#    z 0.000000 0.000000 1.837130 
# 
# From -- ./inp_files/24409.got.cif
#   From: 2010.03.12/outbox.cif.g09.slc.cpg/sg60_13_cif.got.tgz:24409.got - 2010.04.10 18:46:24.
