data_PCOD8246156
_publ_section_title
;
Structure prediction by ZEFSAII (Michael W. Deem and Ramdas Pophale) SiO2 
 PCOD8246156
Probable space group: P M M N
;
_chemical_formula_sum "Si O2"
_cell_formula_units_Z 64
_cell_length_a 9.254800
_cell_length_b 18.454366
_cell_length_c 26.404131
_cell_angle_alpha 90.000000
_cell_angle_beta 90.000000
_cell_angle_gamma 90.000000
_cell_volume 4509.600254
_symmetry_space_group_name_H-M "P M M N"
_symmetry_group_IT_number 59
_space_group.IT_coordinate_system_code '2'
_symmetry_cell_setting 'orthorhombic'
loop_
_space_group_symop_operation_xyz
x,y,z
1/2-x,1/2-y,z
1/2+x,-y,-z
-x,1/2+y,-z
-x,-y,-z
1/2+x,1/2+y,-z
1/2-x,y,z
x,1/2-y,z
loop_
_atom_site_type_symbol
_atom_site_label
_atom_site_fract_x
_atom_site_fract_y
_atom_site_fract_z
Si Si1 0.580682 0.044733 0.042792
Si Si2 0.579736 0.667286 0.310643
Si Si3 0.916827 0.543516 0.542542
Si Si4 0.085533 0.592179 0.397757
Si Si5 0.417836 0.410704 0.898077
Si Si6 0.921846 0.668724 0.198235
Si Si7 0.080068 0.333803 0.999506
Si Si8 0.080957 0.666449 0.502389
O O1 0.750000 0.052376 0.030351
O O2 0.557506 0.997336 0.094180
O O3 0.505249 0.123763 0.044642
O O4 0.500000 0.000000 0.000000
O O5 0.750000 0.658004 0.314398
O O6 0.535270 0.750000 0.323147
O O7 0.509840 0.612362 0.349917
O O8 0.523342 0.646393 0.254240
O O9 0.750000 0.553298 0.527284
O O10 0.930250 0.494778 0.593338
O O11 0.000000 0.500000 0.500000
O O12 0.992883 0.622426 0.545968
O O13 0.250000 0.612942 0.385552
O O14 0.034620 0.637508 0.447034
O O15 0.250000 0.392027 0.895337
O O16 0.488150 0.384716 0.844877
O O17 0.478132 0.363988 0.945552
O O18 0.750000 0.665848 0.199120
O O19 0.973441 0.750000 0.185172
O O20 0.250000 0.348191 0.006066
O O21 0.040627 0.250000 0.004211
O O22 0.250000 0.653323 0.511453
O O23 0.037827 0.750000 0.507170
#
# Coordination Sequence:
#
# PCOD8246156 Si02
#       8
#     8   8   8   8   8   8   8   8
#     4   9  16  25  37  54  75  99 127 157 189 225
#     4   9  17  26  37  56  77  96 124 161 193 219
#     4   9  17  28  40  55  75 100 130 160 189 221
#     4   9  17  28  40  53  74 105 132 152 180 220
#     4   8  13  22  37  54  72  98 129 156 184 221
#     4   8  13  22  36  54  75  96 122 159 193 216
#     4   9  16  25  38  56  76 100 130 158 186 225
#     4   9  17  28  41  58  79 102 128 156 187 224
#
# _framework density 14.191946
#
# number of rings (size 3 to 8) (size 9 to 14) (size 15 to 20)
#    0.000    3.250    0.000    3.750    0.000    5.250 
#    0.000    0.000    0.000    3.750    0.000    3.500 
#    0.000    1.000    0.000    5.000    0.000    3.500 
#
# Total GULP energy -792898.769376 kJ/mol
# GULP energy per Si atom -12389.043272 kJ/mol
# Density = 1.415964 g / cm^3
# Si number density = 14.191946 Si / 1000 Ang^3
#
#
#
# Elastic Constant Matrix: (Units=GPa)
#
#
# Indices 1 2 3 4 5 6 
#
# 1 45.8953 41.7752 29.3483 0.0000 0.0000 0.0000
# 2 41.7752 112.3908 53.0854 0.0000 0.0000 0.0000
# 3 29.3483 53.0854 74.0905 0.0000 0.0000 0.0000
# 4 0.0000 0.0000 0.0000 23.7682 0.0000 0.0000
# 5 0.0000 0.0000 0.0000 0.0000 13.7295 0.0000
# 6 0.0000 0.0000 0.0000 0.0000 0.0000 24.8327
#
#
#
# Elastic Compliance Matrix: (Units=1/GPa)
#
#
# Indices 1 2 3 4 5 6 
#
# 1 0.035111 -0.009797 -0.006889 0.000000 0.000000 0.000000
# 2 -0.009797 0.016183 -0.007714 0.000000 0.000000 0.000000
# 3 -0.006889 -0.007714 0.021753 0.000000 0.000000 0.000000
# 4 0.000000 0.000000 0.000000 0.042073 0.000000 0.000000
# 5 0.000000 0.000000 0.000000 0.000000 0.072836 0.000000
# 6 0.000000 0.000000 0.000000 0.000000 0.000000 0.040269
#
#
# Mechanical properties :
#
#
# Convention : Reuss Voigt Hill
#
# Bulk Modulus (GPa) = 41.24158 53.42160 47.33159
# Shear Modulus (GPa) = 17.53732 19.67727 18.60730
#
# Velocity S-wave (km/s) = 3.51910 3.72763 3.62486
# Velocity P-wave (km/s) = 6.75537 7.50006 7.13743
#
# Compressibility (1/GPa) = 0.02424737
#
# Stress axis : x y z
#
# Youngs Moduli (GPa) = 28.48088 61.79480 45.97144
#
# Poissons Ratio (x) = 0.60541 0.31668
# Poissons Ratio (y) = 0.27903 0.35462
# Poissons Ratio (z) = 0.19619 0.47668
#
# Static dielectric constant tensor:
#      x y z
#    x 2.712180 0.000000 0.000000 
#    y 0.000000 3.172720 0.000000 
#    z 0.000000 0.000000 2.799760 
# 
# 
# High freq. dielectric constant tensor:
#      x y z
#    x 1.528890 0.000000 0.000000 
#    y 0.000000 1.536990 0.000000 
#    z 0.000000 0.000000 1.506820 
# 
# From -- ./inp_files/31785.got.cif
#   From: 2010.03.12/outbox.cif.g09.slc.cpg/sg59_16_cif.got.tgz:31785.got - 2010.04.16 16:29:54.
