data_PCOD8246964
_publ_section_title
;
Structure prediction by ZEFSAII (Michael W. Deem and Ramdas Pophale) SiO2 
 PCOD8246964
Probable space group: P B C N
;
_chemical_formula_sum "Si O2"
_cell_formula_units_Z 32
_cell_length_a 15.041719
_cell_length_b 13.222107
_cell_length_c 8.748290
_cell_angle_alpha 90.000000
_cell_angle_beta 90.000000
_cell_angle_gamma 90.000000
_cell_volume 1739.888068
_symmetry_space_group_name_H-M "P B C N"
_symmetry_group_IT_number 60
_symmetry_cell_setting 'orthorhombic'
loop_
_space_group_symop_operation_xyz
x,y,z
1/2-x,1/2-y,1/2+z
1/2+x,1/2-y,-z
-x,y,1/2-z
-x,-y,-z
1/2+x,1/2+y,1/2-z
1/2-x,1/2+y,z
x,-y,1/2+z
loop_
_atom_site_type_symbol
_atom_site_label
_atom_site_fract_x
_atom_site_fract_y
_atom_site_fract_z
Si Si1 0.818680 0.443551 0.345148
Si Si2 0.587607 0.858897 0.850334
Si Si3 0.591177 0.237757 0.670673
Si Si4 0.749604 0.614472 0.163451
O O1 0.891815 0.525478 0.405858
O O2 0.869514 0.361115 0.247716
O O3 0.747194 0.501345 0.236198
O O4 0.767755 0.390834 0.483439
O O5 0.500000 0.856335 0.750000
O O6 0.670800 0.821892 0.745200
O O7 0.575225 0.784345 0.992370
O O8 0.500000 0.270195 0.750000
O O9 0.656469 0.332035 0.692559
#
# Coordination Sequence:
#
# PCOD8246964 Si02
#       4
#     8   8   8   8
#     4  10  20  39  62  84 127 150 200 251 305 349
#     4  10  20  37  59  92 118 154 193 250 307 350
#     4  12  23  37  62  92 122 159 202 253 300 365
#     4  10  22  38  60  92 120 159 202 249 308 359
#
# _framework density 18.391987
#
# number of rings (size 3 to 8) (size 9 to 14) (size 15 to 20)
#    1.500    0.000    2.500    3.750    0.000    3.000 
#    0.000    1.250    0.000    1.500    0.000    0.000 
#    0.000    0.000    0.000    0.000    0.000    0.000 
#
# Total GULP energy -396668.417545 kJ/mol
# GULP energy per Si atom -12395.888048 kJ/mol
# Density = 1.835013 g / cm^3
# Si number density = 18.391987 Si / 1000 Ang^3
#
#
#
# Elastic Constant Matrix: (Units=GPa)
#
#
# Indices 1 2 3 4 5 6 
#
# 1 151.7172 68.0148 57.2621 0.0000 0.0000 0.0000
# 2 68.0148 37.9721 25.0414 0.0000 0.0000 0.0000
# 3 57.2621 25.0414 97.0234 0.0000 0.0000 0.0000
# 4 0.0000 0.0000 0.0000 15.5227 0.0000 0.0000
# 5 0.0000 0.0000 0.0000 0.0000 32.6515 0.0000
# 6 0.0000 0.0000 0.0000 0.0000 0.0000 19.2801
#
#
#
# Elastic Compliance Matrix: (Units=1/GPa)
#
#
# Indices 1 2 3 4 5 6 
#
# 1 0.035742 -0.060387 -0.005509 0.000000 0.000000 0.000000
# 2 -0.060387 0.133764 0.001116 0.000000 0.000000 0.000000
# 3 -0.005509 0.001116 0.013270 0.000000 0.000000 0.000000
# 4 0.000000 0.000000 0.000000 0.064422 0.000000 0.000000
# 5 0.000000 0.000000 0.000000 0.000000 0.030626 0.000000
# 6 0.000000 0.000000 0.000000 0.000000 0.000000 0.051867
#
#
# Mechanical properties :
#
#
# Convention : Reuss Voigt Hill
#
# Bulk Modulus (GPa) = 18.79158 65.26105 42.02631
# Shear Modulus (GPa) = 10.48240 22.58381 16.53311
#
# Velocity S-wave (km/s) = 2.38994 3.50796 3.00147
# Velocity P-wave (km/s) = 4.22554 7.20890 5.90861
#
# Compressibility (1/GPa) = 0.05321534
#
# Stress axis : x y z
#
# Youngs Moduli (GPa) = 27.97825 7.47587 75.35823
#
# Poissons Ratio (x) = 0.45145 0.41513
# Poissons Ratio (y) = 1.68954 -0.08410
# Poissons Ratio (z) = 0.15412 -0.00834
#
# Static dielectric constant tensor:
#      x y z
#    x 3.283000 0.000000 0.000000 
#    y 0.000000 3.125070 0.000000 
#    z 0.000000 0.000000 3.500220 
# 
# 
# High freq. dielectric constant tensor:
#      x y z
#    x 1.700350 0.000000 0.000000 
#    y 0.000000 1.686860 0.000000 
#    z 0.000000 0.000000 1.729720 
# 
# From -- ./inp_files/4496.got.cif
#   From: 2010.03.12/outbox.cif.g09.slc.cpg/sg60_3_cif.got.tgz:4496.got - 2010.04.10 18:46:24.
