data_PCOD8246922
_publ_section_title
;
Structure prediction by ZEFSAII (Michael W. Deem and Ramdas Pophale) SiO2 
 PCOD8246922
Probable space group: P B C N
;
_chemical_formula_sum "Si O2"
_cell_formula_units_Z 60
_cell_length_a 11.932617
_cell_length_b 8.462618
_cell_length_c 28.057967
_cell_angle_alpha 90.000000
_cell_angle_beta 90.000000
_cell_angle_gamma 90.000000
_cell_volume 2833.326600
_symmetry_space_group_name_H-M "P B C N"
_symmetry_group_IT_number 60
_symmetry_cell_setting 'orthorhombic'
loop_
_space_group_symop_operation_xyz
x,y,z
1/2-x,1/2-y,1/2+z
1/2+x,1/2-y,-z
-x,y,1/2-z
-x,-y,-z
1/2+x,1/2+y,1/2-z
1/2-x,1/2+y,z
x,-y,1/2+z
loop_
_atom_site_type_symbol
_atom_site_label
_atom_site_fract_x
_atom_site_fract_y
_atom_site_fract_z
Si Si1 0.536246 0.395701 0.343951
Si Si2 0.865426 0.688877 0.691151
Si Si3 0.639291 0.900161 0.959927
Si Si4 0.500000 0.594967 0.250000
Si Si5 0.906335 0.473538 0.060016
Si Si6 0.252502 0.662294 0.597949
Si Si7 0.981514 0.792107 0.887530
Si Si8 0.848918 0.365278 0.655699
O O1 0.535478 0.480756 0.292885
O O2 0.663727 0.350026 0.356989
O O3 0.488883 0.520570 0.383682
O O4 0.460705 0.239321 0.342508
O O5 0.849387 0.499505 0.697662
O O6 0.758115 0.755816 0.663087
O O7 0.977462 0.703888 0.659868
O O8 0.892680 0.790564 0.738522
O O9 0.505511 0.905753 0.953368
O O10 0.697832 0.998618 0.917785
O O11 0.680099 0.723400 0.948849
O O12 0.673204 0.954530 0.013549
O O13 0.838088 0.543884 0.104802
O O14 0.958196 0.297355 0.068666
O O15 0.152559 0.781478 0.611472
#
# Coordination Sequence:
#
# PCOD8246922 Si02
#       8
#     8   8   8   4   8   8   8   8
#     4  11  22  42  67  96 128 169 218 268 336 396
#     4  10  22  42  64  94 127 164 211 267 326 389
#     4  10  20  36  59  94 132 170 220 266 313 391
#     4  10  24  46  62  98 132 158 224 270 314 404
#     4   9  20  38  61  91 130 173 220 267 313 382
#     4  11  20  38  62  93 131 172 212 266 332 386
#     4   9  20  38  61  88 128 168 208 262 323 381
#     4  11  22  42  71  92 128 173 213 264 335 393
#
# _framework density 21.17652
#
# number of rings (size 3 to 8) (size 9 to 14) (size 15 to 20)
#    0.000    1.867    2.667    1.600    0.000    2.667 
#    9.600    2.000    0.000    0.000    0.000    0.000 
#    0.000    0.000    0.000    0.000    0.000    0.000 
#
# Total GULP energy -743522.607831 kJ/mol
# GULP energy per Si atom -12392.043464 kJ/mol
# Density = 2.112832 g / cm^3
# Si number density = 21.176520 Si / 1000 Ang^3
#
#
#
# Elastic Constant Matrix: (Units=GPa)
#
#
# Indices 1 2 3 4 5 6 
#
# 1 90.4903 35.8624 39.5853 0.0000 0.0000 0.0000
# 2 35.8624 109.1744 32.7881 0.0000 0.0000 0.0000
# 3 39.5853 32.7881 90.0299 0.0000 0.0000 0.0000
# 4 0.0000 0.0000 0.0000 31.1601 0.0000 0.0000
# 5 0.0000 0.0000 0.0000 0.0000 29.8894 0.0000
# 6 0.0000 0.0000 0.0000 0.0000 0.0000 31.3671
#
#
#
# Elastic Compliance Matrix: (Units=1/GPa)
#
#
# Indices 1 2 3 4 5 6 
#
# 1 0.014630 -0.003227 -0.005257 0.000000 0.000000 0.000000
# 2 -0.003227 0.010996 -0.002586 0.000000 0.000000 0.000000
# 3 -0.005257 -0.002586 0.014361 0.000000 0.000000 0.000000
# 4 0.000000 0.000000 0.000000 0.032092 0.000000 0.000000
# 5 0.000000 0.000000 0.000000 0.000000 0.033457 0.000000
# 6 0.000000 0.000000 0.000000 0.000000 0.000000 0.031881
#
#
# Mechanical properties :
#
#
# Convention : Reuss Voigt Hill
#
# Bulk Modulus (GPa) = 56.03325 56.24071 56.13698
# Shear Modulus (GPa) = 30.21058 30.58057 30.39558
#
# Velocity S-wave (km/s) = 3.78114 3.80423 3.79270
# Velocity P-wave (km/s) = 6.75131 6.77583 6.76358
#
# Compressibility (1/GPa) = 0.01784655
#
# Stress axis : x y z
#
# Youngs Moduli (GPa) = 68.35497 90.94024 69.63397
#
# Poissons Ratio (x) = 0.29344 0.36609
# Poissons Ratio (y) = 0.22056 0.18007
# Poissons Ratio (z) = 0.35936 0.23517
#
# Static dielectric constant tensor:
#      x y z
#    x 3.790210 0.000000 0.000000 
#    y 0.000000 4.107390 0.000000 
#    z 0.000000 0.000000 3.779210 
# 
# 
# High freq. dielectric constant tensor:
#      x y z
#    x 1.822130 0.000000 0.000000 
#    y 0.000000 1.840650 0.000000 
#    z 0.000000 0.000000 1.807750 
# 
# From -- ./inp_files/25334.got.cif
#   From: 2010.03.12/outbox.cif.g09.slc.cpg/sg60_13_cif.got.tgz:25334.got - 2010.04.10 18:46:24.
