data_PCOD8246394
_publ_section_title
;
Structure prediction by ZEFSAII (Michael W. Deem and Ramdas Pophale) SiO2 
 PCOD8246394
Probable space group: P B C N
;
_chemical_formula_sum "Si O2"
_cell_formula_units_Z 40
_cell_length_a 19.701415
_cell_length_b 5.307331
_cell_length_c 17.459716
_cell_angle_alpha 90.000000
_cell_angle_beta 90.000000
_cell_angle_gamma 90.000000
_cell_volume 1825.621612
_symmetry_space_group_name_H-M "P B C N"
_symmetry_group_IT_number 60
_symmetry_cell_setting 'orthorhombic'
loop_
_space_group_symop_operation_xyz
x,y,z
1/2-x,1/2-y,1/2+z
1/2+x,1/2-y,-z
-x,y,1/2-z
-x,-y,-z
1/2+x,1/2+y,1/2-z
1/2-x,1/2+y,z
x,-y,1/2+z
loop_
_atom_site_type_symbol
_atom_site_label
_atom_site_fract_x
_atom_site_fract_y
_atom_site_fract_z
Si Si1 0.228349 0.375435 0.175670
Si Si2 0.924856 0.913346 0.025997
Si Si3 0.580231 0.115279 0.884124
Si Si4 0.715393 0.376285 0.493343
Si Si5 0.994235 0.880412 0.338503
O O1 0.250175 0.625168 0.222811
O O2 0.149371 0.373661 0.161603
O O3 0.274453 0.373541 0.098292
O O4 0.932830 0.858903 0.117229
O O5 0.865105 0.116707 0.012161
O O6 0.906571 0.667000 0.974768
O O7 0.000000 0.000000 0.000000
O O8 0.533965 0.336816 0.848666
O O9 0.551880 0.834828 0.876764
O O10 0.752609 0.622240 0.529369
O O11 0.000000 0.813980 0.250000
#
# Coordination Sequence:
#
# PCOD8246394 Si02
#       5
#     8   8   8   8   8
#     4  10  18  31  57  88 120 146 194 255 315 348
#     4  10  22  37  64  97 119 158 213 265 300 372
#     4  11  21  38  64  90 117 160 216 256 305 369
#     4  10  20  33  56  89 126 150 190 255 325 352
#     4  11  25  41  59  87 131 168 204 256 321 370
#
# _framework density 21.910346000000001
#
# number of rings (size 3 to 8) (size 9 to 14) (size 15 to 20)
#    0.000    1.600    4.000    2.400    8.400    3.200 
#    0.000    0.000    0.000    7.200    0.000    0.000 
#    0.000    0.000    0.000    0.000    0.000    0.000 
#
# Total GULP energy -495526.626478 kJ/mol
# GULP energy per Si atom -12388.165662 kJ/mol
# Density = 2.186048 g / cm^3
# Si number density = 21.910346 Si / 1000 Ang^3
#
#
#
# Elastic Constant Matrix: (Units=GPa)
#
#
# Indices 1 2 3 4 5 6 
#
# 1 94.3471 33.1923 -11.3299 0.0000 0.0000 0.0000
# 2 33.1923 146.8754 1.7989 0.0000 0.0000 0.0000
# 3 -11.3299 1.7989 49.5166 0.0000 0.0000 0.0000
# 4 0.0000 0.0000 0.0000 12.0110 0.0000 0.0000
# 5 0.0000 0.0000 0.0000 0.0000 9.5538 0.0000
# 6 0.0000 0.0000 0.0000 0.0000 0.0000 26.2050
#
#
#
# Elastic Compliance Matrix: (Units=1/GPa)
#
#
# Indices 1 2 3 4 5 6 
#
# 1 0.011896 -0.002723 0.002821 0.000000 0.000000 0.000000
# 2 -0.002723 0.007435 -0.000893 0.000000 0.000000 0.000000
# 3 0.002821 -0.000893 0.020873 0.000000 0.000000 0.000000
# 4 0.000000 0.000000 0.000000 0.083257 0.000000 0.000000
# 5 0.000000 0.000000 0.000000 0.000000 0.104671 0.000000
# 6 0.000000 0.000000 0.000000 0.000000 0.000000 0.038161
#
#
# Mechanical properties :
#
#
# Convention : Reuss Voigt Hill
#
# Bulk Modulus (GPa) = 25.89777 37.56240 31.73009
# Shear Modulus (GPa) = 17.80924 27.35916 22.58420
#
# Velocity S-wave (km/s) = 2.85410 3.53751 3.21402
# Velocity P-wave (km/s) = 4.76516 5.81947 5.31850
#
# Compressibility (1/GPa) = 0.03861336
#
# Stress axis : x y z
#
# Youngs Moduli (GPa) = 84.06296 134.50309 47.90849
#
# Poissons Ratio (x) = 0.36624 -0.13514
# Poissons Ratio (y) = 0.22889 0.04279
# Poissons Ratio (z) = -0.23713 0.12013
#
# Static dielectric constant tensor:
#      x y z
#    x 4.065050 0.000000 0.000000 
#    y 0.000000 4.984380 0.000000 
#    z 0.000000 0.000000 3.839950 
# 
# 
# High freq. dielectric constant tensor:
#      x y z
#    x 1.866220 0.000000 0.000000 
#    y 0.000000 1.887730 0.000000 
#    z 0.000000 0.000000 1.792650 
# 
# From -- ./inp_files/20729.got.cif
#   From: 2010.03.12/outbox.cif.g09.slc.cpg/sg60_11_cif.got.tgz:20729.got - 2010.04.10 18:46:24.
