data_PCOD8246706
_publ_section_title
;
Structure prediction by ZEFSAII (Michael W. Deem and Ramdas Pophale) SiO2 
 PCOD8246706
Probable space group: P B C N
;
_chemical_formula_sum "Si O2"
_cell_formula_units_Z 64
_cell_length_a 9.305778
_cell_length_b 13.652747
_cell_length_c 23.703605
_cell_angle_alpha 90.000000
_cell_angle_beta 90.000000
_cell_angle_gamma 90.000000
_cell_volume 3011.529568
_symmetry_space_group_name_H-M "P B C N"
_symmetry_group_IT_number 60
_symmetry_cell_setting 'orthorhombic'
loop_
_space_group_symop_operation_xyz
x,y,z
1/2-x,1/2-y,1/2+z
1/2+x,1/2-y,-z
-x,y,1/2-z
-x,-y,-z
1/2+x,1/2+y,1/2-z
1/2-x,1/2+y,z
x,-y,1/2+z
loop_
_atom_site_type_symbol
_atom_site_label
_atom_site_fract_x
_atom_site_fract_y
_atom_site_fract_z
Si Si1 0.123929 0.176527 0.320857
Si Si2 0.914939 0.742661 0.380681
Si Si3 0.321560 0.060532 0.512465
Si Si4 0.225960 0.192699 0.895873
Si Si5 0.626104 0.473731 0.584700
Si Si6 0.097008 0.659446 0.000617
Si Si7 0.699948 0.632731 0.302475
Si Si8 0.165451 0.040244 0.620814
O O1 0.176960 0.284045 0.340705
O O2 0.207124 0.141846 0.264674
O O3 0.951272 0.183431 0.318536
O O4 0.178393 0.099547 0.367084
O O5 0.841219 0.679130 0.331482
O O6 0.883300 0.852676 0.361750
O O7 0.086831 0.736058 0.388459
O O8 0.848274 0.708016 0.440796
O O9 0.422277 0.156945 0.502862
O O10 0.300087 0.051463 0.579539
O O11 0.175695 0.071674 0.475340
O O12 0.379198 0.956014 0.492115
O O13 0.188215 0.079310 0.898496
O O14 0.321180 0.219216 0.951543
O O15 0.453738 0.481745 0.584083
O O16 0.699541 0.519035 0.321934
#
# Coordination Sequence:
#
# PCOD8246706 Si02
#       8
#     8   8   8   8   8   8   8   8
#     4  10  22  41  66  82 119 167 201 266 309 368
#     4  11  23  38  61  93 127 163 208 257 314 381
#     4  10  19  37  58  88 128 164 197 256 309 372
#     4  10  23  39  59  92 123 160 207 253 314 373
#     4   9  20  38  60  89 122 160 207 250 314 383
#     4  10  22  35  58  91 129 161 202 250 310 381
#     4  10  23  43  60  89 118 159 218 252 317 375
#     4  10  21  37  61  89 123 165 205 260 314 378
#
# _framework density 21.251660000000001
#
# number of rings (size 3 to 8) (size 9 to 14) (size 15 to 20)
#    0.000    2.000    1.250    1.125    5.250    1.500 
#    0.000    2.500    0.000    0.000    0.000    0.000 
#    0.000    0.000    0.000    0.000    0.000    0.000 
#
# Total GULP energy -792873.711453 kJ/mol
# GULP energy per Si atom -12388.651741 kJ/mol
# Density = 2.120329 g / cm^3
# Si number density = 21.251660 Si / 1000 Ang^3
#
#
#
# Elastic Constant Matrix: (Units=GPa)
#
#
# Indices 1 2 3 4 5 6 
#
# 1 70.7210 30.4437 29.1643 0.0000 0.0000 0.0000
# 2 30.4437 54.3876 24.5132 0.0000 0.0000 0.0000
# 3 29.1643 24.5132 113.0287 0.0000 0.0000 0.0000
# 4 0.0000 0.0000 0.0000 32.4486 0.0000 0.0000
# 5 0.0000 0.0000 0.0000 0.0000 32.7287 0.0000
# 6 0.0000 0.0000 0.0000 0.0000 0.0000 29.2671
#
#
#
# Elastic Compliance Matrix: (Units=1/GPa)
#
#
# Indices 1 2 3 4 5 6 
#
# 1 0.019477 -0.009573 -0.002949 0.000000 0.000000 0.000000
# 2 -0.009573 0.025084 -0.002970 0.000000 0.000000 0.000000
# 3 -0.002949 -0.002970 0.010252 0.000000 0.000000 0.000000
# 4 0.000000 0.000000 0.000000 0.030818 0.000000 0.000000
# 5 0.000000 0.000000 0.000000 0.000000 0.030554 0.000000
# 6 0.000000 0.000000 0.000000 0.000000 0.000000 0.034168
#
#
# Mechanical properties :
#
#
# Convention : Reuss Voigt Hill
#
# Bulk Modulus (GPa) = 41.96671 45.15332 43.56001
# Shear Modulus (GPa) = 26.41563 29.15663 27.78613
#
# Velocity S-wave (km/s) = 3.52943 3.70803 3.61983
# Velocity P-wave (km/s) = 6.03321 6.29490 6.16544
#
# Compressibility (1/GPa) = 0.02382841
#
# Stress axis : x y z
#
# Youngs Moduli (GPa) = 51.34148 39.86644 97.53755
#
# Poissons Ratio (x) = 0.38165 0.28769
# Poissons Ratio (y) = 0.49150 0.28968
# Poissons Ratio (z) = 0.15143 0.11840
#
# Static dielectric constant tensor:
#      x y z
#    x 4.071820 0.000000 0.000000 
#    y 0.000000 3.742900 0.000000 
#    z 0.000000 0.000000 3.723550 
# 
# 
# High freq. dielectric constant tensor:
#      x y z
#    x 1.833310 0.000000 0.000000 
#    y 0.000000 1.829870 0.000000 
#    z 0.000000 0.000000 1.817890 
# 
# From -- ./inp_files/24064.got.cif
#   From: 2010.03.12/outbox.cif.g09.slc.cpg/sg60_13_cif.got.tgz:24064.got - 2010.04.10 18:46:24.
