data_PCOD8246626
_publ_section_title
;
Structure prediction by ZEFSAII (Michael W. Deem and Ramdas Pophale) SiO2 
 PCOD8246626
Probable space group: P B C N
;
_chemical_formula_sum "Si O2"
_cell_formula_units_Z 48
_cell_length_a 6.956293
_cell_length_b 25.443157
_cell_length_c 13.508767
_cell_angle_alpha 90.000000
_cell_angle_beta 90.000000
_cell_angle_gamma 90.000000
_cell_volume 2390.917413
_symmetry_space_group_name_H-M "P B C N"
_symmetry_group_IT_number 60
_symmetry_cell_setting 'orthorhombic'
loop_
_space_group_symop_operation_xyz
x,y,z
1/2-x,1/2-y,1/2+z
1/2+x,1/2-y,-z
-x,y,1/2-z
-x,-y,-z
1/2+x,1/2+y,1/2-z
1/2-x,1/2+y,z
x,-y,1/2+z
loop_
_atom_site_type_symbol
_atom_site_label
_atom_site_fract_x
_atom_site_fract_y
_atom_site_fract_z
Si Si1 0.760081 0.307533 0.526014
Si Si2 0.889048 0.668676 0.351817
Si Si3 0.064366 0.750560 0.643301
Si Si4 0.946379 0.555759 0.362380
Si Si5 0.665270 0.571131 0.037754
Si Si6 0.582227 0.506804 0.854229
O O1 0.618789 0.265617 0.576582
O O2 0.673262 0.365911 0.538090
O O3 0.969299 0.301005 0.574216
O O4 0.799414 0.292416 0.411070
O O5 0.686997 0.697057 0.337843
O O6 0.844459 0.610425 0.395311
O O7 0.000000 0.665011 0.250000
O O8 0.000000 0.727517 0.750000
O O9 0.808122 0.505637 0.360751
O O10 0.000000 0.565058 0.250000
O O11 0.125143 0.546293 0.437216
O O12 0.531226 0.547292 0.123835
O O13 0.563934 0.552733 0.935511
O O14 0.500000 0.528660 0.750000
#
# Coordination Sequence:
#
# PCOD8246626 Si02
#       6
#     8   8   8   8   8   8
#     4  11  23  40  59  90 122 160 201 247 301 362
#     4  10  20  35  59  92 118 151 200 250 300 352
#     4  12  23  38  64  88 121 160 201 251 299 355
#     4  10  19  34  60  88 116 149 193 247 297 347
#     4  10  23  39  59  85 122 155 195 245 300 357
#     4  11  21  38  61  88 116 155 199 244 295 356
#
# _framework density 20.075977000000002
#
# number of rings (size 3 to 8) (size 9 to 14) (size 15 to 20)
#    0.000    1.333    5.000    1.500    0.000    1.333 
#    0.000    3.333    3.667    0.000    0.000    0.000 
#    0.000    0.000    0.000    0.000    0.000    0.000 
#
# Total GULP energy -594803.780988 kJ/mol
# GULP energy per Si atom -12391.745437 kJ/mol
# Density = 2.003028 g / cm^3
# Si number density = 20.075977 Si / 1000 Ang^3
#
#
#
# Elastic Constant Matrix: (Units=GPa)
#
#
# Indices 1 2 3 4 5 6 
#
# 1 60.0754 9.1299 25.0713 0.0000 0.0000 0.0000
# 2 9.1299 42.9944 22.9456 0.0000 0.0000 0.0000
# 3 25.0713 22.9456 120.3946 0.0000 0.0000 0.0000
# 4 0.0000 0.0000 0.0000 20.2267 0.0000 0.0000
# 5 0.0000 0.0000 0.0000 0.0000 35.1521 0.0000
# 6 0.0000 0.0000 0.0000 0.0000 0.0000 -12.3824
#
#
#
# Elastic Compliance Matrix: (Units=1/GPa)
#
#
# Indices 1 2 3 4 5 6 
#
# 1 0.018394 -0.002073 -0.003436 0.000000 0.000000 0.000000
# 2 -0.002073 0.026126 -0.004548 0.000000 0.000000 0.000000
# 3 -0.003436 -0.004548 0.009888 0.000000 0.000000 0.000000
# 4 0.000000 0.000000 0.000000 0.049439 0.000000 0.000000
# 5 0.000000 0.000000 0.000000 0.000000 0.028448 0.000000
# 6 0.000000 0.000000 0.000000 0.000000 0.000000 -0.080760
#
#
# Mechanical properties :
#
#
# Convention : Reuss Voigt Hill
#
# Bulk Modulus (GPa) = 29.15697 37.52865 33.34281
# Shear Modulus (GPa) = 60.18313 19.68713 39.93513
#
# Velocity S-wave (km/s) = 5.48113 3.13490 4.46488
# Velocity P-wave (km/s) = 7.38998 5.64246 6.57454
#
# Compressibility (1/GPa) = 0.03429711
#
# Stress axis : x y z
#
# Youngs Moduli (GPa) = 54.36421 38.27608 101.13102
#
# Poissons Ratio (x) = 0.07933 0.34744
# Poissons Ratio (y) = 0.11267 0.45991
# Poissons Ratio (z) = 0.18677 0.17407
#
# Static dielectric constant tensor:
#      x y z
#    x 3.240130 0.000000 0.000000 
#    y 0.000000 3.497560 0.000000 
#    z 0.000000 0.000000 4.850300 
# 
# 
# High freq. dielectric constant tensor:
#      x y z
#    x 1.791860 0.000000 0.000000 
#    y 0.000000 1.759820 0.000000 
#    z 0.000000 0.000000 1.782990 
# 
# From -- ./inp_files/13920.got.cif
#   From: 2010.03.12/outbox.cif.g09.slc.cpg/sg60_7_cif.got.tgz:13920.got - 2010.04.10 18:46:24.
