data_PCOD8246542
_publ_section_title
;
Structure prediction by ZEFSAII (Michael W. Deem and Ramdas Pophale) SiO2 
 PCOD8246542
Probable space group: P B C N
;
_chemical_formula_sum "Si O2"
_cell_formula_units_Z 48
_cell_length_a 18.437144
_cell_length_b 9.138877
_cell_length_c 16.028712
_cell_angle_alpha 90.000000
_cell_angle_beta 90.000000
_cell_angle_gamma 90.000000
_cell_volume 2700.754482
_symmetry_space_group_name_H-M "P B C N"
_symmetry_group_IT_number 60
_symmetry_cell_setting 'orthorhombic'
loop_
_space_group_symop_operation_xyz
x,y,z
1/2-x,1/2-y,1/2+z
1/2+x,1/2-y,-z
-x,y,1/2-z
-x,-y,-z
1/2+x,1/2+y,1/2-z
1/2-x,1/2+y,z
x,-y,1/2+z
loop_
_atom_site_type_symbol
_atom_site_label
_atom_site_fract_x
_atom_site_fract_y
_atom_site_fract_z
Si Si1 0.417603 0.756268 0.751012
Si Si2 0.827598 0.749648 0.902022
Si Si3 0.797187 0.937362 0.325482
Si Si4 0.675833 0.793748 0.591367
Si Si5 0.080390 0.404305 0.226530
Si Si6 0.708799 0.910275 0.163021
O O1 0.500000 0.698934 0.750000
O O2 0.370190 0.653868 0.691205
O O3 0.388430 0.748686 0.845778
O O4 0.413013 0.920947 0.715816
O O5 0.754450 0.658747 0.884834
O O6 0.896831 0.673235 0.859203
O O7 0.818298 0.914252 0.870877
O O8 0.846827 0.753051 0.999344
O O9 0.756195 0.976562 0.239338
O O10 0.751255 0.719091 0.616225
O O11 0.690907 0.966176 0.595351
O O12 0.133897 0.347334 0.299416
O O13 0.000000 0.354355 0.250000
#
# Coordination Sequence:
#
# PCOD8246542 Si02
#       6
#     8   8   8   8   8   8
#     4   9  19  37  55  71 100 141 171 198 249 311
#     4  11  20  32  51  79 102 126 166 217 252 286
#     4  10  19  33  53  73 100 135 169 201 249 306
#     4  10  19  32  51  76 101 126 166 214 251 289
#     4   9  18  34  53  73 100 135 172 203 246 307
#     4   9  17  32  51  70  96 133 165 197 247 305
#
# _framework density 17.772811999999998
#
# number of rings (size 3 to 8) (size 9 to 14) (size 15 to 20)
#    0.000    2.333    0.000    6.000    0.000    0.667 
#    0.000   10.000    0.000    0.000    0.000    0.000 
#    0.000    0.000    0.000    0.000    0.000    0.000 
#
# Total GULP energy -595273.676795 kJ/mol
# GULP energy per Si atom -12401.534933 kJ/mol
# Density = 1.773236 g / cm^3
# Si number density = 17.772812 Si / 1000 Ang^3
#
#
#
# Elastic Constant Matrix: (Units=GPa)
#
#
# Indices 1 2 3 4 5 6 
#
# 1 147.6738 44.7827 51.0520 0.0000 0.0000 0.0000
# 2 44.7827 73.3394 49.5804 0.0000 0.0000 0.0000
# 3 51.0520 49.5804 113.4585 0.0000 0.0000 0.0000
# 4 0.0000 0.0000 0.0000 19.2949 0.0000 0.0000
# 5 0.0000 0.0000 0.0000 0.0000 14.7432 0.0000
# 6 0.0000 0.0000 0.0000 0.0000 0.0000 27.8136
#
#
#
# Elastic Compliance Matrix: (Units=1/GPa)
#
#
# Indices 1 2 3 4 5 6 
#
# 1 0.008701 -0.003784 -0.002261 0.000000 0.000000 0.000000
# 2 -0.003784 0.020998 -0.007473 0.000000 0.000000 0.000000
# 3 -0.002261 -0.007473 0.013097 0.000000 0.000000 0.000000
# 4 0.000000 0.000000 0.000000 0.051827 0.000000 0.000000
# 5 0.000000 0.000000 0.000000 0.000000 0.067828 0.000000
# 6 0.000000 0.000000 0.000000 0.000000 0.000000 0.035954
#
#
# Mechanical properties :
#
#
# Convention : Reuss Voigt Hill
#
# Bulk Modulus (GPa) = 63.45803 69.47799 66.46801
# Shear Modulus (GPa) = 21.67356 24.97411 23.32383
#
# Velocity S-wave (km/s) = 3.49589 3.75265 3.62654
# Velocity P-wave (km/s) = 7.21648 7.61273 7.41725
#
# Compressibility (1/GPa) = 0.01575845
#
# Stress axis : x y z
#
# Youngs Moduli (GPa) = 114.92845 47.62310 76.35250
#
# Poissons Ratio (x) = 0.18022 0.17267
# Poissons Ratio (y) = 0.43491 0.57061
# Poissons Ratio (z) = 0.25991 0.35590
#
# Static dielectric constant tensor:
#      x y z
#    x 3.418360 0.000000 0.000000 
#    y 0.000000 3.232740 0.000000 
#    z 0.000000 0.000000 3.182300 
# 
# 
# High freq. dielectric constant tensor:
#      x y z
#    x 1.685260 0.000000 0.000000 
#    y 0.000000 1.688610 0.000000 
#    z 0.000000 0.000000 1.673960 
# 
# From -- ./inp_files/17318.got.cif
#   From: 2010.03.12/outbox.cif.g09.slc.cpg/sg60_9_cif.got.tgz:17318.got - 2010.04.10 18:46:24.
