data_PCOD8246565
_publ_section_title
;
Structure prediction by ZEFSAII (Michael W. Deem and Ramdas Pophale) SiO2 
 PCOD8246565
Probable space group: P B C N
;
_chemical_formula_sum "Si O2"
_cell_formula_units_Z 48
_cell_length_a 23.769185
_cell_length_b 5.299687
_cell_length_c 21.175079
_cell_angle_alpha 90.000000
_cell_angle_beta 90.000000
_cell_angle_gamma 90.000000
_cell_volume 2667.408624
_symmetry_space_group_name_H-M "P B C N"
_symmetry_group_IT_number 60
_symmetry_cell_setting 'orthorhombic'
loop_
_space_group_symop_operation_xyz
x,y,z
1/2-x,1/2-y,1/2+z
1/2+x,1/2-y,-z
-x,y,1/2-z
-x,-y,-z
1/2+x,1/2+y,1/2-z
1/2-x,1/2+y,z
x,-y,1/2+z
loop_
_atom_site_type_symbol
_atom_site_label
_atom_site_fract_x
_atom_site_fract_y
_atom_site_fract_z
Si Si1 0.720561 0.538939 0.488040
Si Si2 0.534564 0.820576 0.813339
Si Si3 0.278573 0.569214 0.161177
Si Si4 0.595989 0.693936 0.343025
Si Si5 0.499199 0.802056 0.554576
Si Si6 0.592345 0.442257 0.979404
O O1 0.753546 0.297226 0.516998
O O2 0.729032 0.550033 0.413582
O O3 0.654751 0.509562 0.505954
O O4 0.500000 0.837674 0.750000
O O5 0.555563 0.533394 0.821140
O O6 0.494154 0.895007 0.873228
O O7 0.581917 0.039170 0.809999
O O8 0.257326 0.302949 0.189629
O O9 0.342731 0.611898 0.180092
O O10 0.594398 0.749136 0.419209
O O11 0.436298 0.687297 0.551444
O O12 0.552590 0.625407 0.538757
O O13 0.500000 0.000000 0.500000
#
# Coordination Sequence:
#
# PCOD8246565 Si02
#       6
#     8   8   8   8   8   8
#     4   9  18  28  44  70 104 134 161 204 258 303
#     4  11  22  35  51  75 106 137 172 210 259 311
#     4   9  16  27  45  72  99 127 163 203 253 302
#     4  10  19  33  51  73 106 137 163 212 256 299
#     4  10  19  33  53  75 105 138 174 214 260 307
#     4   9  19  31  50  77 104 136 173 211 256 310
#
# _framework density 17.994993999999998
#
# number of rings (size 3 to 8) (size 9 to 14) (size 15 to 20)
#    0.000    2.333    1.667    1.500    2.333    4.000 
#    0.000    0.000    0.000    0.000    0.000    7.000 
#    0.000    0.000    0.000    0.000    0.000    0.000 
#
# Total GULP energy -594667.981716 kJ/mol
# GULP energy per Si atom -12388.916286 kJ/mol
# Density = 1.795404 g / cm^3
# Si number density = 17.994994 Si / 1000 Ang^3
#
#
#
# Elastic Constant Matrix: (Units=GPa)
#
#
# Indices 1 2 3 4 5 6 
#
# 1 125.2555 36.1960 33.5832 0.0000 0.0000 0.0000
# 2 36.1960 99.5157 16.4241 0.0000 0.0000 0.0000
# 3 33.5832 16.4241 76.6087 0.0000 0.0000 0.0000
# 4 0.0000 0.0000 0.0000 16.9291 0.0000 0.0000
# 5 0.0000 0.0000 0.0000 0.0000 13.8979 0.0000
# 6 0.0000 0.0000 0.0000 0.0000 0.0000 23.2067
#
#
#
# Elastic Compliance Matrix: (Units=1/GPa)
#
#
# Indices 1 2 3 4 5 6 
#
# 1 0.009826 -0.002968 -0.003671 0.000000 0.000000 0.000000
# 2 -0.002968 0.011314 -0.001124 0.000000 0.000000 0.000000
# 3 -0.003671 -0.001124 0.014904 0.000000 0.000000 0.000000
# 4 0.000000 0.000000 0.000000 0.059070 0.000000 0.000000
# 5 0.000000 0.000000 0.000000 0.000000 0.071953 0.000000
# 6 0.000000 0.000000 0.000000 0.000000 0.000000 0.043091
#
#
# Mechanical properties :
#
#
# Convention : Reuss Voigt Hill
#
# Bulk Modulus (GPa) = 48.74188 52.64295 50.69242
# Shear Modulus (GPa) = 21.50326 25.15184 23.32755
#
# Velocity S-wave (km/s) = 3.46057 3.74266 3.60437
# Velocity P-wave (km/s) = 6.56601 6.92780 6.74933
#
# Compressibility (1/GPa) = 0.02051624
#
# Stress axis : x y z
#
# Youngs Moduli (GPa) = 101.77495 88.38804 67.09746
#
# Poissons Ratio (x) = 0.26233 0.24631
# Poissons Ratio (y) = 0.30206 0.07545
# Poissons Ratio (z) = 0.37362 0.09939
#
# Static dielectric constant tensor:
#      x y z
#    x 4.866670 0.000000 0.000000 
#    y 0.000000 3.672240 0.000000 
#    z 0.000000 0.000000 57.027730 
# 
# 
# High freq. dielectric constant tensor:
#      x y z
#    x 1.696900 0.000000 0.000000 
#    y 0.000000 1.710830 0.000000 
#    z 0.000000 0.000000 1.632550 
# 
# From -- ./inp_files/21126.got.cif
#   From: 2010.03.12/outbox.cif.g09.slc.cpg/sg60_11_cif.got.tgz:21126.got - 2010.04.10 18:46:24.
