data_PCOD8246440
_publ_section_title
;
Structure prediction by ZEFSAII (Michael W. Deem and Ramdas Pophale) SiO2 
 PCOD8246440
Probable space group: P B C N
;
_chemical_formula_sum "Si O2"
_cell_formula_units_Z 64
_cell_length_a 14.250747
_cell_length_b 9.235836
_cell_length_c 22.075985
_cell_angle_alpha 90.000000
_cell_angle_beta 90.000000
_cell_angle_gamma 90.000000
_cell_volume 2905.587328
_symmetry_space_group_name_H-M "P B C N"
_symmetry_group_IT_number 60
_symmetry_cell_setting 'orthorhombic'
loop_
_space_group_symop_operation_xyz
x,y,z
1/2-x,1/2-y,1/2+z
1/2+x,1/2-y,-z
-x,y,1/2-z
-x,-y,-z
1/2+x,1/2+y,1/2-z
1/2-x,1/2+y,z
x,-y,1/2+z
loop_
_atom_site_type_symbol
_atom_site_label
_atom_site_fract_x
_atom_site_fract_y
_atom_site_fract_z
Si Si1 0.651682 0.245564 0.461249
Si Si2 0.009873 0.953054 0.103557
Si Si3 0.161710 0.582850 0.569759
Si Si4 0.859884 0.963151 0.290963
Si Si5 0.686511 0.784823 0.305853
Si Si6 0.824355 0.984469 0.156158
Si Si7 0.983020 0.731722 0.567438
Si Si8 0.646995 0.189374 0.670181
O O1 0.564781 0.324564 0.428535
O O2 0.745805 0.342712 0.459059
O O3 0.614075 0.224126 0.529347
O O4 0.674369 0.089898 0.431573
O O5 0.042031 0.961057 0.173875
O O6 0.897359 0.926759 0.105219
O O7 0.026520 0.106139 0.069950
O O8 0.135826 0.641850 0.637042
O O9 0.064271 0.631350 0.536842
O O10 0.794195 0.833565 0.313807
O O11 0.871720 0.941047 0.219861
O O12 0.808994 0.112582 0.308937
O O13 0.636512 0.834978 0.242860
O O14 0.721858 0.923169 0.143875
O O15 0.810371 0.155112 0.154687
O O16 0.952239 0.676038 0.635147
#
# Coordination Sequence:
#
# PCOD8246440 Si02
#       8
#     8   8   8   8   8   8   8   8
#     4  12  27  42  66  95 128 170 221 268 321 390
#     4  11  21  39  62  91 126 167 215 262 318 381
#     4  12  24  44  66  92 127 167 211 274 325 383
#     4  10  18  34  59  92 123 163 207 257 319 383
#     4  10  19  36  64  92 126 160 209 259 323 378
#     4   9  20  35  60  89 126 166 205 262 321 380
#     4  11  25  44  65  94 126 172 221 263 324 386
#     4   9  21  38  62  93 126 166 209 263 323 384
#
# _framework density 22.026529
#
# number of rings (size 3 to 8) (size 9 to 14) (size 15 to 20)
#    0.000    1.500    2.500    2.625    0.000    4.500 
#    0.000    0.000    2.750    0.000    0.000    0.000 
#    0.000    0.000    0.000    0.000    0.000    0.000 
#
# Total GULP energy -793161.662155 kJ/mol
# GULP energy per Si atom -12393.150971 kJ/mol
# Density = 2.197640 g / cm^3
# Si number density = 22.026529 Si / 1000 Ang^3
#
#
#
# Elastic Constant Matrix: (Units=GPa)
#
#
# Indices 1 2 3 4 5 6 
#
# 1 82.9313 47.0926 25.7198 0.0000 0.0000 0.0000
# 2 47.0926 102.2722 15.2347 0.0000 0.0000 0.0000
# 3 25.7198 15.2347 52.5838 0.0000 0.0000 0.0000
# 4 0.0000 0.0000 0.0000 21.1472 0.0000 0.0000
# 5 0.0000 0.0000 0.0000 0.0000 34.3958 0.0000
# 6 0.0000 0.0000 0.0000 0.0000 0.0000 34.9219
#
#
#
# Elastic Compliance Matrix: (Units=1/GPa)
#
#
# Indices 1 2 3 4 5 6 
#
# 1 0.018418 -0.007461 -0.006847 0.000000 0.000000 0.000000
# 2 -0.007461 0.013241 -0.000187 0.000000 0.000000 0.000000
# 3 -0.006847 -0.000187 0.022421 0.000000 0.000000 0.000000
# 4 0.000000 0.000000 0.000000 0.047288 0.000000 0.000000
# 5 0.000000 0.000000 0.000000 0.000000 0.029073 0.000000
# 6 0.000000 0.000000 0.000000 0.000000 0.000000 0.028635
#
#
# Mechanical properties :
#
#
# Convention : Reuss Voigt Hill
#
# Bulk Modulus (GPa) = 39.85675 45.98682 42.92178
# Shear Modulus (GPa) = 25.45434 28.07566 26.76500
#
# Velocity S-wave (km/s) = 3.40313 3.57407 3.48965
# Velocity P-wave (km/s) = 5.79447 6.16078 5.98043
#
# Compressibility (1/GPa) = 0.02508985
#
# Stress axis : x y z
#
# Youngs Moduli (GPa) = 54.29332 75.52182 44.60197
#
# Poissons Ratio (x) = 0.56347 0.30540
# Poissons Ratio (y) = 0.40509 0.00834
# Poissons Ratio (z) = 0.37176 0.01412
#
# Static dielectric constant tensor:
#      x y z
#    x 3.951940 0.000000 0.000000 
#    y 0.000000 3.924860 0.000000 
#    z 0.000000 0.000000 4.322790 
# 
# 
# High freq. dielectric constant tensor:
#      x y z
#    x 1.868320 0.000000 0.000000 
#    y 0.000000 1.856980 0.000000 
#    z 0.000000 0.000000 1.862870 
# 
# From -- ./inp_files/24461.got.cif
#   From: 2010.03.12/outbox.cif.g09.slc.cpg/sg60_13_cif.got.tgz:24461.got - 2010.04.10 18:46:24.
