data_PCOD8246567
_publ_section_title
;
Structure prediction by ZEFSAII (Michael W. Deem and Ramdas Pophale) SiO2 
 PCOD8246567
Probable space group: P B C N
;
_chemical_formula_sum "Si O2"
_cell_formula_units_Z 64
_cell_length_a 11.244433
_cell_length_b 31.350681
_cell_length_c 9.169361
_cell_angle_alpha 90.000000
_cell_angle_beta 90.000000
_cell_angle_gamma 90.000000
_cell_volume 3232.388935
_symmetry_space_group_name_H-M "P B C N"
_symmetry_group_IT_number 60
_symmetry_cell_setting 'orthorhombic'
loop_
_space_group_symop_operation_xyz
x,y,z
1/2-x,1/2-y,1/2+z
1/2+x,1/2-y,-z
-x,y,1/2-z
-x,-y,-z
1/2+x,1/2+y,1/2-z
1/2-x,1/2+y,z
x,-y,1/2+z
loop_
_atom_site_type_symbol
_atom_site_label
_atom_site_fract_x
_atom_site_fract_y
_atom_site_fract_z
Si Si1 0.437964 0.329908 0.611441
Si Si2 0.765788 0.833739 0.361632
Si Si3 0.992731 0.681577 0.921286
Si Si4 0.276976 0.140661 0.957370
Si Si5 0.657825 0.553200 0.547879
Si Si6 0.457972 0.733773 0.591700
Si Si7 0.584106 0.594509 0.009407
Si Si8 0.360969 0.527081 0.271364
O O1 0.500000 0.305588 0.750000
O O2 0.297557 0.342327 0.600496
O O3 0.450611 0.301163 0.468831
O O4 0.512727 0.373265 0.611672
O O5 0.642831 0.832287 0.454731
O O6 0.750536 0.831854 0.187933
O O7 0.830555 0.789849 0.408282
O O8 0.836324 0.877649 0.398545
O O9 0.000000 0.687714 0.750000
O O10 0.081558 0.645033 0.984428
O O11 0.040263 0.724946 0.991910
O O12 0.244618 0.092326 0.919992
O O13 0.517749 0.565707 0.569205
O O14 0.693491 0.536552 0.386656
O O15 0.690410 0.517119 0.665783
O O16 0.500000 0.748043 0.750000
O O17 0.666714 0.564885 0.111996
O O18 0.500000 0.523209 0.250000
#
# Coordination Sequence:
#
# PCOD8246567 Si02
#       8
#     8   8   8   8   8   8   8   8
#     4  10  19  34  58  86 117 160 192 245 305 361
#     4  10  22  38  63  88 119 162 204 251 310 362
#     4  10  24  43  60  86 116 166 210 254 301 365
#     4  10  21  39  61  83 124 164 207 244 306 373
#     4  10  21  32  59  87 125 153 192 248 305 361
#     4  11  22  39  59  91 119 148 204 257 313 365
#     4   9  18  32  54  85 123 149 193 238 299 362
#     4  10  19  33  51  93 124 150 191 238 309 362
#
# _framework density 19.799598
#
# number of rings (size 3 to 8) (size 9 to 14) (size 15 to 20)
#    0.000    2.000    1.250    3.750    5.250    0.000 
#    6.750    0.000    0.000    0.750    0.000    0.000 
#    0.000    0.000    0.000    0.000    0.000    0.000 
#
# Total GULP energy -792914.539296 kJ/mol
# GULP energy per Si atom -12389.289676 kJ/mol
# Density = 1.975453 g / cm^3
# Si number density = 19.799598 Si / 1000 Ang^3
#
#
#
# Elastic Constant Matrix: (Units=GPa)
#
#
# Indices 1 2 3 4 5 6 
#
# 1 116.5319 43.8427 34.6962 0.0000 0.0000 0.0000
# 2 43.8427 93.4411 23.3502 0.0000 0.0000 0.0000
# 3 34.6962 23.3502 62.4482 0.0000 0.0000 0.0000
# 4 0.0000 0.0000 0.0000 27.5092 0.0000 0.0000
# 5 0.0000 0.0000 0.0000 0.0000 17.4029 0.0000
# 6 0.0000 0.0000 0.0000 0.0000 0.0000 12.0220
#
#
#
# Elastic Compliance Matrix: (Units=1/GPa)
#
#
# Indices 1 2 3 4 5 6 
#
# 1 0.011627 -0.004237 -0.004876 0.000000 0.000000 0.000000
# 2 -0.004237 0.013349 -0.002637 0.000000 0.000000 0.000000
# 3 -0.004876 -0.002637 0.019708 0.000000 0.000000 0.000000
# 4 0.000000 0.000000 0.000000 0.036351 0.000000 0.000000
# 5 0.000000 0.000000 0.000000 0.000000 0.057462 0.000000
# 6 0.000000 0.000000 0.000000 0.000000 0.000000 0.083181
#
#
# Mechanical properties :
#
#
# Convention : Reuss Voigt Hill
#
# Bulk Modulus (GPa) = 47.20464 52.91105 50.05785
# Shear Modulus (GPa) = 19.82240 22.75563 21.28902
#
# Velocity S-wave (km/s) = 3.16753 3.39381 3.28262
# Velocity P-wave (km/s) = 6.10497 6.49142 6.30116
#
# Compressibility (1/GPa) = 0.02118436
#
# Stress axis : x y z
#
# Youngs Moduli (GPa) = 86.00548 74.91196 50.73991
#
# Poissons Ratio (x) = 0.31741 0.24740
# Poissons Ratio (y) = 0.36441 0.13381
# Poissons Ratio (z) = 0.41934 0.19756
#
# Static dielectric constant tensor:
#      x y z
#    x 3.617160 0.000000 0.000000 
#    y 0.000000 3.737400 0.000000 
#    z 0.000000 0.000000 5.758190 
# 
# 
# High freq. dielectric constant tensor:
#      x y z
#    x 1.729900 0.000000 0.000000 
#    y 0.000000 1.773430 0.000000 
#    z 0.000000 0.000000 1.773070 
# 
# From -- ./inp_files/5319.got.cif
#   From: 2010.03.12/outbox.cif.g09.slc.cpg/sg60_3_cif.got.tgz:5319.got - 2010.04.10 18:46:24.
