data_PCOD8246611
_publ_section_title
;
Structure prediction by ZEFSAII (Michael W. Deem and Ramdas Pophale) SiO2 
 PCOD8246611
Probable space group: P B C N
;
_chemical_formula_sum "Si O2"
_cell_formula_units_Z 32
_cell_length_a 8.751076
_cell_length_b 19.373996
_cell_length_c 10.175277
_cell_angle_alpha 90.000000
_cell_angle_beta 90.000000
_cell_angle_gamma 90.000000
_cell_volume 1725.150157
_symmetry_space_group_name_H-M "P B C N"
_symmetry_group_IT_number 60
_symmetry_cell_setting 'orthorhombic'
loop_
_space_group_symop_operation_xyz
x,y,z
1/2-x,1/2-y,1/2+z
1/2+x,1/2-y,-z
-x,y,1/2-z
-x,-y,-z
1/2+x,1/2+y,1/2-z
1/2-x,1/2+y,z
x,-y,1/2+z
loop_
_atom_site_type_symbol
_atom_site_label
_atom_site_fract_x
_atom_site_fract_y
_atom_site_fract_z
Si Si1 0.100652 0.025723 0.378083
Si Si2 0.555135 0.264449 0.104556
Si Si3 0.729687 0.343998 0.488439
Si Si4 0.679190 0.610312 0.713608
O O1 0.194795 0.094091 0.411578
O O2 0.000000 0.042835 0.250000
O O3 0.223119 0.963594 0.349118
O O4 0.000000 0.000000 0.500000
O O5 0.500000 0.243739 0.250000
O O6 0.622434 0.196832 0.037125
O O7 0.686971 0.324544 0.113674
O O8 0.414496 0.292471 0.018257
O O9 0.774445 0.375023 0.345746
O O10 0.500000 0.603836 0.750000
#
# Coordination Sequence:
#
# PCOD8246611 Si02
#       4
#     8   8   8   8
#     4  11  17  31  56  85 107 145 200 242 272 328
#     4   9  19  35  53  81 118 146 184 243 289 340
#     4  10  19  34  57  82 112 148 186 243 288 335
#     4   8  16  32  50  76 111 137 184 244 269 319
#
# _framework density 18.549109000000001
#
# number of rings (size 3 to 8) (size 9 to 14) (size 15 to 20)
#    0.000    3.000    7.500    0.000    0.000    4.000 
#    0.000    0.000    0.000    6.000    0.000    0.000 
#    0.000    0.000    0.000    0.000    0.000    0.000 
#
# Total GULP energy -396475.670038 kJ/mol
# GULP energy per Si atom -12389.864689 kJ/mol
# Density = 1.850689 g / cm^3
# Si number density = 18.549109 Si / 1000 Ang^3
#
#
#
# Elastic Constant Matrix: (Units=GPa)
#
#
# Indices 1 2 3 4 5 6 
#
# 1 32.2975 43.6096 27.8888 0.0000 0.0000 0.0000
# 2 43.6096 140.4092 54.7198 0.0000 0.0000 0.0000
# 3 27.8888 54.7198 86.9188 0.0000 0.0000 0.0000
# 4 0.0000 0.0000 0.0000 35.6773 0.0000 0.0000
# 5 0.0000 0.0000 0.0000 0.0000 20.8525 0.0000
# 6 0.0000 0.0000 0.0000 0.0000 0.0000 32.3471
#
#
#
# Elastic Compliance Matrix: (Units=1/GPa)
#
#
# Indices 1 2 3 4 5 6 
#
# 1 0.059019 -0.014511 -0.009802 0.000000 0.000000 0.000000
# 2 -0.014511 0.013005 -0.003532 0.000000 0.000000 0.000000
# 3 -0.009802 -0.003532 0.016873 0.000000 0.000000 0.000000
# 4 0.000000 0.000000 0.000000 0.028029 0.000000 0.000000
# 5 0.000000 0.000000 0.000000 0.000000 0.047956 0.000000
# 6 0.000000 0.000000 0.000000 0.000000 0.000000 0.030915
#
#
# Mechanical properties :
#
#
# Convention : Reuss Voigt Hill
#
# Bulk Modulus (GPa) = 30.11175 56.89577 43.50376
# Shear Modulus (GPa) = 19.04364 26.66920 22.85642
#
# Velocity S-wave (km/s) = 3.20763 3.79590 3.51409
# Velocity P-wave (km/s) = 5.47607 7.06763 6.32213
#
# Compressibility (1/GPa) = 0.03320963
#
# Stress axis : x y z
#
# Youngs Moduli (GPa) = 16.94368 76.89198 59.26561
#
# Poissons Ratio (x) = 1.11577 0.58090
# Poissons Ratio (y) = 0.24587 0.20930
# Poissons Ratio (z) = 0.16607 0.27154
#
# Static dielectric constant tensor:
#      x y z
#    x 2.743290 0.000000 0.000000 
#    y 0.000000 4.086100 0.000000 
#    z 0.000000 0.000000 3.639690 
# 
# 
# High freq. dielectric constant tensor:
#      x y z
#    x 1.647800 0.000000 0.000000 
#    y 0.000000 1.739920 0.000000 
#    z 0.000000 0.000000 1.723510 
# 
# From -- ./inp_files/3596.got.cif
#   From: 2010.03.12/outbox.cif.g09.slc.cpg/sg60_2_cif.got.tgz:3596.got - 2010.04.10 18:46:24.
