data_PCOD8246790
_publ_section_title
;
Structure prediction by ZEFSAII (Michael W. Deem and Ramdas Pophale) SiO2 
 PCOD8246790
Probable space group: P B C N
;
_chemical_formula_sum "Si O2"
_cell_formula_units_Z 64
_cell_length_a 13.239524
_cell_length_b 31.187635
_cell_length_c 9.234287
_cell_angle_alpha 90.000000
_cell_angle_beta 90.000000
_cell_angle_gamma 90.000000
_cell_volume 3812.924293
_symmetry_space_group_name_H-M "P B C N"
_symmetry_group_IT_number 60
_symmetry_cell_setting 'orthorhombic'
loop_
_space_group_symop_operation_xyz
x,y,z
1/2-x,1/2-y,1/2+z
1/2+x,1/2-y,-z
-x,y,1/2-z
-x,-y,-z
1/2+x,1/2+y,1/2-z
1/2-x,1/2+y,z
x,-y,1/2+z
loop_
_atom_site_type_symbol
_atom_site_label
_atom_site_fract_x
_atom_site_fract_y
_atom_site_fract_z
Si Si1 0.379907 0.632784 0.734646
Si Si2 0.803978 0.180196 0.021117
Si Si3 0.607669 0.541779 0.671908
Si Si4 0.617317 0.367829 0.783557
Si Si5 0.880629 0.270581 0.915357
Si Si6 0.391502 0.461417 0.674251
Si Si7 0.108903 0.276037 0.923186
Si Si8 0.189843 0.187799 0.973622
O O1 0.500000 0.638246 0.750000
O O2 0.345013 0.639512 0.569321
O O3 0.338427 0.587188 0.794231
O O4 0.320985 0.672527 0.808591
O O5 0.823206 0.165611 0.184798
O O6 0.683064 0.188009 0.008528
O O7 0.864957 0.223731 0.985564
O O8 0.500000 0.546282 0.750000
O O9 0.666720 0.502202 0.752239
O O10 0.599133 0.533716 0.499676
O O11 0.500000 0.368870 0.750000
O O12 0.661448 0.416538 0.781753
O O13 0.633707 0.350633 0.944348
O O14 0.862940 0.268381 0.744263
O O15 0.807066 0.305751 0.986352
O O16 0.992895 0.288270 0.948685
O O17 0.500000 0.462496 0.750000
O O18 0.130612 0.231645 0.005447
#
# Coordination Sequence:
#
# PCOD8246790 Si02
#       8
#     8   8   8   8   8   8   8   8
#     4  11  21  33  52  71 103 138 169 201 251 297
#     4  11  22  33  51  75  96 136 172 212 242 303
#     4  10  20  31  47  69  99 138 166 201 250 298
#     4  11  21  31  48  73 102 130 172 209 241 289
#     4  10  20  35  53  70 101 133 165 215 257 295
#     4  10  20  31  46  69 102 133 169 205 244 301
#     4  10  20  35  52  72  99 133 168 209 262 294
#     4  11  20  35  49  73  98 132 172 207 245 296
#
# _framework density 16.785015999999999
#
# number of rings (size 3 to 8) (size 9 to 14) (size 15 to 20)
#    0.000    1.500    3.750    3.750    7.000    0.000 
#    0.000    1.875    0.000    0.000    0.000    0.000 
#    0.000    6.000    0.000    0.000    0.000    0.000 
#
# Total GULP energy -793152.783677 kJ/mol
# GULP energy per Si atom -12393.012245 kJ/mol
# Density = 1.674681 g / cm^3
# Si number density = 16.785016 Si / 1000 Ang^3
#
#
#
# Elastic Constant Matrix: (Units=GPa)
#
#
# Indices 1 2 3 4 5 6 
#
# 1 81.2109 36.7530 22.3531 0.0000 0.0000 0.0000
# 2 36.7530 103.9464 30.1575 0.0000 0.0000 0.0000
# 3 22.3531 30.1575 69.3174 0.0000 0.0000 0.0000
# 4 0.0000 0.0000 0.0000 21.7593 0.0000 0.0000
# 5 0.0000 0.0000 0.0000 0.0000 23.5203 0.0000
# 6 0.0000 0.0000 0.0000 0.0000 0.0000 14.0642
#
#
#
# Elastic Compliance Matrix: (Units=1/GPa)
#
#
# Indices 1 2 3 4 5 6 
#
# 1 0.015161 -0.004512 -0.002926 0.000000 0.000000 0.000000
# 2 -0.004512 0.012353 -0.003919 0.000000 0.000000 0.000000
# 3 -0.002926 -0.003919 0.017075 0.000000 0.000000 0.000000
# 4 0.000000 0.000000 0.000000 0.045957 0.000000 0.000000
# 5 0.000000 0.000000 0.000000 0.000000 0.042516 0.000000
# 6 0.000000 0.000000 0.000000 0.000000 0.000000 0.071103
#
#
# Mechanical properties :
#
#
# Convention : Reuss Voigt Hill
#
# Bulk Modulus (GPa) = 45.71530 48.11132 46.91331
# Shear Modulus (GPa) = 21.35197 22.88284 22.11740
#
# Velocity S-wave (km/s) = 3.57050 3.69628 3.63393
# Velocity P-wave (km/s) = 6.65529 6.85143 6.75407
#
# Compressibility (1/GPa) = 0.02187452
#
# Stress axis : x y z
#
# Youngs Moduli (GPa) = 65.95963 80.95456 58.56462
#
# Poissons Ratio (x) = 0.36523 0.17137
# Poissons Ratio (y) = 0.29758 0.22953
# Poissons Ratio (z) = 0.19301 0.31729
#
# Static dielectric constant tensor:
#      x y z
#    x 2.825870 0.000000 0.000000 
#    y 0.000000 3.698990 0.000000 
#    z 0.000000 0.000000 3.254720 
# 
# 
# High freq. dielectric constant tensor:
#      x y z
#    x 1.594520 0.000000 0.000000 
#    y 0.000000 1.650940 0.000000 
#    z 0.000000 0.000000 1.663930 
# 
# From -- ./inp_files/6401.got.cif
#   From: 2010.03.12/outbox.cif.g09.slc.cpg/sg60_4_cif.got.tgz:6401.got - 2010.04.10 18:46:24.
