data_PCOD8246896
_publ_section_title
;
Structure prediction by ZEFSAII (Michael W. Deem and Ramdas Pophale) SiO2 
 PCOD8246896
Probable space group: P B C N
;
_chemical_formula_sum "Si O2"
_cell_formula_units_Z 32
_cell_length_a 13.916214
_cell_length_b 24.768946
_cell_length_c 5.255756
_cell_angle_alpha 90.000000
_cell_angle_beta 90.000000
_cell_angle_gamma 90.000000
_cell_volume 1811.606289
_symmetry_space_group_name_H-M "P B C N"
_symmetry_group_IT_number 60
_symmetry_cell_setting 'orthorhombic'
loop_
_space_group_symop_operation_xyz
x,y,z
1/2-x,1/2-y,1/2+z
1/2+x,1/2-y,-z
-x,y,1/2-z
-x,-y,-z
1/2+x,1/2+y,1/2-z
1/2-x,1/2+y,z
x,-y,1/2+z
loop_
_atom_site_type_symbol
_atom_site_label
_atom_site_fract_x
_atom_site_fract_y
_atom_site_fract_z
Si Si1 0.107319 0.976976 0.512189
Si Si2 0.602741 0.253275 0.151307
Si Si3 0.747255 0.318871 0.428438
Si Si4 0.665432 0.642143 0.440967
O O1 0.104836 0.912472 0.533303
O O2 0.161258 0.996788 0.255938
O O3 0.000000 0.000000 0.500000
O O4 0.500000 0.233817 0.250000
O O5 0.675143 0.267190 0.387439
O O6 0.647015 0.204671 0.983950
O O7 0.591641 0.307656 0.979435
O O8 0.714274 0.355542 0.665340
O O9 0.745741 0.354651 0.168835
#
# Coordination Sequence:
#
# PCOD8246896 Si02
#       4
#     8   8   8   8
#     4  10  21  32  48  73 106 137 188 217 252 336
#     4  10  21  34  57  77 110 151 185 226 278 329
#     4  10  20  38  49  81 107 145 193 220 267 349
#     4  10  20  36  52  70 115 149 169 232 271 315
#
# _framework density 17.663882000000001
#
# number of rings (size 3 to 8) (size 9 to 14) (size 15 to 20)
#    1.500    0.500    2.500    1.500    3.500    3.000 
#    0.000    0.000    0.000    0.000    0.000    0.000 
#    0.000   20.000    0.000    0.000    0.000    0.000 
#
# Total GULP energy -396420.106350 kJ/mol
# GULP energy per Si atom -12388.128323 kJ/mol
# Density = 1.762368 g / cm^3
# Si number density = 17.663882 Si / 1000 Ang^3
#
#
#
# Elastic Constant Matrix: (Units=GPa)
#
#
# Indices 1 2 3 4 5 6 
#
# 1 54.8683 14.1756 2.6818 0.0000 0.0000 0.0000
# 2 14.1756 87.3447 19.6839 0.0000 0.0000 0.0000
# 3 2.6818 19.6839 131.5282 0.0000 0.0000 0.0000
# 4 0.0000 0.0000 0.0000 28.4006 0.0000 0.0000
# 5 0.0000 0.0000 0.0000 0.0000 15.7523 0.0000
# 6 0.0000 0.0000 0.0000 0.0000 0.0000 26.0069
#
#
#
# Elastic Compliance Matrix: (Units=1/GPa)
#
#
# Indices 1 2 3 4 5 6 
#
# 1 0.019024 -0.003105 0.000077 0.000000 0.000000 0.000000
# 2 -0.003105 0.012355 -0.001786 0.000000 0.000000 0.000000
# 3 0.000077 -0.001786 0.007869 0.000000 0.000000 0.000000
# 4 0.000000 0.000000 0.000000 0.035211 0.000000 0.000000
# 5 0.000000 0.000000 0.000000 0.000000 0.063483 0.000000
# 6 0.000000 0.000000 0.000000 0.000000 0.000000 0.038451
#
#
# Mechanical properties :
#
#
# Convention : Reuss Voigt Hill
#
# Bulk Modulus (GPa) = 33.76074 38.53597 36.14835
# Shear Modulus (GPa) = 25.52411 29.84528 27.68470
#
# Velocity S-wave (km/s) = 3.80542 4.11496 3.96322
# Velocity P-wave (km/s) = 6.20183 6.66639 6.43830
#
# Compressibility (1/GPa) = 0.02962020
#
# Stress axis : x y z
#
# Youngs Moduli (GPa) = 52.56560 80.93758 127.08725
#
# Poissons Ratio (x) = 0.25129 -0.00975
# Poissons Ratio (y) = 0.16320 0.22694
# Poissons Ratio (z) = -0.00403 0.14453
#
# Static dielectric constant tensor:
#      x y z
#    x 2.680350 0.000000 0.000000 
#    y 0.000000 3.039700 0.000000 
#    z 0.000000 0.000000 3.651070 
# 
# 
# High freq. dielectric constant tensor:
#      x y z
#    x 1.616560 0.000000 0.000000 
#    y 0.000000 1.660090 0.000000 
#    z 0.000000 0.000000 1.713500 
# 
# From -- ./inp_files/704.got.cif
#   From: 2010.03.12/outbox.cif.g09.slc.cpg/sg60_1_cif.got.tgz:704.got - 2010.04.10 18:46:24.
