data_PCOD8246037
_publ_section_title
;
Structure prediction by ZEFSAII (Michael W. Deem and Ramdas Pophale) SiO2 
 PCOD8246037
Probable space group: P M M N
;
_chemical_formula_sum "Si O2"
_cell_formula_units_Z 48
_cell_length_a 13.324624
_cell_length_b 27.557462
_cell_length_c 7.522961
_cell_angle_alpha 90.000000
_cell_angle_beta 90.000000
_cell_angle_gamma 90.000000
_cell_volume 2762.377261
_symmetry_space_group_name_H-M "P M M N"
_symmetry_group_IT_number 59
_space_group.IT_coordinate_system_code '2'
_symmetry_cell_setting 'orthorhombic'
loop_
_space_group_symop_operation_xyz
x,y,z
1/2-x,1/2-y,z
1/2+x,-y,-z
-x,1/2+y,-z
-x,-y,-z
1/2+x,1/2+y,-z
1/2-x,y,z
x,1/2-y,z
loop_
_atom_site_type_symbol
_atom_site_label
_atom_site_fract_x
_atom_site_fract_y
_atom_site_fract_z
Si Si1 0.867164 0.458526 0.750001
Si Si2 0.996886 0.389692 0.552723
Si Si3 0.996886 0.389692 0.947278
Si Si4 0.861799 0.304093 0.539269
Si Si5 0.361799 0.695907 0.039270
Si Si6 0.367003 0.428066 0.250000
O O1 0.750000 0.446837 0.750002
O O2 0.916717 0.433971 0.925769
O O3 0.890014 0.515140 0.750000
O O4 0.916717 0.433971 0.574233
O O5 0.087372 0.404617 0.426566
O O6 0.040598 0.376819 0.750000
O O7 0.940043 0.343569 0.464400
O O8 0.940043 0.343569 0.035600
O O9 0.087372 0.404617 0.073435
O O10 0.750000 0.313454 0.462202
O O11 0.897787 0.250000 0.484808
O O12 0.857357 0.309749 0.750000
O O13 0.250000 0.686546 0.962202
O O14 0.397787 0.750000 0.984809
O O15 0.250000 0.416615 0.250001
#
# Coordination Sequence:
#
# PCOD8246037 Si02
#       6
#     8   8   8   8   8   8
#     4   9  18  34  54  76 105 130 160 208 259 306
#     4   9  19  32  55  73 103 134 166 202 252 302
#     4   9  19  32  55  73 103 134 166 202 252 302
#     4   8  13  25  49  79 106 129 155 196 256 316
#     4   8  13  25  49  79 106 129 155 196 256 316
#     4  11  22  36  50  71 101 137 180 217 239 279
#
# _framework density 17.376336999999999
#
# number of rings (size 3 to 8) (size 9 to 14) (size 15 to 20)
#    1.000    2.000    0.000    3.000    0.000    0.667 
#    0.000    4.167    0.000    4.000    0.000    4.667 
#    0.000    0.000    0.000    0.000    0.000    0.000 
#
# Total GULP energy -594741.362912 kJ/mol
# GULP energy per Si atom -12390.445061 kJ/mol
# Density = 1.733679 g / cm^3
# Si number density = 17.376337 Si / 1000 Ang^3
#
#
#
# Elastic Constant Matrix: (Units=GPa)
#
#
# Indices 1 2 3 4 5 6 
#
# 1 115.7886 84.0940 46.1700 0.0000 0.0000 0.0000
# 2 84.0940 137.2588 34.9239 0.0000 0.0000 0.0000
# 3 46.1700 34.9239 64.0528 0.0000 0.0000 0.0000
# 4 0.0000 0.0000 0.0000 -21.5625 0.0000 0.0000
# 5 0.0000 0.0000 0.0000 0.0000 20.8850 0.0000
# 6 0.0000 0.0000 0.0000 0.0000 0.0000 35.2659
#
#
#
# Elastic Compliance Matrix: (Units=1/GPa)
#
#
# Indices 1 2 3 4 5 6 
#
# 1 0.018817 -0.009379 -0.008450 0.000000 0.000000 0.000000
# 2 -0.009379 0.013133 -0.000401 0.000000 0.000000 0.000000
# 3 -0.008450 -0.000401 0.021921 0.000000 0.000000 0.000000
# 4 0.000000 0.000000 0.000000 -0.046377 0.000000 0.000000
# 5 0.000000 0.000000 0.000000 0.000000 0.047881 0.000000
# 6 0.000000 0.000000 0.000000 0.000000 0.000000 0.028356
#
#
# Mechanical properties :
#
#
# Convention : Reuss Voigt Hill
#
# Bulk Modulus (GPa) = 57.42686 71.94177 64.68432
# Shear Modulus (GPa) = 39.68376 17.04517 28.36447
#
# Velocity S-wave (km/s) = 4.78408 3.13540 4.04463
# Velocity P-wave (km/s) = 7.97729 7.38916 7.68885
#
# Compressibility (1/GPa) = 0.01741345
#
# Stress axis : x y z
#
# Youngs Moduli (GPa) = 53.14237 76.14132 45.61740
#
# Poissons Ratio (x) = 0.71411 0.38547
# Poissons Ratio (y) = 0.49841 0.01827
# Poissons Ratio (z) = 0.44906 0.03050
#
# Static dielectric constant tensor:
#      x y z
#    x 3.042840 0.000000 0.000000 
#    y 0.000000 3.479580 0.000000 
#    z 0.000000 0.000000 2.865130 
# 
# 
# High freq. dielectric constant tensor:
#      x y z
#    x 1.645030 0.000000 0.000000 
#    y 0.000000 1.680080 0.000000 
#    z 0.000000 0.000000 1.646180 
# 
# From -- ./inp_files/7677.got.cif
#   From: 2010.03.12/outbox.cif.g09.slc.cpg/sg59_4_cif.got.tgz:7677.got - 2010.04.16 16:29:54.
