data_PCOD8246596
_publ_section_title
;
Structure prediction by ZEFSAII (Michael W. Deem and Ramdas Pophale) SiO2 
 PCOD8246596
Probable space group: P B C N
;
_chemical_formula_sum "Si O2"
_cell_formula_units_Z 48
_cell_length_a 19.428302
_cell_length_b 8.884626
_cell_length_c 14.111150
_cell_angle_alpha 90.000000
_cell_angle_beta 90.000000
_cell_angle_gamma 90.000000
_cell_volume 2435.770716
_symmetry_space_group_name_H-M "P B C N"
_symmetry_group_IT_number 60
_symmetry_cell_setting 'orthorhombic'
loop_
_space_group_symop_operation_xyz
x,y,z
1/2-x,1/2-y,1/2+z
1/2+x,1/2-y,-z
-x,y,1/2-z
-x,-y,-z
1/2+x,1/2+y,1/2-z
1/2-x,1/2+y,z
x,-y,1/2+z
loop_
_atom_site_type_symbol
_atom_site_label
_atom_site_fract_x
_atom_site_fract_y
_atom_site_fract_z
Si Si1 0.071872 0.095556 0.099188
Si Si2 0.263793 0.804273 0.248874
Si Si3 0.305245 0.203230 0.540058
Si Si4 0.683493 0.110231 0.556725
Si Si5 0.423789 0.350575 0.948599
Si Si6 0.845353 0.978644 0.721570
O O1 0.125143 0.201595 0.044942
O O2 0.094027 0.061705 0.206296
O O3 0.997546 0.176200 0.100968
O O4 0.065923 0.935277 0.047519
O O5 0.284519 0.858211 0.143780
O O6 0.309488 0.885870 0.329424
O O7 0.277732 0.625628 0.257982
O O8 0.183536 0.850839 0.266720
O O9 0.245824 0.304943 0.495179
O O10 0.319262 0.061894 0.473398
O O11 0.611547 0.190570 0.529974
O O12 0.373627 0.452726 0.883439
#
# Coordination Sequence:
#
# PCOD8246596 Si02
#       6
#     8   8   8   8   8   8
#     4  10  21  36  54  77 107 144 183 222 269 324
#     4  10  20  32  52  80 106 134 174 222 268 320
#     4  11  21  35  56  81 109 141 180 228 274 322
#     4  11  21  35  56  81 109 141 180 228 274 322
#     4  10  21  36  54  77 107 144 183 222 269 324
#     4  10  19  34  54  78 107 138 176 222 273 320
#
# _framework density 19.706288000000001
#
# number of rings (size 3 to 8) (size 9 to 14) (size 15 to 20)
#    0.000    1.667    0.000    7.500    0.000    0.667 
#    0.000    0.000    0.000    0.000    0.000    2.333 
#    0.000    0.000    0.000    0.000    0.000    0.000 
#
# Total GULP energy -595157.102065 kJ/mol
# GULP energy per Si atom -12399.106293 kJ/mol
# Density = 1.966144 g / cm^3
# Si number density = 19.706288 Si / 1000 Ang^3
#
#
#
# Elastic Constant Matrix: (Units=GPa)
#
#
# Indices 1 2 3 4 5 6 
#
# 1 106.7963 19.7975 -11.1430 0.0000 0.0000 0.0000
# 2 19.7975 40.7241 -0.0718 0.0000 0.0000 0.0000
# 3 -11.1430 -0.0718 59.8036 0.0000 0.0000 0.0000
# 4 0.0000 0.0000 0.0000 25.2331 0.0000 0.0000
# 5 0.0000 0.0000 0.0000 0.0000 27.3919 0.0000
# 6 0.0000 0.0000 0.0000 0.0000 0.0000 30.2940
#
#
#
# Elastic Compliance Matrix: (Units=1/GPa)
#
#
# Indices 1 2 3 4 5 6 
#
# 1 0.010514 -0.005108 0.001953 0.000000 0.000000 0.000000
# 2 -0.005108 0.027037 -0.000919 0.000000 0.000000 0.000000
# 3 0.001953 -0.000919 0.017084 0.000000 0.000000 0.000000
# 4 0.000000 0.000000 0.000000 0.039630 0.000000 0.000000
# 5 0.000000 0.000000 0.000000 0.000000 0.036507 0.000000
# 6 0.000000 0.000000 0.000000 0.000000 0.000000 0.033010
#
#
# Mechanical properties :
#
#
# Convention : Reuss Voigt Hill
#
# Bulk Modulus (GPa) = 21.51142 24.94327 23.22734
# Shear Modulus (GPa) = 26.67703 29.83321 28.25512
#
# Velocity S-wave (km/s) = 3.68330 3.89510 3.79068
# Velocity P-wave (km/s) = 5.38782 5.73708 5.56519
#
# Compressibility (1/GPa) = 0.04648694
#
# Stress axis : x y z
#
# Youngs Moduli (GPa) = 95.10874 36.98633 58.53365
#
# Poissons Ratio (x) = 0.18892 -0.11431
# Poissons Ratio (y) = 0.48581 0.05381
# Poissons Ratio (z) = -0.18574 0.03400
#
# Static dielectric constant tensor:
#      x y z
#    x 3.639550 0.000000 0.000000 
#    y 0.000000 3.489290 0.000000 
#    z 0.000000 0.000000 3.757150 
# 
# 
# High freq. dielectric constant tensor:
#      x y z
#    x 1.758080 0.000000 0.000000 
#    y 0.000000 1.752810 0.000000 
#    z 0.000000 0.000000 1.785140 
# 
# From -- ./inp_files/17320.got.cif
#   From: 2010.03.12/outbox.cif.g09.slc.cpg/sg60_9_cif.got.tgz:17320.got - 2010.04.10 18:46:24.
