data_PCOD8246371
_publ_section_title
;
Structure prediction by ZEFSAII (Michael W. Deem and Ramdas Pophale) SiO2 
 PCOD8246371
Probable space group: P B C N
;
_chemical_formula_sum "Si O2"
_cell_formula_units_Z 56
_cell_length_a 19.816046
_cell_length_b 14.828992
_cell_length_c 9.730649
_cell_angle_alpha 90.000000
_cell_angle_beta 90.000000
_cell_angle_gamma 90.000000
_cell_volume 2859.370549
_symmetry_space_group_name_H-M "P B C N"
_symmetry_group_IT_number 60
_symmetry_cell_setting 'orthorhombic'
loop_
_space_group_symop_operation_xyz
x,y,z
1/2-x,1/2-y,1/2+z
1/2+x,1/2-y,-z
-x,y,1/2-z
-x,-y,-z
1/2+x,1/2+y,1/2-z
1/2-x,1/2+y,z
x,-y,1/2+z
loop_
_atom_site_type_symbol
_atom_site_label
_atom_site_fract_x
_atom_site_fract_y
_atom_site_fract_z
Si Si1 0.055286 0.067887 0.629313
Si Si2 0.135382 0.718251 0.632370
Si Si3 0.527899 0.370545 0.899986
Si Si4 0.816460 0.604691 0.638580
Si Si5 0.190469 0.405736 0.917295
Si Si6 0.293151 0.556599 0.646690
Si Si7 0.252588 0.142928 0.142242
O O1 0.131329 0.094749 0.671047
O O2 0.000000 0.073809 0.750000
O O3 0.032211 0.138354 0.511189
O O4 0.063448 0.966582 0.566537
O O5 0.074890 0.783943 0.594931
O O6 0.128290 0.666042 0.779619
O O7 0.136197 0.644945 0.511224
O O8 0.205272 0.771308 0.634709
O O9 0.500000 0.378788 0.750000
O O10 0.842725 0.502598 0.618628
O O11 0.749011 0.601421 0.730911
O O12 0.800831 0.647029 0.490488
O O13 0.201802 0.348934 0.778650
O O14 0.261780 0.416465 0.998836
O O15 0.291424 0.448051 0.655058
#
# Coordination Sequence:
#
# PCOD8246371 Si02
#       7
#     8   8   8   8   8   8   8
#     4  10  21  36  55  78 113 160 189 210 264 333
#     4  11  20  35  53  79 113 141 184 241 278 327
#     4  10  23  36  55  81 112 151 190 227 268 326
#     4   9  20  34  54  79 110 145 182 224 291 338
#     4   9  20  34  54  80 111 148 183 227 291 343
#     4   9  18  33  53  78 116 153 180 215 273 344
#     4  10  18  30  52  83 111 145 180 225 274 333
#
# _framework density 19.584728999999999
#
# number of rings (size 3 to 8) (size 9 to 14) (size 15 to 20)
#    0.000    2.286    1.429    1.714    4.000    3.429 
#    0.000    0.000    0.000    0.857    0.000    0.000 
#    0.000    0.000    0.000    0.000    0.000    0.000 
#
# Total GULP energy -694137.247094 kJ/mol
# GULP energy per Si atom -12395.307984 kJ/mol
# Density = 1.954015 g / cm^3
# Si number density = 19.584729 Si / 1000 Ang^3
#
#
#
# Elastic Constant Matrix: (Units=GPa)
#
#
# Indices 1 2 3 4 5 6 
#
# 1 56.4310 31.3334 25.4116 0.0000 0.0000 0.0000
# 2 31.3334 86.3470 31.4151 0.0000 0.0000 0.0000
# 3 25.4116 31.4151 132.6885 0.0000 0.0000 0.0000
# 4 0.0000 0.0000 0.0000 41.5559 0.0000 0.0000
# 5 0.0000 0.0000 0.0000 0.0000 15.3992 0.0000
# 6 0.0000 0.0000 0.0000 0.0000 0.0000 33.4287
#
#
#
# Elastic Compliance Matrix: (Units=1/GPa)
#
#
# Indices 1 2 3 4 5 6 
#
# 1 0.023019 -0.007385 -0.002660 0.000000 0.000000 0.000000
# 2 -0.007385 0.015042 -0.002147 0.000000 0.000000 0.000000
# 3 -0.002660 -0.002147 0.008554 0.000000 0.000000 0.000000
# 4 0.000000 0.000000 0.000000 0.024064 0.000000 0.000000
# 5 0.000000 0.000000 0.000000 0.000000 0.064938 0.000000
# 6 0.000000 0.000000 0.000000 0.000000 0.000000 0.029914
#
#
# Mechanical properties :
#
#
# Convention : Reuss Voigt Hill
#
# Bulk Modulus (GPa) = 44.98205 50.19852 47.59029
# Shear Modulus (GPa) = 25.33856 30.56386 27.95121
#
# Velocity S-wave (km/s) = 3.60083 3.95472 3.78192
# Velocity P-wave (km/s) = 6.34868 6.82204 6.58961
#
# Compressibility (1/GPa) = 0.02223109
#
# Stress axis : x y z
#
# Youngs Moduli (GPa) = 43.44169 66.47919 116.90187
#
# Poissons Ratio (x) = 0.49098 0.31095
# Poissons Ratio (y) = 0.32084 0.25099
# Poissons Ratio (z) = 0.11555 0.14273
#
# Static dielectric constant tensor:
#      x y z
#    x 3.029330 0.000000 0.000000 
#    y 0.000000 3.804680 0.000000 
#    z 0.000000 0.000000 3.799240 
# 
# 
# High freq. dielectric constant tensor:
#      x y z
#    x 1.707480 0.000000 0.000000 
#    y 0.000000 1.762460 0.000000 
#    z 0.000000 0.000000 1.781540 
# 
# From -- ./inp_files/7414.got.cif
#   From: 2010.03.12/outbox.cif.g09.slc.cpg/sg60_4_cif.got.tgz:7414.got - 2010.04.10 18:46:24.
