data_PCOD8246962
_publ_section_title
;
Structure prediction by ZEFSAII (Michael W. Deem and Ramdas Pophale) SiO2 
 PCOD8246962
Probable space group: P B C N
;
_chemical_formula_sum "Si O2"
_cell_formula_units_Z 48
_cell_length_a 9.363819
_cell_length_b 15.945273
_cell_length_c 16.586528
_cell_angle_alpha 90.000000
_cell_angle_beta 90.000000
_cell_angle_gamma 90.000000
_cell_volume 2476.512108
_symmetry_space_group_name_H-M "P B C N"
_symmetry_group_IT_number 60
_symmetry_cell_setting 'orthorhombic'
loop_
_space_group_symop_operation_xyz
x,y,z
1/2-x,1/2-y,1/2+z
1/2+x,1/2-y,-z
-x,y,1/2-z
-x,-y,-z
1/2+x,1/2+y,1/2-z
1/2-x,1/2+y,z
x,-y,1/2+z
loop_
_atom_site_type_symbol
_atom_site_label
_atom_site_fract_x
_atom_site_fract_y
_atom_site_fract_z
Si Si1 0.000000 0.184506 0.750000
Si Si2 0.793446 0.281571 0.960918
Si Si3 0.105571 0.718683 0.404201
Si Si4 0.112718 0.469275 0.890086
Si Si5 0.500000 0.064719 0.750000
Si Si6 0.250785 0.623427 0.648748
Si Si7 0.706701 0.967051 0.951260
O O1 0.929927 0.241541 0.681472
O O2 0.877115 0.126397 0.786473
O O3 0.739015 0.207989 0.903239
O O4 0.736501 0.373288 0.930720
O O5 0.966073 0.282592 0.962366
O O6 0.732550 0.267916 0.050795
O O7 0.164307 0.626223 0.386145
O O8 0.113349 0.508514 0.800635
O O9 0.953545 0.475527 0.922119
O O10 0.215970 0.519203 0.951871
O O11 0.596344 0.120542 0.808935
O O12 0.290203 0.541838 0.594449
#
# Coordination Sequence:
#
# PCOD8246962 Si02
#       7
#     4   8   8   8   4   8   8
#     4  10  23  36  53  82 128 152 172 231 317 342
#     4  10  21  36  60  83 113 151 194 235 280 343
#     4  10  20  37  59  84 115 151 191 238 288 345
#     4   9  17  33  57  87 107 140 194 246 275 319
#     4  10  21  32  63  86 110 144 200 245 283 322
#     4  10  21  40  55  85 116 151 185 242 287 345
#     4   9  18  34  59  81 111 146 193 235 274 332
#
# _framework density 19.382097999999999
#
# number of rings (size 3 to 8) (size 9 to 14) (size 15 to 20)
#    0.000    2.333    1.667    0.500    4.667    1.333 
#    0.000    5.833    0.000    0.000    0.000    0.000 
#    0.000    0.000    0.000    0.000    0.000    0.000 
#
# Total GULP energy -594970.119569 kJ/mol
# GULP energy per Si atom -12395.210824 kJ/mol
# Density = 1.933798 g / cm^3
# Si number density = 19.382098 Si / 1000 Ang^3
#
#
#
# Elastic Constant Matrix: (Units=GPa)
#
#
# Indices 1 2 3 4 5 6 
#
# 1 39.6327 34.8982 32.5463 0.0000 0.0000 0.0000
# 2 34.8982 160.9452 53.9155 0.0000 0.0000 0.0000
# 3 32.5463 53.9155 112.7207 0.0000 0.0000 0.0000
# 4 0.0000 0.0000 0.0000 12.8024 0.0000 0.0000
# 5 0.0000 0.0000 0.0000 0.0000 40.2005 0.0000
# 6 0.0000 0.0000 0.0000 0.0000 0.0000 18.3403
#
#
#
# Elastic Compliance Matrix: (Units=1/GPa)
#
#
# Indices 1 2 3 4 5 6 
#
# 1 0.036402 -0.005207 -0.008020 0.000000 0.000000 0.000000
# 2 -0.005207 0.008143 -0.002392 0.000000 0.000000 0.000000
# 3 -0.008020 -0.002392 0.012331 0.000000 0.000000 0.000000
# 4 0.000000 0.000000 0.000000 0.078110 0.000000 0.000000
# 5 0.000000 0.000000 0.000000 0.000000 0.024875 0.000000
# 6 0.000000 0.000000 0.000000 0.000000 0.000000 0.054525
#
#
# Mechanical properties :
#
#
# Convention : Reuss Voigt Hill
#
# Bulk Modulus (GPa) = 39.00161 61.77983 50.39072
# Shear Modulus (GPa) = 19.67174 27.06455 23.36815
#
# Velocity S-wave (km/s) = 3.18927 3.74085 3.47602
# Velocity P-wave (km/s) = 5.80759 7.11355 6.49348
#
# Compressibility (1/GPa) = 0.02563997
#
# Stress axis : x y z
#
# Youngs Moduli (GPa) = 27.47065 122.79762 81.09477
#
# Poissons Ratio (x) = 0.63935 0.65040
# Poissons Ratio (y) = 0.14303 0.19396
# Poissons Ratio (z) = 0.22032 0.29371
#
# Static dielectric constant tensor:
#      x y z
#    x 3.251960 0.000000 0.000000 
#    y 0.000000 3.776080 0.000000 
#    z 0.000000 0.000000 3.825840 
# 
# 
# High freq. dielectric constant tensor:
#      x y z
#    x 1.714080 0.000000 0.000000 
#    y 0.000000 1.765800 0.000000 
#    z 0.000000 0.000000 1.760500 
# 
# From -- ./inp_files/16108.got.cif
#   From: 2010.03.12/outbox.cif.g09.slc.cpg/sg60_9_cif.got.tgz:16108.got - 2010.04.10 18:46:24.
