data_PCOD8246350
_publ_section_title
;
Structure prediction by ZEFSAII (Michael W. Deem and Ramdas Pophale) SiO2 
 PCOD8246350
Probable space group: P B C N
;
_chemical_formula_sum "Si O2"
_cell_formula_units_Z 64
_cell_length_a 14.613087
_cell_length_b 12.056668
_cell_length_c 17.882519
_cell_angle_alpha 90.000000
_cell_angle_beta 90.000000
_cell_angle_gamma 90.000000
_cell_volume 3150.634085
_symmetry_space_group_name_H-M "P B C N"
_symmetry_group_IT_number 60
_symmetry_cell_setting 'orthorhombic'
loop_
_space_group_symop_operation_xyz
x,y,z
1/2-x,1/2-y,1/2+z
1/2+x,1/2-y,-z
-x,y,1/2-z
-x,-y,-z
1/2+x,1/2+y,1/2-z
1/2-x,1/2+y,z
x,-y,1/2+z
loop_
_atom_site_type_symbol
_atom_site_label
_atom_site_fract_x
_atom_site_fract_y
_atom_site_fract_z
Si Si1 0.645746 0.145922 0.380482
Si Si2 0.683078 0.608145 0.908661
Si Si3 0.870941 0.288375 0.403243
Si Si4 0.799987 0.094025 0.494669
Si Si5 0.723513 0.465752 0.771640
Si Si6 0.504813 0.980034 0.085875
Si Si7 0.607694 0.279790 0.739366
Si Si8 0.689261 0.097454 0.641507
O O1 0.626562 0.277237 0.396792
O O2 0.704700 0.100747 0.449691
O O3 0.701664 0.121446 0.304568
O O4 0.550654 0.078642 0.373089
O O5 0.788979 0.631372 0.926541
O O6 0.653826 0.527988 0.978920
O O7 0.671449 0.534818 0.834943
O O8 0.871523 0.186848 0.463315
O O9 0.847107 0.250014 0.319401
O O10 0.964801 0.356813 0.400329
O O11 0.771523 0.113418 0.581320
O O12 0.644744 0.403372 0.724371
O O13 0.772899 0.549497 0.717493
O O14 0.609902 0.984033 0.111620
O O15 0.500000 0.000000 0.000000
O O16 0.500000 0.273552 0.750000
O O17 0.642157 0.211738 0.667456
#
# Coordination Sequence:
#
# PCOD8246350 Si02
#       8
#     8   8   8   8   8   8   8   8
#     4  10  19  35  62  89 118 171 212 246 320 395
#     4  10  17  37  64  83 117 171 210 244 309 406
#     4  11  19  38  65  87 124 166 216 251 320 390
#     4  10  21  37  62  92 121 173 206 257 319 389
#     4  11  21  39  62  92 126 165 211 261 326 388
#     4  12  22  37  59  97 126 160 211 273 318 377
#     4  12  23  38  67  96 122 165 219 271 316 381
#     4  12  24  37  64 100 131 156 220 283 323 372
#
# _framework density 20.313372999999999
#
# number of rings (size 3 to 8) (size 9 to 14) (size 15 to 20)
#    0.000    1.000   10.000    0.000    0.000    3.000 
#    0.000    0.000    8.250    1.500    0.000    0.000 
#    0.000    0.000    0.000    0.000    0.000    0.000 
#
# Total GULP energy -792990.858755 kJ/mol
# GULP energy per Si atom -12390.482168 kJ/mol
# Density = 2.026714 g / cm^3
# Si number density = 20.313373 Si / 1000 Ang^3
#
#
#
# Elastic Constant Matrix: (Units=GPa)
#
#
# Indices 1 2 3 4 5 6 
#
# 1 41.5674 36.6518 25.4737 0.0000 0.0000 0.0000
# 2 36.6518 126.5124 19.2554 0.0000 0.0000 0.0000
# 3 25.4737 19.2554 74.1217 0.0000 0.0000 0.0000
# 4 0.0000 0.0000 0.0000 19.9913 0.0000 0.0000
# 5 0.0000 0.0000 0.0000 0.0000 16.9549 0.0000
# 6 0.0000 0.0000 0.0000 0.0000 0.0000 22.9167
#
#
#
# Elastic Compliance Matrix: (Units=1/GPa)
#
#
# Indices 1 2 3 4 5 6 
#
# 1 0.039387 -0.009735 -0.011007 0.000000 0.000000 0.000000
# 2 -0.009735 0.010636 0.000583 0.000000 0.000000 0.000000
# 3 -0.011007 0.000583 0.017123 0.000000 0.000000 0.000000
# 4 0.000000 0.000000 0.000000 0.050022 0.000000 0.000000
# 5 0.000000 0.000000 0.000000 0.000000 0.058980 0.000000
# 6 0.000000 0.000000 0.000000 0.000000 0.000000 0.043636
#
#
# Mechanical properties :
#
#
# Convention : Reuss Voigt Hill
#
# Bulk Modulus (GPa) = 37.27706 44.99594 41.13650
# Shear Modulus (GPa) = 18.58419 22.69395 20.63907
#
# Velocity S-wave (km/s) = 3.02797 3.34607 3.19099
# Velocity P-wave (km/s) = 5.53314 6.09321 5.81992
#
# Compressibility (1/GPa) = 0.02682615
#
# Stress axis : x y z
#
# Youngs Moduli (GPa) = 25.38911 94.01930 58.40163
#
# Poissons Ratio (x) = 0.91532 0.64284
# Poissons Ratio (y) = 0.24717 -0.03403
# Poissons Ratio (z) = 0.27946 -0.05479
#
# Static dielectric constant tensor:
#      x y z
#    x 4.043190 0.000000 0.000000 
#    y 0.000000 3.913570 0.000000 
#    z 0.000000 0.000000 3.621010 
# 
# 
# High freq. dielectric constant tensor:
#      x y z
#    x 1.758100 0.000000 0.000000 
#    y 0.000000 1.803510 0.000000 
#    z 0.000000 0.000000 1.784300 
# 
# From -- ./inp_files/20667.got.cif
#   From: 2010.03.12/outbox.cif.g09.slc.cpg/sg60_11_cif.got.tgz:20667.got - 2010.04.10 18:46:24.
