data_PCOD8246449
_publ_section_title
;
Structure prediction by ZEFSAII (Michael W. Deem and Ramdas Pophale) SiO2 
 PCOD8246449
Probable space group: P B C N
;
_chemical_formula_sum "Si O2"
_cell_formula_units_Z 48
_cell_length_a 12.961966
_cell_length_b 9.898565
_cell_length_c 19.310465
_cell_angle_alpha 90.000000
_cell_angle_beta 90.000000
_cell_angle_gamma 90.000000
_cell_volume 2477.626566
_symmetry_space_group_name_H-M "P B C N"
_symmetry_group_IT_number 60
_symmetry_cell_setting 'orthorhombic'
loop_
_space_group_symop_operation_xyz
x,y,z
1/2-x,1/2-y,1/2+z
1/2+x,1/2-y,-z
-x,y,1/2-z
-x,-y,-z
1/2+x,1/2+y,1/2-z
1/2-x,1/2+y,z
x,-y,1/2+z
loop_
_atom_site_type_symbol
_atom_site_label
_atom_site_fract_x
_atom_site_fract_y
_atom_site_fract_z
Si Si1 0.533575 0.220525 0.962135
Si Si2 0.753634 0.871373 0.617347
Si Si3 0.036816 0.562525 0.322928
Si Si4 0.056942 0.246080 0.318717
Si Si5 0.117581 0.440411 0.555946
Si Si6 0.204635 0.130827 0.973058
O O1 0.506421 0.288025 0.888520
O O2 0.584672 0.337680 0.009450
O O3 0.617514 0.101197 0.955816
O O4 0.435270 0.145979 0.994715
O O5 0.637907 0.864623 0.647839
O O6 0.833283 0.830838 0.678432
O O7 0.761894 0.760081 0.558205
O O8 0.786422 0.012977 0.583633
O O9 0.069202 0.407176 0.314686
O O10 0.000000 0.623993 0.250000
O O11 0.938120 0.591088 0.371852
O O12 0.000000 0.191549 0.250000
O O13 0.238017 0.402131 0.546690
#
# Coordination Sequence:
#
# PCOD8246449 Si02
#       6
#     8   8   8   8   8   8
#     4  10  19  35  59  87 116 154 198 242 295 354
#     4  12  21  38  62  90 115 155 199 248 302 351
#     4  10  21  38  62  85 118 166 201 235 299 371
#     4  10  22  40  61  85 122 162 197 241 300 366
#     4  10  18  35  58  86 116 152 202 242 289 359
#     4  12  21  35  63  91 117 153 198 255 297 347
#
# _framework density 19.373377999999999
#
# number of rings (size 3 to 8) (size 9 to 14) (size 15 to 20)
#    0.000    1.333    6.667    1.000    0.000    2.000 
#    0.000    0.833    0.000    0.000    0.000    0.000 
#    0.000    0.000    0.000    0.000    0.000    0.000 
#
# Total GULP energy -594831.844129 kJ/mol
# GULP energy per Si atom -12392.330086 kJ/mol
# Density = 1.932928 g / cm^3
# Si number density = 19.373378 Si / 1000 Ang^3
#
#
#
# Elastic Constant Matrix: (Units=GPa)
#
#
# Indices 1 2 3 4 5 6 
#
# 1 68.8239 23.6370 32.0259 0.0000 0.0000 0.0000
# 2 23.6370 48.4053 24.9338 0.0000 0.0000 0.0000
# 3 32.0259 24.9338 114.5217 0.0000 0.0000 0.0000
# 4 0.0000 0.0000 0.0000 15.9596 0.0000 0.0000
# 5 0.0000 0.0000 0.0000 0.0000 37.4975 0.0000
# 6 0.0000 0.0000 0.0000 0.0000 0.0000 24.6337
#
#
#
# Elastic Compliance Matrix: (Units=1/GPa)
#
#
# Indices 1 2 3 4 5 6 
#
# 1 0.018724 -0.007260 -0.003656 0.000000 0.000000 0.000000
# 2 -0.007260 0.026084 -0.003649 0.000000 0.000000 0.000000
# 3 -0.003656 -0.003649 0.010549 0.000000 0.000000 0.000000
# 4 0.000000 0.000000 0.000000 0.062658 0.000000 0.000000
# 5 0.000000 0.000000 0.000000 0.000000 0.026668 0.000000
# 6 0.000000 0.000000 0.000000 0.000000 0.000000 0.040595
#
#
# Mechanical properties :
#
#
# Convention : Reuss Voigt Hill
#
# Bulk Modulus (GPa) = 38.12775 43.66050 40.89413
# Shear Modulus (GPa) = 22.40645 25.69509 24.05077
#
# Velocity S-wave (km/s) = 3.40451 3.64580 3.52722
# Velocity P-wave (km/s) = 5.93106 6.34884 6.14350
#
# Compressibility (1/GPa) = 0.02622762
#
# Stress axis : x y z
#
# Youngs Moduli (GPa) = 53.40628 38.33811 94.79921
#
# Poissons Ratio (x) = 0.27835 0.34654
# Poissons Ratio (y) = 0.38775 0.34589
# Poissons Ratio (z) = 0.19523 0.13988
#
# Static dielectric constant tensor:
#      x y z
#    x 3.535300 0.000000 0.000000 
#    y 0.000000 3.461420 0.000000 
#    z 0.000000 0.000000 3.571510 
# 
# 
# High freq. dielectric constant tensor:
#      x y z
#    x 1.752090 0.000000 0.000000 
#    y 0.000000 1.739090 0.000000 
#    z 0.000000 0.000000 1.742900 
# 
# From -- ./inp_files/20511.got.cif
#   From: 2010.03.12/outbox.cif.g09.slc.cpg/sg60_11_cif.got.tgz:20511.got - 2010.04.10 18:46:24.
