data_PCOD8246730
_publ_section_title
;
Structure prediction by ZEFSAII (Michael W. Deem and Ramdas Pophale) SiO2 
 PCOD8246730
Probable space group: P B C N
;
_chemical_formula_sum "Si O2"
_cell_formula_units_Z 52
_cell_length_a 5.343574
_cell_length_b 26.403756
_cell_length_c 17.869280
_cell_angle_alpha 90.000000
_cell_angle_beta 90.000000
_cell_angle_gamma 90.000000
_cell_volume 2521.184293
_symmetry_space_group_name_H-M "P B C N"
_symmetry_group_IT_number 60
_symmetry_cell_setting 'orthorhombic'
loop_
_space_group_symop_operation_xyz
x,y,z
1/2-x,1/2-y,1/2+z
1/2+x,1/2-y,-z
-x,y,1/2-z
-x,-y,-z
1/2+x,1/2+y,1/2-z
1/2-x,1/2+y,z
x,-y,1/2+z
loop_
_atom_site_type_symbol
_atom_site_label
_atom_site_fract_x
_atom_site_fract_y
_atom_site_fract_z
Si Si1 0.575892 0.580692 0.005560
Si Si2 0.381269 0.922541 0.858794
Si Si3 0.073492 0.187800 0.965124
Si Si4 0.928246 0.734220 0.905325
Si Si5 0.500000 0.153525 0.250000
Si Si6 0.500000 0.530868 0.250000
Si Si7 0.769988 0.000873 0.397463
Si Si8 0.000000 0.783809 0.750000
O O1 0.766318 0.602767 0.067135
O O2 0.403475 0.541188 0.049089
O O3 0.416334 0.627154 0.974213
O O4 0.727226 0.553466 0.937751
O O5 0.568040 0.880590 0.824071
O O6 0.493541 0.976970 0.883646
O O7 0.197409 0.932040 0.788980
O O8 0.823794 0.202397 0.919701
O O9 0.325109 0.201295 0.921049
O O10 0.071745 0.214836 0.045524
O O11 0.930597 0.748447 0.819047
O O12 0.250006 0.184598 0.269198
O O13 0.391573 0.495033 0.184647
#
# Coordination Sequence:
#
# PCOD8246730 Si02
#       8
#     8   8   8   8   4   4   8   4
#     4  10  23  37  61  91 123 167 221 254 315 382
#     4  11  21  35  59  90 131 163 208 266 314 383
#     4  10  22  42  65  91 123 169 210 257 322 381
#     4  10  23  42  65  90 127 160 207 273 318 377
#     4  12  24  34  66  98 128 165 205 260 340 384
#     4  10  19  38  54  83 128 174 205 254 319 360
#     4  10  21  38  58  90 130 167 207 269 307 376
#     4  12  25  42  64 101 126 161 210 272 335 382
#
# _framework density 20.625228
#
# number of rings (size 3 to 8) (size 9 to 14) (size 15 to 20)
#    0.000    1.538    1.538    2.769    6.462    1.231 
#    0.000    1.538    0.000    0.000    0.000    0.000 
#    0.000    0.000    0.000    0.000    0.000    0.000 
#
# Total GULP energy -644584.720762 kJ/mol
# GULP energy per Si atom -12395.860015 kJ/mol
# Density = 2.057828 g / cm^3
# Si number density = 20.625228 Si / 1000 Ang^3
#
#
#
# Elastic Constant Matrix: (Units=GPa)
#
#
# Indices 1 2 3 4 5 6 
#
# 1 86.9200 -0.4163 19.3866 0.0000 0.0000 0.0000
# 2 -0.4163 64.2458 32.8350 0.0000 0.0000 0.0000
# 3 19.3866 32.8350 126.8287 0.0000 0.0000 0.0000
# 4 0.0000 0.0000 0.0000 13.1592 0.0000 0.0000
# 5 0.0000 0.0000 0.0000 0.0000 24.4256 0.0000
# 6 0.0000 0.0000 0.0000 0.0000 0.0000 17.8112
#
#
#
# Elastic Compliance Matrix: (Units=1/GPa)
#
#
# Indices 1 2 3 4 5 6 
#
# 1 0.011987 0.001169 -0.002135 0.000000 0.000000 0.000000
# 2 0.001169 0.018053 -0.004852 0.000000 0.000000 0.000000
# 3 -0.002135 -0.004852 0.009467 0.000000 0.000000 0.000000
# 4 0.000000 0.000000 0.000000 0.075992 0.000000 0.000000
# 5 0.000000 0.000000 0.000000 0.000000 0.040941 0.000000
# 6 0.000000 0.000000 0.000000 0.000000 0.000000 0.056144
#
#
# Mechanical properties :
#
#
# Convention : Reuss Voigt Hill
#
# Bulk Modulus (GPa) = 35.88132 42.40058 39.14095
# Shear Modulus (GPa) = 21.41228 26.15849 23.78539
#
# Velocity S-wave (km/s) = 3.22554 3.56515 3.39959
# Velocity P-wave (km/s) = 5.59524 6.12775 5.86754
#
# Compressibility (1/GPa) = 0.02786965
#
# Stress axis : x y z
#
# Youngs Moduli (GPa) = 83.42670 55.39319 105.62769
#
# Poissons Ratio (x) = -0.06474 0.22549
# Poissons Ratio (y) = -0.09750 0.51255
# Poissons Ratio (z) = 0.17810 0.26879
#
# Static dielectric constant tensor:
#      x y z
#    x 3.864900 0.000000 0.000000 
#    y 0.000000 3.498310 0.000000 
#    z 0.000000 0.000000 3.924580 
# 
# 
# High freq. dielectric constant tensor:
#      x y z
#    x 1.814990 0.000000 0.000000 
#    y 0.000000 1.780270 0.000000 
#    z 0.000000 0.000000 1.815720 
# 
# From -- ./inp_files/18773.got.cif
#   From: 2010.03.12/outbox.cif.g09.slc.cpg/sg60_10_cif.got.tgz:18773.got - 2010.04.10 18:46:24.
