data_PCOD8246818
_publ_section_title
;
Structure prediction by ZEFSAII (Michael W. Deem and Ramdas Pophale) SiO2 
 PCOD8246818
Probable space group: P B C N
;
_chemical_formula_sum "Si O2"
_cell_formula_units_Z 44
_cell_length_a 16.326630
_cell_length_b 25.918484
_cell_length_c 5.273627
_cell_angle_alpha 90.000000
_cell_angle_beta 90.000000
_cell_angle_gamma 90.000000
_cell_volume 2231.595903
_symmetry_space_group_name_H-M "P B C N"
_symmetry_group_IT_number 60
_symmetry_cell_setting 'orthorhombic'
loop_
_space_group_symop_operation_xyz
x,y,z
1/2-x,1/2-y,1/2+z
1/2+x,1/2-y,-z
-x,y,1/2-z
-x,-y,-z
1/2+x,1/2+y,1/2-z
1/2-x,1/2+y,z
x,-y,1/2+z
loop_
_atom_site_type_symbol
_atom_site_label
_atom_site_fract_x
_atom_site_fract_y
_atom_site_fract_z
Si Si1 0.823760 0.200859 0.284162
Si Si2 0.339505 0.018931 0.278260
Si Si3 0.268807 0.182370 0.715049
Si Si4 0.500000 0.046936 0.750000
Si Si5 0.000000 0.772740 0.750000
Si Si6 0.892884 0.380199 0.560762
Si Si7 0.000000 0.705880 0.250000
O O1 0.811318 0.262118 0.293172
O O2 0.779227 0.173515 0.522105
O O3 0.921370 0.191230 0.301427
O O4 0.792185 0.176660 0.023422
O O5 0.344348 0.080847 0.251524
O O6 0.291727 0.006093 0.541888
O O7 0.426273 0.989178 0.356451
O O8 0.337871 0.138390 0.678201
O O9 0.469744 0.086146 0.532590
O O10 0.982357 0.738651 0.500332
O O11 0.919602 0.329614 0.716006
#
# Coordination Sequence:
#
# PCOD8246818 Si02
#       7
#     8   8   8   4   4   8   4
#     4  10  22  39  50  72 102 134 173 228 291 305
#     4  10  20  34  48  69 105 144 169 211 260 289
#     4  10  22  35  53  72 105 135 170 230 275 315
#     4  10  20  36  50  76 112 146 176 218 254 302
#     4  12  23  38  56  73  98 138 182 235 274 325
#     4  11  21  33  53  77 105 141 190 219 252 316
#     4  12  23  30  52  81  96 132 196 231 250 307
#
# _framework density 19.716830999999999
#
# number of rings (size 3 to 8) (size 9 to 14) (size 15 to 20)
#    0.000    1.455    1.818    5.455    5.091    4.364 
#    0.000    0.000    0.000    0.000    0.000    0.000 
#    0.000    0.000    0.000   65.455    0.000    0.000 
#
# Total GULP energy -545376.293124 kJ/mol
# GULP energy per Si atom -12394.915753 kJ/mol
# Density = 1.967195 g / cm^3
# Si number density = 19.716831 Si / 1000 Ang^3
#
#
#
# Elastic Constant Matrix: (Units=GPa)
#
#
# Indices 1 2 3 4 5 6 
#
# 1 61.3806 1.6943 17.4408 0.0000 0.0000 0.0000
# 2 1.6943 38.0294 10.9131 0.0000 0.0000 0.0000
# 3 17.4408 10.9131 118.3457 0.0000 0.0000 0.0000
# 4 0.0000 0.0000 0.0000 18.8278 0.0000 0.0000
# 5 0.0000 0.0000 0.0000 0.0000 23.3394 0.0000
# 6 0.0000 0.0000 0.0000 0.0000 0.0000 10.3630
#
#
#
# Elastic Compliance Matrix: (Units=1/GPa)
#
#
# Indices 1 2 3 4 5 6 
#
# 1 0.017004 -0.000040 -0.002502 0.000000 0.000000 0.000000
# 2 -0.000040 0.027010 -0.002485 0.000000 0.000000 0.000000
# 3 -0.002502 -0.002485 0.009048 0.000000 0.000000 0.000000
# 4 0.000000 0.000000 0.000000 0.053113 0.000000 0.000000
# 5 0.000000 0.000000 0.000000 0.000000 0.042846 0.000000
# 6 0.000000 0.000000 0.000000 0.000000 0.000000 0.096497
#
#
# Mechanical properties :
#
#
# Convention : Reuss Voigt Hill
#
# Bulk Modulus (GPa) = 23.25120 30.87246 27.06183
# Shear Modulus (GPa) = 18.52486 23.01987 20.77236
#
# Velocity S-wave (km/s) = 3.06853 3.42061 3.24934
# Velocity P-wave (km/s) = 4.93686 5.59399 5.27567
#
# Compressibility (1/GPa) = 0.04300854
#
# Stress axis : x y z
#
# Youngs Moduli (GPa) = 58.81009 37.02296 110.52505
#
# Poissons Ratio (x) = 0.00146 0.27656
# Poissons Ratio (y) = 0.00232 0.27464
# Poissons Ratio (z) = 0.14716 0.09200
#
# Static dielectric constant tensor:
#      x y z
#    x 3.304280 0.000000 0.000000 
#    y 0.000000 3.432330 0.000000 
#    z 0.000000 0.000000 3.939560 
# 
# 
# High freq. dielectric constant tensor:
#      x y z
#    x 1.709900 0.000000 0.000000 
#    y 0.000000 1.736850 0.000000 
#    z 0.000000 0.000000 1.800020 
# 
# From -- ./inp_files/1301.got.cif
#   From: 2010.03.12/outbox.cif.g09.slc.cpg/sg60_1_cif.got.tgz:1301.got - 2010.04.10 18:46:24.
