data_PCOD8246479
_publ_section_title
;
Structure prediction by ZEFSAII (Michael W. Deem and Ramdas Pophale) SiO2 
 PCOD8246479
Probable space group: P B C N
;
_chemical_formula_sum "Si O2"
_cell_formula_units_Z 56
_cell_length_a 14.289663
_cell_length_b 15.924582
_cell_length_c 11.489244
_cell_angle_alpha 90.000000
_cell_angle_beta 90.000000
_cell_angle_gamma 90.000000
_cell_volume 2614.456865
_symmetry_space_group_name_H-M "P B C N"
_symmetry_group_IT_number 60
_symmetry_cell_setting 'orthorhombic'
loop_
_space_group_symop_operation_xyz
x,y,z
1/2-x,1/2-y,1/2+z
1/2+x,1/2-y,-z
-x,y,1/2-z
-x,-y,-z
1/2+x,1/2+y,1/2-z
1/2-x,1/2+y,z
x,-y,1/2+z
loop_
_atom_site_type_symbol
_atom_site_label
_atom_site_fract_x
_atom_site_fract_y
_atom_site_fract_z
Si Si1 0.901150 0.851450 0.728036
Si Si2 0.782918 0.384754 0.107644
Si Si3 0.097063 0.694298 0.612016
Si Si4 0.403259 0.018684 0.721044
Si Si5 0.296851 0.652461 0.651861
Si Si6 0.415566 0.254687 0.991475
Si Si7 0.773973 0.962162 0.883970
O O1 0.907635 0.758347 0.781391
O O2 0.890031 0.834714 0.590780
O O3 0.818540 0.905411 0.783000
O O4 0.000000 0.898991 0.750000
O O5 0.841773 0.460836 0.164669
O O6 0.724566 0.338124 0.210109
O O7 0.852672 0.323650 0.042041
O O8 0.710349 0.422491 0.012139
O O9 0.063280 0.603913 0.657124
O O10 0.206558 0.685088 0.575350
O O11 0.025879 0.728201 0.511690
O O12 0.500000 0.969410 0.750000
O O13 0.338499 0.962758 0.637059
O O14 0.385833 0.710547 0.619125
O O15 0.317003 0.555144 0.622509
#
# Coordination Sequence:
#
# PCOD8246479 Si02
#       7
#     8   8   8   8   8   8   8
#     4  10  19  37  65  85 109 161 211 240 291 372
#     4  10  20  36  59  87 125 151 206 249 299 368
#     4   9  17  38  60  85 110 155 206 241 290 372
#     4  10  18  37  59  91 121 155 204 247 307 373
#     4  10  23  36  61  93 119 157 201 249 310 359
#     4  11  19  35  66  85 111 157 211 249 290 355
#     4  10  23  36  58  88 128 164 193 250 319 356
#
# _framework density 21.419363000000001
#
# number of rings (size 3 to 8) (size 9 to 14) (size 15 to 20)
#    0.000    2.286    4.286    1.286    4.000    0.571 
#    0.000    2.857    6.286    0.000    0.000    1.000 
#    0.000    0.000    0.000    0.000    0.000    0.000 
#
# Total GULP energy -693855.444807 kJ/mol
# GULP energy per Si atom -12390.275800 kJ/mol
# Density = 2.137061 g / cm^3
# Si number density = 21.419363 Si / 1000 Ang^3
#
#
#
# Elastic Constant Matrix: (Units=GPa)
#
#
# Indices 1 2 3 4 5 6 
#
# 1 77.1466 35.6651 26.3829 0.0000 0.0000 0.0000
# 2 35.6651 64.8003 25.7006 0.0000 0.0000 0.0000
# 3 26.3829 25.7006 59.3245 0.0000 0.0000 0.0000
# 4 0.0000 0.0000 0.0000 23.5766 0.0000 0.0000
# 5 0.0000 0.0000 0.0000 0.0000 34.4287 0.0000
# 6 0.0000 0.0000 0.0000 0.0000 0.0000 6.1536
#
#
#
# Elastic Compliance Matrix: (Units=1/GPa)
#
#
# Indices 1 2 3 4 5 6 
#
# 1 0.018359 -0.008291 -0.004573 0.000000 0.000000 0.000000
# 2 -0.008291 0.022378 -0.006007 0.000000 0.000000 0.000000
# 3 -0.004573 -0.006007 0.021493 0.000000 0.000000 0.000000
# 4 0.000000 0.000000 0.000000 0.042415 0.000000 0.000000
# 5 0.000000 0.000000 0.000000 0.000000 0.029045 0.000000
# 6 0.000000 0.000000 0.000000 0.000000 0.000000 0.162507
#
#
# Mechanical properties :
#
#
# Convention : Reuss Voigt Hill
#
# Bulk Modulus (GPa) = 40.83772 41.86318 41.35045
# Shear Modulus (GPa) = 14.61554 20.39997 17.50775
#
# Velocity S-wave (km/s) = 2.61502 3.08946 2.86209
# Velocity P-wave (km/s) = 5.31272 5.68448 5.50174
#
# Compressibility (1/GPa) = 0.02448717
#
# Stress axis : x y z
#
# Youngs Moduli (GPa) = 54.46888 44.68708 46.52756
#
# Poissons Ratio (x) = 0.37050 0.21277
# Poissons Ratio (y) = 0.45160 0.27951
# Poissons Ratio (z) = 0.24908 0.26845
#
# Static dielectric constant tensor:
#      x y z
#    x 4.017660 0.000000 0.000000 
#    y 0.000000 3.669190 0.000000 
#    z 0.000000 0.000000 3.701000 
# 
# 
# High freq. dielectric constant tensor:
#      x y z
#    x 1.829230 0.000000 0.000000 
#    y 0.000000 1.824630 0.000000 
#    z 0.000000 0.000000 1.814890 
# 
# From -- ./inp_files/11955.got.cif
#   From: 2010.03.12/outbox.cif.g09.slc.cpg/sg60_6_cif.got.tgz:11955.got - 2010.04.10 18:46:24.
