data_PCOD8246182
_publ_section_title
;
Structure prediction by ZEFSAII (Michael W. Deem and Ramdas Pophale) SiO2 
 PCOD8246182
Probable space group: P M M N
;
_chemical_formula_sum "Si O2"
_cell_formula_units_Z 56
_cell_length_a 24.437276
_cell_length_b 9.685007
_cell_length_c 16.317985
_cell_angle_alpha 90.000000
_cell_angle_beta 90.000000
_cell_angle_gamma 90.000000
_cell_volume 3862.062186
_symmetry_space_group_name_H-M "P M M N"
_symmetry_group_IT_number 59
_space_group.IT_coordinate_system_code '2'
_symmetry_cell_setting 'orthorhombic'
loop_
_space_group_symop_operation_xyz
x,y,z
1/2-x,1/2-y,z
1/2+x,-y,-z
-x,1/2+y,-z
-x,-y,-z
1/2+x,1/2+y,-z
1/2-x,y,z
x,1/2-y,z
loop_
_atom_site_type_symbol
_atom_site_label
_atom_site_fract_x
_atom_site_fract_y
_atom_site_fract_z
Si Si1 0.812232 0.590527 0.898008
Si Si2 0.453351 0.594061 0.534478
Si Si3 0.918511 0.591375 0.994256
Si Si4 0.496997 0.589463 0.698764
Si Si5 0.406007 0.908659 0.373032
Si Si6 0.979992 0.410120 0.117910
Si Si7 0.311634 0.908628 0.256315
O O1 0.750000 0.555706 0.927462
O O2 0.817057 0.750000 0.872204
O O3 0.856023 0.556516 0.969029
O O4 0.829482 0.501059 0.820069
O O5 0.500000 0.500000 0.500000
O O6 0.474114 0.750000 0.524369
O O7 0.446892 0.565552 0.632525
O O8 0.401880 0.568927 0.472849
O O9 0.923941 0.750000 0.021817
O O10 0.959678 0.560602 0.918738
O O11 0.933675 0.496128 0.070896
O O12 0.513980 0.750000 0.704083
O O13 0.549256 0.504540 0.669504
O O14 0.478245 0.538772 0.788057
O O15 0.421448 0.750000 0.353282
O O16 0.347475 0.946917 0.335454
O O17 0.964278 0.250000 0.110054
O O18 0.250000 0.941704 0.282728
O O19 0.319063 0.750000 0.229484
#
# Coordination Sequence:
#
# PCOD8246182 Si02
#       7
#     8   8   8   8   8   8   8
#     4   9  17  29  44  60  78 101 130 163 195 228
#     4   8  14  24  37  54  75  98 124 152 182 217
#     4   9  17  28  40  56  78 101 127 158 192 231
#     4   9  16  26  40  57  77 101 128 157 190 227
#     4   9  16  25  38  56  78 103 128 155 187 223
#     4   9  17  27  39  56  78 104 130 156 189 230
#     4   9  17  27  38  55  79 104 129 155 184 221
#
# _framework density 14.500026
#
# number of rings (size 3 to 8) (size 9 to 14) (size 15 to 20)
#    0.000    3.143    0.000    0.857    0.000    2.857 
#    0.000    2.857    0.000    0.000    0.000    1.000 
#    0.000    3.429    0.000    0.000    0.000    0.000 
#
# Total GULP energy -693760.083344 kJ/mol
# GULP energy per Si atom -12388.572917 kJ/mol
# Density = 1.446702 g / cm^3
# Si number density = 14.500026 Si / 1000 Ang^3
#
#
#
# Elastic Constant Matrix: (Units=GPa)
#
#
# Indices 1 2 3 4 5 6 
#
# 1 73.1780 30.7955 56.2524 0.0000 0.0000 0.0000
# 2 30.7955 41.5438 43.6107 0.0000 0.0000 0.0000
# 3 56.2524 43.6107 133.9819 0.0000 0.0000 0.0000
# 4 0.0000 0.0000 0.0000 19.9226 0.0000 0.0000
# 5 0.0000 0.0000 0.0000 0.0000 23.7816 0.0000
# 6 0.0000 0.0000 0.0000 0.0000 0.0000 17.7166
#
#
#
# Elastic Compliance Matrix: (Units=1/GPa)
#
#
# Indices 1 2 3 4 5 6 
#
# 1 0.022800 -0.010409 -0.006184 0.000000 0.000000 0.000000
# 2 -0.010409 0.041317 -0.009078 0.000000 0.000000 0.000000
# 3 -0.006184 -0.009078 0.013015 0.000000 0.000000 0.000000
# 4 0.000000 0.000000 0.000000 0.050194 0.000000 0.000000
# 5 0.000000 0.000000 0.000000 0.000000 0.042049 0.000000
# 6 0.000000 0.000000 0.000000 0.000000 0.000000 0.056444
#
#
# Mechanical properties :
#
#
# Convention : Reuss Voigt Hill
#
# Bulk Modulus (GPa) = 38.77695 56.66900 47.72297
# Shear Modulus (GPa) = 17.49728 20.15383 18.82556
#
# Velocity S-wave (km/s) = 3.47754 3.73220 3.60712
# Velocity P-wave (km/s) = 6.55172 7.59864 7.09452
#
# Compressibility (1/GPa) = 0.02578852
#
# Stress axis : x y z
#
# Youngs Moduli (GPa) = 43.86032 24.20327 76.83328
#
# Poissons Ratio (x) = 0.25193 0.47517
# Poissons Ratio (y) = 0.45653 0.69752
# Poissons Ratio (z) = 0.27125 0.21973
#
# Static dielectric constant tensor:
#      x y z
#    x 2.782400 0.000000 0.000000 
#    y 0.000000 2.773670 0.000000 
#    z 0.000000 0.000000 3.095070 
# 
# 
# High freq. dielectric constant tensor:
#      x y z
#    x 1.522980 0.000000 0.000000 
#    y 0.000000 1.562400 0.000000 
#    z 0.000000 0.000000 1.550230 
# 
# From -- ./inp_files/26422.got.cif
#   From: 2010.03.12/outbox.cif.g09.slc.cpg/sg59_14_cif.got.tgz:26422.got - 2010.04.16 16:29:54.
