data_PCOD8246550
_publ_section_title
;
Structure prediction by ZEFSAII (Michael W. Deem and Ramdas Pophale) SiO2 
 PCOD8246550
Probable space group: P B C N
;
_chemical_formula_sum "Si O2"
_cell_formula_units_Z 40
_cell_length_a 14.305881
_cell_length_b 18.371224
_cell_length_c 8.176923
_cell_angle_alpha 90.000000
_cell_angle_beta 90.000000
_cell_angle_gamma 90.000000
_cell_volume 2149.030646
_symmetry_space_group_name_H-M "P B C N"
_symmetry_group_IT_number 60
_symmetry_cell_setting 'orthorhombic'
loop_
_space_group_symop_operation_xyz
x,y,z
1/2-x,1/2-y,1/2+z
1/2+x,1/2-y,-z
-x,y,1/2-z
-x,-y,-z
1/2+x,1/2+y,1/2-z
1/2-x,1/2+y,z
x,-y,1/2+z
loop_
_atom_site_type_symbol
_atom_site_label
_atom_site_fract_x
_atom_site_fract_y
_atom_site_fract_z
Si Si1 0.395371 0.080036 0.439148
Si Si2 0.584646 0.558162 0.361731
Si Si3 0.680729 0.428587 0.548898
Si Si4 0.972620 0.163167 0.922706
Si Si5 0.500000 0.197074 0.250000
Si Si6 0.500000 0.959393 0.250000
O O1 0.288790 0.072298 0.495920
O O2 0.414776 0.147656 0.317162
O O3 0.453161 0.089566 0.608243
O O4 0.421657 0.007727 0.339661
O O5 0.500000 0.526575 0.250000
O O6 0.621685 0.499064 0.490178
O O7 0.671923 0.577332 0.245078
O O8 0.547913 0.632409 0.447254
O O9 0.633052 0.358263 0.467893
O O10 0.971343 0.251349 0.903936
O O11 0.000000 0.126895 0.750000
#
# Coordination Sequence:
#
# PCOD8246550 Si02
#       6
#     8   8   8   8   4   4
#     4  10  20  39  59  85 109 148 191 245 279 341
#     4  10  19  32  55  86 120 145 180 235 293 338
#     4  11  19  32  59  89 109 142 199 237 276 332
#     4   9  19  37  52  75 118 159 173 224 290 345
#     4   9  22  42  52  70 123 156 180 228 299 338
#     4   9  20  38  62  80 111 146 190 238 303 318
#
# _framework density 18.613042
#
# number of rings (size 3 to 8) (size 9 to 14) (size 15 to 20)
#    0.600    1.600    0.000    5.400    0.000    0.000 
#    9.000    0.000    0.000    0.000    0.000    0.000 
#    0.000    0.000    0.000    0.000    0.000    0.000 
#
# Total GULP energy -495574.021922 kJ/mol
# GULP energy per Si atom -12389.350548 kJ/mol
# Density = 1.857068 g / cm^3
# Si number density = 18.613042 Si / 1000 Ang^3
#
#
#
# Elastic Constant Matrix: (Units=GPa)
#
#
# Indices 1 2 3 4 5 6 
#
# 1 112.7228 46.5648 40.2103 0.0000 0.0000 0.0000
# 2 46.5648 94.2747 37.6727 0.0000 0.0000 0.0000
# 3 40.2103 37.6727 104.7803 0.0000 0.0000 0.0000
# 4 0.0000 0.0000 0.0000 34.3579 0.0000 0.0000
# 5 0.0000 0.0000 0.0000 0.0000 23.8718 0.0000
# 6 0.0000 0.0000 0.0000 0.0000 0.0000 0.5785
#
#
#
# Elastic Compliance Matrix: (Units=1/GPa)
#
#
# Indices 1 2 3 4 5 6 
#
# 1 0.011831 -0.004705 -0.002849 0.000000 0.000000 0.000000
# 2 -0.004705 0.014258 -0.003321 0.000000 0.000000 0.000000
# 3 -0.002849 -0.003321 0.011831 0.000000 0.000000 0.000000
# 4 0.000000 0.000000 0.000000 0.029105 0.000000 0.000000
# 5 0.000000 0.000000 0.000000 0.000000 0.041890 0.000000
# 6 0.000000 0.000000 0.000000 0.000000 0.000000 1.728465
#
#
# Mechanical properties :
#
#
# Convention : Reuss Voigt Hill
#
# Bulk Modulus (GPa) = 61.83876 62.29706 62.06791
# Shear Modulus (GPa) = 2.68165 24.25032 13.46599
#
# Velocity S-wave (km/s) = 1.20161 3.61344 2.69266
# Velocity P-wave (km/s) = 5.93470 7.13803 6.56400
#
# Compressibility (1/GPa) = 0.01617109
#
# Stress axis : x y z
#
# Youngs Moduli (GPa) = 84.52204 70.13390 84.52469
#
# Poissons Ratio (x) = 0.33001 0.24077
# Poissons Ratio (y) = 0.39772 0.28068
# Poissons Ratio (z) = 0.24076 0.23290
#
# Static dielectric constant tensor:
#      x y z
#    x 3.014420 0.000000 0.000000 
#    y 0.000000 3.138140 0.000000 
#    z 0.000000 0.000000 3.145000 
# 
# 
# High freq. dielectric constant tensor:
#      x y z
#    x 1.706520 0.000000 0.000000 
#    y 0.000000 1.696670 0.000000 
#    z 0.000000 0.000000 1.738760 
# 
# From -- ./inp_files/5808.got.cif
#   From: 2010.03.12/outbox.cif.g09.slc.cpg/sg60_3_cif.got.tgz:5808.got - 2010.04.10 18:46:24.
