data_PCOD8246859
_publ_section_title
;
Structure prediction by ZEFSAII (Michael W. Deem and Ramdas Pophale) SiO2 
 PCOD8246859
Probable space group: P B C N
;
_chemical_formula_sum "Si O2"
_cell_formula_units_Z 48
_cell_length_a 26.698475
_cell_length_b 9.074645
_cell_length_c 7.911697
_cell_angle_alpha 90.000000
_cell_angle_beta 90.000000
_cell_angle_gamma 90.000000
_cell_volume 1916.839483
_symmetry_space_group_name_H-M "P B C N"
_symmetry_group_IT_number 60
_symmetry_cell_setting 'orthorhombic'
loop_
_space_group_symop_operation_xyz
x,y,z
1/2-x,1/2-y,1/2+z
1/2+x,1/2-y,-z
-x,y,1/2-z
-x,-y,-z
1/2+x,1/2+y,1/2-z
1/2-x,1/2+y,z
x,-y,1/2+z
loop_
_atom_site_type_symbol
_atom_site_label
_atom_site_fract_x
_atom_site_fract_y
_atom_site_fract_z
Si Si1 0.217718 0.042724 0.751352
Si Si2 0.615678 0.183062 0.006375
Si Si3 0.556617 0.219556 0.687944
Si Si4 0.604840 0.531646 0.691192
Si Si5 0.555852 0.800914 0.815735
Si Si6 0.272075 0.178492 0.448325
O O1 0.159986 0.996036 0.735107
O O2 0.231229 0.137211 0.587379
O O3 0.226663 0.146636 0.916266
O O4 0.253390 0.901089 0.775330
O O5 0.588499 0.135583 0.832420
O O6 0.610583 0.363377 0.022488
O O7 0.590629 0.113836 0.177490
O O8 0.672539 0.125723 0.998223
O O9 0.500000 0.223147 0.750000
O O10 0.575797 0.383435 0.652278
O O11 0.561214 0.134608 0.506702
O O12 0.572641 0.628796 0.824502
O O13 0.500000 0.818273 0.750000
#
# Coordination Sequence:
#
# PCOD8246859 Si02
#       6
#     8   8   8   8   8   8
#     4  11  25  42  71  94 143 179 239 285 354 403
#     4   9  23  38  55  90 132 168 226 268 340 411
#     4  12  20  33  60  91 135 181 215 277 360 420
#     4   9  22  33  54  89 132 170 217 280 340 414
#     4  10  20  35  54  89 134 171 215 280 344 407
#     4  11  25  46  66 102 137 186 231 295 343 424
#
# _framework density 25.041221
#
# number of rings (size 3 to 8) (size 9 to 14) (size 15 to 20)
#    1.000    0.667    1.667    2.500    9.333    2.000 
#    3.000    0.000    0.000    0.000    0.000    3.500 
#    0.000    0.000    0.000    0.000    0.000    0.000 
#
# Total GULP energy -594906.800995 kJ/mol
# GULP energy per Si atom -12393.891687 kJ/mol
# Density = 2.498423 g / cm^3
# Si number density = 25.041221 Si / 1000 Ang^3
#
#
#
# Elastic Constant Matrix: (Units=GPa)
#
#
# Indices 1 2 3 4 5 6 
#
# 1 103.6194 0.8931 25.4181 0.0000 0.0000 0.0000
# 2 0.8931 27.3500 9.1798 0.0000 0.0000 0.0000
# 3 25.4181 9.1798 154.4323 0.0000 0.0000 0.0000
# 4 0.0000 0.0000 0.0000 27.6010 0.0000 0.0000
# 5 0.0000 0.0000 0.0000 0.0000 5.2340 0.0000
# 6 0.0000 0.0000 0.0000 0.0000 0.0000 1.9291
#
#
#
# Elastic Compliance Matrix: (Units=1/GPa)
#
#
# Indices 1 2 3 4 5 6 
#
# 1 0.010058 0.000232 -0.001669 0.000000 0.000000 0.000000
# 2 0.000232 0.037313 -0.002256 0.000000 0.000000 0.000000
# 3 -0.001669 -0.002256 0.006884 0.000000 0.000000 0.000000
# 4 0.000000 0.000000 0.000000 0.036231 0.000000 0.000000
# 5 0.000000 0.000000 0.000000 0.000000 0.191058 0.000000
# 6 0.000000 0.000000 0.000000 0.000000 0.000000 0.518368
#
#
# Mechanical properties :
#
#
# Convention : Reuss Voigt Hill
#
# Bulk Modulus (GPa) = 21.33652 39.59819 30.46736
# Shear Modulus (GPa) = 6.07592 23.61355 14.84473
#
# Velocity S-wave (km/s) = 1.55937 3.07414 2.43741
# Velocity P-wave (km/s) = 3.43238 5.33367 4.48493
#
# Compressibility (1/GPa) = 0.04686799
#
# Stress axis : x y z
#
# Youngs Moduli (GPa) = 99.42157 26.80054 145.26054
#
# Poissons Ratio (x) = -0.00621 0.24248
# Poissons Ratio (y) = -0.02305 0.32772
# Poissons Ratio (z) = 0.16596 0.06046
#
# Static dielectric constant tensor:
#      x y z
#    x 4.312860 0.000000 0.000000 
#    y 0.000000 4.167020 0.000000 
#    z 0.000000 0.000000 4.653490 
# 
# 
# High freq. dielectric constant tensor:
#      x y z
#    x 1.995570 0.000000 0.000000 
#    y 0.000000 1.983120 0.000000 
#    z 0.000000 0.000000 2.013480 
# 
# From -- ./inp_files/8385.got.cif
#   From: 2010.03.12/outbox.cif.g09.slc.cpg/sg60_5_cif.got.tgz:8385.got - 2010.04.10 18:46:24.
