data_PCOD8246761
_publ_section_title
;
Structure prediction by ZEFSAII (Michael W. Deem and Ramdas Pophale) SiO2 
 PCOD8246761
Probable space group: P B C N
;
_chemical_formula_sum "Si O2"
_cell_formula_units_Z 56
_cell_length_a 8.599147
_cell_length_b 19.947359
_cell_length_c 14.403025
_cell_angle_alpha 90.000000
_cell_angle_beta 90.000000
_cell_angle_gamma 90.000000
_cell_volume 2470.554800
_symmetry_space_group_name_H-M "P B C N"
_symmetry_group_IT_number 60
_symmetry_cell_setting 'orthorhombic'
loop_
_space_group_symop_operation_xyz
x,y,z
1/2-x,1/2-y,1/2+z
1/2+x,1/2-y,-z
-x,y,1/2-z
-x,-y,-z
1/2+x,1/2+y,1/2-z
1/2-x,1/2+y,z
x,-y,1/2+z
loop_
_atom_site_type_symbol
_atom_site_label
_atom_site_fract_x
_atom_site_fract_y
_atom_site_fract_z
Si Si1 0.235411 0.350622 0.181357
Si Si2 0.714296 0.281806 0.025484
Si Si3 0.259373 0.907443 0.876889
Si Si4 0.046245 0.345205 0.020586
Si Si5 0.675631 0.773564 0.719362
Si Si6 0.015982 0.110642 0.532171
Si Si7 0.148281 0.959678 0.313235
O O1 0.074667 0.371301 0.126049
O O2 0.231979 0.270212 0.203778
O O3 0.384709 0.363337 0.118359
O O4 0.251345 0.398163 0.271371
O O5 0.679497 0.278158 0.134357
O O6 0.587320 0.331816 0.983314
O O7 0.884847 0.309410 0.001561
O O8 0.692447 0.207380 0.985193
O O9 0.240784 0.843788 0.807045
O O10 0.262050 0.975230 0.816536
O O11 0.418283 0.899099 0.938923
O O12 0.115658 0.917578 0.947419
O O13 0.500000 0.789453 0.750000
O O14 0.899601 0.056713 0.579908
O O15 0.000000 0.977832 0.250000
#
# Coordination Sequence:
#
# PCOD8246761 Si02
#       7
#     8   8   8   8   8   8   8
#     4  10  19  39  68  92 124 167 223 258 316 382
#     4  11  20  39  61  97 125 165 212 261 318 384
#     4  10  23  39  61  96 132 163 212 267 325 378
#     4  10  23  37  63  95 130 166 213 262 322 383
#     4  11  20  37  64  94 126 163 206 269 332 369
#     4  10  19  40  69  91 121 171 220 259 309 389
#     4  10  20  41  68  91 126 176 222 261 309 385
#
# _framework density 22.666975000000001
#
# number of rings (size 3 to 8) (size 9 to 14) (size 15 to 20)
#    0.000    1.714    2.857    3.429    2.000    0.571 
#    7.714    2.143    0.000    1.714    0.000    0.000 
#    0.000    0.000    0.000    0.000    0.000    0.000 
#
# Total GULP energy -693863.838501 kJ/mol
# GULP energy per Si atom -12390.425688 kJ/mol
# Density = 2.261538 g / cm^3
# Si number density = 22.666975 Si / 1000 Ang^3
#
#
#
# Elastic Constant Matrix: (Units=GPa)
#
#
# Indices 1 2 3 4 5 6 
#
# 1 60.4020 14.7295 4.7196 0.0000 0.0000 0.0000
# 2 14.7295 118.6703 29.7679 0.0000 0.0000 0.0000
# 3 4.7196 29.7679 58.5146 0.0000 0.0000 0.0000
# 4 0.0000 0.0000 0.0000 24.2482 0.0000 0.0000
# 5 0.0000 0.0000 0.0000 0.0000 24.9330 0.0000
# 6 0.0000 0.0000 0.0000 0.0000 0.0000 32.2520
#
#
#
# Elastic Compliance Matrix: (Units=1/GPa)
#
#
# Indices 1 2 3 4 5 6 
#
# 1 0.017078 -0.002034 -0.000343 0.000000 0.000000 0.000000
# 2 -0.002034 0.009902 -0.004873 0.000000 0.000000 0.000000
# 3 -0.000343 -0.004873 0.019597 0.000000 0.000000 0.000000
# 4 0.000000 0.000000 0.000000 0.041240 0.000000 0.000000
# 5 0.000000 0.000000 0.000000 0.000000 0.040107 0.000000
# 6 0.000000 0.000000 0.000000 0.000000 0.000000 0.031006
#
#
# Mechanical properties :
#
#
# Convention : Reuss Voigt Hill
#
# Bulk Modulus (GPa) = 31.17501 37.33565 34.25533
# Shear Modulus (GPa) = 27.15592 28.84463 28.00028
#
# Velocity S-wave (km/s) = 3.46502 3.57114 3.51848
# Velocity P-wave (km/s) = 5.45819 5.78888 5.62597
#
# Compressibility (1/GPa) = 0.03207697
#
# Stress axis : x y z
#
# Youngs Moduli (GPa) = 58.55323 100.99426 51.02951
#
# Poissons Ratio (x) = 0.20540 0.01749
# Poissons Ratio (y) = 0.11909 0.24867
# Poissons Ratio (z) = 0.02007 0.49216
#
# Static dielectric constant tensor:
#      x y z
#    x 3.768110 0.000000 0.000000 
#    y 0.000000 3.915820 0.000000 
#    z 0.000000 0.000000 4.246800 
# 
# 
# High freq. dielectric constant tensor:
#      x y z
#    x 1.871130 0.000000 0.000000 
#    y 0.000000 1.882790 0.000000 
#    z 0.000000 0.000000 1.897530 
# 
# From -- ./inp_files/15262.got.cif
#   From: 2010.03.12/outbox.cif.g09.slc.cpg/sg60_8_cif.got.tgz:15262.got - 2010.04.10 18:46:24.
