data_PCOD8246226
_publ_section_title
;
Structure prediction by ZEFSAII (Michael W. Deem and Ramdas Pophale) SiO2 
 PCOD8246226
Probable space group: P M M N
;
_chemical_formula_sum "Si O2"
_cell_formula_units_Z 40
_cell_length_a 9.123875
_cell_length_b 27.356565
_cell_length_c 10.419301
_cell_angle_alpha 90.000000
_cell_angle_beta 90.000000
_cell_angle_gamma 90.000000
_cell_volume 2600.635435
_symmetry_space_group_name_H-M "P M M N"
_symmetry_group_IT_number 59
_space_group.IT_coordinate_system_code '2'
_symmetry_cell_setting 'orthorhombic'
loop_
_space_group_symop_operation_xyz
x,y,z
1/2-x,1/2-y,z
1/2+x,-y,-z
-x,1/2+y,-z
-x,-y,-z
1/2+x,1/2+y,-z
1/2-x,y,z
x,1/2-y,z
loop_
_atom_site_type_symbol
_atom_site_label
_atom_site_fract_x
_atom_site_fract_y
_atom_site_fract_z
Si Si1 0.920965 0.693515 0.643503
Si Si2 0.416067 0.450904 0.968736
Si Si3 0.922062 0.194276 0.611427
Si Si4 0.576267 0.366997 0.856784
Si Si5 0.915742 0.644051 0.900081
O O1 0.750000 0.684739 0.622101
O O2 0.958349 0.750000 0.669268
O O3 0.980037 0.662679 0.765098
O O4 0.002351 0.674066 0.517112
O O5 0.250000 0.462812 0.924923
O O6 0.415625 0.415552 0.094887
O O7 0.500000 0.500000 0.000000
O O8 0.500920 0.421002 0.855605
O O9 0.750000 0.190454 0.591261
O O10 0.970805 0.250000 0.638462
O O11 0.974400 0.161414 0.730026
O O12 0.750000 0.372355 0.865797
O O13 0.516507 0.336827 0.981393
O O14 0.750000 0.664286 0.918246
#
# Coordination Sequence:
#
# PCOD8246226 Si02
#       5
#     8   8   8   8   8
#     4   9  17  30  47  66  91 124 156 185 223 269
#     4   9  17  30  48  69  92 116 147 189 233 276
#     4   9  18  31  45  65  95 127 156 186 221 263
#     4   9  17  29  46  68  92 121 153 187 225 267
#     4   8  17  30  44  67  93 117 148 190 229 265
#
# _framework density 15.380857000000001
#
# number of rings (size 3 to 8) (size 9 to 14) (size 15 to 20)
#    1.200    2.000    0.000    0.600    0.000    3.200 
#    0.000    0.000    0.000    1.200    0.000    0.000 
#    0.000    0.000    0.000    0.000    0.000    0.000 
#
# Total GULP energy -495578.781661 kJ/mol
# GULP energy per Si atom -12389.469542 kJ/mol
# Density = 1.534585 g / cm^3
# Si number density = 15.380857 Si / 1000 Ang^3
#
#
#
# Elastic Constant Matrix: (Units=GPa)
#
#
# Indices 1 2 3 4 5 6 
#
# 1 66.0401 30.4690 48.3179 0.0000 0.0000 0.0000
# 2 30.4690 64.9299 54.6280 0.0000 0.0000 0.0000
# 3 48.3179 54.6280 129.4855 0.0000 0.0000 0.0000
# 4 0.0000 0.0000 0.0000 8.5419 0.0000 0.0000
# 5 0.0000 0.0000 0.0000 0.0000 27.7224 0.0000
# 6 0.0000 0.0000 0.0000 0.0000 0.0000 21.4975
#
#
#
# Elastic Compliance Matrix: (Units=1/GPa)
#
#
# Indices 1 2 3 4 5 6 
#
# 1 0.021938 -0.005282 -0.005958 0.000000 0.000000 0.000000
# 2 -0.005282 0.025148 -0.008638 0.000000 0.000000 0.000000
# 3 -0.005958 -0.008638 0.013590 0.000000 0.000000 0.000000
# 4 0.000000 0.000000 0.000000 0.117069 0.000000 0.000000
# 5 0.000000 0.000000 0.000000 0.000000 0.036072 0.000000
# 6 0.000000 0.000000 0.000000 0.000000 0.000000 0.046517
#
#
# Mechanical properties :
#
#
# Convention : Reuss Voigt Hill
#
# Bulk Modulus (GPa) = 47.80187 58.58722 53.19454
# Shear Modulus (GPa) = 16.28318 20.02174 18.15246
#
# Velocity S-wave (km/s) = 3.25724 3.61187 3.43913
# Velocity P-wave (km/s) = 6.72997 7.45438 7.10142
#
# Compressibility (1/GPa) = 0.02091969
#
# Stress axis : x y z
#
# Youngs Moduli (GPa) = 45.58204 39.76500 73.58086
#
# Poissons Ratio (x) = 0.21005 0.43839
# Poissons Ratio (y) = 0.24077 0.63562
# Poissons Ratio (z) = 0.27157 0.34351
#
# Static dielectric constant tensor:
#      x y z
#    x 2.941360 0.000000 0.000000 
#    y 0.000000 2.766900 0.000000 
#    z 0.000000 0.000000 2.904800 
# 
# 
# High freq. dielectric constant tensor:
#      x y z
#    x 1.596760 0.000000 0.000000 
#    y 0.000000 1.567530 0.000000 
#    z 0.000000 0.000000 1.574960 
# 
# From -- ./inp_files/12389.got.cif
#   From: 2010.03.12/outbox.cif.g09.slc.cpg/sg59_7_cif.got.tgz:12389.got - 2010.04.16 16:29:54.
