data_PCOD8246153
_publ_section_title
;
Structure prediction by ZEFSAII (Michael W. Deem and Ramdas Pophale) SiO2 
 PCOD8246153
Probable space group: P M M N
;
_chemical_formula_sum "Si O2"
_cell_formula_units_Z 64
_cell_length_a 9.190043
_cell_length_b 23.074950
_cell_length_c 20.287741
_cell_angle_alpha 90.000000
_cell_angle_beta 90.000000
_cell_angle_gamma 90.000000
_cell_volume 4302.213948
_symmetry_space_group_name_H-M "P M M N"
_symmetry_group_IT_number 59
_space_group.IT_coordinate_system_code '2'
_symmetry_cell_setting 'orthorhombic'
loop_
_space_group_symop_operation_xyz
x,y,z
1/2-x,1/2-y,z
1/2+x,-y,-z
-x,1/2+y,-z
-x,-y,-z
1/2+x,1/2+y,-z
1/2-x,y,z
x,1/2-y,z
loop_
_atom_site_type_symbol
_atom_site_label
_atom_site_fract_x
_atom_site_fract_y
_atom_site_fract_z
Si Si1 0.082825 0.526657 0.296242
Si Si2 0.077071 0.315018 0.213817
Si Si3 0.085705 0.580287 0.543014
Si Si4 0.414161 0.446026 0.579949
Si Si5 0.917309 0.606454 0.667526
Si Si6 0.422564 0.102348 0.098782
Si Si7 0.420508 0.940614 0.016306
Si Si8 0.081274 0.520042 0.152902
O O1 0.250000 0.545823 0.305221
O O2 0.065689 0.458150 0.305559
O O3 0.017999 0.541395 0.223259
O O4 0.989358 0.562477 0.349119
O O5 0.250000 0.315124 0.216311
O O6 0.013545 0.250000 0.215215
O O7 0.019031 0.350180 0.277123
O O8 0.027313 0.345335 0.145865
O O9 0.250000 0.602757 0.534712
O O10 0.082653 0.512948 0.560565
O O11 0.000649 0.590977 0.474698
O O12 0.008734 0.616424 0.601027
O O13 0.250000 0.422511 0.583597
O O14 0.750000 0.620254 0.650987
O O15 0.250000 0.101574 0.086532
O O16 0.503705 0.109590 0.027713
O O17 0.481072 0.042556 0.131165
O O18 0.250000 0.944981 0.999640
O O19 0.443509 0.931656 0.095476
O O20 0.500000 0.000000 0.000000
O O21 0.250000 0.508748 0.166421
#
# Coordination Sequence:
#
# PCOD8246153 Si02
#       8
#     8   8   8   8   8   8   8   8
#     4   9  14  22  36  51  70  98 126 152 186 225
#     4   9  16  26  42  61  77  99 135 173 205 238
#     4   9  16  25  36  49  68  94 124 154 185 223
#     4   9  16  24  33  50  72  93 120 153 183 215
#     4   9  15  24  39  54  69  94 127 163 197 226
#     4   9  15  26  40  54  74  99 129 165 200 234
#     4   9  16  25  38  55  74  97 127 160 194 234
#     4   8  13  22  36  52  71  97 127 155 187 229
#
# _framework density 14.876061999999999
#
# number of rings (size 3 to 8) (size 9 to 14) (size 15 to 20)
#    0.000    3.125    1.250    1.875    0.000    3.000 
#    0.000    3.750    0.000    1.500    0.000    0.000 
#    0.000    0.000    0.000    1.125    0.000   21.750 
#
# Total GULP energy -793056.559619 kJ/mol
# GULP energy per Si atom -12391.508744 kJ/mol
# Density = 1.484220 g / cm^3
# Si number density = 14.876062 Si / 1000 Ang^3
#
#
#
# Elastic Constant Matrix: (Units=GPa)
#
#
# Indices 1 2 3 4 5 6 
#
# 1 76.1883 17.7160 60.6270 0.0000 0.0000 0.0000
# 2 17.7160 34.4679 36.0249 0.0000 0.0000 0.0000
# 3 60.6270 36.0249 155.9713 0.0000 0.0000 0.0000
# 4 0.0000 0.0000 0.0000 13.1746 0.0000 0.0000
# 5 0.0000 0.0000 0.0000 0.0000 26.6771 0.0000
# 6 0.0000 0.0000 0.0000 0.0000 0.0000 7.6526
#
#
#
# Elastic Compliance Matrix: (Units=1/GPa)
#
#
# Indices 1 2 3 4 5 6 
#
# 1 0.019196 -0.002726 -0.006832 0.000000 0.000000 0.000000
# 2 -0.002726 0.038632 -0.007863 0.000000 0.000000 0.000000
# 3 -0.006832 -0.007863 0.010883 0.000000 0.000000 0.000000
# 4 0.000000 0.000000 0.000000 0.075904 0.000000 0.000000
# 5 0.000000 0.000000 0.000000 0.000000 0.037485 0.000000
# 6 0.000000 0.000000 0.000000 0.000000 0.000000 0.130675
#
#
# Mechanical properties :
#
#
# Convention : Reuss Voigt Hill
#
# Bulk Modulus (GPa) = 29.52559 55.04035 42.28297
# Shear Modulus (GPa) = 13.93117 19.65147 16.79132
#
# Velocity S-wave (km/s) = 3.06352 3.63852 3.36333
# Velocity P-wave (km/s) = 5.69248 7.39806 6.60059
#
# Compressibility (1/GPa) = 0.03386893
#
# Stress axis : x y z
#
# Youngs Moduli (GPa) = 52.09494 25.88519 91.88421
#
# Poissons Ratio (x) = 0.07056 0.62775
# Poissons Ratio (y) = 0.14200 0.72252
# Poissons Ratio (z) = 0.35591 0.20355
#
# Static dielectric constant tensor:
#      x y z
#    x 2.836460 0.000000 0.000000 
#    y 0.000000 2.423380 0.000000 
#    z 0.000000 0.000000 3.321990 
# 
# 
# High freq. dielectric constant tensor:
#      x y z
#    x 1.556370 0.000000 0.000000 
#    y 0.000000 1.489370 0.000000 
#    z 0.000000 0.000000 1.587750 
# 
# From -- ./inp_files/29808.got.cif
#   From: 2010.03.12/outbox.cif.g09.slc.cpg/sg59_15_cif.got.tgz:29808.got - 2010.04.16 16:29:54.
