data_PCOD8246022
_publ_section_title
;
Structure prediction by ZEFSAII (Michael W. Deem and Ramdas Pophale) SiO2 
 PCOD8246022
Probable space group: P M M N
;
_chemical_formula_sum "Si O2"
_cell_formula_units_Z 48
_cell_length_a 15.064050
_cell_length_b 8.868849
_cell_length_c 18.880645
_cell_angle_alpha 90.000000
_cell_angle_beta 90.000000
_cell_angle_gamma 90.000000
_cell_volume 2522.468989
_symmetry_space_group_name_H-M "P M M N"
_symmetry_group_IT_number 59
_space_group.IT_coordinate_system_code '2'
_symmetry_cell_setting 'orthorhombic'
loop_
_space_group_symop_operation_xyz
x,y,z
1/2-x,1/2-y,z
1/2+x,-y,-z
-x,1/2+y,-z
-x,-y,-z
1/2+x,1/2+y,-z
1/2-x,y,z
x,1/2-y,z
loop_
_atom_site_type_symbol
_atom_site_label
_atom_site_fract_x
_atom_site_fract_y
_atom_site_fract_z
Si Si1 0.493820 0.928334 0.174208
Si Si2 0.848269 0.070697 0.935279
Si Si3 0.847684 0.429149 0.413033
Si Si4 0.486631 0.427866 0.324656
Si Si5 0.647321 0.424177 0.094341
Si Si6 0.853352 0.422358 0.572507
O O1 0.489427 0.750000 0.177904
O O2 0.420519 0.993526 0.119372
O O3 0.470760 0.993230 0.250308
O O4 0.590973 0.978879 0.149531
O O5 0.750000 0.011190 0.913933
O O6 0.847271 0.250000 0.935114
O O7 0.871900 0.016431 0.014762
O O8 0.750000 0.491008 0.390756
O O9 0.845369 0.250000 0.412818
O O10 0.871119 0.481203 0.492730
O O11 0.921574 0.490104 0.358818
O O12 0.490853 0.250000 0.313501
O O13 0.405370 0.467969 0.375327
O O14 0.750000 0.447124 0.113882
O O15 0.620197 0.250000 0.102166
O O16 0.750000 0.434035 0.591188
O O17 0.886113 0.250000 0.581906
#
# Coordination Sequence:
#
# PCOD8246022 Si02
#       6
#     8   8   8   8   8   8
#     4  11  22  34  51  77 109 142 175 213 258 309
#     4   8  16  33  56  78  99 130 174 218 261 312
#     4   8  16  33  56  78  99 130 174 218 261 312
#     4  11  22  34  51  77 109 142 175 213 258 309
#     4   9  18  35  58  79 100 131 172 217 265 315
#     4   9  18  35  58  79 100 131 172 217 265 315
#
# _framework density 19.028974999999999
#
# number of rings (size 3 to 8) (size 9 to 14) (size 15 to 20)
#    0.000    2.667    0.000    4.000    0.000    2.000 
#    0.000    5.000    0.000    7.000    0.000    0.000 
#    0.000    0.000    0.000    0.000    0.000    0.000 
#
# Total GULP energy -595162.203992 kJ/mol
# GULP energy per Si atom -12399.212583 kJ/mol
# Density = 1.898566 g / cm^3
# Si number density = 19.028975 Si / 1000 Ang^3
#
#
#
# Elastic Constant Matrix: (Units=GPa)
#
#
# Indices 1 2 3 4 5 6 
#
# 1 70.7570 19.9401 21.9851 0.0000 0.0000 0.0000
# 2 19.9401 42.1654 14.8555 0.0000 0.0000 0.0000
# 3 21.9851 14.8555 58.3843 0.0000 0.0000 0.0000
# 4 0.0000 0.0000 0.0000 27.7190 0.0000 0.0000
# 5 0.0000 0.0000 0.0000 0.0000 17.9209 0.0000
# 6 0.0000 0.0000 0.0000 0.0000 0.0000 27.6579
#
#
#
# Elastic Compliance Matrix: (Units=1/GPa)
#
#
# Indices 1 2 3 4 5 6 
#
# 1 0.017508 -0.006543 -0.004928 0.000000 0.000000 0.000000
# 2 -0.006543 0.028497 -0.004787 0.000000 0.000000 0.000000
# 3 -0.004928 -0.004787 0.020202 0.000000 0.000000 0.000000
# 4 0.000000 0.000000 0.000000 0.036076 0.000000 0.000000
# 5 0.000000 0.000000 0.000000 0.000000 0.055801 0.000000
# 6 0.000000 0.000000 0.000000 0.000000 0.000000 0.036156
#
#
# Mechanical properties :
#
#
# Convention : Reuss Voigt Hill
#
# Bulk Modulus (GPa) = 29.68222 31.65200 30.66711
# Shear Modulus (GPa) = 21.00963 22.29462 21.65212
#
# Velocity S-wave (km/s) = 3.32638 3.42660 3.37686
# Velocity P-wave (km/s) = 5.51230 5.68552 5.59958
#
# Compressibility (1/GPa) = 0.03369020
#
# Stress axis : x y z
#
# Youngs Moduli (GPa) = 57.11661 35.09142 49.50123
#
# Poissons Ratio (x) = 0.22962 0.24394
# Poissons Ratio (y) = 0.37374 0.23696
# Poissons Ratio (z) = 0.28146 0.16798
#
# Static dielectric constant tensor:
#      x y z
#    x 3.760740 0.000000 0.000000 
#    y 0.000000 3.119290 0.000000 
#    z 0.000000 0.000000 3.526040 
# 
# 
# High freq. dielectric constant tensor:
#      x y z
#    x 1.750380 0.000000 0.000000 
#    y 0.000000 1.705870 0.000000 
#    z 0.000000 0.000000 1.740110 
# 
# From -- ./inp_files/25426.got.cif
#   From: 2010.03.12/outbox.cif.g09.slc.cpg/sg59_13_cif.got.tgz:25426.got - 2010.04.16 16:29:54.
