data_PCOD8246328
_publ_section_title
;
Structure prediction by ZEFSAII (Michael W. Deem and Ramdas Pophale) SiO2 
 PCOD8246328
Probable space group: P B C N
;
_chemical_formula_sum "Si O2"
_cell_formula_units_Z 44
_cell_length_a 10.794479
_cell_length_b 24.426995
_cell_length_c 8.965696
_cell_angle_alpha 90.000000
_cell_angle_beta 90.000000
_cell_angle_gamma 90.000000
_cell_volume 2364.044996
_symmetry_space_group_name_H-M "P B C N"
_symmetry_group_IT_number 60
_symmetry_cell_setting 'orthorhombic'
loop_
_space_group_symop_operation_xyz
x,y,z
1/2-x,1/2-y,1/2+z
1/2+x,1/2-y,-z
-x,y,1/2-z
-x,-y,-z
1/2+x,1/2+y,1/2-z
1/2-x,1/2+y,z
x,-y,1/2+z
loop_
_atom_site_type_symbol
_atom_site_label
_atom_site_fract_x
_atom_site_fract_y
_atom_site_fract_z
Si Si1 0.757946 0.341607 0.894763
Si Si2 0.500000 0.496862 0.250000
Si Si3 0.168958 0.275155 0.013180
Si Si4 0.087273 0.925368 0.507619
Si Si5 0.616036 0.339645 0.593317
Si Si6 0.500000 0.810102 0.750000
Si Si7 0.000000 0.253651 0.250000
O O1 0.739440 0.282872 0.973359
O O2 0.715145 0.390349 0.004629
O O3 0.658503 0.352290 0.762220
O O4 0.900787 0.347381 0.841561
O O5 0.409243 0.533854 0.148923
O O6 0.415233 0.459353 0.355387
O O7 0.104571 0.290344 0.171857
O O8 0.263582 0.325768 0.003932
O O9 0.079515 0.273664 0.866903
O O10 0.963278 0.887571 0.518940
O O11 0.539115 0.283206 0.607174
#
# Coordination Sequence:
#
# PCOD8246328 Si02
#       7
#     8   4   8   8   8   4   4
#     4  10  19  34  55  77 118 152 183 230 282 348
#     4  10  23  35  64  86 106 132 207 255 298 340
#     4  10  20  32  54  80 117 159 187 221 270 360
#     4  11  19  40  58  88 106 147 186 252 303 337
#     4  10  17  33  54  76 111 151 179 223 287 337
#     4  10  22  35  50  84 112 164 195 218 278 356
#     4  10  17  34  46  74 116 160 172 217 274 328
#
# _framework density 18.612166999999999
#
# number of rings (size 3 to 8) (size 9 to 14) (size 15 to 20)
#    0.000    1.818    5.455    1.091    0.000    0.727 
#    9.818    0.000    0.000    1.091    0.000    0.000 
#    0.000    0.000    0.000    0.000    0.000    0.000 
#
# Total GULP energy -545122.741100 kJ/mol
# GULP energy per Si atom -12389.153207 kJ/mol
# Density = 1.856980 g / cm^3
# Si number density = 18.612167 Si / 1000 Ang^3
#
#
#
# Elastic Constant Matrix: (Units=GPa)
#
#
# Indices 1 2 3 4 5 6 
#
# 1 107.0479 48.0097 37.6729 0.0000 0.0000 0.0000
# 2 48.0097 89.4272 48.2287 0.0000 0.0000 0.0000
# 3 37.6729 48.2287 81.8945 0.0000 0.0000 0.0000
# 4 0.0000 0.0000 0.0000 17.8706 0.0000 0.0000
# 5 0.0000 0.0000 0.0000 0.0000 33.7032 0.0000
# 6 0.0000 0.0000 0.0000 0.0000 0.0000 6.0175
#
#
#
# Elastic Compliance Matrix: (Units=1/GPa)
#
#
# Indices 1 2 3 4 5 6 
#
# 1 0.012692 -0.005371 -0.002676 0.000000 0.000000 0.000000
# 2 -0.005371 0.018660 -0.008518 0.000000 0.000000 0.000000
# 3 -0.002676 -0.008518 0.018458 0.000000 0.000000 0.000000
# 4 0.000000 0.000000 0.000000 0.055958 0.000000 0.000000
# 5 0.000000 0.000000 0.000000 0.000000 0.029671 0.000000
# 6 0.000000 0.000000 0.000000 0.000000 0.000000 0.166182
#
#
# Mechanical properties :
#
#
# Convention : Reuss Voigt Hill
#
# Bulk Modulus (GPa) = 59.95036 60.68804 60.31920
# Shear Modulus (GPa) = 14.69252 21.14881 17.92067
#
# Velocity S-wave (km/s) = 2.81268 3.37455 3.10634
# Velocity P-wave (km/s) = 6.54435 6.91815 6.73384
#
# Compressibility (1/GPa) = 0.01668047
#
# Stress axis : x y z
#
# Youngs Moduli (GPa) = 78.78994 53.59177 54.17668
#
# Poissons Ratio (x) = 0.28783 0.14495
# Poissons Ratio (y) = 0.42317 0.46149
# Poissons Ratio (z) = 0.21081 0.45651
#
# Static dielectric constant tensor:
#      x y z
#    x 3.614870 0.000000 0.000000 
#    y 0.000000 3.260390 0.000000 
#    z 0.000000 0.000000 3.505370 
# 
# 
# High freq. dielectric constant tensor:
#      x y z
#    x 1.715710 0.000000 0.000000 
#    y 0.000000 1.686730 0.000000 
#    z 0.000000 0.000000 1.725470 
# 
# From -- ./inp_files/5022.got.cif
#   From: 2010.03.12/outbox.cif.g09.slc.cpg/sg60_3_cif.got.tgz:5022.got - 2010.04.10 18:46:24.
