data_PCOD8246580
_publ_section_title
;
Structure prediction by ZEFSAII (Michael W. Deem and Ramdas Pophale) SiO2 
 PCOD8246580
Probable space group: P B C N
;
_chemical_formula_sum "Si O2"
_cell_formula_units_Z 52
_cell_length_a 11.977368
_cell_length_b 17.939019
_cell_length_c 12.569744
_cell_angle_alpha 90.000000
_cell_angle_beta 90.000000
_cell_angle_gamma 90.000000
_cell_volume 2700.763253
_symmetry_space_group_name_H-M "P B C N"
_symmetry_group_IT_number 60
_symmetry_cell_setting 'orthorhombic'
loop_
_space_group_symop_operation_xyz
x,y,z
1/2-x,1/2-y,1/2+z
1/2+x,1/2-y,-z
-x,y,1/2-z
-x,-y,-z
1/2+x,1/2+y,1/2-z
1/2-x,1/2+y,z
x,-y,1/2+z
loop_
_atom_site_type_symbol
_atom_site_label
_atom_site_fract_x
_atom_site_fract_y
_atom_site_fract_z
Si Si1 0.570818 0.886972 0.929140
Si Si2 0.568113 0.750990 0.501047
Si Si3 0.824029 0.589830 0.637440
Si Si4 0.593653 0.749886 0.170463
Si Si5 0.886116 0.152967 0.704669
Si Si6 0.000000 0.503218 0.250000
Si Si7 0.740959 0.228022 0.335390
O O1 0.516237 0.947281 0.853375
O O2 0.657169 0.837830 0.861896
O O3 0.471254 0.836285 0.977979
O O4 0.636282 0.934914 0.019851
O O5 0.468629 0.711393 0.430354
O O6 0.581441 0.709262 0.610852
O O7 0.684842 0.751034 0.437520
O O8 0.838356 0.678929 0.631998
O O9 0.691169 0.583996 0.662699
O O10 0.891980 0.548279 0.729738
O O11 0.500000 0.780929 0.250000
O O12 0.680131 0.698161 0.237185
O O13 0.826044 0.198508 0.799598
O O14 0.000000 0.117246 0.750000
#
# Coordination Sequence:
#
# PCOD8246580 Si02
#       7
#     8   8   8   8   8   4   8
#     4  11  21  36  60  89 117 146 190 247 292 339
#     4  10  19  35  54  89 122 141 184 243 303 360
#     4  10  21  37  55  79 114 162 190 237 281 337
#     4   8  16  31  56  79 114 148 181 228 301 349
#     4  11  20  33  57  86 117 151 194 239 301 351
#     4  12  24  40  56  82 118 156 212 230 270 340
#     4  10  19  33  56  89 119 145 178 240 311 358
#
# _framework density 19.253816
#
# number of rings (size 3 to 8) (size 9 to 14) (size 15 to 20)
#    0.000    1.846    3.846    1.385    2.154    0.000 
#    0.000    0.000    0.000    3.692    0.000    0.000 
#    0.000    0.000    0.000    0.000    0.000    0.000 
#
# Total GULP energy -644317.125607 kJ/mol
# GULP energy per Si atom -12390.713954 kJ/mol
# Density = 1.920999 g / cm^3
# Si number density = 19.253816 Si / 1000 Ang^3
#
#
#
# Elastic Constant Matrix: (Units=GPa)
#
#
# Indices 1 2 3 4 5 6 
#
# 1 119.7216 27.0614 38.2681 0.0000 0.0000 0.0000
# 2 27.0614 37.5737 18.4051 0.0000 0.0000 0.0000
# 3 38.2681 18.4051 88.3848 0.0000 0.0000 0.0000
# 4 0.0000 0.0000 0.0000 20.1743 0.0000 0.0000
# 5 0.0000 0.0000 0.0000 0.0000 43.8697 0.0000
# 6 0.0000 0.0000 0.0000 0.0000 0.0000 4.3968
#
#
#
# Elastic Compliance Matrix: (Units=1/GPa)
#
#
# Indices 1 2 3 4 5 6 
#
# 1 0.010828 -0.006127 -0.003412 0.000000 0.000000 0.000000
# 2 -0.006127 0.033105 -0.004241 0.000000 0.000000 0.000000
# 3 -0.003412 -0.004241 0.013675 0.000000 0.000000 0.000000
# 4 0.000000 0.000000 0.000000 0.049568 0.000000 0.000000
# 5 0.000000 0.000000 0.000000 0.000000 0.022795 0.000000
# 6 0.000000 0.000000 0.000000 0.000000 0.000000 0.227438
#
#
# Mechanical properties :
#
#
# Convention : Reuss Voigt Hill
#
# Bulk Modulus (GPa) = 33.28137 45.90549 39.59343
# Shear Modulus (GPa) = 12.65871 24.48455 18.57163
#
# Velocity S-wave (km/s) = 2.56689 3.56992 3.10912
# Velocity P-wave (km/s) = 5.10963 6.39425 5.78770
#
# Compressibility (1/GPa) = 0.03004684
#
# Stress axis : x y z
#
# Youngs Moduli (GPa) = 92.34911 30.20727 73.12754
#
# Poissons Ratio (x) = 0.18509 0.24955
# Poissons Ratio (y) = 0.56585 0.31011
# Poissons Ratio (z) = 0.31514 0.12810
#
# Static dielectric constant tensor:
#      x y z
#    x 4.066880 0.000000 0.000000 
#    y 0.000000 2.947560 0.000000 
#    z 0.000000 0.000000 3.963160 
# 
# 
# High freq. dielectric constant tensor:
#      x y z
#    x 1.768200 0.000000 0.000000 
#    y 0.000000 1.674040 0.000000 
#    z 0.000000 0.000000 1.774280 
# 
# From -- ./inp_files/16289.got.cif
#   From: 2010.03.12/outbox.cif.g09.slc.cpg/sg60_9_cif.got.tgz:16289.got - 2010.04.10 18:46:24.
