data_PCOD8246772
_publ_section_title
;
Structure prediction by ZEFSAII (Michael W. Deem and Ramdas Pophale) SiO2 
 PCOD8246772
Probable space group: P B C N
;
_chemical_formula_sum "Si O2"
_cell_formula_units_Z 48
_cell_length_a 10.189248
_cell_length_b 26.007075
_cell_length_c 8.565170
_cell_angle_alpha 90.000000
_cell_angle_beta 90.000000
_cell_angle_gamma 90.000000
_cell_volume 2269.706128
_symmetry_space_group_name_H-M "P B C N"
_symmetry_group_IT_number 60
_symmetry_cell_setting 'orthorhombic'
loop_
_space_group_symop_operation_xyz
x,y,z
1/2-x,1/2-y,1/2+z
1/2+x,1/2-y,-z
-x,y,1/2-z
-x,-y,-z
1/2+x,1/2+y,1/2-z
1/2-x,1/2+y,z
x,-y,1/2+z
loop_
_atom_site_type_symbol
_atom_site_label
_atom_site_fract_x
_atom_site_fract_y
_atom_site_fract_z
Si Si1 0.600819 0.171897 0.950878
Si Si2 0.000000 0.363607 0.750000
Si Si3 0.500000 0.259411 0.750000
Si Si4 0.892946 0.846583 0.539993
Si Si5 0.500000 0.915801 0.250000
Si Si6 0.000000 0.104892 0.750000
Si Si7 0.255973 0.535630 0.669618
Si Si8 0.751917 0.930976 0.684445
O O1 0.597332 0.222741 0.845673
O O2 0.521089 0.121935 0.894794
O O3 0.526113 0.178656 0.114520
O O4 0.752727 0.157208 0.955221
O O5 0.127280 0.400528 0.744706
O O6 0.421603 0.293613 0.873057
O O7 0.876393 0.891935 0.669173
O O8 0.001757 0.859710 0.407333
O O9 0.373496 0.952044 0.271805
O O10 0.872135 0.069661 0.758957
O O11 0.226687 0.545038 0.487494
O O12 0.290941 0.475732 0.695119
#
# Coordination Sequence:
#
# PCOD8246772 Si02
#       8
#     8   4   4   8   4   4   8   8
#     4  10  23  43  66  98 126 162 221 276 325 387
#     4  10  19  41  61  90 134 157 205 275 328 372
#     4  11  26  41  69  92 124 169 215 269 342 388
#     4  10  23  46  59  96 128 166 223 269 325 388
#     4  11  19  42  66  97 131 164 216 278 302 392
#     4  10  22  44  64  89 133 186 204 280 320 394
#     4  11  23  38  64  96 135 174 226 251 334 385
#     4  10  23  38  60  98 131 172 216 271 313 395
#
# _framework density 21.148112000000001
#
# number of rings (size 3 to 8) (size 9 to 14) (size 15 to 20)
#    0.000    1.667    5.000    0.500    2.333   10.667 
#    3.000    0.000    0.000    0.000    0.000    0.000 
#    0.000    0.000    0.000    0.000    0.000    0.000 
#
# Total GULP energy -594779.677151 kJ/mol
# GULP energy per Si atom -12391.243274 kJ/mol
# Density = 2.109998 g / cm^3
# Si number density = 21.148112 Si / 1000 Ang^3
#
#
#
# Elastic Constant Matrix: (Units=GPa)
#
#
# Indices 1 2 3 4 5 6 
#
# 1 80.1450 16.9687 29.0730 0.0000 0.0000 0.0000
# 2 16.9687 119.1778 31.1351 0.0000 0.0000 0.0000
# 3 29.0730 31.1351 57.0110 0.0000 0.0000 0.0000
# 4 0.0000 0.0000 0.0000 45.7337 0.0000 0.0000
# 5 0.0000 0.0000 0.0000 0.0000 31.3721 0.0000
# 6 0.0000 0.0000 0.0000 0.0000 0.0000 15.9507
#
#
#
# Elastic Compliance Matrix: (Units=1/GPa)
#
#
# Indices 1 2 3 4 5 6 
#
# 1 0.015312 -0.000164 -0.007719 0.000000 0.000000 0.000000
# 2 -0.000164 0.009789 -0.005263 0.000000 0.000000 0.000000
# 3 -0.007719 -0.005263 0.024351 0.000000 0.000000 0.000000
# 4 0.000000 0.000000 0.000000 0.021866 0.000000 0.000000
# 5 0.000000 0.000000 0.000000 0.000000 0.031875 0.000000
# 6 0.000000 0.000000 0.000000 0.000000 0.000000 0.062693
#
#
# Mechanical properties :
#
#
# Convention : Reuss Voigt Hill
#
# Bulk Modulus (GPa) = 43.17523 45.63192 44.40357
# Shear Modulus (GPa) = 25.01280 30.55510 27.78395
#
# Velocity S-wave (km/s) = 3.44284 3.80520 3.62854
# Velocity P-wave (km/s) = 6.02197 6.39767 6.21266
#
# Compressibility (1/GPa) = 0.02316143
#
# Stress axis : x y z
#
# Youngs Moduli (GPa) = 65.30742 102.15595 41.06618
#
# Poissons Ratio (x) = 0.01671 0.31700
# Poissons Ratio (y) = 0.01068 0.21611
# Poissons Ratio (z) = 0.50412 0.53761
#
# Static dielectric constant tensor:
#      x y z
#    x 3.797790 0.000000 0.000000 
#    y 0.000000 4.026060 0.000000 
#    z 0.000000 0.000000 3.998430 
# 
# 
# High freq. dielectric constant tensor:
#      x y z
#    x 1.818600 0.000000 0.000000 
#    y 0.000000 1.837050 0.000000 
#    z 0.000000 0.000000 1.828830 
# 
# From -- ./inp_files/4309.got.cif
#   From: 2010.03.12/outbox.cif.g09.slc.cpg/sg60_3_cif.got.tgz:4309.got - 2010.04.10 18:46:24.
