data_PCOD8246849
_publ_section_title
;
Structure prediction by ZEFSAII (Michael W. Deem and Ramdas Pophale) SiO2 
 PCOD8246849
Probable space group: P B C N
;
_chemical_formula_sum "Si O2"
_cell_formula_units_Z 40
_cell_length_a 19.668651
_cell_length_b 9.689257
_cell_length_c 8.624054
_cell_angle_alpha 90.000000
_cell_angle_beta 90.000000
_cell_angle_gamma 90.000000
_cell_volume 1643.525765
_symmetry_space_group_name_H-M "P B C N"
_symmetry_group_IT_number 60
_symmetry_cell_setting 'orthorhombic'
loop_
_space_group_symop_operation_xyz
x,y,z
1/2-x,1/2-y,1/2+z
1/2+x,1/2-y,-z
-x,y,1/2-z
-x,-y,-z
1/2+x,1/2+y,1/2-z
1/2-x,1/2+y,z
x,-y,1/2+z
loop_
_atom_site_type_symbol
_atom_site_label
_atom_site_fract_x
_atom_site_fract_y
_atom_site_fract_z
Si Si1 0.500000 0.557221 0.250000
Si Si2 0.692411 0.179326 0.051890
Si Si3 0.500000 0.938416 0.250000
Si Si4 0.553648 0.332618 0.052268
Si Si5 0.933730 0.656817 0.457849
Si Si6 0.212351 0.610145 0.105281
O O1 0.442642 0.474666 0.351706
O O2 0.452869 0.645528 0.133185
O O3 0.613364 0.220938 0.081962
O O4 0.726500 0.319161 0.988609
O O5 0.702858 0.052185 0.933438
O O6 0.725521 0.127716 0.212098
O O7 0.450120 0.850066 0.358804
O O8 0.448872 0.016759 0.134867
O O9 0.481677 0.272806 0.116497
O O10 0.855101 0.695186 0.441353
#
# Coordination Sequence:
#
# PCOD8246849 Si02
#       6
#     4   8   4   8   8   8
#     4  10  24  42  66 102 140 178 230 288 356 422
#     4  12  28  48  73 103 144 191 242 298 361 429
#     4  10  20  34  64 100 128 158 218 290 344 398
#     4  11  24  43  69 100 137 183 231 289 352 423
#     4  11  21  39  66  97 131 172 225 284 345 411
#     4  12  27  47  71 104 144 190 242 299 360 429
#
# _framework density 24.337921999999999
#
# number of rings (size 3 to 8) (size 9 to 14) (size 15 to 20)
#    0.000    0.800    0.000    8.400    0.000   11.200 
#    0.000    0.000    0.000    0.000    0.000    0.000 
#    0.000    0.000    0.000    0.000    0.000    0.000 
#
# Total GULP energy -495899.360946 kJ/mol
# GULP energy per Si atom -12397.484024 kJ/mol
# Density = 2.428253 g / cm^3
# Si number density = 24.337922 Si / 1000 Ang^3
#
#
#
# Elastic Constant Matrix: (Units=GPa)
#
#
# Indices 1 2 3 4 5 6 
#
# 1 88.5968 22.7462 -6.9419 0.0000 0.0000 0.0000
# 2 22.7462 85.5446 6.0549 0.0000 0.0000 0.0000
# 3 -6.9419 6.0549 119.2858 0.0000 0.0000 0.0000
# 4 0.0000 0.0000 0.0000 47.7455 0.0000 0.0000
# 5 0.0000 0.0000 0.0000 0.0000 32.3180 0.0000
# 6 0.0000 0.0000 0.0000 0.0000 0.0000 41.7687
#
#
#
# Elastic Compliance Matrix: (Units=1/GPa)
#
#
# Indices 1 2 3 4 5 6 
#
# 1 0.012205 -0.003307 0.000878 0.000000 0.000000 0.000000
# 2 -0.003307 0.012628 -0.000833 0.000000 0.000000 0.000000
# 3 0.000878 -0.000833 0.008477 0.000000 0.000000 0.000000
# 4 0.000000 0.000000 0.000000 0.020944 0.000000 0.000000
# 5 0.000000 0.000000 0.000000 0.000000 0.030942 0.000000
# 6 0.000000 0.000000 0.000000 0.000000 0.000000 0.023941
#
#
# Mechanical properties :
#
#
# Convention : Reuss Voigt Hill
#
# Bulk Modulus (GPa) = 37.33520 37.46062 37.39791
# Shear Modulus (GPa) = 40.13103 42.47099 41.30101
#
# Velocity S-wave (km/s) = 4.06508 4.18192 4.12391
# Velocity P-wave (km/s) = 6.11611 6.22440 6.17050
#
# Compressibility (1/GPa) = 0.02678438
#
# Stress axis : x y z
#
# Youngs Moduli (GPa) = 81.93325 79.18754 117.97128
#
# Poissons Ratio (x) = 0.26191 -0.10360
# Poissons Ratio (y) = 0.27099 0.09833
# Poissons Ratio (z) = -0.07195 0.06600
#
# Static dielectric constant tensor:
#      x y z
#    x 4.237060 0.000000 0.000000 
#    y 0.000000 4.388710 0.000000 
#    z 0.000000 0.000000 4.656900 
# 
# 
# High freq. dielectric constant tensor:
#      x y z
#    x 1.938790 0.000000 0.000000 
#    y 0.000000 1.965320 0.000000 
#    z 0.000000 0.000000 2.000250 
# 
# From -- ./inp_files/6549.got.cif
#   From: 2010.03.12/outbox.cif.g09.slc.cpg/sg60_4_cif.got.tgz:6549.got - 2010.04.10 18:46:24.
