data_PCOD8246254
_publ_section_title
;
Structure prediction by ZEFSAII (Michael W. Deem and Ramdas Pophale) SiO2 
 PCOD8246254
Probable space group: P M M N
;
_chemical_formula_sum "Si O2"
_cell_formula_units_Z 64
_cell_length_a 9.000000
_cell_length_b 30.000000
_cell_length_c 12.000000
_cell_angle_alpha 90.000000
_cell_angle_beta 90.000000
_cell_angle_gamma 90.000000
_cell_volume 3240.000000
_symmetry_space_group_name_H-M "P M M N"
_symmetry_group_IT_number 59
_space_group.IT_coordinate_system_code '2'
_symmetry_cell_setting 'orthorhombic'
loop_
_space_group_symop_operation_xyz
x,y,z
1/2-x,1/2-y,z
1/2+x,-y,-z
-x,1/2+y,-z
-x,-y,-z
1/2+x,1/2+y,-z
1/2-x,y,z
x,1/2-y,z
loop_
_atom_site_type_symbol
_atom_site_label
_atom_site_fract_x
_atom_site_fract_y
_atom_site_fract_z
Si Si1 0.574862 0.625337 0.103370
Si Si2 0.574681 0.956270 0.955325
Si Si3 0.572901 0.620582 0.356290
Si Si4 0.582408 0.200741 0.024171
Si Si5 0.574841 0.452569 0.498313
Si Si6 0.082784 0.575722 0.746515
Si Si7 0.425395 0.200577 0.489997
Si Si8 0.417504 0.821804 0.735471
O O1 0.750000 0.624071 0.103378
O O2 0.515953 0.623573 0.229643
O O3 0.525852 0.671186 0.048635
O O4 0.512975 0.584146 0.031166
O O5 0.750000 0.960759 0.962881
O O6 0.528637 0.950342 0.826959
O O7 0.500000 0.000000 0.000000
O O8 0.750000 0.615912 0.364665
O O9 0.497599 0.576822 0.405508
O O10 0.513396 0.664257 0.422296
O O11 0.750000 0.181403 0.018246
O O12 0.574064 0.250000 0.972577
O O13 0.532984 0.204290 0.153666
O O14 0.500000 0.500000 0.500000
O O15 0.750000 0.456294 0.518743
O O16 0.534867 0.430690 0.380578
O O17 0.250000 0.557752 0.766497
O O18 0.069940 0.627355 0.772649
O O19 0.250000 0.198551 0.489513
O O20 0.480641 0.250000 0.525714
O O21 0.476002 0.190164 0.365307
O O22 0.250000 0.809522 0.698461
#
# Coordination Sequence:
#
# PCOD8246254 Si02
#       8
#     8   8   8   8   8   8   8   8
#     4  10  23  41  60  84 115 155 197 241 289 344
#     4  11  24  40  61  89 120 154 198 245 296 351
#     4  10  22  41  61  83 117 157 196 241 292 344
#     4  10  21  37  59  87 117 151 191 236 289 347
#     4  11  24  41  62  90 120 153 196 242 293 351
#     4  10  21  39  63  88 118 154 193 240 292 348
#     4  10  21  36  57  86 117 151 193 239 287 343
#     4  10  19  36  60  86 118 153 189 236 293 346
#
# _framework density 19.753086
#
# number of rings (size 3 to 8) (size 9 to 14) (size 15 to 20)
#    0.000    1.750    2.500    1.125    1.750    4.500 
#    0.000    1.250    0.000    0.000    0.000    0.000 
#    0.000    0.000    0.000    0.000    0.000    0.000 
#
# Total GULP energy -793693.463391 kJ/mol
# GULP energy per Si atom -12401.460365 kJ/mol
# Density = 1.970813 g / cm^3
# Si number density = 19.753086 Si / 1000 Ang^3
#
#
#
# Elastic Constant Matrix: (Units=GPa)
#
#
# Indices 1 2 3 4 5 6 
#
# 1 22.5572 23.2467 18.8709 0.0000 0.0000 0.0000
# 2 23.2467 97.5695 29.8017 0.0000 0.0000 0.0000
# 3 18.8709 29.8017 90.0970 0.0000 0.0000 0.0000
# 4 0.0000 0.0000 0.0000 22.9338 0.0000 0.0000
# 5 0.0000 0.0000 0.0000 0.0000 30.9261 0.0000
# 6 0.0000 0.0000 0.0000 0.0000 0.0000 28.5599
#
#
#
# Elastic Compliance Matrix: (Units=1/GPa)
#
#
# Indices 1 2 3 4 5 6 
#
# 1 0.065325 -0.012665 -0.009493 0.000000 0.000000 0.000000
# 2 -0.012665 0.013856 -0.001931 0.000000 0.000000 0.000000
# 3 -0.009493 -0.001931 0.013726 0.000000 0.000000 0.000000
# 4 0.000000 0.000000 0.000000 0.043604 0.000000 0.000000
# 5 0.000000 0.000000 0.000000 0.000000 0.032335 0.000000
# 6 0.000000 0.000000 0.000000 0.000000 0.000000 0.035014
#
#
# Mechanical properties :
#
#
# Convention : Reuss Voigt Hill
#
# Bulk Modulus (GPa) = 22.35610 39.34027 30.84819
# Shear Modulus (GPa) = 18.73020 25.70423 22.21722
#
# Velocity S-wave (km/s) = 3.08265 3.61123 3.35736
# Velocity P-wave (km/s) = 4.90027 6.11124 5.53895
#
# Compressibility (1/GPa) = 0.04473052
#
# Stress axis : x y z
#
# Youngs Moduli (GPa) = 15.30798 72.16958 72.85357
#
# Poissons Ratio (x) = 0.91400 0.69163
# Poissons Ratio (y) = 0.19387 0.14066
# Poissons Ratio (z) = 0.14532 0.13934
#
# Static dielectric constant tensor:
#      x y z
#    x 3.384540 0.000000 0.000000 
#    y 0.000000 3.650840 0.000000 
#    z 0.000000 0.000000 3.650640 
# 
# 
# High freq. dielectric constant tensor:
#      x y z
#    x 1.755880 0.000000 0.000000 
#    y 0.000000 1.777500 0.000000 
#    z 0.000000 0.000000 1.772960 
# 
# From -- ./inp_files/14897.got.cif
#   From: 2010.03.12/outbox.ucp.g09.slc.cvg/sg59_8_cif.got.tgz:14897.got - 2010.05.04 19:30:51.
