data_PCOD8246945
_publ_section_title
;
Structure prediction by ZEFSAII (Michael W. Deem and Ramdas Pophale) SiO2 
 PCOD8246945
Probable space group: P B C N
;
_chemical_formula_sum "Si O2"
_cell_formula_units_Z 44
_cell_length_a 5.097655
_cell_length_b 23.797122
_cell_length_c 15.559081
_cell_angle_alpha 90.000000
_cell_angle_beta 90.000000
_cell_angle_gamma 90.000000
_cell_volume 1887.464616
_symmetry_space_group_name_H-M "P B C N"
_symmetry_group_IT_number 60
_symmetry_cell_setting 'orthorhombic'
loop_
_space_group_symop_operation_xyz
x,y,z
1/2-x,1/2-y,1/2+z
1/2+x,1/2-y,-z
-x,y,1/2-z
-x,-y,-z
1/2+x,1/2+y,1/2-z
1/2-x,1/2+y,z
x,-y,1/2+z
loop_
_atom_site_type_symbol
_atom_site_label
_atom_site_fract_x
_atom_site_fract_y
_atom_site_fract_z
Si Si1 0.890058 0.716201 0.983750
Si Si2 0.802257 0.945596 0.094008
Si Si3 0.625321 0.347297 0.337793
Si Si4 0.450122 0.100053 0.065587
Si Si5 0.537158 0.554863 0.149546
Si Si6 0.000000 0.430253 0.250000
O O1 0.758397 0.702363 0.891547
O O2 0.661358 0.750339 0.034065
O O3 0.964957 0.662111 0.038788
O O4 0.672908 0.966749 0.185142
O O5 0.919412 0.882510 0.103813
O O6 0.009947 0.997537 0.090997
O O7 0.592694 0.940575 0.017314
O O8 0.500000 0.322110 0.250000
O O9 0.841842 0.392072 0.315175
O O10 0.673258 0.076190 0.127034
O O11 0.175882 0.100581 0.117487
O O12 0.500000 0.544830 0.250000
#
# Coordination Sequence:
#
# PCOD8246945 Si02
#       6
#     8   8   8   8   8   4
#     4  12  26  48  75 100 134 187 243 301 366 417
#     4  11  23  41  71 109 145 186 236 284 364 421
#     4  10  22  41  69 108 142 175 231 311 360 421
#     4  12  26  47  72 104 142 186 243 298 346 425
#     4  12  27  45  71 104 153 198 231 271 347 435
#     4  10  20  36  72 100 150 172 228 304 364 400
#
# _framework density 23.311693999999999
#
# number of rings (size 3 to 8) (size 9 to 14) (size 15 to 20)
#    0.000    0.727    1.818    6.545    7.636    0.000 
#    0.000    3.636    2.000    0.000    0.000    0.000 
#    0.000    0.000    0.000    0.000    0.000    0.000 
#
# Total GULP energy -545241.927389 kJ/mol
# GULP energy per Si atom -12391.861986 kJ/mol
# Density = 2.325864 g / cm^3
# Si number density = 23.311694 Si / 1000 Ang^3
#
#
#
# Elastic Constant Matrix: (Units=GPa)
#
#
# Indices 1 2 3 4 5 6 
#
# 1 133.9830 43.1589 49.1815 0.0000 0.0000 0.0000
# 2 43.1589 111.7157 49.4883 0.0000 0.0000 0.0000
# 3 49.1815 49.4883 90.0814 0.0000 0.0000 0.0000
# 4 0.0000 0.0000 0.0000 26.4587 0.0000 0.0000
# 5 0.0000 0.0000 0.0000 0.0000 42.8634 0.0000
# 6 0.0000 0.0000 0.0000 0.0000 0.0000 39.1524
#
#
#
# Elastic Compliance Matrix: (Units=1/GPa)
#
#
# Indices 1 2 3 4 5 6 
#
# 1 0.009611 -0.001835 -0.004239 0.000000 0.000000 0.000000
# 2 -0.001835 0.012181 -0.005690 0.000000 0.000000 0.000000
# 3 -0.004239 -0.005690 0.016541 0.000000 0.000000 0.000000
# 4 0.000000 0.000000 0.000000 0.037795 0.000000 0.000000
# 5 0.000000 0.000000 0.000000 0.000000 0.023330 0.000000
# 6 0.000000 0.000000 0.000000 0.000000 0.000000 0.025541
#
#
# Mechanical properties :
#
#
# Convention : Reuss Voigt Hill
#
# Bulk Modulus (GPa) = 67.54539 68.82638 68.18589
# Shear Modulus (GPa) = 32.58143 34.62501 33.60322
#
# Velocity S-wave (km/s) = 3.74256 3.85815 3.80079
# Velocity P-wave (km/s) = 6.90750 7.03104 6.96954
#
# Compressibility (1/GPa) = 0.01480486
#
# Stress axis : x y z
#
# Youngs Moduli (GPa) = 104.04978 82.09661 60.45473
#
# Poissons Ratio (x) = 0.15066 0.25627
# Poissons Ratio (y) = 0.19094 0.34398
# Poissons Ratio (z) = 0.44107 0.46712
#
# Static dielectric constant tensor:
#      x y z
#    x 4.373880 0.000000 0.000000 
#    y 0.000000 4.054480 0.000000 
#    z 0.000000 0.000000 4.249840 
# 
# 
# High freq. dielectric constant tensor:
#      x y z
#    x 1.944100 0.000000 0.000000 
#    y 0.000000 1.899570 0.000000 
#    z 0.000000 0.000000 1.926690 
# 
# From -- ./inp_files/13874.got.cif
#   From: 2010.03.12/outbox.cif.g09.slc.cpg/sg60_7_cif.got.tgz:13874.got - 2010.04.10 18:46:24.
