data_PCOD8246748
_publ_section_title
;
Structure prediction by ZEFSAII (Michael W. Deem and Ramdas Pophale) SiO2 
 PCOD8246748
Probable space group: P B C N
;
_chemical_formula_sum "Si O2"
_cell_formula_units_Z 56
_cell_length_a 21.182171
_cell_length_b 7.828778
_cell_length_c 15.855392
_cell_angle_alpha 90.000000
_cell_angle_beta 90.000000
_cell_angle_gamma 90.000000
_cell_volume 2629.307810
_symmetry_space_group_name_H-M "P B C N"
_symmetry_group_IT_number 60
_symmetry_cell_setting 'orthorhombic'
loop_
_space_group_symop_operation_xyz
x,y,z
1/2-x,1/2-y,1/2+z
1/2+x,1/2-y,-z
-x,y,1/2-z
-x,-y,-z
1/2+x,1/2+y,1/2-z
1/2-x,1/2+y,z
x,-y,1/2+z
loop_
_atom_site_type_symbol
_atom_site_label
_atom_site_fract_x
_atom_site_fract_y
_atom_site_fract_z
Si Si1 0.766092 0.361144 0.197139
Si Si2 0.315314 0.024139 0.034957
Si Si3 0.688373 0.648464 0.528347
Si Si4 0.557066 0.830722 0.689687
Si Si5 0.178530 0.662887 0.215486
Si Si6 0.444091 0.483837 0.433582
Si Si7 0.610708 0.177535 0.614261
O O1 0.788999 0.554250 0.208532
O O2 0.732097 0.311241 0.286834
O O3 0.831954 0.263565 0.176396
O O4 0.714052 0.344418 0.123638
O O5 0.329483 0.832581 0.007867
O O6 0.240560 0.057862 0.029040
O O7 0.334799 0.058920 0.131036
O O8 0.356906 0.149385 0.977110
O O9 0.623809 0.541971 0.522121
O O10 0.500000 0.877225 0.750000
O O11 0.612828 0.765565 0.750345
O O12 0.540138 0.675370 0.627221
O O13 0.574878 0.004499 0.640905
O O14 0.500000 0.500000 0.500000
O O15 0.439487 0.667229 0.386231
#
# Coordination Sequence:
#
# PCOD8246748 Si02
#       7
#     8   8   8   8   8   8   8
#     4  10  19  38  67  94 128 175 214 274 348 397
#     4  11  22  38  70 104 137 176 222 291 347 404
#     4  11  20  42  63 100 142 176 227 276 343 418
#     4  11  26  48  68  93 139 183 225 286 340 404
#     4  11  22  38  65 100 132 172 222 278 346 402
#     4  12  26  43  70 100 132 186 238 273 337 420
#     4  10  23  45  72  98 130 184 226 278 351 404
#
# _framework density 21.298382
#
# number of rings (size 3 to 8) (size 9 to 14) (size 15 to 20)
#    0.000    1.143    2.857    5.143    2.000    2.286 
#    0.000    1.429    0.000    0.000    0.000    0.000 
#    0.000    0.000    0.000    0.000    0.000    0.000 
#
# Total GULP energy -694023.404078 kJ/mol
# GULP energy per Si atom -12393.275073 kJ/mol
# Density = 2.124991 g / cm^3
# Si number density = 21.298382 Si / 1000 Ang^3
#
#
#
# Elastic Constant Matrix: (Units=GPa)
#
#
# Indices 1 2 3 4 5 6 
#
# 1 129.2055 47.2380 50.9267 0.0000 0.0000 0.0000
# 2 47.2380 106.6311 34.0228 0.0000 0.0000 0.0000
# 3 50.9267 34.0228 96.5603 0.0000 0.0000 0.0000
# 4 0.0000 0.0000 0.0000 29.6491 0.0000 0.0000
# 5 0.0000 0.0000 0.0000 0.0000 36.4026 0.0000
# 6 0.0000 0.0000 0.0000 0.0000 0.0000 24.9469
#
#
#
# Elastic Compliance Matrix: (Units=1/GPa)
#
#
# Indices 1 2 3 4 5 6 
#
# 1 0.010720 -0.003318 -0.004485 0.000000 0.000000 0.000000
# 2 -0.003318 0.011593 -0.002335 0.000000 0.000000 0.000000
# 3 -0.004485 -0.002335 0.013544 0.000000 0.000000 0.000000
# 4 0.000000 0.000000 0.000000 0.033728 0.000000 0.000000
# 5 0.000000 0.000000 0.000000 0.000000 0.027471 0.000000
# 6 0.000000 0.000000 0.000000 0.000000 0.000000 0.040085
#
#
# Mechanical properties :
#
#
# Convention : Reuss Voigt Hill
#
# Bulk Modulus (GPa) = 64.17632 66.30798 65.24215
# Shear Modulus (GPa) = 30.74821 31.54701 31.14761
#
# Velocity S-wave (km/s) = 3.80371 3.85280 3.82834
# Velocity P-wave (km/s) = 7.03480 7.14091 7.08805
#
# Compressibility (1/GPa) = 0.01558207
#
# Stress axis : x y z
#
# Youngs Moduli (GPa) = 93.27923 86.25860 73.83212
#
# Poissons Ratio (x) = 0.28623 0.33113
# Poissons Ratio (y) = 0.30952 0.17238
# Poissons Ratio (z) = 0.41835 0.20139
#
# Static dielectric constant tensor:
#      x y z
#    x 4.001570 0.000000 0.000000 
#    y 0.000000 3.920800 0.000000 
#    z 0.000000 0.000000 3.671720 
# 
# 
# High freq. dielectric constant tensor:
#      x y z
#    x 1.836140 0.000000 0.000000 
#    y 0.000000 1.845530 0.000000 
#    z 0.000000 0.000000 1.820750 
# 
# From -- ./inp_files/17700.got.cif
#   From: 2010.03.12/outbox.cif.g09.slc.cpg/sg60_9_cif.got.tgz:17700.got - 2010.04.10 18:46:24.
