data_PCOD8246691
_publ_section_title
;
Structure prediction by ZEFSAII (Michael W. Deem and Ramdas Pophale) SiO2 
 PCOD8246691
Probable space group: P B C N
;
_chemical_formula_sum "Si O2"
_cell_formula_units_Z 48
_cell_length_a 8.642041
_cell_length_b 18.085606
_cell_length_c 15.422987
_cell_angle_alpha 90.000000
_cell_angle_beta 90.000000
_cell_angle_gamma 90.000000
_cell_volume 2410.559637
_symmetry_space_group_name_H-M "P B C N"
_symmetry_group_IT_number 60
_symmetry_cell_setting 'orthorhombic'
loop_
_space_group_symop_operation_xyz
x,y,z
1/2-x,1/2-y,1/2+z
1/2+x,1/2-y,-z
-x,y,1/2-z
-x,-y,-z
1/2+x,1/2+y,1/2-z
1/2-x,1/2+y,z
x,-y,1/2+z
loop_
_atom_site_type_symbol
_atom_site_label
_atom_site_fract_x
_atom_site_fract_y
_atom_site_fract_z
Si Si1 0.178407 0.541308 0.556630
Si Si2 0.415064 0.880999 0.509432
Si Si3 0.133240 0.880958 0.913724
Si Si4 0.085117 0.297202 0.841411
Si Si5 0.405534 0.345694 0.442191
Si Si6 0.024559 0.979717 0.152874
O O1 0.119231 0.458379 0.554691
O O2 0.257170 0.563123 0.465688
O O3 0.297818 0.543029 0.635566
O O4 0.037179 0.600343 0.569001
O O5 0.487302 0.829984 0.581485
O O6 0.267161 0.836437 0.477306
O O7 0.238611 0.830651 0.848331
O O8 0.014502 0.933510 0.860357
O O9 0.031332 0.830754 0.980567
O O10 0.079782 0.209614 0.860905
O O11 0.000000 0.313709 0.750000
O O12 0.419613 0.430171 0.410538
O O13 0.000000 0.955352 0.250000
#
# Coordination Sequence:
#
# PCOD8246691 Si02
#       6
#     8   8   8   8   8   8
#     4   9  18  36  58  87 112 148 206 247 299 360
#     4  10  19  36  63  82 115 162 200 249 295 370
#     4  10  20  38  59  84 113 159 207 238 297 375
#     4  11  25  37  56  90 127 157 197 254 306 357
#     4  11  20  41  61  84 116 166 206 243 303 378
#     4  11  21  35  61  90 121 151 196 263 307 347
#
# _framework density 19.912388
#
# number of rings (size 3 to 8) (size 9 to 14) (size 15 to 20)
#    0.000    1.667    3.333    2.500    2.333    0.000 
#    0.000    0.833    0.000    2.000    0.000    0.000 
#    0.000    0.000    0.000    0.000    0.000    0.000 
#
# Total GULP energy -594781.478693 kJ/mol
# GULP energy per Si atom -12391.280806 kJ/mol
# Density = 1.986707 g / cm^3
# Si number density = 19.912388 Si / 1000 Ang^3
#
#
#
# Elastic Constant Matrix: (Units=GPa)
#
#
# Indices 1 2 3 4 5 6 
#
# 1 123.2978 27.2323 44.0139 0.0000 0.0000 0.0000
# 2 27.2323 73.1854 17.6249 0.0000 0.0000 0.0000
# 3 44.0139 17.6249 76.8136 0.0000 0.0000 0.0000
# 4 0.0000 0.0000 0.0000 14.5936 0.0000 0.0000
# 5 0.0000 0.0000 0.0000 0.0000 27.5376 0.0000
# 6 0.0000 0.0000 0.0000 0.0000 0.0000 23.3656
#
#
#
# Elastic Compliance Matrix: (Units=1/GPa)
#
#
# Indices 1 2 3 4 5 6 
#
# 1 0.010657 -0.002641 -0.005501 0.000000 0.000000 0.000000
# 2 -0.002641 0.015118 -0.001956 0.000000 0.000000 0.000000
# 3 -0.005501 -0.001956 0.016619 0.000000 0.000000 0.000000
# 4 0.000000 0.000000 0.000000 0.068523 0.000000 0.000000
# 5 0.000000 0.000000 0.000000 0.000000 0.036314 0.000000
# 6 0.000000 0.000000 0.000000 0.000000 0.000000 0.042798
#
#
# Mechanical properties :
#
#
# Convention : Reuss Voigt Hill
#
# Bulk Modulus (GPa) = 45.04540 50.11546 47.58043
# Shear Modulus (GPa) = 22.97550 25.39440 24.18495
#
# Velocity S-wave (km/s) = 3.40049 3.57502 3.48885
# Velocity P-wave (km/s) = 6.17160 6.50105 6.33847
#
# Compressibility (1/GPa) = 0.02219982
#
# Stress axis : x y z
#
# Youngs Moduli (GPa) = 93.83230 66.14838 60.17187
#
# Poissons Ratio (x) = 0.17469 0.33098
# Poissons Ratio (y) = 0.24780 0.11767
# Poissons Ratio (z) = 0.51614 0.12935
#
# Static dielectric constant tensor:
#      x y z
#    x 4.132310 0.000000 0.000000 
#    y 0.000000 3.595670 0.000000 
#    z 0.000000 0.000000 3.318880 
# 
# 
# High freq. dielectric constant tensor:
#      x y z
#    x 1.793000 0.000000 0.000000 
#    y 0.000000 1.776730 0.000000 
#    z 0.000000 0.000000 1.739880 
# 
# From -- ./inp_files/15016.got.cif
#   From: 2010.03.12/outbox.cif.g09.slc.cpg/sg60_8_cif.got.tgz:15016.got - 2010.04.10 18:46:24.
