data_PCOD8246151
_publ_section_title
;
Structure prediction by ZEFSAII (Michael W. Deem and Ramdas Pophale) SiO2 
 PCOD8246151
Probable space group: P M M N
;
_chemical_formula_sum "Si O2"
_cell_formula_units_Z 64
_cell_length_a 19.806254
_cell_length_b 9.390798
_cell_length_c 20.593809
_cell_angle_alpha 90.000000
_cell_angle_beta 90.000000
_cell_angle_gamma 90.000000
_cell_volume 3830.377023
_symmetry_space_group_name_H-M "P M M N"
_symmetry_group_IT_number 59
_space_group.IT_coordinate_system_code '2'
_symmetry_cell_setting 'orthorhombic'
loop_
_space_group_symop_operation_xyz
x,y,z
1/2-x,1/2-y,z
1/2+x,-y,-z
-x,1/2+y,-z
-x,-y,-z
1/2+x,1/2+y,-z
1/2-x,y,z
x,1/2-y,z
loop_
_atom_site_type_symbol
_atom_site_label
_atom_site_fract_x
_atom_site_fract_y
_atom_site_fract_z
Si Si1 0.081537 0.592031 0.680152
Si Si2 0.921135 0.591232 0.681707
Si Si3 0.580162 0.089311 0.561811
Si Si4 0.324941 0.419381 0.069607
Si Si5 0.828919 0.913138 0.076260
Si Si6 0.580030 0.418333 0.174771
Si Si7 0.571577 0.580276 0.824792
Si Si8 0.419093 0.089451 0.560813
O O1 0.110536 0.750000 0.665423
O O2 0.103257 0.541336 0.752077
O O3 0.109638 0.482204 0.626617
O O4 0.001281 0.599819 0.676708
O O5 0.891274 0.750000 0.670129
O O6 0.891920 0.484757 0.627359
O O7 0.902008 0.532732 0.753451
O O8 0.608404 0.250000 0.558310
O O9 0.499625 0.090637 0.561596
O O10 0.607622 0.000740 0.500397
O O11 0.250000 0.477968 0.086092
O O12 0.323838 0.250000 0.073828
O O13 0.378372 0.484032 0.120814
O O14 0.345964 0.464604 0.996883
O O15 0.750000 0.931714 0.090224
O O16 0.850936 0.750000 0.086050
O O17 0.869474 0.010304 0.125207
O O18 0.582821 0.250000 0.164910
O O19 0.504126 0.476186 0.161836
O O20 0.570274 0.750000 0.826409
O O21 0.390912 0.250000 0.556087
#
# Coordination Sequence:
#
# PCOD8246151 Si02
#       8
#     8   8   8   8   8   8   8   8
#     4   8  14  24  35  49  73 103 132 164 205 249
#     4   8  13  22  35  50  72 102 133 167 206 245
#     4   9  15  21  30  46  71 103 136 168 201 241
#     4   8  14  26  44  64  86 113 143 174 211 255
#     4   9  18  31  45  62  85 112 142 177 214 252
#     4   9  17  28  43  63  86 112 141 175 216 259
#     4   8  14  25  41  61  85 112 142 177 215 254
#     4   9  15  21  31  48  70 100 137 170 200 239
#
# _framework density 16.708538999999998
#
# number of rings (size 3 to 8) (size 9 to 14) (size 15 to 20)
#    0.000    3.500    0.000    3.000    0.000    4.250 
#    0.000    1.875    0.000    0.750    0.000    0.000 
#    0.000    1.000    0.000    5.250    0.000    5.875 
#
# Total GULP energy -793155.846738 kJ/mol
# GULP energy per Si atom -12393.060105 kJ/mol
# Density = 1.667051 g / cm^3
# Si number density = 16.708539 Si / 1000 Ang^3
#
#
#
# Elastic Constant Matrix: (Units=GPa)
#
#
# Indices 1 2 3 4 5 6 
#
# 1 33.1899 24.1067 48.6126 0.0000 0.0000 0.0000
# 2 24.1067 80.7076 69.1940 0.0000 0.0000 0.0000
# 3 48.6126 69.1940 165.7388 0.0000 0.0000 0.0000
# 4 0.0000 0.0000 0.0000 26.5112 0.0000 0.0000
# 5 0.0000 0.0000 0.0000 0.0000 0.3312 0.0000
# 6 0.0000 0.0000 0.0000 0.0000 0.0000 11.8666
#
#
#
# Elastic Compliance Matrix: (Units=1/GPa)
#
#
# Indices 1 2 3 4 5 6 
#
# 1 0.053616 -0.003944 -0.014080 0.000000 0.000000 0.000000
# 2 -0.003944 0.019588 -0.007021 0.000000 0.000000 0.000000
# 3 -0.014080 -0.007021 0.013094 0.000000 0.000000 0.000000
# 4 0.000000 0.000000 0.000000 0.037720 0.000000 0.000000
# 5 0.000000 0.000000 0.000000 0.000000 3.019041 0.000000
# 6 0.000000 0.000000 0.000000 0.000000 0.000000 0.084270
#
#
# Mechanical properties :
#
#
# Convention : Reuss Voigt Hill
#
# Bulk Modulus (GPa) = 27.61679 62.60696 45.11188
# Shear Modulus (GPa) = 1.51999 16.92334 9.22167
#
# Velocity S-wave (km/s) = 0.95482 3.18599 2.35183
# Velocity P-wave (km/s) = 4.21663 7.14741 5.86794
#
# Compressibility (1/GPa) = 0.03620986
#
# Stress axis : x y z
#
# Youngs Moduli (GPa) = 18.65108 51.05251 76.36839
#
# Poissons Ratio (x) = 0.20133 1.07524
# Poissons Ratio (y) = 0.07355 0.53618
# Poissons Ratio (z) = 0.26260 0.35844
#
# Static dielectric constant tensor:
#      x y z
#    x 2.733350 0.000000 0.000000 
#    y 0.000000 3.052900 0.000000 
#    z 0.000000 0.000000 3.483040 
# 
# 
# High freq. dielectric constant tensor:
#      x y z
#    x 1.579840 0.000000 0.000000 
#    y 0.000000 1.621500 0.000000 
#    z 0.000000 0.000000 1.660920 
# 
# From -- ./inp_files/30892.got.cif
#   From: 2010.03.12/outbox.cif.g09.slc.cpg/sg59_16_cif.got.tgz:30892.got - 2010.04.16 16:29:54.
