data_PCOD8246366
_publ_section_title
;
Structure prediction by ZEFSAII (Michael W. Deem and Ramdas Pophale) SiO2 
 PCOD8246366
Probable space group: P B C N
;
_chemical_formula_sum "Si O2"
_cell_formula_units_Z 40
_cell_length_a 20.598514
_cell_length_b 9.692684
_cell_length_c 9.007040
_cell_angle_alpha 90.000000
_cell_angle_beta 90.000000
_cell_angle_gamma 90.000000
_cell_volume 1798.299554
_symmetry_space_group_name_H-M "P B C N"
_symmetry_group_IT_number 60
_symmetry_cell_setting 'orthorhombic'
loop_
_space_group_symop_operation_xyz
x,y,z
1/2-x,1/2-y,1/2+z
1/2+x,1/2-y,-z
-x,y,1/2-z
-x,-y,-z
1/2+x,1/2+y,1/2-z
1/2-x,1/2+y,z
x,-y,1/2+z
loop_
_atom_site_type_symbol
_atom_site_label
_atom_site_fract_x
_atom_site_fract_y
_atom_site_fract_z
Si Si1 0.980346 0.203572 0.402844
Si Si2 0.794053 0.404638 0.732826
Si Si3 0.586458 0.419633 0.389510
Si Si4 0.566154 0.824439 0.681771
Si Si5 0.268284 0.362465 0.085395
O O1 0.940958 0.312270 0.503607
O O2 0.000000 0.279810 0.250000
O O3 0.045565 0.155373 0.483779
O O4 0.936011 0.074013 0.357582
O O5 0.872378 0.417418 0.724261
O O6 0.772286 0.293324 0.855232
O O7 0.768673 0.364515 0.570496
O O8 0.768623 0.551554 0.787351
O O9 0.577532 0.333208 0.237575
O O10 0.660678 0.424987 0.441405
O O11 0.500000 0.888492 0.750000
#
# Coordination Sequence:
#
# PCOD8246366 Si02
#       5
#     8   8   8   8   8
#     4  10  18  29  56  93 123 162 207 266 329 376
#     4  11  25  44  67  97 130 178 220 275 331 396
#     4   9  19  32  54  87 129 161 206 267 327 376
#     4   9  20  39  58  86 126 167 215 272 318 385
#     4  11  25  41  66  96 134 175 222 270 332 399
#
# _framework density 22.243234999999999
#
# number of rings (size 3 to 8) (size 9 to 14) (size 15 to 20)
#    0.000    2.000    0.000    4.200   11.200    0.000 
#    0.000    3.000    0.000    0.000    0.000    0.000 
#    0.000    0.000    0.000    0.000    0.000    0.000 
#
# Total GULP energy -496117.973327 kJ/mol
# GULP energy per Si atom -12402.949333 kJ/mol
# Density = 2.219261 g / cm^3
# Si number density = 22.243235 Si / 1000 Ang^3
#
#
#
# Elastic Constant Matrix: (Units=GPa)
#
#
# Indices 1 2 3 4 5 6 
#
# 1 150.6948 18.8511 17.1864 0.0000 0.0000 0.0000
# 2 18.8511 23.9842 -4.3904 0.0000 0.0000 0.0000
# 3 17.1864 -4.3904 113.2865 0.0000 0.0000 0.0000
# 4 0.0000 0.0000 0.0000 20.6601 0.0000 0.0000
# 5 0.0000 0.0000 0.0000 0.0000 30.4370 0.0000
# 6 0.0000 0.0000 0.0000 0.0000 0.0000 11.6334
#
#
#
# Elastic Compliance Matrix: (Units=1/GPa)
#
#
# Indices 1 2 3 4 5 6 
#
# 1 0.007570 -0.006205 -0.001389 0.000000 0.000000 0.000000
# 2 -0.006205 0.047077 0.002766 0.000000 0.000000 0.000000
# 3 -0.001389 0.002766 0.009145 0.000000 0.000000 0.000000
# 4 0.000000 0.000000 0.000000 0.048402 0.000000 0.000000
# 5 0.000000 0.000000 0.000000 0.000000 0.032855 0.000000
# 6 0.000000 0.000000 0.000000 0.000000 0.000000 0.085959
#
#
# Mechanical properties :
#
#
# Convention : Reuss Voigt Hill
#
# Bulk Modulus (GPa) = 18.47162 39.02887 28.75025
# Shear Modulus (GPa) = 19.32663 29.63400 24.48032
#
# Velocity S-wave (km/s) = 2.95087 3.65399 3.32109
# Velocity P-wave (km/s) = 4.46459 5.94867 5.25924
#
# Compressibility (1/GPa) = 0.05413711
#
# Stress axis : x y z
#
# Youngs Moduli (GPa) = 132.09191 21.24179 109.34850
#
# Poissons Ratio (x) = 0.13179 0.15188
# Poissons Ratio (y) = 0.81956 -0.30243
# Poissons Ratio (z) = 0.18347 -0.05875
#
# Static dielectric constant tensor:
#      x y z
#    x 4.254100 0.000000 0.000000 
#    y 0.000000 3.556830 0.000000 
#    z 0.000000 0.000000 4.048660 
# 
# 
# High freq. dielectric constant tensor:
#      x y z
#    x 1.888980 0.000000 0.000000 
#    y 0.000000 1.839650 0.000000 
#    z 0.000000 0.000000 1.886100 
# 
# From -- ./inp_files/6520.got.cif
#   From: 2010.03.12/outbox.cif.g09.slc.cpg/sg60_4_cif.got.tgz:6520.got - 2010.04.10 18:46:24.
