data_PCOD8246986
_publ_section_title
;
Structure prediction by ZEFSAII (Michael W. Deem and Ramdas Pophale) SiO2 
 PCOD8246986
Probable space group: P B C N
;
_chemical_formula_sum "Si O2"
_cell_formula_units_Z 56
_cell_length_a 24.428816
_cell_length_b 5.027852
_cell_length_c 19.988900
_cell_angle_alpha 90.000000
_cell_angle_beta 90.000000
_cell_angle_gamma 90.000000
_cell_volume 2455.126076
_symmetry_space_group_name_H-M "P B C N"
_symmetry_group_IT_number 60
_symmetry_cell_setting 'orthorhombic'
loop_
_space_group_symop_operation_xyz
x,y,z
1/2-x,1/2-y,1/2+z
1/2+x,1/2-y,-z
-x,y,1/2-z
-x,-y,-z
1/2+x,1/2+y,1/2-z
1/2-x,1/2+y,z
x,-y,1/2+z
loop_
_atom_site_type_symbol
_atom_site_label
_atom_site_fract_x
_atom_site_fract_y
_atom_site_fract_z
Si Si1 0.938553 0.769111 0.263376
Si Si2 0.105581 0.781049 0.946573
Si Si3 0.785534 0.771320 0.626993
Si Si4 0.901145 0.732032 0.836020
Si Si5 0.940714 0.286755 0.617851
Si Si6 0.213799 0.730444 0.720153
Si Si7 0.042646 0.938789 0.059548
O O1 0.931414 0.075080 0.283384
O O2 0.911815 0.733211 0.190103
O O3 0.000000 0.680824 0.250000
O O4 0.910713 0.575937 0.317827
O O5 0.063815 0.587517 0.907880
O O6 0.167412 0.708127 0.927361
O O7 0.093687 0.087312 0.928280
O O8 0.091205 0.758190 0.026216
O O9 0.763514 0.066601 0.614241
O O10 0.807839 0.747649 0.703083
O O11 0.836031 0.783629 0.831026
O O12 0.926855 0.803962 0.908608
O O13 0.006494 0.212388 0.616912
O O14 0.261614 0.940756 0.706337
O O15 0.000000 0.000000 0.000000
#
# Coordination Sequence:
#
# PCOD8246986 Si02
#       7
#     8   8   8   8   8   8   8
#     4  12  24  37  64  95 132 161 207 267 324 383
#     4  11  23  40  64  90 125 171 212 251 309 378
#     4  10  20  37  63  91 121 155 207 269 320 368
#     4  12  25  42  64  96 132 172 210 266 330 381
#     4  11  22  40  62  91 127 164 210 258 311 379
#     4  10  21  40  64  92 124 160 210 269 327 380
#     4  10  25  43  63  89 132 176 214 252 307 388
#
# _framework density 22.809422000000001
#
# number of rings (size 3 to 8) (size 9 to 14) (size 15 to 20)
#    0.000    1.143    1.429    5.143    4.000    4.571 
#    0.000    1.429    0.000    0.000    0.000    0.000 
#    0.000    0.000    0.000    0.000    0.000    0.000 
#
# Total GULP energy -694245.879471 kJ/mol
# GULP energy per Si atom -12397.247848 kJ/mol
# Density = 2.275751 g / cm^3
# Si number density = 22.809422 Si / 1000 Ang^3
#
#
#
# Elastic Constant Matrix: (Units=GPa)
#
#
# Indices 1 2 3 4 5 6 
#
# 1 112.5515 8.0733 23.4294 0.0000 0.0000 0.0000
# 2 8.0733 73.0167 7.0795 0.0000 0.0000 0.0000
# 3 23.4294 7.0795 57.2345 0.0000 0.0000 0.0000
# 4 0.0000 0.0000 0.0000 25.6426 0.0000 0.0000
# 5 0.0000 0.0000 0.0000 0.0000 37.3839 0.0000
# 6 0.0000 0.0000 0.0000 0.0000 0.0000 30.1448
#
#
#
# Elastic Compliance Matrix: (Units=1/GPa)
#
#
# Indices 1 2 3 4 5 6 
#
# 1 0.009748 -0.000699 -0.003904 0.000000 0.000000 0.000000
# 2 -0.000699 0.013912 -0.001435 0.000000 0.000000 0.000000
# 3 -0.003904 -0.001435 0.019247 0.000000 0.000000 0.000000
# 4 0.000000 0.000000 0.000000 0.038998 0.000000 0.000000
# 5 0.000000 0.000000 0.000000 0.000000 0.026749 0.000000
# 6 0.000000 0.000000 0.000000 0.000000 0.000000 0.033173
#
#
# Mechanical properties :
#
#
# Convention : Reuss Voigt Hill
#
# Bulk Modulus (GPa) = 32.43406 35.55190 33.99298
# Shear Modulus (GPa) = 30.45443 32.24896 31.35170
#
# Velocity S-wave (km/s) = 3.65796 3.76419 3.71146
# Velocity P-wave (km/s) = 5.66492 5.87474 5.77078
#
# Compressibility (1/GPa) = 0.03083179
#
# Stress axis : x y z
#
# Youngs Moduli (GPa) = 102.58918 71.88090 51.95494
#
# Poissons Ratio (x) = 0.05026 0.20282
# Poissons Ratio (y) = 0.07174 0.07453
# Poissons Ratio (z) = 0.40048 0.10312
#
# Static dielectric constant tensor:
#      x y z
#    x 4.057060 0.000000 0.000000 
#    y 0.000000 3.943020 0.000000 
#    z 0.000000 0.000000 4.602720 
# 
# 
# High freq. dielectric constant tensor:
#      x y z
#    x 1.890170 0.000000 0.000000 
#    y 0.000000 1.904940 0.000000 
#    z 0.000000 0.000000 1.890490 
# 
# From -- ./inp_files/23265.got.cif
#   From: 2010.03.12/outbox.cif.g09.slc.cpg/sg60_12_cif.got.tgz:23265.got - 2010.04.10 18:46:24.
