data_PCOD8246918
_publ_section_title
;
Structure prediction by ZEFSAII (Michael W. Deem and Ramdas Pophale) SiO2 
 PCOD8246918
Probable space group: P B C N
;
_chemical_formula_sum "Si O2"
_cell_formula_units_Z 40
_cell_length_a 14.264031
_cell_length_b 17.561306
_cell_length_c 8.468587
_cell_angle_alpha 90.000000
_cell_angle_beta 90.000000
_cell_angle_gamma 90.000000
_cell_volume 2121.338812
_symmetry_space_group_name_H-M "P B C N"
_symmetry_group_IT_number 60
_symmetry_cell_setting 'orthorhombic'
loop_
_space_group_symop_operation_xyz
x,y,z
1/2-x,1/2-y,1/2+z
1/2+x,1/2-y,-z
-x,y,1/2-z
-x,-y,-z
1/2+x,1/2+y,1/2-z
1/2-x,1/2+y,z
x,-y,1/2+z
loop_
_atom_site_type_symbol
_atom_site_label
_atom_site_fract_x
_atom_site_fract_y
_atom_site_fract_z
Si Si1 0.992783 0.342795 0.998269
Si Si2 0.867835 0.610073 0.756760
Si Si3 0.000000 0.471930 0.750000
Si Si4 0.067105 0.958275 0.878620
Si Si5 0.348443 0.594587 0.684665
Si Si6 0.000000 0.786589 0.250000
O O1 0.989047 0.265026 0.903208
O O2 0.013162 0.418604 0.899895
O O3 0.892734 0.354812 0.085137
O O4 0.079338 0.336113 0.118160
O O5 0.758798 0.614135 0.788762
O O6 0.907392 0.523946 0.768025
O O7 0.000000 0.913720 0.750000
O O8 0.129603 0.016122 0.775435
O O9 0.132207 0.906944 0.993524
O O10 0.000000 0.000000 0.000000
O O11 0.408872 0.660692 0.766186
#
# Coordination Sequence:
#
# PCOD8246918 Si02
#       6
#     8   8   4   8   8   4
#     4   9  21  39  57  81 119 159 189 238 296 363
#     4  10  20  36  59  89 111 143 206 244 297 337
#     4   9  18  36  60  84 115 146 190 252 309 334
#     4   9  18  38  54  86 115 150 194 235 297 335
#     4  11  22  35  63  87 119 150 196 254 286 355
#     4  11  22  42  54  76 127 164 192 230 293 354
#
# _framework density 18.856019
#
# number of rings (size 3 to 8) (size 9 to 14) (size 15 to 20)
#    0.000    2.400    3.000    2.400    5.600    1.600 
#    3.600    0.000    0.000    0.000    0.000    0.000 
#    0.000    0.000    0.000    0.000    0.000    0.000 
#
# Total GULP energy -495633.247076 kJ/mol
# GULP energy per Si atom -12390.831177 kJ/mol
# Density = 1.881310 g / cm^3
# Si number density = 18.856019 Si / 1000 Ang^3
#
#
#
# Elastic Constant Matrix: (Units=GPa)
#
#
# Indices 1 2 3 4 5 6 
#
# 1 160.7487 33.1676 43.7475 0.0000 0.0000 0.0000
# 2 33.1676 76.4092 22.5902 0.0000 0.0000 0.0000
# 3 43.7475 22.5902 108.4170 0.0000 0.0000 0.0000
# 4 0.0000 0.0000 0.0000 20.2776 0.0000 0.0000
# 5 0.0000 0.0000 0.0000 0.0000 21.0064 0.0000
# 6 0.0000 0.0000 0.0000 0.0000 0.0000 10.1132
#
#
#
# Elastic Compliance Matrix: (Units=1/GPa)
#
#
# Indices 1 2 3 4 5 6 
#
# 1 0.007406 -0.002484 -0.002471 0.000000 0.000000 0.000000
# 2 -0.002484 0.014780 -0.002077 0.000000 0.000000 0.000000
# 3 -0.002471 -0.002077 0.010653 0.000000 0.000000 0.000000
# 4 0.000000 0.000000 0.000000 0.049316 0.000000 0.000000
# 5 0.000000 0.000000 0.000000 0.000000 0.047604 0.000000
# 6 0.000000 0.000000 0.000000 0.000000 0.000000 0.098880
#
#
# Mechanical properties :
#
#
# Convention : Reuss Voigt Hill
#
# Bulk Modulus (GPa) = 53.26268 60.50950 56.88609
# Shear Modulus (GPa) = 20.08336 26.68409 23.38373
#
# Velocity S-wave (km/s) = 3.26711 3.76593 3.52535
# Velocity P-wave (km/s) = 6.52230 7.14630 6.84142
#
# Compressibility (1/GPa) = 0.01877487
#
# Stress axis : x y z
#
# Youngs Moduli (GPa) = 135.02787 67.65944 93.86662
#
# Poissons Ratio (x) = 0.16808 0.23192
# Poissons Ratio (y) = 0.33545 0.19498
# Poissons Ratio (z) = 0.33362 0.14054
#
# Static dielectric constant tensor:
#      x y z
#    x 3.347770 0.000000 0.000000 
#    y 0.000000 1.931430 0.000000 
#    z 0.000000 0.000000 4.435040 
# 
# 
# High freq. dielectric constant tensor:
#      x y z
#    x 1.719390 0.000000 0.000000 
#    y 0.000000 1.707810 0.000000 
#    z 0.000000 0.000000 1.755990 
# 
# From -- ./inp_files/5798.got.cif
#   From: 2010.03.12/outbox.cif.g09.slc.cpg/sg60_3_cif.got.tgz:5798.got - 2010.04.10 18:46:24.
