data_PCOD8246417
_publ_section_title
;
Structure prediction by ZEFSAII (Michael W. Deem and Ramdas Pophale) SiO2 
 PCOD8246417
Probable space group: P B C N
;
_chemical_formula_sum "Si O2"
_cell_formula_units_Z 48
_cell_length_a 16.171715
_cell_length_b 17.775621
_cell_length_c 8.305599
_cell_angle_alpha 90.000000
_cell_angle_beta 90.000000
_cell_angle_gamma 90.000000
_cell_volume 2387.546398
_symmetry_space_group_name_H-M "P B C N"
_symmetry_group_IT_number 60
_symmetry_cell_setting 'orthorhombic'
loop_
_space_group_symop_operation_xyz
x,y,z
1/2-x,1/2-y,1/2+z
1/2+x,1/2-y,-z
-x,y,1/2-z
-x,-y,-z
1/2+x,1/2+y,1/2-z
1/2-x,1/2+y,z
x,-y,1/2+z
loop_
_atom_site_type_symbol
_atom_site_label
_atom_site_fract_x
_atom_site_fract_y
_atom_site_fract_z
Si Si1 0.000000 0.314731 0.750000
Si Si2 0.720202 0.818705 0.030572
Si Si3 0.407132 0.449256 0.273010
Si Si4 0.000000 0.800343 0.750000
Si Si5 0.857096 0.094730 0.373805
Si Si6 0.148501 0.794806 0.194434
Si Si7 0.041239 0.344780 0.410203
O O1 0.081428 0.263713 0.760886
O O2 0.003473 0.366743 0.586633
O O3 0.766834 0.867406 0.892552
O O4 0.692062 0.737711 0.963793
O O5 0.780856 0.804652 0.175043
O O6 0.638908 0.863690 0.091786
O O7 0.500000 0.478694 0.250000
O O8 0.395122 0.425815 0.455082
O O9 0.346536 0.518159 0.228408
O O10 0.390933 0.376772 0.158086
O O11 0.080353 0.848668 0.711777
O O12 0.025050 0.745959 0.899879
O O13 0.000000 0.383990 0.250000
#
# Coordination Sequence:
#
# PCOD8246417 Si02
#       7
#     4   8   8   4   8   8   8
#     4  10  18  33  52  82 116 147 194 226 290 375
#     4  10  21  35  52  83 116 151 199 250 293 355
#     4  11  22  35  54  80 116 161 189 235 290 367
#     4  10  20  33  54  82 116 155 196 236 300 365
#     4  11  23  35  53  82 120 154 202 234 292 370
#     4  10  21  34  55  80 117 152 194 243 293 354
#     4   9  20  33  57  79 115 153 187 252 301 340
#
# _framework density 20.104320000000001
#
# number of rings (size 3 to 8) (size 9 to 14) (size 15 to 20)
#    0.500    1.333    1.667    3.500    4.667    1.333 
#    0.000    0.000    0.000    0.000    0.000    4.667 
#    5.000    0.667    0.000    0.000    0.000    0.000 
#
# Total GULP energy -594905.608583 kJ/mol
# GULP energy per Si atom -12393.866845 kJ/mol
# Density = 2.005856 g / cm^3
# Si number density = 20.104320 Si / 1000 Ang^3
#
#
#
# Elastic Constant Matrix: (Units=GPa)
#
#
# Indices 1 2 3 4 5 6 
#
# 1 115.5151 3.6027 28.0893 0.0000 0.0000 0.0000
# 2 3.6027 33.1991 3.6454 0.0000 0.0000 0.0000
# 3 28.0893 3.6454 87.4288 0.0000 0.0000 0.0000
# 4 0.0000 0.0000 0.0000 13.9115 0.0000 0.0000
# 5 0.0000 0.0000 0.0000 0.0000 36.1415 0.0000
# 6 0.0000 0.0000 0.0000 0.0000 0.0000 20.8853
#
#
#
# Elastic Compliance Matrix: (Units=1/GPa)
#
#
# Indices 1 2 3 4 5 6 
#
# 1 0.009406 -0.000692 -0.002993 0.000000 0.000000 0.000000
# 2 -0.000692 0.030311 -0.001041 0.000000 0.000000 0.000000
# 3 -0.002993 -0.001041 0.012443 0.000000 0.000000 0.000000
# 4 0.000000 0.000000 0.000000 0.071883 0.000000 0.000000
# 5 0.000000 0.000000 0.000000 0.000000 0.027669 0.000000
# 6 0.000000 0.000000 0.000000 0.000000 0.000000 0.047881
#
#
# Mechanical properties :
#
#
# Convention : Reuss Voigt Hill
#
# Bulk Modulus (GPa) = 23.41564 34.09087 28.75326
# Shear Modulus (GPa) = 22.39321 27.57467 24.98394
#
# Velocity S-wave (km/s) = 3.34106 3.70750 3.52904
# Velocity P-wave (km/s) = 5.15325 5.94317 5.56225
#
# Compressibility (1/GPa) = 0.04270649
#
# Stress axis : x y z
#
# Youngs Moduli (GPa) = 106.31158 32.99155 80.36659
#
# Poissons Ratio (x) = 0.02283 0.24056
# Poissons Ratio (y) = 0.07358 0.08370
# Poissons Ratio (z) = 0.31821 0.03436
#
# Static dielectric constant tensor:
#      x y z
#    x 3.863520 0.000000 0.000000 
#    y 0.000000 3.764370 0.000000 
#    z 0.000000 0.000000 3.799880 
# 
# 
# High freq. dielectric constant tensor:
#      x y z
#    x 1.789540 0.000000 0.000000 
#    y 0.000000 1.741340 0.000000 
#    z 0.000000 0.000000 1.792620 
# 
# From -- ./inp_files/6066.got.cif
#   From: 2010.03.12/outbox.cif.g09.slc.cpg/sg60_4_cif.got.tgz:6066.got - 2010.04.10 18:46:24.
