data_PCOD8246850
_publ_section_title
;
Structure prediction by ZEFSAII (Michael W. Deem and Ramdas Pophale) SiO2 
 PCOD8246850
Probable space group: P B C N
;
_chemical_formula_sum "Si O2"
_cell_formula_units_Z 40
_cell_length_a 9.871771
_cell_length_b 20.202193
_cell_length_c 8.844803
_cell_angle_alpha 90.000000
_cell_angle_beta 90.000000
_cell_angle_gamma 90.000000
_cell_volume 1763.931648
_symmetry_space_group_name_H-M "P B C N"
_symmetry_group_IT_number 60
_symmetry_cell_setting 'orthorhombic'
loop_
_space_group_symop_operation_xyz
x,y,z
1/2-x,1/2-y,1/2+z
1/2+x,1/2-y,-z
-x,y,1/2-z
-x,-y,-z
1/2+x,1/2+y,1/2-z
1/2-x,1/2+y,z
x,-y,1/2+z
loop_
_atom_site_type_symbol
_atom_site_label
_atom_site_fract_x
_atom_site_fract_y
_atom_site_fract_z
Si Si1 0.164796 0.056289 0.004708
Si Si2 0.656949 0.063268 0.001949
Si Si3 0.323760 0.186920 0.082155
Si Si4 0.500000 0.498170 0.250000
Si Si5 0.000000 0.501924 0.250000
Si Si6 0.360138 0.203960 0.433965
O O1 0.278240 0.113025 0.028971
O O2 0.221648 0.983542 0.040587
O O3 0.105227 0.052706 0.833547
O O4 0.050665 0.054719 0.132414
O O5 0.537854 0.047379 0.884788
O O6 0.612212 0.051004 0.177974
O O7 0.701329 0.139173 0.984832
O O8 0.319421 0.199435 0.259616
O O9 0.477703 0.203368 0.031873
O O10 0.211217 0.232803 0.004668
#
# Coordination Sequence:
#
# PCOD8246850 Si02
#       6
#     8   8   8   4   4   8
#     4  11  23  42  67  97 134 176 222 275 333 398
#     4  11  21  39  65  95 128 167 218 274 329 389
#     4  11  26  46  68  96 134 176 224 278 335 399
#     4  10  24  40  64 100 136 174 220 274 338 398
#     4  10  20  34  64  98 124 154 212 280 330 376
#     4  11  26  45  66  97 134 176 224 277 335 400
#
# _framework density 22.676615000000002
#
# number of rings (size 3 to 8) (size 9 to 14) (size 15 to 20)
#    0.000    1.200    0.000    7.200    0.000   12.000 
#    0.000    0.000    0.000    0.000    0.000    0.000 
#    0.000    0.000    0.000    0.000    0.000    0.000 
#
# Total GULP energy -495532.518181 kJ/mol
# GULP energy per Si atom -12388.312955 kJ/mol
# Density = 2.262500 g / cm^3
# Si number density = 22.676615 Si / 1000 Ang^3
#
#
#
# Elastic Constant Matrix: (Units=GPa)
#
#
# Indices 1 2 3 4 5 6 
#
# 1 105.8244 57.4289 39.3593 0.0000 0.0000 0.0000
# 2 57.4289 105.9243 33.0890 0.0000 0.0000 0.0000
# 3 39.3593 33.0890 106.3521 0.0000 0.0000 0.0000
# 4 0.0000 0.0000 0.0000 17.0792 0.0000 0.0000
# 5 0.0000 0.0000 0.0000 0.0000 26.2793 0.0000
# 6 0.0000 0.0000 0.0000 0.0000 0.0000 41.9695
#
#
#
# Elastic Compliance Matrix: (Units=1/GPa)
#
#
# Indices 1 2 3 4 5 6 
#
# 1 0.014304 -0.006758 -0.003191 0.000000 0.000000 0.000000
# 2 -0.006758 0.013650 -0.001746 0.000000 0.000000 0.000000
# 3 -0.003191 -0.001746 0.011127 0.000000 0.000000 0.000000
# 4 0.000000 0.000000 0.000000 0.058551 0.000000 0.000000
# 5 0.000000 0.000000 0.000000 0.000000 0.038053 0.000000
# 6 0.000000 0.000000 0.000000 0.000000 0.000000 0.023827
#
#
# Mechanical properties :
#
#
# Convention : Reuss Voigt Hill
#
# Bulk Modulus (GPa) = 63.73165 64.20613 63.96889
# Shear Modulus (GPa) = 26.57703 29.61384 28.09543
#
# Velocity S-wave (km/s) = 3.42716 3.61767 3.52371
# Velocity P-wave (km/s) = 6.62014 6.76944 6.69520
#
# Compressibility (1/GPa) = 0.01569079
#
# Stress axis : x y z
#
# Youngs Moduli (GPa) = 69.90995 73.25858 89.87291
#
# Poissons Ratio (x) = 0.49511 0.28678
# Poissons Ratio (y) = 0.47248 0.15690
# Poissons Ratio (z) = 0.22308 0.12789
#
# Static dielectric constant tensor:
#      x y z
#    x 4.168600 0.000000 0.000000 
#    y 0.000000 4.074390 0.000000 
#    z 0.000000 0.000000 4.456910 
# 
# 
# High freq. dielectric constant tensor:
#      x y z
#    x 1.894720 0.000000 0.000000 
#    y 0.000000 1.881030 0.000000 
#    z 0.000000 0.000000 1.913030 
# 
# From -- ./inp_files/4948.got.cif
#   From: 2010.03.12/outbox.cif.g09.slc.cpg/sg60_3_cif.got.tgz:4948.got - 2010.04.10 18:46:24.
