data_PCOD8246685
_publ_section_title
;
Structure prediction by ZEFSAII (Michael W. Deem and Ramdas Pophale) SiO2 
 PCOD8246685
Probable space group: P B C N
;
_chemical_formula_sum "Si O2"
_cell_formula_units_Z 64
_cell_length_a 9.056630
_cell_length_b 14.943888
_cell_length_c 22.280956
_cell_angle_alpha 90.000000
_cell_angle_beta 90.000000
_cell_angle_gamma 90.000000
_cell_volume 3015.532757
_symmetry_space_group_name_H-M "P B C N"
_symmetry_group_IT_number 60
_symmetry_cell_setting 'orthorhombic'
loop_
_space_group_symop_operation_xyz
x,y,z
1/2-x,1/2-y,1/2+z
1/2+x,1/2-y,-z
-x,y,1/2-z
-x,-y,-z
1/2+x,1/2+y,1/2-z
1/2-x,1/2+y,z
x,-y,1/2+z
loop_
_atom_site_type_symbol
_atom_site_label
_atom_site_fract_x
_atom_site_fract_y
_atom_site_fract_z
Si Si1 0.140278 0.045634 0.529952
Si Si2 0.594366 0.373536 0.340149
Si Si3 0.666342 0.396631 0.727903
Si Si4 0.432636 0.722745 0.479914
Si Si5 0.738574 0.639390 0.464550
Si Si6 0.265298 0.703397 0.162198
Si Si7 0.716652 0.589510 0.712256
Si Si8 0.420615 0.233454 0.843034
O O1 0.122663 0.066347 0.600975
O O2 0.176166 0.137628 0.494021
O O3 0.261693 0.966371 0.520437
O O4 0.000000 0.000000 0.500000
O O5 0.631915 0.269957 0.353264
O O6 0.423576 0.374325 0.323755
O O7 0.695863 0.403838 0.284161
O O8 0.500000 0.420932 0.750000
O O9 0.769168 0.361963 0.782388
O O10 0.739520 0.484400 0.698632
O O11 0.668700 0.320488 0.677824
O O12 0.597761 0.688521 0.496818
O O13 0.387305 0.806095 0.521857
O O14 0.413467 0.765087 0.414587
O O15 0.699504 0.641403 0.394315
O O16 0.410728 0.761438 0.179725
O O17 0.855683 0.643410 0.686303
#
# Coordination Sequence:
#
# PCOD8246685 Si02
#       8
#     8   8   8   8   8   8   8   8
#     4  10  22  37  62  89 117 160 205 252 295 366
#     4  11  21  38  64  90 119 151 210 250 303 359
#     4  10  19  36  61  87 115 156 196 244 298 364
#     4  10  22  37  58  89 116 155 203 247 298 361
#     4  10  21  38  61  85 116 157 202 251 300 359
#     4  10  20  39  63  84 122 158 199 249 309 372
#     4  11  23  36  64  92 119 154 201 261 299 362
#     4  10  23  36  60  86 123 158 197 243 315 365
#
# _framework density 21.223445999999999
#
# number of rings (size 3 to 8) (size 9 to 14) (size 15 to 20)
#    0.000    1.750    3.750    0.750    8.750    0.000 
#    0.000    0.625   11.000    0.000    0.000    0.000 
#    0.000    0.000    0.000    0.000    0.000    0.000 
#
# Total GULP energy -793151.267307 kJ/mol
# GULP energy per Si atom -12392.988552 kJ/mol
# Density = 2.117514 g / cm^3
# Si number density = 21.223446 Si / 1000 Ang^3
#
#
#
# Elastic Constant Matrix: (Units=GPa)
#
#
# Indices 1 2 3 4 5 6 
#
# 1 37.2567 27.7997 16.8915 0.0000 0.0000 0.0000
# 2 27.7997 134.8958 25.7706 0.0000 0.0000 0.0000
# 3 16.8915 25.7706 75.1200 0.0000 0.0000 0.0000
# 4 0.0000 0.0000 0.0000 31.9687 0.0000 0.0000
# 5 0.0000 0.0000 0.0000 0.0000 22.4243 0.0000
# 6 0.0000 0.0000 0.0000 0.0000 0.0000 29.3808
#
#
#
# Elastic Compliance Matrix: (Units=1/GPa)
#
#
# Indices 1 2 3 4 5 6 
#
# 1 0.033764 -0.005894 -0.005570 0.000000 0.000000 0.000000
# 2 -0.005894 0.008962 -0.001749 0.000000 0.000000 0.000000
# 3 -0.005570 -0.001749 0.015165 0.000000 0.000000 0.000000
# 4 0.000000 0.000000 0.000000 0.031281 0.000000 0.000000
# 5 0.000000 0.000000 0.000000 0.000000 0.044594 0.000000
# 6 0.000000 0.000000 0.000000 0.000000 0.000000 0.034036
#
#
# Mechanical properties :
#
#
# Convention : Reuss Voigt Hill
#
# Bulk Modulus (GPa) = 31.78247 43.13291 37.45769
# Shear Modulus (GPa) = 24.42403 28.54214 26.48309
#
# Velocity S-wave (km/s) = 3.39603 3.67118 3.53629
# Velocity P-wave (km/s) = 5.51226 6.19173 5.86185
#
# Compressibility (1/GPa) = 0.03146388
#
# Stress axis : x y z
#
# Youngs Moduli (GPa) = 29.61721 111.58283 65.94303
#
# Poissons Ratio (x) = 0.65768 0.36732
# Poissons Ratio (y) = 0.17457 0.11534
# Poissons Ratio (z) = 0.16497 0.19517
#
# Static dielectric constant tensor:
#      x y z
#    x 3.430260 0.000000 0.000000 
#    y 0.000000 4.210550 0.000000 
#    z 0.000000 0.000000 3.916710 
# 
# 
# High freq. dielectric constant tensor:
#      x y z
#    x 1.782500 0.000000 0.000000 
#    y 0.000000 1.843390 0.000000 
#    z 0.000000 0.000000 1.840380 
# 
# From -- ./inp_files/24303.got.cif
#   From: 2010.03.12/outbox.cif.g09.slc.cpg/sg60_13_cif.got.tgz:24303.got - 2010.04.10 18:46:24.
