data_PCOD8246811
_publ_section_title
;
Structure prediction by ZEFSAII (Michael W. Deem and Ramdas Pophale) SiO2 
 PCOD8246811
Probable space group: P B C N
;
_chemical_formula_sum "Si O2"
_cell_formula_units_Z 44
_cell_length_a 8.773896
_cell_length_b 11.982536
_cell_length_c 20.186075
_cell_angle_alpha 90.000000
_cell_angle_beta 90.000000
_cell_angle_gamma 90.000000
_cell_volume 2122.233214
_symmetry_space_group_name_H-M "P B C N"
_symmetry_group_IT_number 60
_symmetry_cell_setting 'orthorhombic'
loop_
_space_group_symop_operation_xyz
x,y,z
1/2-x,1/2-y,1/2+z
1/2+x,1/2-y,-z
-x,y,1/2-z
-x,-y,-z
1/2+x,1/2+y,1/2-z
1/2-x,1/2+y,z
x,-y,1/2+z
loop_
_atom_site_type_symbol
_atom_site_label
_atom_site_fract_x
_atom_site_fract_y
_atom_site_fract_z
Si Si1 0.961871 0.315562 0.066094
Si Si2 0.799233 0.179037 0.957281
Si Si3 0.037147 0.890641 0.353290
Si Si4 0.716948 0.980609 0.571095
Si Si5 0.500000 0.578161 0.250000
Si Si6 0.738111 0.706445 0.173481
O O1 0.940404 0.449942 0.064791
O O2 0.896798 0.264483 0.133192
O O3 0.135664 0.276947 0.065684
O O4 0.881159 0.273080 0.999752
O O5 0.892186 0.159150 0.890268
O O6 0.772549 0.069183 0.001632
O O7 0.153803 0.930705 0.409281
O O8 0.127410 0.796023 0.308938
O O9 0.976869 0.996366 0.312237
O O10 0.686827 0.888718 0.627630
O O11 0.653467 0.653114 0.238088
#
# Coordination Sequence:
#
# PCOD8246811 Si02
#       6
#     8   8   8   8   4   8
#     4  10  20  33  55  85 118 150 187 233 291 359
#     4  11  20  33  55  85 116 147 184 236 293 354
#     4  10  21  37  57  82 112 151 199 241 287 346
#     4   9  18  35  55  81 115 151 184 231 294 355
#     4  10  22  40  62  80 110 158 200 250 298 334
#     4   9  20  39  59  81 114 154 195 242 293 347
#
# _framework density 20.732876000000001
#
# number of rings (size 3 to 8) (size 9 to 14) (size 15 to 20)
#    0.000    2.182    0.000    4.364    0.000    4.364 
#    0.000    1.818    0.000    6.545    0.000    0.000 
#    0.000    0.000    0.000    0.000    0.000    0.000 
#
# Total GULP energy -545417.033813 kJ/mol
# GULP energy per Si atom -12395.841678 kJ/mol
# Density = 2.068569 g / cm^3
# Si number density = 20.732876 Si / 1000 Ang^3
#
#
#
# Elastic Constant Matrix: (Units=GPa)
#
#
# Indices 1 2 3 4 5 6 
#
# 1 109.1140 40.6474 35.0522 0.0000 0.0000 0.0000
# 2 40.6474 105.7760 27.4887 0.0000 0.0000 0.0000
# 3 35.0522 27.4887 69.8916 0.0000 0.0000 0.0000
# 4 0.0000 0.0000 0.0000 21.9197 0.0000 0.0000
# 5 0.0000 0.0000 0.0000 0.0000 29.1521 0.0000
# 6 0.0000 0.0000 0.0000 0.0000 0.0000 29.5001
#
#
#
# Elastic Compliance Matrix: (Units=1/GPa)
#
#
# Indices 1 2 3 4 5 6 
#
# 1 0.011914 -0.003370 -0.004650 0.000000 0.000000 0.000000
# 2 -0.003370 0.011483 -0.002826 0.000000 0.000000 0.000000
# 3 -0.004650 -0.002826 0.017751 0.000000 0.000000 0.000000
# 4 0.000000 0.000000 0.000000 0.045621 0.000000 0.000000
# 5 0.000000 0.000000 0.000000 0.000000 0.034303 0.000000
# 6 0.000000 0.000000 0.000000 0.000000 0.000000 0.033898
#
#
# Mechanical properties :
#
#
# Convention : Reuss Voigt Hill
#
# Bulk Modulus (GPa) = 51.39603 54.57313 52.98458
# Shear Modulus (GPa) = 27.30033 28.22061 27.76047
#
# Velocity S-wave (km/s) = 3.63266 3.69338 3.66315
# Velocity P-wave (km/s) = 6.51448 6.67587 6.59567
#
# Compressibility (1/GPa) = 0.01945675
#
# Stress axis : x y z
#
# Youngs Moduli (GPa) = 83.93676 87.08202 56.33358
#
# Poissons Ratio (x) = 0.29345 0.26193
# Poissons Ratio (y) = 0.28286 0.15922
# Poissons Ratio (z) = 0.39027 0.24613
#
# Static dielectric constant tensor:
#      x y z
#    x 3.739430 0.000000 0.000000 
#    y 0.000000 3.991560 0.000000 
#    z 0.000000 0.000000 3.526430 
# 
# 
# High freq. dielectric constant tensor:
#      x y z
#    x 1.803930 0.000000 0.000000 
#    y 0.000000 1.823760 0.000000 
#    z 0.000000 0.000000 1.789680 
# 
# From -- ./inp_files/23881.got.cif
#   From: 2010.03.12/outbox.cif.g09.slc.cpg/sg60_12_cif.got.tgz:23881.got - 2010.04.10 18:46:24.
