data_PCOD8246829
_publ_section_title
;
Structure prediction by ZEFSAII (Michael W. Deem and Ramdas Pophale) SiO2 
 PCOD8246829
Probable space group: P B C N
;
_chemical_formula_sum "Si O2"
_cell_formula_units_Z 48
_cell_length_a 15.826287
_cell_length_b 30.250733
_cell_length_c 4.934412
_cell_angle_alpha 90.000000
_cell_angle_beta 90.000000
_cell_angle_gamma 90.000000
_cell_volume 2362.383212
_symmetry_space_group_name_H-M "P B C N"
_symmetry_group_IT_number 60
_symmetry_cell_setting 'orthorhombic'
loop_
_space_group_symop_operation_xyz
x,y,z
1/2-x,1/2-y,1/2+z
1/2+x,1/2-y,-z
-x,y,1/2-z
-x,-y,-z
1/2+x,1/2+y,1/2-z
1/2-x,1/2+y,z
x,-y,1/2+z
loop_
_atom_site_type_symbol
_atom_site_label
_atom_site_fract_x
_atom_site_fract_y
_atom_site_fract_z
Si Si1 0.137889 0.839559 0.739743
Si Si2 0.729656 0.530074 0.762133
Si Si3 0.903457 0.104475 0.760138
Si Si4 0.913978 0.529453 0.833870
Si Si5 0.053505 0.248221 0.012365
Si Si6 0.276694 0.223573 0.315067
O O1 0.129440 0.879401 0.530357
O O2 0.086858 0.797392 0.636641
O O3 0.235972 0.824937 0.773751
O O4 0.101384 0.855456 0.026381
O O5 0.719772 0.512209 0.458047
O O6 0.657185 0.564492 0.844280
O O7 0.823065 0.553296 0.787338
O O8 0.000000 0.087505 0.750000
O O9 0.917112 0.485294 0.645890
O O10 0.000000 0.557212 0.750000
O O11 0.128887 0.281289 0.930036
O O12 0.000000 0.236426 0.750000
O O13 0.000000 0.272170 0.250000
O O14 0.219054 0.250289 0.530888
#
# Coordination Sequence:
#
# PCOD8246829 Si02
#       6
#     8   8   8   8   8   8
#     4  11  22  37  54  78 110 142 186 233 270 318
#     4  10  21  37  55  78 108 140 179 227 277 331
#     4  12  24  36  55  79 107 147 187 229 282 328
#     4   8  14  27  50  76  96 118 155 206 258 309
#     4  11  20  33  56  84 111 140 182 230 275 325
#     4  10  20  34  54  79 107 142 177 219 275 327
#
# _framework density 20.318466000000001
#
# number of rings (size 3 to 8) (size 9 to 14) (size 15 to 20)
#    0.000    1.667    0.000    8.000    0.000    0.667 
#    0.000    0.000    0.000    3.000    0.000    0.000 
#    0.000    0.000    0.000    0.000    0.000    0.000 
#
# Total GULP energy -594973.804127 kJ/mol
# GULP energy per Si atom -12395.287586 kJ/mol
# Density = 2.027222 g / cm^3
# Si number density = 20.318466 Si / 1000 Ang^3
#
#
#
# Elastic Constant Matrix: (Units=GPa)
#
#
# Indices 1 2 3 4 5 6 
#
# 1 186.9429 58.5856 27.8271 0.0000 0.0000 0.0000
# 2 58.5856 39.5492 10.1993 0.0000 0.0000 0.0000
# 3 27.8271 10.1993 82.5135 0.0000 0.0000 0.0000
# 4 0.0000 0.0000 0.0000 12.6145 0.0000 0.0000
# 5 0.0000 0.0000 0.0000 0.0000 36.2907 0.0000
# 6 0.0000 0.0000 0.0000 0.0000 0.0000 20.4628
#
#
#
# Elastic Compliance Matrix: (Units=1/GPa)
#
#
# Indices 1 2 3 4 5 6 
#
# 1 0.010190 -0.014677 -0.001622 0.000000 0.000000 0.000000
# 2 -0.014677 0.047256 -0.000892 0.000000 0.000000 0.000000
# 3 -0.001622 -0.000892 0.012777 0.000000 0.000000 0.000000
# 4 0.000000 0.000000 0.000000 0.079274 0.000000 0.000000
# 5 0.000000 0.000000 0.000000 0.000000 0.027555 0.000000
# 6 0.000000 0.000000 0.000000 0.000000 0.000000 0.048869
#
#
# Mechanical properties :
#
#
# Convention : Reuss Voigt Hill
#
# Bulk Modulus (GPa) = 27.90070 55.80327 41.85198
# Shear Modulus (GPa) = 18.36549 28.03318 23.19934
#
# Velocity S-wave (km/s) = 3.00972 3.71845 3.38270
# Velocity P-wave (km/s) = 5.08325 6.77936 5.99163
#
# Compressibility (1/GPa) = 0.03584139
#
# Stress axis : x y z
#
# Youngs Moduli (GPa) = 98.13307 21.16130 78.26811
#
# Poissons Ratio (x) = 0.31058 0.12698
# Poissons Ratio (y) = 1.44027 0.06978
# Poissons Ratio (z) = 0.15921 0.01887
#
# Static dielectric constant tensor:
#      x y z
#    x 4.232770 0.000000 0.000000 
#    y 0.000000 2.977050 0.000000 
#    z 0.000000 0.000000 4.053400 
# 
# 
# High freq. dielectric constant tensor:
#      x y z
#    x 1.816870 0.000000 0.000000 
#    y 0.000000 1.713430 0.000000 
#    z 0.000000 0.000000 1.824640 
# 
# From -- ./inp_files/1425.got.cif
#   From: 2010.03.12/outbox.cif.g09.slc.cpg/sg60_1_cif.got.tgz:1425.got - 2010.04.10 18:46:24.
