data_PCOD8246457
_publ_section_title
;
Structure prediction by ZEFSAII (Michael W. Deem and Ramdas Pophale) SiO2 
 PCOD8246457
Probable space group: P B C N
;
_chemical_formula_sum "Si O2"
_cell_formula_units_Z 40
_cell_length_a 9.984707
_cell_length_b 23.671747
_cell_length_c 8.238777
_cell_angle_alpha 90.000000
_cell_angle_beta 90.000000
_cell_angle_gamma 90.000000
_cell_volume 1947.279911
_symmetry_space_group_name_H-M "P B C N"
_symmetry_group_IT_number 60
_symmetry_cell_setting 'orthorhombic'
loop_
_space_group_symop_operation_xyz
x,y,z
1/2-x,1/2-y,1/2+z
1/2+x,1/2-y,-z
-x,y,1/2-z
-x,-y,-z
1/2+x,1/2+y,1/2-z
1/2-x,1/2+y,z
x,-y,1/2+z
loop_
_atom_site_type_symbol
_atom_site_label
_atom_site_fract_x
_atom_site_fract_y
_atom_site_fract_z
Si Si1 0.539844 0.867140 0.431084
Si Si2 0.358961 0.686576 0.162733
Si Si3 0.143091 0.526278 0.458402
Si Si4 0.795651 0.577493 0.383602
Si Si5 0.375421 0.237862 0.366898
O O1 0.500000 0.851473 0.250000
O O2 0.651980 0.917195 0.430048
O O3 0.412853 0.884372 0.540331
O O4 0.605636 0.812775 0.508288
O O5 0.500000 0.694378 0.250000
O O6 0.324656 0.619642 0.160613
O O7 0.254989 0.725354 0.260659
O O8 0.358990 0.705915 0.974889
O O9 0.151599 0.545396 0.274548
O O10 0.248460 0.475418 0.499545
O O11 0.000000 0.500000 0.500000
O O12 0.500000 0.247182 0.250000
#
# Coordination Sequence:
#
# PCOD8246457 Si02
#       5
#     8   8   8   8   8
#     4  11  20  36  69 103 132 169 228 286 338 385
#     4  12  27  45  67 101 141 182 226 280 345 412
#     4  10  18  35  64  98 132 168 224 282 332 387
#     4  11  22  41  63 100 138 172 223 289 342 395
#     4  12  24  47  72  97 135 178 232 283 332 405
#
# _framework density 20.541474999999998
#
# number of rings (size 3 to 8) (size 9 to 14) (size 15 to 20)
#    0.000    0.800    4.000    6.600    2.800    0.000 
#    0.000    1.000    0.000    0.000    0.000    0.000 
#    0.000    0.000    0.000    0.000    0.000    0.000 
#
# Total GULP energy -495772.735898 kJ/mol
# GULP energy per Si atom -12394.318397 kJ/mol
# Density = 2.049472 g / cm^3
# Si number density = 20.541475 Si / 1000 Ang^3
#
#
#
# Elastic Constant Matrix: (Units=GPa)
#
#
# Indices 1 2 3 4 5 6 
#
# 1 100.0183 32.4290 58.2424 0.0000 0.0000 0.0000
# 2 32.4290 103.6445 55.1723 0.0000 0.0000 0.0000
# 3 58.2424 55.1723 135.2212 0.0000 0.0000 0.0000
# 4 0.0000 0.0000 0.0000 45.5845 0.0000 0.0000
# 5 0.0000 0.0000 0.0000 0.0000 17.2983 0.0000
# 6 0.0000 0.0000 0.0000 0.0000 0.0000 -2.2614
#
#
#
# Elastic Compliance Matrix: (Units=1/GPa)
#
#
# Indices 1 2 3 4 5 6 
#
# 1 0.013512 -0.001443 -0.005231 0.000000 0.000000 0.000000
# 2 -0.001443 0.012480 -0.004470 0.000000 0.000000 0.000000
# 3 -0.005231 -0.004470 0.011472 0.000000 0.000000 0.000000
# 4 0.000000 0.000000 0.000000 0.021937 0.000000 0.000000
# 5 0.000000 0.000000 0.000000 0.000000 0.057809 0.000000
# 6 0.000000 0.000000 0.000000 0.000000 0.000000 -0.442213
#
#
# Mechanical properties :
#
#
# Convention : Reuss Voigt Hill
#
# Bulk Modulus (GPa) = 65.89759 70.06350 67.98054
# Shear Modulus (GPa) = -16.79799 24.99364 4.09783
#
# Velocity S-wave (km/s) = -2.86275 3.49196 1.41394
# Velocity P-wave (km/s) = 4.60682 7.10217 5.98596
#
# Compressibility (1/GPa) = 0.01517506
#
# Stress axis : x y z
#
# Youngs Moduli (GPa) = 74.00665 80.13135 87.16582
#
# Poissons Ratio (x) = 0.11564 0.45598
# Poissons Ratio (y) = 0.10680 0.38965
# Poissons Ratio (z) = 0.38714 0.35821
#
# Static dielectric constant tensor:
#      x y z
#    x 3.424560 0.000000 0.000000 
#    y 0.000000 4.608350 0.000000 
#    z 0.000000 0.000000 4.188840 
# 
# 
# High freq. dielectric constant tensor:
#      x y z
#    x 1.750990 0.000000 0.000000 
#    y 0.000000 1.827410 0.000000 
#    z 0.000000 0.000000 1.821960 
# 
# From -- ./inp_files/3864.got.cif
#   From: 2010.03.12/outbox.cif.g09.slc.cpg/sg60_2_cif.got.tgz:3864.got - 2010.04.10 18:46:24.
