data_PCOD8246870
_publ_section_title
;
Structure prediction by ZEFSAII (Michael W. Deem and Ramdas Pophale) SiO2 
 PCOD8246870
Probable space group: P B C N
;
_chemical_formula_sum "Si O2"
_cell_formula_units_Z 64
_cell_length_a 15.978596
_cell_length_b 8.212736
_cell_length_c 23.839738
_cell_angle_alpha 90.000000
_cell_angle_beta 90.000000
_cell_angle_gamma 90.000000
_cell_volume 3128.440914
_symmetry_space_group_name_H-M "P B C N"
_symmetry_group_IT_number 60
_symmetry_cell_setting 'orthorhombic'
loop_
_space_group_symop_operation_xyz
x,y,z
1/2-x,1/2-y,1/2+z
1/2+x,1/2-y,-z
-x,y,1/2-z
-x,-y,-z
1/2+x,1/2+y,1/2-z
1/2-x,1/2+y,z
x,-y,1/2+z
loop_
_atom_site_type_symbol
_atom_site_label
_atom_site_fract_x
_atom_site_fract_y
_atom_site_fract_z
Si Si1 0.816210 0.743445 0.418820
Si Si2 0.720563 0.293563 0.537620
Si Si3 0.630824 0.809857 0.286764
Si Si4 0.630519 0.030439 0.076471
Si Si5 0.441860 0.574731 0.427177
Si Si6 0.449400 0.173674 0.831751
Si Si7 0.005309 0.747520 0.034275
Si Si8 0.226675 0.986710 0.660844
O O1 0.758217 0.805222 0.471097
O O2 0.773402 0.587448 0.392381
O O3 0.904272 0.692154 0.445037
O O4 0.827806 0.871632 0.367975
O O5 0.801764 0.322305 0.577072
O O6 0.654040 0.435614 0.552035
O O7 0.676905 0.121692 0.549215
O O8 0.608885 0.794355 0.221695
O O9 0.546154 0.865934 0.318377
O O10 0.663572 0.634733 0.307966
O O11 0.703887 0.942765 0.296040
O O12 0.554299 0.090183 0.037423
O O13 0.592259 0.981136 0.136649
O O14 0.447354 0.659878 0.366945
O O15 0.495466 0.684997 0.470832
O O16 0.475434 0.391504 0.423695
#
# Coordination Sequence:
#
# PCOD8246870 Si02
#       8
#     8   8   8   8   8   8   8   8
#     4  10  20  35  57  84 112 142 184 240 291 344
#     4  10  21  34  52  84 117 151 189 228 288 360
#     4  10  22  40  59  84 110 147 201 247 290 339
#     4  11  22  36  57  83 119 158 190 234 289 354
#     4   9  20  36  56  82 117 153 187 233 286 347
#     4  10  22  39  59  82 116 154 193 241 289 341
#     4  10  20  35  57  87 116 148 190 229 285 358
#     4  10  21  37  61  83 109 146 190 244 294 336
#
# _framework density 20.457474000000001
#
# number of rings (size 3 to 8) (size 9 to 14) (size 15 to 20)
#    0.000    2.000    0.000    3.000    0.000   11.500 
#    0.000    2.500    0.000    9.000    0.000    0.000 
#    0.000    0.000    0.000    0.000    0.000    0.000 
#
# Total GULP energy -793343.553879 kJ/mol
# GULP energy per Si atom -12395.993029 kJ/mol
# Density = 2.041091 g / cm^3
# Si number density = 20.457474 Si / 1000 Ang^3
#
#
#
# Elastic Constant Matrix: (Units=GPa)
#
#
# Indices 1 2 3 4 5 6 
#
# 1 113.3297 42.6692 53.0457 0.0000 0.0000 0.0000
# 2 42.6692 58.5137 34.5113 0.0000 0.0000 0.0000
# 3 53.0457 34.5113 121.3449 0.0000 0.0000 0.0000
# 4 0.0000 0.0000 0.0000 24.9897 0.0000 0.0000
# 5 0.0000 0.0000 0.0000 0.0000 29.1020 0.0000
# 6 0.0000 0.0000 0.0000 0.0000 0.0000 33.3587
#
#
#
# Elastic Compliance Matrix: (Units=1/GPa)
#
#
# Indices 1 2 3 4 5 6 
#
# 1 0.013420 -0.007601 -0.003705 0.000000 0.000000 0.000000
# 2 -0.007601 0.024840 -0.003742 0.000000 0.000000 0.000000
# 3 -0.003705 -0.003742 0.010925 0.000000 0.000000 0.000000
# 4 0.000000 0.000000 0.000000 0.040016 0.000000 0.000000
# 5 0.000000 0.000000 0.000000 0.000000 0.034362 0.000000
# 6 0.000000 0.000000 0.000000 0.000000 0.000000 0.029977
#
#
# Mechanical properties :
#
#
# Convention : Reuss Voigt Hill
#
# Bulk Modulus (GPa) = 52.38553 61.51562 56.95058
# Shear Modulus (GPa) = 26.31621 28.35422 27.33522
#
# Velocity S-wave (km/s) = 3.59051 3.72695 3.65937
# Velocity P-wave (km/s) = 6.54612 6.97535 6.76414
#
# Compressibility (1/GPa) = 0.01908924
#
# Stress axis : x y z
#
# Youngs Moduli (GPa) = 74.51815 40.25830 91.53609
#
# Poissons Ratio (x) = 0.30600 0.33911
# Poissons Ratio (y) = 0.56640 0.34252
# Poissons Ratio (z) = 0.27606 0.15064
#
# Static dielectric constant tensor:
#      x y z
#    x 3.967990 0.000000 0.000000 
#    y 0.000000 3.681010 0.000000 
#    z 0.000000 0.000000 3.578970 
# 
# 
# High freq. dielectric constant tensor:
#      x y z
#    x 1.809770 0.000000 0.000000 
#    y 0.000000 1.798670 0.000000 
#    z 0.000000 0.000000 1.783710 
# 
# From -- ./inp_files/23111.got.cif
#   From: 2010.03.12/outbox.cif.g09.slc.cpg/sg60_12_cif.got.tgz:23111.got - 2010.04.10 18:46:24.
