data_PCOD8246424
_publ_section_title
;
Structure prediction by ZEFSAII (Michael W. Deem and Ramdas Pophale) SiO2 
 PCOD8246424
Probable space group: P B C N
;
_chemical_formula_sum "Si O2"
_cell_formula_units_Z 56
_cell_length_a 9.398914
_cell_length_b 23.674681
_cell_length_c 14.256048
_cell_angle_alpha 90.000000
_cell_angle_beta 90.000000
_cell_angle_gamma 90.000000
_cell_volume 3172.202921
_symmetry_space_group_name_H-M "P B C N"
_symmetry_group_IT_number 60
_symmetry_cell_setting 'orthorhombic'
loop_
_space_group_symop_operation_xyz
x,y,z
1/2-x,1/2-y,1/2+z
1/2+x,1/2-y,-z
-x,y,1/2-z
-x,-y,-z
1/2+x,1/2+y,1/2-z
1/2-x,1/2+y,z
x,-y,1/2+z
loop_
_atom_site_type_symbol
_atom_site_label
_atom_site_fract_x
_atom_site_fract_y
_atom_site_fract_z
Si Si1 0.998729 0.257245 0.140786
Si Si2 0.329592 0.030085 0.853235
Si Si3 0.751814 0.157635 0.627708
Si Si4 0.853243 0.450986 0.355782
Si Si5 0.245679 0.828643 0.162573
Si Si6 0.633499 0.461548 0.516981
Si Si7 0.519481 0.660485 0.994526
O O1 0.159466 0.277496 0.122610
O O2 0.000000 0.240411 0.250000
O O3 0.893247 0.308009 0.111913
O O4 0.955449 0.203829 0.078636
O O5 0.266336 0.090766 0.876619
O O6 0.491674 0.029276 0.892380
O O7 0.325074 0.018148 0.742592
O O8 0.231325 0.981059 0.896535
O O9 0.809086 0.177536 0.730089
O O10 0.858748 0.168382 0.541510
O O11 0.847927 0.383565 0.341598
O O12 0.730086 0.468814 0.425633
O O13 0.109191 0.828723 0.098364
O O14 0.500000 0.500000 0.500000
O O15 0.570370 0.399494 0.535689
#
# Coordination Sequence:
#
# PCOD8246424 Si02
#       7
#     8   8   8   8   8   8   8
#     4  10  20  36  55  77 104 143 180 215 267 324
#     4  10  18  36  56  80 102 141 186 226 270 308
#     4  10  18  33  58  79 104 133 181 230 265 310
#     4   9  19  34  59  77 101 140 186 232 262 307
#     4   9  18  33  56  82 101 131 182 229 265 307
#     4  11  22  35  50  83 114 142 179 218 271 332
#     4  11  21  34  51  81 114 140 171 220 275 323
#
# _framework density 17.653348999999999
#
# number of rings (size 3 to 8) (size 9 to 14) (size 15 to 20)
#    0.000    2.000    2.857    1.714    0.000    0.571 
#    2.571    0.000    0.000    0.000    3.714    0.000 
#    0.000    0.000    0.000    0.000    0.000    0.000 
#
# Total GULP energy -694032.515556 kJ/mol
# GULP energy per Si atom -12393.437778 kJ/mol
# Density = 1.761317 g / cm^3
# Si number density = 17.653349 Si / 1000 Ang^3
#
#
#
# Elastic Constant Matrix: (Units=GPa)
#
#
# Indices 1 2 3 4 5 6 
#
# 1 57.2775 14.6902 16.1723 0.0000 0.0000 0.0000
# 2 14.6902 67.2444 25.8589 0.0000 0.0000 0.0000
# 3 16.1723 25.8589 53.3091 0.0000 0.0000 0.0000
# 4 0.0000 0.0000 0.0000 30.1661 0.0000 0.0000
# 5 0.0000 0.0000 0.0000 0.0000 26.4587 0.0000
# 6 0.0000 0.0000 0.0000 0.0000 0.0000 26.3208
#
#
#
# Elastic Compliance Matrix: (Units=1/GPa)
#
#
# Indices 1 2 3 4 5 6 
#
# 1 0.019412 -0.002429 -0.004711 0.000000 0.000000 0.000000
# 2 -0.002429 0.018585 -0.008278 0.000000 0.000000 0.000000
# 3 -0.004711 -0.008278 0.024203 0.000000 0.000000 0.000000
# 4 0.000000 0.000000 0.000000 0.033150 0.000000 0.000000
# 5 0.000000 0.000000 0.000000 0.000000 0.037795 0.000000
# 6 0.000000 0.000000 0.000000 0.000000 0.000000 0.037993
#
#
# Mechanical properties :
#
#
# Convention : Reuss Voigt Hill
#
# Bulk Modulus (GPa) = 31.88362 32.36375 32.12369
# Shear Modulus (GPa) = 23.53730 24.66308 24.10019
#
# Velocity S-wave (km/s) = 3.65541 3.74180 3.69886
# Velocity P-wave (km/s) = 5.99301 6.08612 6.03974
#
# Compressibility (1/GPa) = 0.03136407
#
# Stress axis : x y z
#
# Youngs Moduli (GPa) = 51.51472 53.80609 41.31688
#
# Poissons Ratio (x) = 0.13071 0.19463
# Poissons Ratio (y) = 0.12514 0.34203
# Poissons Ratio (z) = 0.24267 0.44542
#
# Static dielectric constant tensor:
#      x y z
#    x 3.466350 0.000000 0.000000 
#    y 0.000000 3.199140 0.000000 
#    z 0.000000 0.000000 3.394150 
# 
# 
# High freq. dielectric constant tensor:
#      x y z
#    x 1.695480 0.000000 0.000000 
#    y 0.000000 1.664900 0.000000 
#    z 0.000000 0.000000 1.678740 
# 
# From -- ./inp_files/15257.got.cif
#   From: 2010.03.12/outbox.cif.g09.slc.cpg/sg60_8_cif.got.tgz:15257.got - 2010.04.10 18:46:24.
