data_PCOD8246073
_publ_section_title
;
Structure prediction by ZEFSAII (Michael W. Deem and Ramdas Pophale) SiO2 
 PCOD8246073
Probable space group: P M M N
;
_chemical_formula_sum "Si O2"
_cell_formula_units_Z 48
_cell_length_a 20.537298
_cell_length_b 8.903547
_cell_length_c 15.047053
_cell_angle_alpha 90.000000
_cell_angle_beta 90.000000
_cell_angle_gamma 90.000000
_cell_volume 2751.425837
_symmetry_space_group_name_H-M "P M M N"
_symmetry_group_IT_number 59
_space_group.IT_coordinate_system_code '2'
_symmetry_cell_setting 'orthorhombic'
loop_
_space_group_symop_operation_xyz
x,y,z
1/2-x,1/2-y,z
1/2+x,-y,-z
-x,1/2+y,-z
-x,-y,-z
1/2+x,1/2+y,-z
1/2-x,y,z
x,1/2-y,z
loop_
_atom_site_type_symbol
_atom_site_label
_atom_site_fract_x
_atom_site_fract_y
_atom_site_fract_z
Si Si1 0.679953 0.928263 0.877996
Si Si2 0.152935 0.419501 0.317728
Si Si3 0.322619 0.922485 0.493672
Si Si4 0.552262 0.926612 0.433971
Si Si5 0.540858 0.571855 0.922253
Si Si6 0.005662 0.418922 0.274156
O O1 0.750000 0.980373 0.919934
O O2 0.674852 0.750000 0.876501
O O3 0.677554 0.983330 0.776389
O O4 0.616120 0.987608 0.930555
O O5 0.178556 0.250000 0.334514
O O6 0.180895 0.530800 0.390897
O O7 0.075206 0.419700 0.321593
O O8 0.250000 0.943494 0.534591
O O9 0.345119 0.750000 0.500469
O O10 0.374094 0.025573 0.544740
O O11 0.545646 0.750000 0.444478
O O12 0.500000 0.000000 0.500000
O O13 0.540523 0.973201 0.331508
O O14 0.538447 0.750000 0.930774
O O15 0.511109 0.521991 0.827284
O O16 0.500000 0.500000 0.000000
O O17 0.977024 0.250000 0.274857
#
# Coordination Sequence:
#
# PCOD8246073 Si02
#       6
#     8   8   8   8   8   8
#     4   8  14  26  46  72 100 130 165 204 250 304
#     4   9  16  28  49  73  98 131 167 205 252 310
#     4  11  23  35  48  71 105 141 176 217 263 308
#     4  12  23  35  54  77 103 138 179 218 257 308
#     4   9  18  32  52  77 104 134 169 211 260 310
#     4   9  18  33  52  76 103 133 170 214 261 309
#
# _framework density 17.445502000000001
#
# number of rings (size 3 to 8) (size 9 to 14) (size 15 to 20)
#    0.000    2.333    1.667    4.500    0.000    2.667 
#    0.000    2.500    0.000    2.500    0.000    4.667 
#    0.000    0.000    0.000    0.000    0.000    0.000 
#
# Total GULP energy -594890.196573 kJ/mol
# GULP energy per Si atom -12393.545762 kJ/mol
# Density = 1.740580 g / cm^3
# Si number density = 17.445502 Si / 1000 Ang^3
#
#
#
# Elastic Constant Matrix: (Units=GPa)
#
#
# Indices 1 2 3 4 5 6 
#
# 1 129.4162 42.8361 65.5513 0.0000 0.0000 0.0000
# 2 42.8361 79.1117 36.6316 0.0000 0.0000 0.0000
# 3 65.5513 36.6316 88.0870 0.0000 0.0000 0.0000
# 4 0.0000 0.0000 0.0000 28.7521 0.0000 0.0000
# 5 0.0000 0.0000 0.0000 0.0000 20.2309 0.0000
# 6 0.0000 0.0000 0.0000 0.0000 0.0000 21.1014
#
#
#
# Elastic Compliance Matrix: (Units=1/GPa)
#
#
# Indices 1 2 3 4 5 6 
#
# 1 0.013015 -0.003173 -0.008365 0.000000 0.000000 0.000000
# 2 -0.003173 0.016429 -0.004470 0.000000 0.000000 0.000000
# 3 -0.008365 -0.004470 0.019437 0.000000 0.000000 0.000000
# 4 0.000000 0.000000 0.000000 0.034780 0.000000 0.000000
# 5 0.000000 0.000000 0.000000 0.000000 0.049429 0.000000
# 6 0.000000 0.000000 0.000000 0.000000 0.000000 0.047390
#
#
# Mechanical properties :
#
#
# Convention : Reuss Voigt Hill
#
# Bulk Modulus (GPa) = 59.30659 65.18368 62.24514
# Shear Modulus (GPa) = 22.92337 24.12329 23.52333
#
# Velocity S-wave (km/s) = 3.62885 3.72261 3.67603
# Velocity P-wave (km/s) = 7.18520 7.47813 7.33313
#
# Compressibility (1/GPa) = 0.01686153
#
# Stress axis : x y z
#
# Youngs Moduli (GPa) = 76.83705 60.86935 51.44932
#
# Poissons Ratio (x) = 0.19317 0.43039
# Poissons Ratio (y) = 0.24384 0.23000
# Poissons Ratio (z) = 0.64276 0.27211
#
# Static dielectric constant tensor:
#      x y z
#    x 3.571070 0.000000 0.000000 
#    y 0.000000 3.298450 0.000000 
#    z 0.000000 0.000000 3.129020 
# 
# 
# High freq. dielectric constant tensor:
#      x y z
#    x 1.679150 0.000000 0.000000 
#    y 0.000000 1.656000 0.000000 
#    z 0.000000 0.000000 1.643500 
# 
# From -- ./inp_files/24090.got.cif
#   From: 2010.03.12/outbox.cif.g09.slc.cpg/sg59_13_cif.got.tgz:24090.got - 2010.04.16 16:29:54.
