data_PCOD8246804
_publ_section_title
;
Structure prediction by ZEFSAII (Michael W. Deem and Ramdas Pophale) SiO2 
 PCOD8246804
Probable space group: P B C N
;
_chemical_formula_sum "Si O2"
_cell_formula_units_Z 64
_cell_length_a 16.424582
_cell_length_b 27.404866
_cell_length_c 8.474344
_cell_angle_alpha 90.000000
_cell_angle_beta 90.000000
_cell_angle_gamma 90.000000
_cell_volume 3814.416374
_symmetry_space_group_name_H-M "P B C N"
_symmetry_group_IT_number 60
_symmetry_cell_setting 'orthorhombic'
loop_
_space_group_symop_operation_xyz
x,y,z
1/2-x,1/2-y,1/2+z
1/2+x,1/2-y,-z
-x,y,1/2-z
-x,-y,-z
1/2+x,1/2+y,1/2-z
1/2-x,1/2+y,z
x,-y,1/2+z
loop_
_atom_site_type_symbol
_atom_site_label
_atom_site_fract_x
_atom_site_fract_y
_atom_site_fract_z
Si Si1 0.310392 0.696364 0.553782
Si Si2 0.224966 0.715511 0.861155
Si Si3 0.074232 0.301403 0.148296
Si Si4 0.579062 0.941873 0.044984
Si Si5 0.643060 0.844995 0.899064
Si Si6 0.534125 0.749465 0.913848
Si Si7 0.684537 0.872790 0.549486
Si Si8 0.893519 0.539810 0.902604
O O1 0.297591 0.704799 0.740881
O O2 0.254967 0.734401 0.452975
O O3 0.405279 0.707039 0.519772
O O4 0.275962 0.643393 0.504489
O O5 0.138781 0.721534 0.769744
O O6 0.218100 0.672012 0.989855
O O7 0.000000 0.324840 0.250000
O O8 0.115227 0.343440 0.045380
O O9 0.038305 0.258156 0.038532
O O10 0.615509 0.948563 0.218968
O O11 0.482623 0.947260 0.034138
O O12 0.596416 0.888171 0.984694
O O13 0.621841 0.982362 0.933192
O O14 0.582240 0.799627 0.878559
O O15 0.676945 0.864167 0.734485
O O16 0.500000 0.729432 0.750000
O O17 0.672380 0.929255 0.503426
#
# Coordination Sequence:
#
# PCOD8246804 Si02
#       8
#     8   8   8   8   8   8   8   8
#     4  10  20  33  46  66  94 124 168 200 253 286
#     4  10  21  31  47  66  93 125 161 207 242 297
#     4  11  19  31  47  67  88 121 164 203 245 281
#     4  10  20  33  47  70  93 128 162 213 239 288
#     4  11  20  32  48  66  95 124 172 200 249 282
#     4  11  21  33  48  72  93 129 169 210 239 299
#     4  11  22  32  49  66  94 132 163 205 242 298
#     4  10  21  32  48  67  98 125 168 202 253 278
#
# _framework density 16.778452000000001
#
# number of rings (size 3 to 8) (size 9 to 14) (size 15 to 20)
#    0.000    1.500    3.750    4.500    3.500    1.000 
#    0.000    0.000    0.000    0.000    0.000    0.000 
#    0.000    0.000    0.000   10.125    4.750    7.375 
#
# Total GULP energy -793485.270799 kJ/mol
# GULP energy per Si atom -12398.207356 kJ/mol
# Density = 1.674026 g / cm^3
# Si number density = 16.778452 Si / 1000 Ang^3
#
#
#
# Elastic Constant Matrix: (Units=GPa)
#
#
# Indices 1 2 3 4 5 6 
#
# 1 37.9060 20.1214 7.8104 0.0000 0.0000 0.0000
# 2 20.1214 57.7361 9.2625 0.0000 0.0000 0.0000
# 3 7.8104 9.2625 84.3127 0.0000 0.0000 0.0000
# 4 0.0000 0.0000 0.0000 25.6685 0.0000 0.0000
# 5 0.0000 0.0000 0.0000 0.0000 22.5252 0.0000
# 6 0.0000 0.0000 0.0000 0.0000 0.0000 26.3985
#
#
#
# Elastic Compliance Matrix: (Units=1/GPa)
#
#
# Indices 1 2 3 4 5 6 
#
# 1 0.032637 -0.011085 -0.001806 0.000000 0.000000 0.000000
# 2 -0.011085 0.021396 -0.001324 0.000000 0.000000 0.000000
# 3 -0.001806 -0.001324 0.012173 0.000000 0.000000 0.000000
# 4 0.000000 0.000000 0.000000 0.038958 0.000000 0.000000
# 5 0.000000 0.000000 0.000000 0.000000 0.044395 0.000000
# 6 0.000000 0.000000 0.000000 0.000000 0.000000 0.037881
#
#
# Mechanical properties :
#
#
# Convention : Reuss Voigt Hill
#
# Bulk Modulus (GPa) = 26.47028 28.26038 27.36533
# Shear Modulus (GPa) = 21.88566 24.43581 23.16074
#
# Velocity S-wave (km/s) = 3.61555 3.82040 3.71938
# Velocity P-wave (km/s) = 5.76543 6.02830 5.89833
#
# Compressibility (1/GPa) = 0.03777822
#
# Stress axis : x y z
#
# Youngs Moduli (GPa) = 30.64008 46.73865 82.14704
#
# Poissons Ratio (x) = 0.51808 0.14833
# Poissons Ratio (y) = 0.33963 0.10873
# Poissons Ratio (z) = 0.05533 0.06187
#
# Static dielectric constant tensor:
#      x y z
#    x 2.946900 0.000000 0.000000 
#    y 0.000000 3.051830 0.000000 
#    z 0.000000 0.000000 3.515940 
# 
# 
# High freq. dielectric constant tensor:
#      x y z
#    x 1.604410 0.000000 0.000000 
#    y 0.000000 1.615300 0.000000 
#    z 0.000000 0.000000 1.675840 
# 
# From -- ./inp_files/7103.got.cif
#   From: 2010.03.12/outbox.cif.g09.slc.cpg/sg60_4_cif.got.tgz:7103.got - 2010.04.10 18:46:24.
