data_PCOD8246054
_publ_section_title
;
Structure prediction by ZEFSAII (Michael W. Deem and Ramdas Pophale) SiO2 
 PCOD8246054
Probable space group: P M M N
;
_chemical_formula_sum "Si O2"
_cell_formula_units_Z 48
_cell_length_a 8.764120
_cell_length_b 29.038902
_cell_length_c 9.737513
_cell_angle_alpha 90.000000
_cell_angle_beta 90.000000
_cell_angle_gamma 90.000000
_cell_volume 2478.201166
_symmetry_space_group_name_H-M "P M M N"
_symmetry_group_IT_number 59
_space_group.IT_coordinate_system_code '2'
_symmetry_cell_setting 'orthorhombic'
loop_
_space_group_symop_operation_xyz
x,y,z
1/2-x,1/2-y,z
1/2+x,-y,-z
-x,1/2+y,-z
-x,-y,-z
1/2+x,1/2+y,-z
1/2-x,y,z
x,1/2-y,z
loop_
_atom_site_type_symbol
_atom_site_label
_atom_site_fract_x
_atom_site_fract_y
_atom_site_fract_z
Si Si1 0.423208 0.528093 0.879886
Si Si2 0.423036 0.031716 0.610550
Si Si3 0.931246 0.199261 0.736395
Si Si4 0.570134 0.880064 0.770865
Si Si5 0.572461 0.196224 0.044522
Si Si6 0.569160 0.377816 0.530962
O O1 0.250000 0.540678 0.918755
O O2 0.429726 0.494230 0.752613
O O3 0.510001 0.575578 0.852085
O O4 0.500000 0.500000 0.000000
O O5 0.250000 0.042797 0.566357
O O6 0.518864 0.078396 0.619858
O O7 0.500000 0.000000 0.500000
O O8 0.750000 0.200597 0.735220
O O9 0.996761 0.250000 0.703509
O O10 0.982091 0.183943 0.889497
O O11 0.992609 0.165552 0.618255
O O12 0.750000 0.883684 0.760117
O O13 0.502749 0.878228 0.618778
O O14 0.525309 0.833704 0.850133
O O15 0.750000 0.184320 0.065015
O O16 0.542785 0.250000 0.075184
O O17 0.750000 0.377373 0.514235
#
# Coordination Sequence:
#
# PCOD8246054 Si02
#       6
#     8   8   8   8   8   8
#     4  11  25  43  63  89 121 158 202 248 300 359
#     4  11  23  40  62  87 120 159 200 244 296 356
#     4   8  17  36  62  91 118 148 193 244 294 352
#     4  12  25  40  59  87 124 162 202 248 300 359
#     4   9  19  39  65  90 118 155 199 249 304 361
#     4  11  22  37  61  91 120 157 202 249 301 355
#
# _framework density 19.36889
#
# number of rings (size 3 to 8) (size 9 to 14) (size 15 to 20)
#    0.000    1.667    1.667    4.000    2.333    3.000 
#    0.000    2.500    0.000    3.500    0.000    0.000 
#    0.000    0.000    0.000    0.000    0.000    0.000 
#
# Total GULP energy -595237.437832 kJ/mol
# GULP energy per Si atom -12400.779955 kJ/mol
# Density = 1.932481 g / cm^3
# Si number density = 19.368890 Si / 1000 Ang^3
#
#
#
# Elastic Constant Matrix: (Units=GPa)
#
#
# Indices 1 2 3 4 5 6 
#
# 1 115.3163 49.5112 45.8016 0.0000 0.0000 0.0000
# 2 49.5112 121.6441 46.9265 0.0000 0.0000 0.0000
# 3 45.8016 46.9265 76.5901 0.0000 0.0000 0.0000
# 4 0.0000 0.0000 0.0000 40.2954 0.0000 0.0000
# 5 0.0000 0.0000 0.0000 0.0000 27.0977 0.0000
# 6 0.0000 0.0000 0.0000 0.0000 0.0000 31.6627
#
#
#
# Elastic Compliance Matrix: (Units=1/GPa)
#
#
# Indices 1 2 3 4 5 6 
#
# 1 0.012052 -0.002783 -0.005502 0.000000 0.000000 0.000000
# 2 -0.002783 0.011408 -0.005325 0.000000 0.000000 0.000000
# 3 -0.005502 -0.005325 0.019610 0.000000 0.000000 0.000000
# 4 0.000000 0.000000 0.000000 0.024817 0.000000 0.000000
# 5 0.000000 0.000000 0.000000 0.000000 0.036904 0.000000
# 6 0.000000 0.000000 0.000000 0.000000 0.000000 0.031583
#
#
# Mechanical properties :
#
#
# Convention : Reuss Voigt Hill
#
# Bulk Modulus (GPa) = 63.09643 66.44767 64.77205
# Shear Modulus (GPa) = 29.60752 31.23190 30.41971
#
# Velocity S-wave (km/s) = 3.91399 4.01992 3.96731
# Velocity P-wave (km/s) = 7.28510 7.47845 7.38241
#
# Compressibility (1/GPa) = 0.01584876
#
# Stress axis : x y z
#
# Youngs Moduli (GPa) = 82.97410 87.66015 50.99520
#
# Poissons Ratio (x) = 0.24394 0.28058
# Poissons Ratio (y) = 0.23090 0.27157
# Poissons Ratio (z) = 0.45654 0.46682
#
# Static dielectric constant tensor:
#      x y z
#    x 3.578850 0.000000 0.000000 
#    y 0.000000 3.402740 0.000000 
#    z 0.000000 0.000000 3.330010 
# 
# 
# High freq. dielectric constant tensor:
#      x y z
#    x 1.746450 0.000000 0.000000 
#    y 0.000000 1.767490 0.000000 
#    z 0.000000 0.000000 1.762250 
# 
# From -- ./inp_files/6284.got.cif
#   From: 2010.03.12/outbox.cif.g09.slc.cpg/sg59_4_cif.got.tgz:6284.got - 2010.04.16 16:29:54.
