data_PCOD8246324
_publ_section_title
;
Structure prediction by ZEFSAII (Michael W. Deem and Ramdas Pophale) SiO2 
 PCOD8246324
Probable space group: P B C N
;
_chemical_formula_sum "Si O2"
_cell_formula_units_Z 48
_cell_length_a 15.113223
_cell_length_b 16.527416
_cell_length_c 11.427116
_cell_angle_alpha 90.000000
_cell_angle_beta 90.000000
_cell_angle_gamma 90.000000
_cell_volume 2854.293872
_symmetry_space_group_name_H-M "P B C N"
_symmetry_group_IT_number 60
_symmetry_cell_setting 'orthorhombic'
loop_
_space_group_symop_operation_xyz
x,y,z
1/2-x,1/2-y,1/2+z
1/2+x,1/2-y,-z
-x,y,1/2-z
-x,-y,-z
1/2+x,1/2+y,1/2-z
1/2-x,1/2+y,z
x,-y,1/2+z
loop_
_atom_site_type_symbol
_atom_site_label
_atom_site_fract_x
_atom_site_fract_y
_atom_site_fract_z
Si Si1 0.851720 0.153459 0.402704
Si Si2 0.448072 0.637221 0.440945
Si Si3 0.741265 0.371548 0.139860
Si Si4 0.404760 0.781974 0.269236
Si Si5 0.649509 0.520344 0.216822
Si Si6 0.910050 0.859975 0.301188
O O1 0.780625 0.154066 0.507034
O O2 0.861087 0.244084 0.348662
O O3 0.817093 0.090688 0.303864
O O4 0.946546 0.125051 0.454062
O O5 0.425619 0.706798 0.351108
O O6 0.406720 0.554815 0.391390
O O7 0.402626 0.661586 0.562754
O O8 0.840837 0.346469 0.170058
O O9 0.731495 0.468798 0.160465
O O10 0.673438 0.324481 0.228064
O O11 0.500000 0.825922 0.250000
O O12 0.587779 0.457752 0.288232
O O13 0.000000 0.821812 0.250000
#
# Coordination Sequence:
#
# PCOD8246324 Si02
#       6
#     8   8   8   8   8   8
#     4  10  18  32  50  74 102 125 166 198 256 306
#     4  10  17  32  49  71 103 134 154 199 255 308
#     4  10  21  29  48  75 101 130 163 206 240 297
#     4   9  21  36  51  67  98 144 171 199 240 296
#     4   9  19  27  48  74 102 129 154 195 253 307
#     4  10  18  26  43  76 105 124 152 199 254 295
#
# _framework density 16.816768
#
# number of rings (size 3 to 8) (size 9 to 14) (size 15 to 20)
#    1.000    1.333    1.667    3.500    2.333    2.000 
#    0.000    0.000    0.000    1.000    0.000    2.333 
#    0.000    0.000    0.000    0.000    0.000    0.000 
#
# Total GULP energy -594783.716351 kJ/mol
# GULP energy per Si atom -12391.327424 kJ/mol
# Density = 1.677849 g / cm^3
# Si number density = 16.816768 Si / 1000 Ang^3
#
#
#
# Elastic Constant Matrix: (Units=GPa)
#
#
# Indices 1 2 3 4 5 6 
#
# 1 103.3403 36.1522 33.8403 0.0000 0.0000 0.0000
# 2 36.1522 37.4336 7.4851 0.0000 0.0000 0.0000
# 3 33.8403 7.4851 103.6552 0.0000 0.0000 0.0000
# 4 0.0000 0.0000 0.0000 3.8884 0.0000 0.0000
# 5 0.0000 0.0000 0.0000 0.0000 24.3542 0.0000
# 6 0.0000 0.0000 0.0000 0.0000 0.0000 19.0629
#
#
#
# Elastic Compliance Matrix: (Units=1/GPa)
#
#
# Indices 1 2 3 4 5 6 
#
# 1 0.016262 -0.014858 -0.004236 0.000000 0.000000 0.000000
# 2 -0.014858 0.040681 0.001913 0.000000 0.000000 0.000000
# 3 -0.004236 0.001913 0.010892 0.000000 0.000000 0.000000
# 4 0.000000 0.000000 0.000000 0.257174 0.000000 0.000000
# 5 0.000000 0.000000 0.000000 0.000000 0.041061 0.000000
# 6 0.000000 0.000000 0.000000 0.000000 0.000000 0.052458
#
#
# Mechanical properties :
#
#
# Convention : Reuss Voigt Hill
#
# Bulk Modulus (GPa) = 29.87505 44.37605 37.12555
# Shear Modulus (GPa) = 10.77477 20.59120 15.68298
#
# Velocity S-wave (km/s) = 2.53398 3.50300 3.05713
# Velocity P-wave (km/s) = 5.13469 6.54268 5.88097
#
# Compressibility (1/GPa) = 0.03347275
#
# Stress axis : x y z
#
# Youngs Moduli (GPa) = 61.49351 24.58147 91.80905
#
# Poissons Ratio (x) = 0.36524 0.38891
# Poissons Ratio (y) = 0.91368 -0.17564
# Poissons Ratio (z) = 0.26049 -0.04703
#
# Static dielectric constant tensor:
#      x y z
#    x 3.031120 0.000000 0.000000 
#    y 0.000000 2.757800 0.000000 
#    z 0.000000 0.000000 3.207720 
# 
# 
# High freq. dielectric constant tensor:
#      x y z
#    x 1.620870 0.000000 0.000000 
#    y 0.000000 1.607030 0.000000 
#    z 0.000000 0.000000 1.661840 
# 
# From -- ./inp_files/11875.got.cif
#   From: 2010.03.12/outbox.cif.g09.slc.cpg/sg60_6_cif.got.tgz:11875.got - 2010.04.10 18:46:24.
