data_PCOD8246774
_publ_section_title
;
Structure prediction by ZEFSAII (Michael W. Deem and Ramdas Pophale) SiO2 
 PCOD8246774
Probable space group: P B C N
;
_chemical_formula_sum "Si O2"
_cell_formula_units_Z 40
_cell_length_a 9.347039
_cell_length_b 10.421609
_cell_length_c 17.316331
_cell_angle_alpha 90.000000
_cell_angle_beta 90.000000
_cell_angle_gamma 90.000000
_cell_volume 1686.804336
_symmetry_space_group_name_H-M "P B C N"
_symmetry_group_IT_number 60
_symmetry_cell_setting 'orthorhombic'
loop_
_space_group_symop_operation_xyz
x,y,z
1/2-x,1/2-y,1/2+z
1/2+x,1/2-y,-z
-x,y,1/2-z
-x,-y,-z
1/2+x,1/2+y,1/2-z
1/2-x,1/2+y,z
x,-y,1/2+z
loop_
_atom_site_type_symbol
_atom_site_label
_atom_site_fract_x
_atom_site_fract_y
_atom_site_fract_z
Si Si1 0.500000 0.347337 0.750000
Si Si2 0.956882 0.455507 0.871084
Si Si3 0.500000 0.236334 0.250000
Si Si4 0.455375 0.216819 0.906060
Si Si5 0.218959 0.245141 0.547257
Si Si6 0.688789 0.565623 0.817930
O O1 0.429812 0.262225 0.817821
O O2 0.611684 0.432823 0.798221
O O3 0.059375 0.560239 0.910958
O O4 0.850503 0.382027 0.929290
O O5 0.857932 0.540072 0.811797
O O6 0.043757 0.350148 0.823104
O O7 0.358728 0.323702 0.241557
O O8 0.609907 0.254633 0.942809
O O9 0.329002 0.277522 0.958436
O O10 0.155763 0.125656 0.597045
#
# Coordination Sequence:
#
# PCOD8246774 Si02
#       6
#     4   8   4   8   8   8
#     4  11  21  42  64  98 129 175 230 278 342 407
#     4  10  19  41  63  90 135 175 224 286 344 407
#     4   9  19  36  64  96 125 177 224 278 344 399
#     4  11  23  41  70  98 134 182 226 287 342 414
#     4  10  22  43  66  94 135 177 230 277 345 411
#     4   9  20  39  66  89 131 178 222 286 337 405
#
# _framework density 23.713481000000002
#
# number of rings (size 3 to 8) (size 9 to 14) (size 15 to 20)
#    0.000    2.000    2.000    1.200    0.000    0.800 
#    7.200    2.000    0.000    0.000    0.000    0.000 
#    0.000    0.000    0.000    0.000    0.000    0.000 
#
# Total GULP energy -495557.594215 kJ/mol
# GULP energy per Si atom -12388.939855 kJ/mol
# Density = 2.365951 g / cm^3
# Si number density = 23.713481 Si / 1000 Ang^3
#
#
#
# Elastic Constant Matrix: (Units=GPa)
#
#
# Indices 1 2 3 4 5 6 
#
# 1 36.3489 5.2306 38.1666 0.0000 0.0000 0.0000
# 2 5.2306 104.9357 35.4468 0.0000 0.0000 0.0000
# 3 38.1666 35.4468 118.4048 0.0000 0.0000 0.0000
# 4 0.0000 0.0000 0.0000 27.1896 0.0000 0.0000
# 5 0.0000 0.0000 0.0000 0.0000 33.7744 0.0000
# 6 0.0000 0.0000 0.0000 0.0000 0.0000 23.4741
#
#
#
# Elastic Compliance Matrix: (Units=1/GPa)
#
#
# Indices 1 2 3 4 5 6 
#
# 1 0.042302 0.002778 -0.014467 0.000000 0.000000 0.000000
# 2 0.002778 0.010784 -0.004124 0.000000 0.000000 0.000000
# 3 -0.014467 -0.004124 0.014344 0.000000 0.000000 0.000000
# 4 0.000000 0.000000 0.000000 0.036779 0.000000 0.000000
# 5 0.000000 0.000000 0.000000 0.000000 0.029608 0.000000
# 6 0.000000 0.000000 0.000000 0.000000 0.000000 0.042600
#
#
# Mechanical properties :
#
#
# Convention : Reuss Voigt Hill
#
# Bulk Modulus (GPa) = 27.92984 46.37526 37.15255
# Shear Modulus (GPa) = 22.72951 28.94398 25.83675
#
# Velocity S-wave (km/s) = 3.09933 3.49746 3.30440
# Velocity P-wave (km/s) = 4.96099 5.99238 5.50091
#
# Compressibility (1/GPa) = 0.03580400
#
# Stress axis : x y z
#
# Youngs Moduli (GPa) = 23.63936 92.72788 69.71716
#
# Poissons Ratio (x) = -0.25764 1.00863
# Poissons Ratio (y) = -0.06568 0.28752
# Poissons Ratio (z) = 0.34200 0.38242
#
# Static dielectric constant tensor:
#      x y z
#    x 3.897740 0.000000 0.000000 
#    y 0.000000 4.647540 0.000000 
#    z 0.000000 0.000000 4.202420 
# 
# 
# High freq. dielectric constant tensor:
#      x y z
#    x 1.903930 0.000000 0.000000 
#    y 0.000000 1.960540 0.000000 
#    z 0.000000 0.000000 1.928960 
# 
# From -- ./inp_files/15864.got.cif
#   From: 2010.03.12/outbox.cif.g09.slc.cpg/sg60_8_cif.got.tgz:15864.got - 2010.04.10 18:46:24.
