data_PCOD8246310
_publ_section_title
;
Structure prediction by ZEFSAII (Michael W. Deem and Ramdas Pophale) SiO2 
 PCOD8246310
Probable space group: P B C N
;
_chemical_formula_sum "Si O2"
_cell_formula_units_Z 60
_cell_length_a 5.454726
_cell_length_b 29.605765
_cell_length_c 17.043862
_cell_angle_alpha 90.000000
_cell_angle_beta 90.000000
_cell_angle_gamma 90.000000
_cell_volume 2752.436047
_symmetry_space_group_name_H-M "P B C N"
_symmetry_group_IT_number 60
_symmetry_cell_setting 'orthorhombic'
loop_
_space_group_symop_operation_xyz
x,y,z
1/2-x,1/2-y,1/2+z
1/2+x,1/2-y,-z
-x,y,1/2-z
-x,-y,-z
1/2+x,1/2+y,1/2-z
1/2-x,1/2+y,z
x,-y,1/2+z
loop_
_atom_site_type_symbol
_atom_site_label
_atom_site_fract_x
_atom_site_fract_y
_atom_site_fract_z
Si Si1 0.285068 0.329636 0.624954
Si Si2 0.322325 0.255884 0.881380
Si Si3 0.256315 0.939594 0.452380
Si Si4 0.000000 0.273710 0.750000
Si Si5 0.225827 0.067096 0.137168
Si Si6 0.946202 0.307370 0.492976
Si Si7 0.229532 0.537643 0.379320
Si Si8 0.755309 0.899995 0.470463
O O1 0.538748 0.303183 0.631297
O O2 0.316697 0.380396 0.654103
O O3 0.095964 0.305500 0.681765
O O4 0.180472 0.330443 0.535806
O O5 0.489473 0.213592 0.907522
O O6 0.197819 0.242991 0.797207
O O7 0.137475 0.264926 0.953712
O O8 0.251241 0.945451 0.545516
O O9 0.501705 0.912555 0.425106
O O10 0.003449 0.914970 0.424231
O O11 0.280743 0.988621 0.415984
O O12 0.484726 0.048367 0.172744
O O13 0.982056 0.042045 0.171507
O O14 0.738005 0.345576 0.480874
O O15 0.254148 0.576845 0.444624
#
# Coordination Sequence:
#
# PCOD8246310 Si02
#       8
#     8   8   8   4   8   8   8   8
#     4  11  21  39  55  81 115 157 196 253 303 377
#     4  11  22  39  58  85 111 161 201 263 316 383
#     4  10  17  28  45  71 117 154 183 227 297 354
#     4  10  26  40  58  80 116 162 204 250 322 380
#     4  10  18  28  49  72 108 150 194 225 284 352
#     4  11  21  33  58  83 114 149 207 252 311 364
#     4  10  17  28  44  75 111 157 182 230 290 356
#     4  10  18  28  44  75 108 153 183 236 288 358
#
# _framework density 21.798871999999999
#
# number of rings (size 3 to 8) (size 9 to 14) (size 15 to 20)
#    0.000    1.600    4.000    6.000    1.867    0.000 
#    0.000    0.000    0.000    0.000    0.000    0.000 
#    0.000    6.400    0.000    0.000    0.000    0.000 
#
# Total GULP energy -743499.490197 kJ/mol
# GULP energy per Si atom -12391.658170 kJ/mol
# Density = 2.174926 g / cm^3
# Si number density = 21.798872 Si / 1000 Ang^3
#
#
#
# Elastic Constant Matrix: (Units=GPa)
#
#
# Indices 1 2 3 4 5 6 
#
# 1 168.1055 20.1551 18.2684 0.0000 0.0000 0.0000
# 2 20.1551 91.1013 31.1458 0.0000 0.0000 0.0000
# 3 18.2684 31.1458 53.2226 0.0000 0.0000 0.0000
# 4 0.0000 0.0000 0.0000 10.3234 0.0000 0.0000
# 5 0.0000 0.0000 0.0000 0.0000 4.5816 0.0000
# 6 0.0000 0.0000 0.0000 0.0000 0.0000 20.3906
#
#
#
# Elastic Compliance Matrix: (Units=1/GPa)
#
#
# Indices 1 2 3 4 5 6 
#
# 1 0.006226 -0.000809 -0.001664 0.000000 0.000000 0.000000
# 2 -0.000809 0.013827 -0.007814 0.000000 0.000000 0.000000
# 3 -0.001664 -0.007814 0.023933 0.000000 0.000000 0.000000
# 4 0.000000 0.000000 0.000000 0.096867 0.000000 0.000000
# 5 0.000000 0.000000 0.000000 0.000000 0.218263 0.000000
# 6 0.000000 0.000000 0.000000 0.000000 0.000000 0.049042
#
#
# Mechanical properties :
#
#
# Convention : Reuss Voigt Hill
#
# Bulk Modulus (GPa) = 42.71105 50.17424 46.44265
# Shear Modulus (GPa) = 11.45381 23.24982 17.35181
#
# Velocity S-wave (km/s) = 2.29472 3.26937 2.82440
# Velocity P-wave (km/s) = 5.16302 6.10889 5.65576
#
# Compressibility (1/GPa) = 0.02341314
#
# Stress axis : x y z
#
# Youngs Moduli (GPa) = 160.60577 72.32137 41.78344
#
# Poissons Ratio (x) = 0.05848 0.06953
# Poissons Ratio (y) = 0.12987 0.32650
# Poissons Ratio (z) = 0.26724 0.56512
#
# Static dielectric constant tensor:
#      x y z
#    x 5.338970 0.000000 0.000000 
#    y 0.000000 3.768050 0.000000 
#    z 0.000000 0.000000 3.664190 
# 
# 
# High freq. dielectric constant tensor:
#      x y z
#    x 1.889920 0.000000 0.000000 
#    y 0.000000 1.842100 0.000000 
#    z 0.000000 0.000000 1.786780 
# 
# From -- ./inp_files/18839.got.cif
#   From: 2010.03.12/outbox.cif.g09.slc.cpg/sg60_10_cif.got.tgz:18839.got - 2010.04.10 18:46:24.
