data_PCOD8246741
_publ_section_title
;
Structure prediction by ZEFSAII (Michael W. Deem and Ramdas Pophale) SiO2 
 PCOD8246741
Probable space group: P B C N
;
_chemical_formula_sum "Si O2"
_cell_formula_units_Z 48
_cell_length_a 15.459999
_cell_length_b 18.184501
_cell_length_c 7.770914
_cell_angle_alpha 90.000000
_cell_angle_beta 90.000000
_cell_angle_gamma 90.000000
_cell_volume 2184.655449
_symmetry_space_group_name_H-M "P B C N"
_symmetry_group_IT_number 60
_symmetry_cell_setting 'orthorhombic'
loop_
_space_group_symop_operation_xyz
x,y,z
1/2-x,1/2-y,1/2+z
1/2+x,1/2-y,-z
-x,y,1/2-z
-x,-y,-z
1/2+x,1/2+y,1/2-z
1/2-x,1/2+y,z
x,-y,1/2+z
loop_
_atom_site_type_symbol
_atom_site_label
_atom_site_fract_x
_atom_site_fract_y
_atom_site_fract_z
Si Si1 0.500000 0.177691 0.250000
Si Si2 0.189400 0.354640 0.759209
Si Si3 0.674748 0.462797 0.867571
Si Si4 0.220707 0.735385 0.923671
Si Si5 0.676577 0.386697 0.234580
Si Si6 0.000000 0.906587 0.750000
Si Si7 0.445423 0.301114 0.025376
O O1 0.413432 0.127248 0.253933
O O2 0.500364 0.230212 0.082640
O O3 0.244355 0.428557 0.737873
O O4 0.212709 0.305183 0.925997
O O5 0.220568 0.298090 0.612877
O O6 0.697081 0.550062 0.876535
O O7 0.586553 0.455616 0.755186
O O8 0.659632 0.428281 0.054237
O O9 0.244033 0.670205 0.789183
O O10 0.126966 0.771873 0.889769
O O11 0.594494 0.339714 0.302292
O O12 0.004621 0.857799 0.577313
#
# Coordination Sequence:
#
# PCOD8246741 Si02
#       7
#     4   8   8   8   8   4   8
#     4  10  20  37  64  89 124 166 206 264 308 361
#     4  10  21  37  60  91 118 164 206 253 309 364
#     4  11  25  39  59  90 124 168 199 254 315 384
#     4  10  19  38  62  86 121 156 210 252 301 363
#     4  11  23  42  62  88 128 163 206 253 316 374
#     4  12  24  37  58  91 132 162 206 250 312 385
#     4  11  22  37  62  93 124 166 209 258 310 364
#
# _framework density 21.971428
#
# number of rings (size 3 to 8) (size 9 to 14) (size 15 to 20)
#    0.000    1.333    5.000    2.000    2.333    3.333 
#    0.000    0.000    0.000   10.000    0.000    0.000 
#    0.000    0.000    0.000    0.000    0.000    0.000 
#
# Total GULP energy -594783.980367 kJ/mol
# GULP energy per Si atom -12391.332924 kJ/mol
# Density = 2.192142 g / cm^3
# Si number density = 21.971428 Si / 1000 Ang^3
#
#
#
# Elastic Constant Matrix: (Units=GPa)
#
#
# Indices 1 2 3 4 5 6 
#
# 1 127.1421 40.3727 18.3205 0.0000 0.0000 0.0000
# 2 40.3727 93.9051 9.1734 0.0000 0.0000 0.0000
# 3 18.3205 9.1734 58.1148 0.0000 0.0000 0.0000
# 4 0.0000 0.0000 0.0000 27.5841 0.0000 0.0000
# 5 0.0000 0.0000 0.0000 0.0000 31.1308 0.0000
# 6 0.0000 0.0000 0.0000 0.0000 0.0000 24.8377
#
#
#
# Elastic Compliance Matrix: (Units=1/GPa)
#
#
# Indices 1 2 3 4 5 6 
#
# 1 0.009419 -0.003818 -0.002366 0.000000 0.000000 0.000000
# 2 -0.003818 0.012364 -0.000748 0.000000 0.000000 0.000000
# 3 -0.002366 -0.000748 0.018071 0.000000 0.000000 0.000000
# 4 0.000000 0.000000 0.000000 0.036253 0.000000 0.000000
# 5 0.000000 0.000000 0.000000 0.000000 0.032123 0.000000
# 6 0.000000 0.000000 0.000000 0.000000 0.000000 0.040261
#
#
# Mechanical properties :
#
#
# Convention : Reuss Voigt Hill
#
# Bulk Modulus (GPa) = 38.47859 46.09948 42.28903
# Shear Modulus (GPa) = 29.23659 30.79686 30.01672
#
# Velocity S-wave (km/s) = 3.65178 3.74796 3.70018
# Velocity P-wave (km/s) = 5.94405 6.30529 6.12733
#
# Compressibility (1/GPa) = 0.02598848
#
# Stress axis : x y z
#
# Youngs Moduli (GPa) = 106.17237 80.88213 55.33606
#
# Poissons Ratio (x) = 0.30882 0.13095
# Poissons Ratio (y) = 0.40539 0.04139
# Poissons Ratio (z) = 0.25126 0.06049
#
# Static dielectric constant tensor:
#      x y z
#    x 3.930090 0.000000 0.000000 
#    y 0.000000 4.095100 0.000000 
#    z 0.000000 0.000000 3.978660 
# 
# 
# High freq. dielectric constant tensor:
#      x y z
#    x 1.847780 0.000000 0.000000 
#    y 0.000000 1.856470 0.000000 
#    z 0.000000 0.000000 1.862870 
# 
# From -- ./inp_files/6044.got.cif
#   From: 2010.03.12/outbox.cif.g09.slc.cpg/sg60_4_cif.got.tgz:6044.got - 2010.04.10 18:46:24.
