data_PCOD8246434
_publ_section_title
;
Structure prediction by ZEFSAII (Michael W. Deem and Ramdas Pophale) SiO2 
 PCOD8246434
Probable space group: P B C N
;
_chemical_formula_sum "Si O2"
_cell_formula_units_Z 60
_cell_length_a 10.011335
_cell_length_b 24.997587
_cell_length_c 12.597956
_cell_angle_alpha 90.000000
_cell_angle_beta 90.000000
_cell_angle_gamma 90.000000
_cell_volume 3152.754613
_symmetry_space_group_name_H-M "P B C N"
_symmetry_group_IT_number 60
_symmetry_cell_setting 'orthorhombic'
loop_
_space_group_symop_operation_xyz
x,y,z
1/2-x,1/2-y,1/2+z
1/2+x,1/2-y,-z
-x,y,1/2-z
-x,-y,-z
1/2+x,1/2+y,1/2-z
1/2-x,1/2+y,z
x,-y,1/2+z
loop_
_atom_site_type_symbol
_atom_site_label
_atom_site_fract_x
_atom_site_fract_y
_atom_site_fract_z
Si Si1 0.655289 0.938379 0.523592
Si Si2 0.159982 0.559926 0.029273
Si Si3 0.852910 0.403953 0.747736
Si Si4 0.513925 0.286472 0.072249
Si Si5 0.731754 0.851797 0.126253
Si Si6 0.500000 0.800760 0.750000
Si Si7 0.016290 0.277923 0.131271
Si Si8 0.762468 0.850989 0.368253
O O1 0.497254 0.927072 0.522097
O O2 0.717482 0.923946 0.639536
O O3 0.726198 0.902041 0.437179
O O4 0.691160 0.998771 0.495250
O O5 0.219831 0.575522 0.145436
O O6 0.239641 0.595018 0.943973
O O7 0.868081 0.338910 0.747444
O O8 0.000000 0.431134 0.750000
O O9 0.662280 0.308117 0.087991
O O10 0.493313 0.234393 0.144712
O O11 0.411078 0.332613 0.103190
O O12 0.491501 0.270210 0.950207
O O13 0.586086 0.826260 0.113675
O O14 0.758210 0.869420 0.246552
O O15 0.163896 0.301215 0.111644
O O16 0.000000 0.254295 0.250000
#
# Coordination Sequence:
#
# PCOD8246434 Si02
#       8
#     8   8   8   8   8   4   8   8
#     4  10  20  36  60  87 117 151 188 248 300 337
#     4  10  20  36  60  87 117 151 188 248 300 337
#     4   8  18  34  53  84 116 149 195 228 288 348
#     4  12  22  40  59  82 121 168 195 223 294 358
#     4  11  22  39  59  89 118 152 199 240 287 354
#     4  10  18  34  56  76 114 158 196 218 268 364
#     4  10  22  38  56  89 119 154 196 250 287 322
#     4  11  22  39  59  89 118 152 199 240 287 354
#
# _framework density 19.030977
#
# number of rings (size 3 to 8) (size 9 to 14) (size 15 to 20)
#    0.400    1.333    2.667    2.400    1.867    0.000 
#    2.400    0.667    0.000    0.000    0.000    0.000 
#    0.000    0.000    0.000    0.000    0.000    0.000 
#
# Total GULP energy -744031.123257 kJ/mol
# GULP energy per Si atom -12400.518721 kJ/mol
# Density = 1.898766 g / cm^3
# Si number density = 19.030977 Si / 1000 Ang^3
#
#
#
# Elastic Constant Matrix: (Units=GPa)
#
#
# Indices 1 2 3 4 5 6 
#
# 1 35.1330 15.8574 26.4202 0.0000 0.0000 0.0000
# 2 15.8574 114.0528 87.3937 0.0000 0.0000 0.0000
# 3 26.4202 87.3937 185.7674 0.0000 0.0000 0.0000
# 4 0.0000 0.0000 0.0000 -62.5627 0.0000 0.0000
# 5 0.0000 0.0000 0.0000 0.0000 18.0239 0.0000
# 6 0.0000 0.0000 0.0000 0.0000 0.0000 3.0221
#
#
#
# Elastic Compliance Matrix: (Units=1/GPa)
#
#
# Indices 1 2 3 4 5 6 
#
# 1 0.032037 -0.001506 -0.003848 0.000000 0.000000 0.000000
# 2 -0.001506 0.013781 -0.006269 0.000000 0.000000 0.000000
# 3 -0.003848 -0.006269 0.008880 0.000000 0.000000 0.000000
# 4 0.000000 0.000000 0.000000 -0.015984 0.000000 0.000000
# 5 0.000000 0.000000 0.000000 0.000000 0.055482 0.000000
# 6 0.000000 0.000000 0.000000 0.000000 0.000000 0.330896
#
#
# Mechanical properties :
#
#
# Convention : Reuss Voigt Hill
#
# Bulk Modulus (GPa) = 31.79481 66.03285 48.91383
# Shear Modulus (GPa) = 10.89752 5.38212 8.13982
#
# Velocity S-wave (km/s) = 2.39554 1.68352 2.07037
# Velocity P-wave (km/s) = 4.93909 6.20901 5.61010
#
# Compressibility (1/GPa) = 0.03145167
#
# Stress axis : x y z
#
# Youngs Moduli (GPa) = 31.21432 72.56419 112.61790
#
# Poissons Ratio (x) = 0.10926 0.43335
# Poissons Ratio (y) = 0.04700 0.70601
# Poissons Ratio (z) = 0.12011 0.45491
#
# Static dielectric constant tensor:
#      x y z
#    x 3.176140 0.000000 0.000000 
#    y 0.000000 3.242370 0.000000 
#    z 0.000000 0.000000 3.764040 
# 
# 
# High freq. dielectric constant tensor:
#      x y z
#    x 1.697340 0.000000 0.000000 
#    y 0.000000 1.728590 0.000000 
#    z 0.000000 0.000000 1.763600 
# 
# From -- ./inp_files/10316.got.cif
#   From: 2010.03.12/outbox.cif.g09.slc.cpg/sg60_6_cif.got.tgz:10316.got - 2010.04.10 18:46:24.
