data_PCOD8246574
_publ_section_title
;
Structure prediction by ZEFSAII (Michael W. Deem and Ramdas Pophale) SiO2 
 PCOD8246574
Probable space group: P B C N
;
_chemical_formula_sum "Si O2"
_cell_formula_units_Z 40
_cell_length_a 16.821524
_cell_length_b 22.190415
_cell_length_c 5.106628
_cell_angle_alpha 90.000000
_cell_angle_beta 90.000000
_cell_angle_gamma 90.000000
_cell_volume 1906.184730
_symmetry_space_group_name_H-M "P B C N"
_symmetry_group_IT_number 60
_symmetry_cell_setting 'orthorhombic'
loop_
_space_group_symop_operation_xyz
x,y,z
1/2-x,1/2-y,1/2+z
1/2+x,1/2-y,-z
-x,y,1/2-z
-x,-y,-z
1/2+x,1/2+y,1/2-z
1/2-x,1/2+y,z
x,-y,1/2+z
loop_
_atom_site_type_symbol
_atom_site_label
_atom_site_fract_x
_atom_site_fract_y
_atom_site_fract_z
Si Si1 0.908733 0.164742 0.691231
Si Si2 0.947370 0.353050 0.009055
Si Si3 0.350325 0.462700 0.465861
Si Si4 0.590566 0.723355 0.190168
Si Si5 0.165169 0.462567 0.465857
O O1 0.900592 0.096004 0.603963
O O2 0.868738 0.208580 0.470513
O O3 0.000000 0.181540 0.750000
O O4 0.867443 0.180886 0.969614
O O5 0.902893 0.292343 0.099964
O O6 0.881172 0.402653 0.953253
O O7 0.000000 0.376769 0.250000
O O8 0.000000 0.341012 0.750000
O O9 0.373160 0.486348 0.753274
O O10 0.257723 0.446136 0.463394
O O11 0.500000 0.703825 0.250000
O O12 0.142072 0.513111 0.679570
#
# Coordination Sequence:
#
# PCOD8246574 Si02
#       5
#     8   8   8   8   8
#     4  10  19  33  55  79 106 140 178 217 260 316
#     4  11  21  35  57  81 106 137 177 220 264 321
#     4  10  21  37  54  75 108 145 178 219 270 315
#     4   9  18  33  51  77 108 136 169 217 272 311
#     4  10  22  38  54  76 109 143 175 219 272 316
#
# _framework density 20.984324999999998
#
# number of rings (size 3 to 8) (size 9 to 14) (size 15 to 20)
#    0.000    2.000    0.000    5.400    0.000    3.200 
#    0.000    2.000    0.000    0.000    0.000    0.000 
#    0.000    0.000    0.000    0.000    0.000    0.000 
#
# Total GULP energy -495775.129708 kJ/mol
# GULP energy per Si atom -12394.378243 kJ/mol
# Density = 2.093656 g / cm^3
# Si number density = 20.984325 Si / 1000 Ang^3
#
#
#
# Elastic Constant Matrix: (Units=GPa)
#
#
# Indices 1 2 3 4 5 6 
#
# 1 13.6801 19.4151 22.8398 0.0000 0.0000 0.0000
# 2 19.4151 100.3529 42.7272 0.0000 0.0000 0.0000
# 3 22.8398 42.7272 142.8751 0.0000 0.0000 0.0000
# 4 0.0000 0.0000 0.0000 32.2094 0.0000 0.0000
# 5 0.0000 0.0000 0.0000 0.0000 17.6543 0.0000
# 6 0.0000 0.0000 0.0000 0.0000 0.0000 6.7420
#
#
#
# Elastic Compliance Matrix: (Units=1/GPa)
#
#
# Indices 1 2 3 4 5 6 
#
# 1 0.121646 -0.017481 -0.014218 0.000000 0.000000 0.000000
# 2 -0.017481 0.013931 -0.001372 0.000000 0.000000 0.000000
# 3 -0.014218 -0.001372 0.009682 0.000000 0.000000 0.000000
# 4 0.000000 0.000000 0.000000 0.031047 0.000000 0.000000
# 5 0.000000 0.000000 0.000000 0.000000 0.056643 0.000000
# 6 0.000000 0.000000 0.000000 0.000000 0.000000 0.148325
#
#
# Mechanical properties :
#
#
# Convention : Reuss Voigt Hill
#
# Bulk Modulus (GPa) = 12.63943 47.43026 30.03484
# Shear Modulus (GPa) = 10.55323 22.78288 16.66805
#
# Velocity S-wave (km/s) = 2.24500 3.29859 2.82141
# Velocity P-wave (km/s) = 3.57161 6.09585 4.99578
#
# Compressibility (1/GPa) = 0.07911751
#
# Stress axis : x y z
#
# Youngs Moduli (GPa) = 8.22055 71.78333 103.28197
#
# Poissons Ratio (x) = 1.25484 1.46851
# Poissons Ratio (y) = 0.14370 0.14166
# Poissons Ratio (z) = 0.11688 0.09846
#
# Static dielectric constant tensor:
#      x y z
#    x 3.303950 0.000000 0.000000 
#    y 0.000000 3.531260 0.000000 
#    z 0.000000 0.000000 4.586680 
# 
# 
# High freq. dielectric constant tensor:
#      x y z
#    x 1.765830 0.000000 0.000000 
#    y 0.000000 1.821800 0.000000 
#    z 0.000000 0.000000 1.858400 
# 
# From -- ./inp_files/1644.got.cif
#   From: 2010.03.12/outbox.cif.g09.slc.cpg/sg60_1_cif.got.tgz:1644.got - 2010.04.10 18:46:24.
