data_PCOD8246997
_publ_section_title
;
Structure prediction by ZEFSAII (Michael W. Deem and Ramdas Pophale) SiO2 
 PCOD8246997
Probable space group: P B C N
;
_chemical_formula_sum "Si O2"
_cell_formula_units_Z 32
_cell_length_a 5.042033
_cell_length_b 17.922627
_cell_length_c 15.219357
_cell_angle_alpha 90.000000
_cell_angle_beta 90.000000
_cell_angle_gamma 90.000000
_cell_volume 1375.319671
_symmetry_space_group_name_H-M "P B C N"
_symmetry_group_IT_number 60
_symmetry_cell_setting 'orthorhombic'
loop_
_space_group_symop_operation_xyz
x,y,z
1/2-x,1/2-y,1/2+z
1/2+x,1/2-y,-z
-x,y,1/2-z
-x,-y,-z
1/2+x,1/2+y,1/2-z
1/2-x,1/2+y,z
x,-y,1/2+z
loop_
_atom_site_type_symbol
_atom_site_label
_atom_site_fract_x
_atom_site_fract_y
_atom_site_fract_z
Si Si1 0.224871 0.395374 0.582393
Si Si2 0.471885 0.660596 0.917862
Si Si3 0.711784 0.694371 0.090047
Si Si4 0.737225 0.537726 0.807821
O O1 0.286223 0.394954 0.477012
O O2 0.445856 0.342684 0.631034
O O3 0.219358 0.480904 0.612502
O O4 0.942378 0.364109 0.609617
O O5 0.285918 0.723826 0.871872
O O6 0.638538 0.617014 0.845240
O O7 0.676809 0.703585 0.983395
O O8 0.500000 0.503856 0.750000
O O9 0.000000 0.550861 0.750000
#
# Coordination Sequence:
#
# PCOD8246997 Si02
#       4
#     8   8   8   8
#     4  10  21  41  66  95 124 172 221 278 318 402
#     4  10  22  41  71  99 123 168 231 286 328 388
#     4  10  20  37  74  95 120 155 236 285 326 374
#     4  12  28  42  61  96 145 180 215 268 348 411
#
# _framework density 23.267318
#
# number of rings (size 3 to 8) (size 9 to 14) (size 15 to 20)
#    1.500    0.000    2.500    2.250    3.500    1.000 
#    0.000    5.000    0.000    0.000    0.000    0.000 
#    0.000    0.000    0.000    0.000    0.000    0.000 
#
# Total GULP energy -396548.829805 kJ/mol
# GULP energy per Si atom -12392.150931 kJ/mol
# Density = 2.321436 g / cm^3
# Si number density = 23.267318 Si / 1000 Ang^3
#
#
#
# Elastic Constant Matrix: (Units=GPa)
#
#
# Indices 1 2 3 4 5 6 
#
# 1 108.8009 4.9718 1.0485 0.0000 0.0000 0.0000
# 2 4.9718 91.4498 14.5810 0.0000 0.0000 0.0000
# 3 1.0485 14.5810 34.0329 0.0000 0.0000 0.0000
# 4 0.0000 0.0000 0.0000 -1.5657 0.0000 0.0000
# 5 0.0000 0.0000 0.0000 0.0000 28.5178 0.0000
# 6 0.0000 0.0000 0.0000 0.0000 0.0000 42.8507
#
#
#
# Elastic Compliance Matrix: (Units=1/GPa)
#
#
# Indices 1 2 3 4 5 6 
#
# 1 0.009214 -0.000489 -0.000074 0.000000 0.000000 0.000000
# 2 -0.000489 0.011763 -0.005025 0.000000 0.000000 0.000000
# 3 -0.000074 -0.005025 0.031538 0.000000 0.000000 0.000000
# 4 0.000000 0.000000 0.000000 -0.638687 0.000000 0.000000
# 5 0.000000 0.000000 0.000000 0.000000 0.035066 0.000000
# 6 0.000000 0.000000 0.000000 0.000000 0.000000 0.023337
#
#
# Mechanical properties :
#
#
# Convention : Reuss Voigt Hill
#
# Bulk Modulus (GPa) = 24.19006 30.60958 27.39982
# Shear Modulus (GPa) = -9.94403 28.20606 9.13101
#
# Velocity S-wave (km/s) = -2.06956 3.48553 1.98316
# Velocity P-wave (km/s) = 2.16987 5.42058 4.12863
#
# Compressibility (1/GPa) = 0.04133930
#
# Stress axis : x y z
#
# Youngs Moduli (GPa) = 108.52856 85.01469 31.70743
#
# Poissons Ratio (x) = 0.04158 0.00236
# Poissons Ratio (y) = 0.05308 0.15931
# Poissons Ratio (z) = 0.00807 0.42716
#
# Static dielectric constant tensor:
#      x y z
#    x 4.343760 0.000000 0.000000 
#    y 0.000000 3.844800 0.000000 
#    z 0.000000 0.000000 3.698680 
# 
# 
# High freq. dielectric constant tensor:
#      x y z
#    x 1.936960 0.000000 0.000000 
#    y 0.000000 1.921060 0.000000 
#    z 0.000000 0.000000 1.866760 
# 
# From -- ./inp_files/13634.got.cif
#   From: 2010.03.12/outbox.cif.g09.slc.cpg/sg60_7_cif.got.tgz:13634.got - 2010.04.10 18:46:24.
