data_PCOD8246412
_publ_section_title
;
Structure prediction by ZEFSAII (Michael W. Deem and Ramdas Pophale) SiO2 
 PCOD8246412
Probable space group: P B C N
;
_chemical_formula_sum "Si O2"
_cell_formula_units_Z 52
_cell_length_a 16.258455
_cell_length_b 11.449248
_cell_length_c 13.453880
_cell_angle_alpha 90.000000
_cell_angle_beta 90.000000
_cell_angle_gamma 90.000000
_cell_volume 2504.400522
_symmetry_space_group_name_H-M "P B C N"
_symmetry_group_IT_number 60
_symmetry_cell_setting 'orthorhombic'
loop_
_space_group_symop_operation_xyz
x,y,z
1/2-x,1/2-y,1/2+z
1/2+x,1/2-y,-z
-x,y,1/2-z
-x,-y,-z
1/2+x,1/2+y,1/2-z
1/2-x,1/2+y,z
x,-y,1/2+z
loop_
_atom_site_type_symbol
_atom_site_label
_atom_site_fract_x
_atom_site_fract_y
_atom_site_fract_z
Si Si1 0.130065 0.983143 0.399111
Si Si2 0.817239 0.511298 0.175956
Si Si3 0.672808 0.147753 0.514904
Si Si4 0.207967 0.567108 0.610487
Si Si5 0.500000 0.557164 0.750000
Si Si6 0.615201 0.645877 0.914071
Si Si7 0.332734 0.772585 0.941522
O O1 0.221785 0.003596 0.358912
O O2 0.115226 0.845865 0.428489
O O3 0.067328 0.019150 0.310167
O O4 0.104216 0.056915 0.494795
O O5 0.835359 0.470788 0.287368
O O6 0.848586 0.642877 0.153860
O O7 0.868689 0.420399 0.107192
O O8 0.605777 0.220103 0.452348
O O9 0.735808 0.244100 0.557046
O O10 0.723082 0.053079 0.449374
O O11 0.295320 0.625937 0.635842
O O12 0.150574 0.655743 0.545311
O O13 0.546501 0.635782 0.830811
#
# Coordination Sequence:
#
# PCOD8246412 Si02
#       7
#     8   8   8   8   4   8   8
#     4  11  21  39  54  81 120 148 187 227 276 338
#     4  10  18  32  58  89 110 139 179 236 295 336
#     4   9  18  33  54  84 113 137 176 240 287 321
#     4  10  18  32  58  89 110 139 179 236 295 336
#     4  12  26  36  56  80 110 170 198 204 268 356
#     4  11  21  39  54  81 120 148 187 227 276 338
#     4   9  18  33  54  84 113 137 176 240 287 321
#
# _framework density 20.763452000000001
#
# number of rings (size 3 to 8) (size 9 to 14) (size 15 to 20)
#    0.000    1.846    7.692    0.462    2.154    1.231 
#    2.769    0.000    0.000    3.692    0.000    0.000 
#    0.000    0.000    0.000    0.000    0.000    0.000 
#
# Total GULP energy -644268.657510 kJ/mol
# GULP energy per Si atom -12389.781875 kJ/mol
# Density = 2.071619 g / cm^3
# Si number density = 20.763452 Si / 1000 Ang^3
#
#
#
# Elastic Constant Matrix: (Units=GPa)
#
#
# Indices 1 2 3 4 5 6 
#
# 1 32.2647 3.3235 11.2586 0.0000 0.0000 0.0000
# 2 3.3235 109.2027 30.0904 0.0000 0.0000 0.0000
# 3 11.2586 30.0904 104.7553 0.0000 0.0000 0.0000
# 4 0.0000 0.0000 0.0000 12.3269 0.0000 0.0000
# 5 0.0000 0.0000 0.0000 0.0000 30.4216 0.0000
# 6 0.0000 0.0000 0.0000 0.0000 0.0000 9.3482
#
#
#
# Elastic Compliance Matrix: (Units=1/GPa)
#
#
# Indices 1 2 3 4 5 6 
#
# 1 0.032201 -0.000029 -0.003453 0.000000 0.000000 0.000000
# 2 -0.000029 0.009944 -0.002853 0.000000 0.000000 0.000000
# 3 -0.003453 -0.002853 0.010737 0.000000 0.000000 0.000000
# 4 0.000000 0.000000 0.000000 0.081124 0.000000 0.000000
# 5 0.000000 0.000000 0.000000 0.000000 0.032871 0.000000
# 6 0.000000 0.000000 0.000000 0.000000 0.000000 0.106973
#
#
# Mechanical properties :
#
#
# Convention : Reuss Voigt Hill
#
# Bulk Modulus (GPa) = 24.86749 37.28530 31.07640
# Shear Modulus (GPa) = 16.67089 23.85600 20.26344
#
# Velocity S-wave (km/s) = 2.83662 3.39328 3.12736
# Velocity P-wave (km/s) = 4.76771 5.77483 5.29527
#
# Compressibility (1/GPa) = 0.04021314
#
# Stress axis : x y z
#
# Youngs Moduli (GPa) = 31.05461 100.55911 93.13802
#
# Poissons Ratio (x) = 0.00288 0.32157
# Poissons Ratio (y) = 0.00089 0.26576
# Poissons Ratio (z) = 0.10722 0.28694
#
# Static dielectric constant tensor:
#      x y z
#    x 3.252230 0.000000 0.000000 
#    y 0.000000 3.965880 0.000000 
#    z 0.000000 0.000000 4.052680 
# 
# 
# High freq. dielectric constant tensor:
#      x y z
#    x 1.747930 0.000000 0.000000 
#    y 0.000000 1.817670 0.000000 
#    z 0.000000 0.000000 1.823370 
# 
# From -- ./inp_files/17434.got.cif
#   From: 2010.03.12/outbox.cif.g09.slc.cpg/sg60_9_cif.got.tgz:17434.got - 2010.04.10 18:46:24.
