data_PCOD8246279
_publ_section_title
;
Structure prediction by ZEFSAII (Michael W. Deem and Ramdas Pophale) SiO2 
 PCOD8246279
Probable space group: P B C N
;
_chemical_formula_sum "Si O2"
_cell_formula_units_Z 48
_cell_length_a 17.681420
_cell_length_b 27.245486
_cell_length_c 5.245482
_cell_angle_alpha 90.000000
_cell_angle_beta 90.000000
_cell_angle_gamma 90.000000
_cell_volume 2526.952629
_symmetry_space_group_name_H-M "P B C N"
_symmetry_group_IT_number 60
_symmetry_cell_setting 'orthorhombic'
loop_
_space_group_symop_operation_xyz
x,y,z
1/2-x,1/2-y,1/2+z
1/2+x,1/2-y,-z
-x,y,1/2-z
-x,-y,-z
1/2+x,1/2+y,1/2-z
1/2-x,1/2+y,z
x,-y,1/2+z
loop_
_atom_site_type_symbol
_atom_site_label
_atom_site_fract_x
_atom_site_fract_y
_atom_site_fract_z
Si Si1 0.287869 0.270853 0.476224
Si Si2 0.417517 0.978274 0.102323
Si Si3 0.285853 0.130574 0.053580
Si Si4 0.544880 0.768707 0.496837
Si Si5 0.250219 0.480069 0.593536
Si Si6 0.882785 0.368769 0.447899
O O1 0.241108 0.243142 0.695424
O O2 0.279169 0.329266 0.511906
O O3 0.375059 0.257924 0.500554
O O4 0.420899 0.921889 0.017439
O O5 0.455193 0.986488 0.383662
O O6 0.332469 0.997184 0.157371
O O7 0.248918 0.077299 0.034221
O O8 0.320629 0.139106 0.332949
O O9 0.348489 0.136603 0.834138
O O10 0.500000 0.749612 0.250000
O O11 0.553413 0.827639 0.481534
O O12 0.500000 0.753942 0.750000
O O13 0.292463 0.508341 0.361558
#
# Coordination Sequence:
#
# PCOD8246279 Si02
#       6
#     8   8   8   8   8   8
#     4  12  23  40  62  89 114 145 199 256 295 340
#     4  10  16  27  47  77 107 147 178 227 291 316
#     4  12  19  32  56  87 111 142 189 240 291 336
#     4  12  26  43  59  80 118 159 198 242 299 353
#     4  10  16  27  45  80 114 144 165 226 303 326
#     4  12  20  33  57  80 108 153 193 230 283 341
#
# _framework density 18.995211000000001
#
# number of rings (size 3 to 8) (size 9 to 14) (size 15 to 20)
#    0.000    0.667   10.000    2.000    0.000    0.000 
#    0.000    0.000    0.000    3.000    0.000    0.000 
#    0.000    4.000    0.000    0.000    0.000    0.000 
#
# Total GULP energy -595283.302310 kJ/mol
# GULP energy per Si atom -12401.735465 kJ/mol
# Density = 1.895198 g / cm^3
# Si number density = 18.995211 Si / 1000 Ang^3
#
#
#
# Elastic Constant Matrix: (Units=GPa)
#
#
# Indices 1 2 3 4 5 6 
#
# 1 74.2741 30.7662 27.5112 0.0000 0.0000 0.0000
# 2 30.7662 92.2686 17.9513 0.0000 0.0000 0.0000
# 3 27.5112 17.9513 141.9634 0.0000 0.0000 0.0000
# 4 0.0000 0.0000 0.0000 24.5731 0.0000 0.0000
# 5 0.0000 0.0000 0.0000 0.0000 24.1570 0.0000
# 6 0.0000 0.0000 0.0000 0.0000 0.0000 20.1502
#
#
#
# Elastic Compliance Matrix: (Units=1/GPa)
#
#
# Indices 1 2 3 4 5 6 
#
# 1 0.016483 -0.004998 -0.002562 0.000000 0.000000 0.000000
# 2 -0.004998 0.012627 -0.000628 0.000000 0.000000 0.000000
# 3 -0.002562 -0.000628 0.007620 0.000000 0.000000 0.000000
# 4 0.000000 0.000000 0.000000 0.040695 0.000000 0.000000
# 5 0.000000 0.000000 0.000000 0.000000 0.041396 0.000000
# 6 0.000000 0.000000 0.000000 0.000000 0.000000 0.049627
#
#
# Mechanical properties :
#
#
# Convention : Reuss Voigt Hill
#
# Bulk Modulus (GPa) = 49.13177 51.21818 50.17497
# Shear Modulus (GPa) = 26.09495 29.26121 27.67808
#
# Velocity S-wave (km/s) = 3.71045 3.92912 3.82135
# Velocity P-wave (km/s) = 6.65418 6.89973 6.77807
#
# Compressibility (1/GPa) = 0.02035343
#
# Stress axis : x y z
#
# Youngs Moduli (GPa) = 60.66914 79.19826 131.23282
#
# Poissons Ratio (x) = 0.39580 0.33626
# Poissons Ratio (y) = 0.30320 0.08243
# Poissons Ratio (z) = 0.15545 0.04975
#
# Static dielectric constant tensor:
#      x y z
#    x 3.115440 0.000000 0.000000 
#    y 0.000000 3.607520 0.000000 
#    z 0.000000 0.000000 4.709320 
# 
# 
# High freq. dielectric constant tensor:
#      x y z
#    x 1.678600 0.000000 0.000000 
#    y 0.000000 1.736790 0.000000 
#    z 0.000000 0.000000 1.786640 
# 
# From -- ./inp_files/1311.got.cif
#   From: 2010.03.12/outbox.cif.g09.slc.cpg/sg60_1_cif.got.tgz:1311.got - 2010.04.10 18:46:24.
