data_PCOD8246551
_publ_section_title
;
Structure prediction by ZEFSAII (Michael W. Deem and Ramdas Pophale) SiO2 
 PCOD8246551
Probable space group: P B C N
;
_chemical_formula_sum "Si O2"
_cell_formula_units_Z 56
_cell_length_a 11.337412
_cell_length_b 26.682129
_cell_length_c 10.181539
_cell_angle_alpha 90.000000
_cell_angle_beta 90.000000
_cell_angle_gamma 90.000000
_cell_volume 3079.979584
_symmetry_space_group_name_H-M "P B C N"
_symmetry_group_IT_number 60
_symmetry_cell_setting 'orthorhombic'
loop_
_space_group_symop_operation_xyz
x,y,z
1/2-x,1/2-y,1/2+z
1/2+x,1/2-y,-z
-x,y,1/2-z
-x,-y,-z
1/2+x,1/2+y,1/2-z
1/2-x,1/2+y,z
x,-y,1/2+z
loop_
_atom_site_type_symbol
_atom_site_label
_atom_site_fract_x
_atom_site_fract_y
_atom_site_fract_z
Si Si1 0.094050 0.286086 0.979916
Si Si2 0.653221 0.686951 0.112682
Si Si3 0.532622 0.322140 0.102476
Si Si4 0.251694 0.601283 0.227126
Si Si5 0.904075 0.971736 0.636583
Si Si6 0.000000 0.350229 0.750000
Si Si7 0.000000 0.267783 0.250000
Si Si8 0.394789 0.574615 0.977816
O O1 0.224651 0.304516 0.959358
O O2 0.097746 0.226114 0.958446
O O3 0.007834 0.314531 0.877985
O O4 0.055870 0.299925 0.130041
O O5 0.667100 0.648452 0.232586
O O6 0.603445 0.736200 0.181674
O O7 0.574282 0.665700 0.995444
O O8 0.500000 0.307446 0.250000
O O9 0.606461 0.373858 0.106252
O O10 0.283556 0.557261 0.328790
O O11 0.294586 0.583211 0.086099
O O12 0.113345 0.614072 0.232111
O O13 0.000000 0.975850 0.750000
O O14 0.972615 0.941108 0.523015
O O15 0.853720 0.026862 0.605655
#
# Coordination Sequence:
#
# PCOD8246551 Si02
#       8
#     8   8   8   8   8   4   4   8
#     4  10  22  37  56  79 118 156 201 239 287 338
#     4  10  21  35  54  80 112 156 190 237 287 350
#     4  11  21  33  51  83 114 142 188 237 287 339
#     4  10  19  37  60  78 113 151 190 228 289 349
#     4   9  18  33  56  84 114 136 178 236 291 341
#     4  10  22  40  58  84 112 162 198 238 276 350
#     4  10  22  34  58  80 112 158 208 242 290 344
#     4  10  19  32  56  86 107 141 180 234 291 348
#
# _framework density 18.181937999999999
#
# number of rings (size 3 to 8) (size 9 to 14) (size 15 to 20)
#    0.000    2.000    2.143    2.143    3.000    3.429 
#    0.000    0.714    0.000    0.000    0.000    0.000 
#    0.000    0.000    0.000    0.000    0.000    0.000 
#
# Total GULP energy -693951.914505 kJ/mol
# GULP energy per Si atom -12391.998473 kJ/mol
# Density = 1.814055 g / cm^3
# Si number density = 18.181938 Si / 1000 Ang^3
#
#
#
# Elastic Constant Matrix: (Units=GPa)
#
#
# Indices 1 2 3 4 5 6 
#
# 1 71.5496 29.4927 18.6166 0.0000 0.0000 0.0000
# 2 29.4927 97.8611 14.1751 0.0000 0.0000 0.0000
# 3 18.6166 14.1751 65.3729 0.0000 0.0000 0.0000
# 4 0.0000 0.0000 0.0000 43.4769 0.0000 0.0000
# 5 0.0000 0.0000 0.0000 0.0000 19.3009 0.0000
# 6 0.0000 0.0000 0.0000 0.0000 0.0000 19.5757
#
#
#
# Elastic Compliance Matrix: (Units=1/GPa)
#
#
# Indices 1 2 3 4 5 6 
#
# 1 0.016832 -0.004520 -0.003813 0.000000 0.000000 0.000000
# 2 -0.004520 0.011764 -0.001264 0.000000 0.000000 0.000000
# 3 -0.003813 -0.001264 0.016657 0.000000 0.000000 0.000000
# 4 0.000000 0.000000 0.000000 0.023001 0.000000 0.000000
# 5 0.000000 0.000000 0.000000 0.000000 0.051811 0.000000
# 6 0.000000 0.000000 0.000000 0.000000 0.000000 0.051084
#
#
# Mechanical properties :
#
#
# Convention : Reuss Voigt Hill
#
# Bulk Modulus (GPa) = 38.37533 39.92806 39.15170
# Shear Modulus (GPa) = 25.12212 27.97065 26.54638
#
# Velocity S-wave (km/s) = 3.72117 3.92647 3.82519
# Velocity P-wave (km/s) = 6.29403 6.52412 6.41011
#
# Compressibility (1/GPa) = 0.02605841
#
# Stress axis : x y z
#
# Youngs Moduli (GPa) = 59.41159 85.00591 60.03582
#
# Poissons Ratio (x) = 0.38425 0.22892
# Poissons Ratio (y) = 0.26856 0.07586
# Poissons Ratio (z) = 0.22654 0.10741
#
# Static dielectric constant tensor:
#      x y z
#    x 3.113920 0.000000 0.000000 
#    y 0.000000 3.444190 0.000000 
#    z 0.000000 0.000000 3.578030 
# 
# 
# High freq. dielectric constant tensor:
#      x y z
#    x 1.679210 0.000000 0.000000 
#    y 0.000000 1.702190 0.000000 
#    z 0.000000 0.000000 1.711020 
# 
# From -- ./inp_files/11351.got.cif
#   From: 2010.03.12/outbox.cif.g09.slc.cpg/sg60_6_cif.got.tgz:11351.got - 2010.04.10 18:46:24.
