data_PCOD8246808
_publ_section_title
;
Structure prediction by ZEFSAII (Michael W. Deem and Ramdas Pophale) SiO2 
 PCOD8246808
Probable space group: P B C N
;
_chemical_formula_sum "Si O2"
_cell_formula_units_Z 60
_cell_length_a 22.625349
_cell_length_b 14.801780
_cell_length_c 8.829018
_cell_angle_alpha 90.000000
_cell_angle_beta 90.000000
_cell_angle_gamma 90.000000
_cell_volume 2956.797853
_symmetry_space_group_name_H-M "P B C N"
_symmetry_group_IT_number 60
_symmetry_cell_setting 'orthorhombic'
loop_
_space_group_symop_operation_xyz
x,y,z
1/2-x,1/2-y,1/2+z
1/2+x,1/2-y,-z
-x,y,1/2-z
-x,-y,-z
1/2+x,1/2+y,1/2-z
1/2-x,1/2+y,z
x,-y,1/2+z
loop_
_atom_site_type_symbol
_atom_site_label
_atom_site_fract_x
_atom_site_fract_y
_atom_site_fract_z
Si Si1 0.715612 0.895033 0.859829
Si Si2 0.600775 0.210299 0.024169
Si Si3 0.832149 0.922276 0.341952
Si Si4 0.340194 0.605760 0.011658
Si Si5 0.386237 0.240002 0.132254
Si Si6 0.000000 0.504523 0.250000
Si Si7 0.975529 0.372181 0.015859
Si Si8 0.208596 0.423225 0.991008
O O1 0.676329 0.807725 0.884375
O O2 0.723310 0.925367 0.686332
O O3 0.778456 0.861890 0.919893
O O4 0.687463 0.977474 0.956166
O O5 0.612655 0.312912 0.966866
O O6 0.588270 0.214938 0.203151
O O7 0.656893 0.149176 0.977958
O O8 0.541785 0.165497 0.954950
O O9 0.828079 0.920727 0.161393
O O10 0.877853 0.845833 0.394209
O O11 0.767798 0.902381 0.413198
O O12 0.860704 0.016513 0.397754
O O13 0.430983 0.210999 0.999086
O O14 0.956973 0.438106 0.153847
O O15 0.964700 0.567865 0.365159
#
# Coordination Sequence:
#
# PCOD8246808 Si02
#       8
#     8   8   8   8   8   4   8   8
#     4  10  20  33  53  84 112 146 182 224 275 333
#     4  10  21  36  59  81 112 147 187 225 277 329
#     4  10  20  38  56  80 108 149 186 231 279 324
#     4  10  20  38  56  80 108 149 186 231 279 324
#     4  10  21  36  59  81 112 147 187 225 277 329
#     4  10  24  38  64  78 122 148 180 218 270 324
#     4  11  22  42  57  88 113 148 182 221 271 327
#     4  10  20  33  53  84 112 146 182 224 275 333
#
# _framework density 20.292223
#
# number of rings (size 3 to 8) (size 9 to 14) (size 15 to 20)
#    0.000    1.867    1.333    4.000    3.733    0.000 
#    7.200    0.667    0.000    0.000    0.000    0.000 
#    0.000    0.000    0.000    0.000    0.000    0.000 
#
# Total GULP energy -743688.378368 kJ/mol
# GULP energy per Si atom -12394.806306 kJ/mol
# Density = 2.024604 g / cm^3
# Si number density = 20.292223 Si / 1000 Ang^3
#
#
#
# Elastic Constant Matrix: (Units=GPa)
#
#
# Indices 1 2 3 4 5 6 
#
# 1 52.3096 34.2810 22.0959 0.0000 0.0000 0.0000
# 2 34.2810 104.6382 30.9900 0.0000 0.0000 0.0000
# 3 22.0959 30.9900 90.0598 0.0000 0.0000 0.0000
# 4 0.0000 0.0000 0.0000 21.9269 0.0000 0.0000
# 5 0.0000 0.0000 0.0000 0.0000 20.3651 0.0000
# 6 0.0000 0.0000 0.0000 0.0000 0.0000 9.9436
#
#
#
# Elastic Compliance Matrix: (Units=1/GPa)
#
#
# Indices 1 2 3 4 5 6 
#
# 1 0.025436 -0.007221 -0.003756 0.000000 0.000000 0.000000
# 2 -0.007221 0.012691 -0.002595 0.000000 0.000000 0.000000
# 3 -0.003756 -0.002595 0.012918 0.000000 0.000000 0.000000
# 4 0.000000 0.000000 0.000000 0.045606 0.000000 0.000000
# 5 0.000000 0.000000 0.000000 0.000000 0.049104 0.000000
# 6 0.000000 0.000000 0.000000 0.000000 0.000000 0.100567
#
#
# Mechanical properties :
#
#
# Convention : Reuss Voigt Hill
#
# Bulk Modulus (GPa) = 41.83951 46.86014 44.34982
# Shear Modulus (GPa) = 17.76624 21.08983 19.42804
#
# Velocity S-wave (km/s) = 2.96213 3.22732 3.09757
# Velocity P-wave (km/s) = 5.68878 6.08525 5.89035
#
# Compressibility (1/GPa) = 0.02390085
#
# Stress axis : x y z
#
# Youngs Moduli (GPa) = 39.31510 78.79583 77.40933
#
# Poissons Ratio (x) = 0.56896 0.29074
# Poissons Ratio (y) = 0.28388 0.20091
# Poissons Ratio (z) = 0.14766 0.20451
#
# Static dielectric constant tensor:
#      x y z
#    x 3.298630 0.000000 0.000000 
#    y 0.000000 3.880600 0.000000 
#    z 0.000000 0.000000 3.775920 
# 
# 
# High freq. dielectric constant tensor:
#      x y z
#    x 1.762460 0.000000 0.000000 
#    y 0.000000 1.805400 0.000000 
#    z 0.000000 0.000000 1.795950 
# 
# From -- ./inp_files/7934.got.cif
#   From: 2010.03.12/outbox.cif.g09.slc.cpg/sg60_4_cif.got.tgz:7934.got - 2010.04.10 18:46:24.
