data_PCOD8246649
_publ_section_title
;
Structure prediction by ZEFSAII (Michael W. Deem and Ramdas Pophale) SiO2 
 PCOD8246649
Probable space group: P B C N
;
_chemical_formula_sum "Si O2"
_cell_formula_units_Z 64
_cell_length_a 16.865748
_cell_length_b 21.332170
_cell_length_c 9.963217
_cell_angle_alpha 90.000000
_cell_angle_beta 90.000000
_cell_angle_gamma 90.000000
_cell_volume 3584.596137
_symmetry_space_group_name_H-M "P B C N"
_symmetry_group_IT_number 60
_symmetry_cell_setting 'orthorhombic'
loop_
_space_group_symop_operation_xyz
x,y,z
1/2-x,1/2-y,1/2+z
1/2+x,1/2-y,-z
-x,y,1/2-z
-x,-y,-z
1/2+x,1/2+y,1/2-z
1/2-x,1/2+y,z
x,-y,1/2+z
loop_
_atom_site_type_symbol
_atom_site_label
_atom_site_fract_x
_atom_site_fract_y
_atom_site_fract_z
Si Si1 0.597875 0.123386 0.971455
Si Si2 0.981442 0.853660 0.102430
Si Si3 0.924390 0.373666 0.030313
Si Si4 0.643094 0.541666 0.671350
Si Si5 0.822167 0.557708 0.743808
Si Si6 0.984023 0.740752 0.903486
Si Si7 0.578442 0.465625 0.453660
Si Si8 0.592319 0.073089 0.250708
O O1 0.510130 0.092241 0.948556
O O2 0.663959 0.083067 0.894442
O O3 0.593462 0.195272 0.917627
O O4 0.614926 0.120715 0.130616
O O5 0.905011 0.899070 0.111919
O O6 0.000000 0.825175 0.250000
O O7 0.059407 0.891455 0.050298
O O8 0.965258 0.800201 0.994743
O O9 0.866836 0.395206 0.146234
O O10 0.939467 0.298315 0.040913
O O11 0.885715 0.391079 0.887664
O O12 0.730595 0.562902 0.708675
O O13 0.646291 0.485718 0.560190
O O14 0.601524 0.513227 0.803613
O O15 0.853584 0.487601 0.731857
O O16 0.000000 0.761199 0.750000
O O17 0.500000 0.500000 0.500000
O O18 0.500000 0.054144 0.250000
#
# Coordination Sequence:
#
# PCOD8246649 Si02
#       8
#     8   8   8   8   8   8   8   8
#     4   9  19  34  51  82 114 150 195 233 263 328
#     4   9  20  38  64  80 102 141 196 243 285 333
#     4   9  19  34  51  84 112 152 197 232 264 324
#     4  10  23  35  60  91 116 150 173 239 310 335
#     4  12  20  33  53  79 133 148 181 227 290 358
#     4  10  19  35  59  83 103 146 202 234 274 315
#     4   9  19  41  60  88 110 136 187 238 286 351
#     4  10  20  30  53  82 112 159 192 220 271 336
#
# _framework density 17.854172999999999
#
# number of rings (size 3 to 8) (size 9 to 14) (size 15 to 20)
#    0.750    1.500    1.250    3.000    5.250    4.000 
#    0.000    0.000    5.500    0.000    0.000    0.000 
#    0.000    0.000    0.000    0.000    0.000    0.000 
#
# Total GULP energy -793034.544798 kJ/mol
# GULP energy per Si atom -12391.164762 kJ/mol
# Density = 1.781354 g / cm^3
# Si number density = 17.854173 Si / 1000 Ang^3
#
#
#
# Elastic Constant Matrix: (Units=GPa)
#
#
# Indices 1 2 3 4 5 6 
#
# 1 65.7628 29.1891 34.4164 0.0000 0.0000 0.0000
# 2 29.1891 79.4938 60.1445 0.0000 0.0000 0.0000
# 3 34.4164 60.1445 130.0081 0.0000 0.0000 0.0000
# 4 0.0000 0.0000 0.0000 38.5193 0.0000 0.0000
# 5 0.0000 0.0000 0.0000 0.0000 19.9181 0.0000
# 6 0.0000 0.0000 0.0000 0.0000 0.0000 3.2609
#
#
#
# Elastic Compliance Matrix: (Units=1/GPa)
#
#
# Indices 1 2 3 4 5 6 
#
# 1 0.018781 -0.004822 -0.002741 0.000000 0.000000 0.000000
# 2 -0.004822 0.020592 -0.008250 0.000000 0.000000 0.000000
# 3 -0.002741 -0.008250 0.012234 0.000000 0.000000 0.000000
# 4 0.000000 0.000000 0.000000 0.025961 0.000000 0.000000
# 5 0.000000 0.000000 0.000000 0.000000 0.050206 0.000000
# 6 0.000000 0.000000 0.000000 0.000000 0.000000 0.306663
#
#
# Mechanical properties :
#
#
# Convention : Reuss Voigt Hill
#
# Bulk Modulus (GPa) = 50.04761 58.08496 54.06628
# Shear Modulus (GPa) = 10.57703 22.44063 16.50883
#
# Velocity S-wave (km/s) = 2.43659 3.54910 3.04410
# Velocity P-wave (km/s) = 6.00068 7.02840 6.53478
#
# Compressibility (1/GPa) = 0.01998098
#
# Stress axis : x y z
#
# Youngs Moduli (GPa) = 53.24525 48.56258 81.74024
#
# Poissons Ratio (x) = 0.23419 0.22404
# Poissons Ratio (y) = 0.25677 0.67433
# Poissons Ratio (z) = 0.14594 0.40063
#
# Static dielectric constant tensor:
#      x y z
#    x 3.110000 0.000000 0.000000 
#    y 0.000000 3.090880 0.000000 
#    z 0.000000 0.000000 3.671700 
# 
# 
# High freq. dielectric constant tensor:
#      x y z
#    x 1.657450 0.000000 0.000000 
#    y 0.000000 1.666520 0.000000 
#    z 0.000000 0.000000 1.713510 
# 
# From -- ./inp_files/7017.got.cif
#   From: 2010.03.12/outbox.cif.g09.slc.cpg/sg60_4_cif.got.tgz:7017.got - 2010.04.10 18:46:24.
