data_PCOD8246117
_publ_section_title
;
Structure prediction by ZEFSAII (Michael W. Deem and Ramdas Pophale) SiO2 
 PCOD8246117
Probable space group: P M M N
;
_chemical_formula_sum "Si O2"
_cell_formula_units_Z 40
_cell_length_a 8.915649
_cell_length_b 14.783407
_cell_length_c 14.926414
_cell_angle_alpha 90.000000
_cell_angle_beta 90.000000
_cell_angle_gamma 90.000000
_cell_volume 1967.356113
_symmetry_space_group_name_H-M "P M M N"
_symmetry_group_IT_number 59
_space_group.IT_coordinate_system_code '2'
_symmetry_cell_setting 'orthorhombic'
loop_
_space_group_symop_operation_xyz
x,y,z
1/2-x,1/2-y,z
1/2+x,-y,-z
-x,1/2+y,-z
-x,-y,-z
1/2+x,1/2+y,-z
1/2-x,y,z
x,1/2-y,z
loop_
_atom_site_type_symbol
_atom_site_label
_atom_site_fract_x
_atom_site_fract_y
_atom_site_fract_z
Si Si1 0.421484 0.929365 0.730839
Si Si2 0.576769 0.102112 0.669185
Si Si3 0.924821 0.250000 0.525205
Si Si4 0.926939 0.750000 0.664801
Si Si5 0.077160 0.750000 0.185492
Si Si6 0.072913 0.250000 0.002718
Si Si7 0.922808 0.071356 0.063987
O O1 0.250000 0.909865 0.705156
O O2 0.512977 0.838421 0.714514
O O3 0.438389 0.960419 0.833664
O O4 0.479958 0.010915 0.668789
O O5 0.750000 0.074242 0.667651
O O6 0.535507 0.160370 0.581718
O O7 0.541602 0.160955 0.757122
O O8 0.750000 0.250000 0.499202
O O9 0.026053 0.250000 0.438257
O O10 0.750000 0.750000 0.671827
O O11 0.250000 0.750000 0.154065
O O12 0.968430 0.750000 0.101384
O O13 0.250000 0.250000 0.012118
O O14 0.006303 0.165334 0.054115
O O15 0.750000 0.081957 0.035530
O O16 0.000000 0.000000 0.000000
#
# Coordination Sequence:
#
# PCOD8246117 Si02
#       7
#     8   8   4   4   4   4   8
#     4  11  24  41  61  86 118 156 195 241 295 347
#     4   9  19  37  63  91 118 152 193 237 291 350
#     4   9  20  41  65  91 122 152 187 236 289 346
#     4  12  26  42  63  88 116 155 200 243 290 347
#     4   9  18  35  59  87 120 156 195 244 295 344
#     4  12  24  36  55  84 118 159 202 245 296 351
#     4  11  24  41  61  87 119 157 201 247 296 349
#
# _framework density 20.331855999999998
#
# number of rings (size 3 to 8) (size 9 to 14) (size 15 to 20)
#    0.000    1.600    0.000    6.000    0.000   11.200 
#    0.000    2.000    0.000    0.000    0.000    0.000 
#    0.000    0.000    0.000    0.000    0.000    0.000 
#
# Total GULP energy -496189.573244 kJ/mol
# GULP energy per Si atom -12404.739331 kJ/mol
# Density = 2.028558 g / cm^3
# Si number density = 20.331856 Si / 1000 Ang^3
#
#
#
# Elastic Constant Matrix: (Units=GPa)
#
#
# Indices 1 2 3 4 5 6 
#
# 1 155.2340 69.6602 47.5265 0.0000 0.0000 0.0000
# 2 69.6602 145.3506 28.7248 0.0000 0.0000 0.0000
# 3 47.5265 28.7248 77.4501 0.0000 0.0000 0.0000
# 4 0.0000 0.0000 0.0000 19.0108 0.0000 0.0000
# 5 0.0000 0.0000 0.0000 0.0000 35.8686 0.0000
# 6 0.0000 0.0000 0.0000 0.0000 0.0000 37.4736
#
#
#
# Elastic Compliance Matrix: (Units=1/GPa)
#
#
# Indices 1 2 3 4 5 6 
#
# 1 0.009437 -0.003645 -0.004439 0.000000 0.000000 0.000000
# 2 -0.003645 0.008832 -0.001039 0.000000 0.000000 0.000000
# 3 -0.004439 -0.001039 0.016021 0.000000 0.000000 0.000000
# 4 0.000000 0.000000 0.000000 0.052602 0.000000 0.000000
# 5 0.000000 0.000000 0.000000 0.000000 0.027880 0.000000
# 6 0.000000 0.000000 0.000000 0.000000 0.000000 0.026685
#
#
# Mechanical properties :
#
#
# Convention : Reuss Voigt Hill
#
# Bulk Modulus (GPa) = 62.32947 74.42865 68.37906
# Shear Modulus (GPa) = 30.29387 33.94548 32.11967
#
# Velocity S-wave (km/s) = 3.86420 4.09047 3.97894
# Velocity P-wave (km/s) = 7.11562 7.68086 7.40364
#
# Compressibility (1/GPa) = 0.01604377
#
# Stress axis : x y z
#
# Youngs Moduli (GPa) = 105.96928 113.22097 62.41974
#
# Poissons Ratio (x) = 0.41274 0.27706
# Poissons Ratio (y) = 0.38630 0.06484
# Poissons Ratio (z) = 0.47037 0.11761
#
# Static dielectric constant tensor:
#      x y z
#    x 3.695550 0.000000 0.000000 
#    y 0.000000 3.711410 0.000000 
#    z 0.000000 0.000000 3.647630 
# 
# 
# High freq. dielectric constant tensor:
#      x y z
#    x 1.797300 0.000000 0.000000 
#    y 0.000000 1.805830 0.000000 
#    z 0.000000 0.000000 1.797590 
# 
# From -- ./inp_files/20050.got.cif
#   From: 2010.03.12/outbox.cif.g09.slc.cpg/sg59_11_cif.got.tgz:20050.got - 2010.04.16 16:29:54.
