data_PCOD8246304
_publ_section_title
;
Structure prediction by ZEFSAII (Michael W. Deem and Ramdas Pophale) SiO2 
 PCOD8246304
Probable space group: P B C N
;
_chemical_formula_sum "Si O2"
_cell_formula_units_Z 40
_cell_length_a 8.570740
_cell_length_b 13.414414
_cell_length_c 16.354311
_cell_angle_alpha 90.000000
_cell_angle_beta 90.000000
_cell_angle_gamma 90.000000
_cell_volume 1880.278925
_symmetry_space_group_name_H-M "P B C N"
_symmetry_group_IT_number 60
_symmetry_cell_setting 'orthorhombic'
loop_
_space_group_symop_operation_xyz
x,y,z
1/2-x,1/2-y,1/2+z
1/2+x,1/2-y,-z
-x,y,1/2-z
-x,-y,-z
1/2+x,1/2+y,1/2-z
1/2-x,1/2+y,z
x,-y,1/2+z
loop_
_atom_site_type_symbol
_atom_site_label
_atom_site_fract_x
_atom_site_fract_y
_atom_site_fract_z
Si Si1 0.240834 0.066880 0.132783
Si Si2 0.500000 0.507359 0.250000
Si Si3 0.635729 0.699493 0.503417
Si Si4 0.708771 0.398375 0.498871
Si Si5 0.247745 0.064305 0.864252
Si Si6 0.500000 0.003766 0.250000
O O1 0.231967 0.962672 0.082966
O O2 0.384898 0.072762 0.196063
O O3 0.084027 0.078549 0.185177
O O4 0.241298 0.159873 0.071786
O O5 0.379302 0.434147 0.293297
O O6 0.459896 0.656547 0.501366
O O7 0.648529 0.819125 0.501587
O O8 0.726556 0.664953 0.584901
O O9 0.724508 0.467858 0.577930
O O10 0.412886 0.064218 0.817400
#
# Coordination Sequence:
#
# PCOD8246304 Si02
#       6
#     8   4   8   8   8   4
#     4  10  21  42  63  85 124 158 200 241 307 350
#     4  10  16  40  66  78 116 166 196 234 298 372
#     4  11  23  40  65  89 117 162 204 246 292 358
#     4  11  23  40  65  89 117 162 204 246 292 358
#     4  10  21  42  63  85 124 158 200 241 307 350
#     4  10  24  36  66  94 116 162 192 258 294 348
#
# _framework density 21.273439
#
# number of rings (size 3 to 8) (size 9 to 14) (size 15 to 20)
#    0.000    1.600    4.000    1.200    5.600    1.600 
#    0.000   12.000    0.000    0.000    0.000    0.000 
#    0.000    0.000    0.000    0.000    0.000    0.000 
#
# Total GULP energy -495823.547995 kJ/mol
# GULP energy per Si atom -12395.588700 kJ/mol
# Density = 2.122502 g / cm^3
# Si number density = 21.273439 Si / 1000 Ang^3
#
#
#
# Elastic Constant Matrix: (Units=GPa)
#
#
# Indices 1 2 3 4 5 6 
#
# 1 87.3065 6.7344 24.9921 0.0000 0.0000 0.0000
# 2 6.7344 87.8083 17.4005 0.0000 0.0000 0.0000
# 3 24.9921 17.4005 97.8515 0.0000 0.0000 0.0000
# 4 0.0000 0.0000 0.0000 1.2008 0.0000 0.0000
# 5 0.0000 0.0000 0.0000 0.0000 27.9862 0.0000
# 6 0.0000 0.0000 0.0000 0.0000 0.0000 22.7382
#
#
#
# Elastic Compliance Matrix: (Units=1/GPa)
#
#
# Indices 1 2 3 4 5 6 
#
# 1 0.012367 -0.000334 -0.003099 0.000000 0.000000 0.000000
# 2 -0.000334 0.011813 -0.002015 0.000000 0.000000 0.000000
# 3 -0.003099 -0.002015 0.011370 0.000000 0.000000 0.000000
# 4 0.000000 0.000000 0.000000 0.832753 0.000000 0.000000
# 5 0.000000 0.000000 0.000000 0.000000 0.035732 0.000000
# 6 0.000000 0.000000 0.000000 0.000000 0.000000 0.043979
#
#
# Mechanical properties :
#
#
# Convention : Reuss Voigt Hill
#
# Bulk Modulus (GPa) = 40.56441 41.24671 40.90556
# Shear Modulus (GPa) = 5.16994 25.30765 15.23880
#
# Velocity S-wave (km/s) = 1.56061 3.45285 2.67934
# Velocity P-wave (km/s) = 4.72830 5.94367 5.37048
#
# Compressibility (1/GPa) = 0.02465215
#
# Stress axis : x y z
#
# Youngs Moduli (GPa) = 80.86137 84.64925 87.95461
#
# Poissons Ratio (x) = 0.02830 0.27258
# Poissons Ratio (y) = 0.02703 0.17726
# Poissons Ratio (z) = 0.25060 0.17060
#
# Static dielectric constant tensor:
#      x y z
#    x 4.025970 0.000000 0.000000 
#    y 0.000000 3.443050 0.000000 
#    z 0.000000 0.000000 4.216240 
# 
# 
# High freq. dielectric constant tensor:
#      x y z
#    x 1.845450 0.000000 0.000000 
#    y 0.000000 1.790810 0.000000 
#    z 0.000000 0.000000 1.859350 
# 
# From -- ./inp_files/19056.got.cif
#   From: 2010.03.12/outbox.cif.g09.slc.cpg/sg60_10_cif.got.tgz:19056.got - 2010.04.10 18:46:24.
