data_PCOD8246076
_publ_section_title
;
Structure prediction by ZEFSAII (Michael W. Deem and Ramdas Pophale) SiO2 
 PCOD8246076
Probable space group: P M M N
;
_chemical_formula_sum "Si O2"
_cell_formula_units_Z 32
_cell_length_a 14.937183
_cell_length_b 9.189557
_cell_length_c 12.191791
_cell_angle_alpha 90.000000
_cell_angle_beta 90.000000
_cell_angle_gamma 90.000000
_cell_volume 1673.519537
_symmetry_space_group_name_H-M "P M M N"
_symmetry_group_IT_number 59
_space_group.IT_coordinate_system_code '2'
_symmetry_cell_setting 'orthorhombic'
loop_
_space_group_symop_operation_xyz
x,y,z
1/2-x,1/2-y,z
1/2+x,-y,-z
-x,1/2+y,-z
-x,-y,-z
1/2+x,1/2+y,-z
1/2-x,y,z
x,1/2-y,z
loop_
_atom_site_type_symbol
_atom_site_label
_atom_site_fract_x
_atom_site_fract_y
_atom_site_fract_z
Si Si1 0.592130 0.917981 0.512323
Si Si2 0.750000 0.421599 0.888352
Si Si3 0.104552 0.416009 0.730490
Si Si4 0.396830 0.920587 0.280288
Si Si5 0.250000 0.922925 0.865626
O O1 0.575389 0.750000 0.541324
O O2 0.641377 0.932080 0.394647
O O3 0.500000 0.000000 0.500000
O O4 0.643385 0.994633 0.613409
O O5 0.750000 0.250000 0.897550
O O6 0.660750 0.472435 0.824207
O O7 0.750000 0.486454 0.010629
O O8 0.117662 0.250000 0.769740
O O9 0.160553 0.521341 0.807508
O O10 0.000362 0.460964 0.740539
O O11 0.385423 0.750000 0.303841
O O12 0.250000 0.750000 0.862180
#
# Coordination Sequence:
#
# PCOD8246076 Si02
#       5
#     8   4   8   8   4
#     4   9  17  31  53  81 110 137 169 210 259 315
#     4   9  20  38  55  76 106 137 176 223 266 307
#     4   9  19  35  54  77 108 141 168 208 266 314
#     4   9  18  35  58  80 106 139 170 210 266 317
#     4  11  23  36  53  76 102 139 186 225 254 301
#
# _framework density 19.121378
#
# number of rings (size 3 to 8) (size 9 to 14) (size 15 to 20)
#    0.000    2.750    0.000    2.625    0.000    7.000 
#    0.000    5.625    0.000    0.000    0.000    0.000 
#    0.000    0.000    0.000    0.000    0.000    0.000 
#
# Total GULP energy -396605.831762 kJ/mol
# GULP energy per Si atom -12393.932243 kJ/mol
# Density = 1.907786 g / cm^3
# Si number density = 19.121378 Si / 1000 Ang^3
#
#
#
# Elastic Constant Matrix: (Units=GPa)
#
#
# Indices 1 2 3 4 5 6 
#
# 1 97.0213 37.9139 69.2222 0.0000 0.0000 0.0000
# 2 37.9139 83.4228 67.2295 0.0000 0.0000 0.0000
# 3 69.2222 67.2295 172.1167 0.0000 0.0000 0.0000
# 4 0.0000 0.0000 0.0000 29.4757 0.0000 0.0000
# 5 0.0000 0.0000 0.0000 0.0000 31.6736 0.0000
# 6 0.0000 0.0000 0.0000 0.0000 0.0000 25.1584
#
#
#
# Elastic Compliance Matrix: (Units=1/GPa)
#
#
# Indices 1 2 3 4 5 6 
#
# 1 0.014900 -0.002835 -0.004885 0.000000 0.000000 0.000000
# 2 -0.002835 0.018033 -0.005904 0.000000 0.000000 0.000000
# 3 -0.004885 -0.005904 0.010081 0.000000 0.000000 0.000000
# 4 0.000000 0.000000 0.000000 0.033926 0.000000 0.000000
# 5 0.000000 0.000000 0.000000 0.000000 0.031572 0.000000
# 6 0.000000 0.000000 0.000000 0.000000 0.000000 0.039748
#
#
# Mechanical properties :
#
#
# Convention : Reuss Voigt Hill
#
# Bulk Modulus (GPa) = 63.42525 77.92132 70.67328
# Shear Modulus (GPa) = 27.66031 29.14123 28.40077
#
# Velocity S-wave (km/s) = 3.80750 3.90810 3.85813
# Velocity P-wave (km/s) = 7.25060 7.82328 7.54238
#
# Compressibility (1/GPa) = 0.01576659
#
# Stress axis : x y z
#
# Youngs Moduli (GPa) = 67.11230 55.45308 99.19806
#
# Poissons Ratio (x) = 0.15720 0.48462
# Poissons Ratio (y) = 0.19025 0.58564
# Poissons Ratio (z) = 0.32787 0.32738
#
# Static dielectric constant tensor:
#      x y z
#    x 3.343230 0.000000 0.000000 
#    y 0.000000 3.507280 0.000000 
#    z 0.000000 0.000000 -12.653420 
# 
# 
# High freq. dielectric constant tensor:
#      x y z
#    x 1.732070 0.000000 0.000000 
#    y 0.000000 1.732240 0.000000 
#    z 0.000000 0.000000 1.747540 
# 
# From -- ./inp_files/13661.got.cif
#   From: 2010.03.12/outbox.cif.g09.slc.cpg/sg59_7_cif.got.tgz:13661.got - 2010.04.16 16:29:54.
