data_PCOD8246240
_publ_section_title
;
Structure prediction by ZEFSAII (Michael W. Deem and Ramdas Pophale) SiO2 
 PCOD8246240
Probable space group: P M M N
;
_chemical_formula_sum "Si O2"
_cell_formula_units_Z 56
_cell_length_a 23.984894
_cell_length_b 9.615765
_cell_length_c 14.202438
_cell_angle_alpha 90.000000
_cell_angle_beta 90.000000
_cell_angle_gamma 90.000000
_cell_volume 3275.552364
_symmetry_space_group_name_H-M "P M M N"
_symmetry_group_IT_number 59
_space_group.IT_coordinate_system_code '2'
_symmetry_cell_setting 'orthorhombic'
loop_
_space_group_symop_operation_xyz
x,y,z
1/2-x,1/2-y,z
1/2+x,-y,-z
-x,1/2+y,-z
-x,-y,-z
1/2+x,1/2+y,-z
1/2-x,y,z
x,1/2-y,z
loop_
_atom_site_type_symbol
_atom_site_label
_atom_site_fract_x
_atom_site_fract_y
_atom_site_fract_z
Si Si1 0.592279 0.088529 0.329558
Si Si2 0.030362 0.410571 0.305062
Si Si3 0.366504 0.411168 0.183567
Si Si4 0.313886 0.090591 0.990703
Si Si5 0.687925 0.093561 0.666746
Si Si6 0.186304 0.913356 0.808697
Si Si7 0.586341 0.087767 0.539829
O O1 0.604923 0.250000 0.342412
O O2 0.533774 0.061814 0.274933
O O3 0.644094 0.026133 0.270508
O O4 0.587366 0.025091 0.434413
O O5 0.038754 0.250000 0.334199
O O6 0.070410 0.449511 0.216838
O O7 0.042785 0.502434 0.397043
O O8 0.353706 0.250000 0.199404
O O9 0.322411 0.493382 0.245887
O O10 0.356181 0.450603 0.074868
O O11 0.250000 0.067915 0.023847
O O12 0.323154 0.250000 0.959475
O O13 0.328833 0.991193 0.904635
O O14 0.750000 0.070453 0.628292
O O15 0.678617 0.250000 0.703953
O O16 0.648007 0.061643 0.579515
O O17 0.250000 0.944509 0.777409
O O18 0.176922 0.750000 0.826164
O O19 0.568944 0.250000 0.542283
#
# Coordination Sequence:
#
# PCOD8246240 Si02
#       7
#     8   8   8   8   8   8   8
#     4   9  17  30  48  67  88 117 149 182 221 260
#     4   9  17  30  47  67  91 117 147 182 218 259
#     4   9  17  29  46  66  88 117 149 179 216 265
#     4   9  17  30  47  65  86 113 144 179 220 263
#     4   9  17  27  40  63  93 119 144 179 221 260
#     4   9  18  32  49  68  88 113 149 187 219 258
#     4   9  17  29  45  65  90 119 150 182 216 258
#
# _framework density 17.096353000000001
#
# number of rings (size 3 to 8) (size 9 to 14) (size 15 to 20)
#    0.000    3.000    0.000    0.857    0.000    2.000 
#    0.000    6.429    0.000    0.000    0.000    2.000 
#    0.000    0.000    0.000    0.000    0.000    0.000 
#
# Total GULP energy -694176.793720 kJ/mol
# GULP energy per Si atom -12396.014174 kJ/mol
# Density = 1.705744 g / cm^3
# Si number density = 17.096353 Si / 1000 Ang^3
#
#
#
# Elastic Constant Matrix: (Units=GPa)
#
#
# Indices 1 2 3 4 5 6 
#
# 1 111.0219 31.6985 65.4802 0.0000 0.0000 0.0000
# 2 31.6985 38.9185 36.8135 0.0000 0.0000 0.0000
# 3 65.4802 36.8135 110.7113 0.0000 0.0000 0.0000
# 4 0.0000 0.0000 0.0000 21.2175 0.0000 0.0000
# 5 0.0000 0.0000 0.0000 0.0000 22.6530 0.0000
# 6 0.0000 0.0000 0.0000 0.0000 0.0000 16.8875
#
#
#
# Elastic Compliance Matrix: (Units=1/GPa)
#
#
# Indices 1 2 3 4 5 6 
#
# 1 0.014577 -0.005423 -0.006818 0.000000 0.000000 0.000000
# 2 -0.005423 0.039503 -0.009928 0.000000 0.000000 0.000000
# 3 -0.006818 -0.009928 0.016366 0.000000 0.000000 0.000000
# 4 0.000000 0.000000 0.000000 0.047131 0.000000 0.000000
# 5 0.000000 0.000000 0.000000 0.000000 0.044144 0.000000
# 6 0.000000 0.000000 0.000000 0.000000 0.000000 0.059215
#
#
# Mechanical properties :
#
#
# Convention : Reuss Voigt Hill
#
# Bulk Modulus (GPa) = 38.30323 58.73736 48.52030
# Shear Modulus (GPa) = 18.24967 20.59559 19.42263
#
# Velocity S-wave (km/s) = 3.27075 3.47461 3.37422
# Velocity P-wave (km/s) = 6.05943 7.10834 6.60474
#
# Compressibility (1/GPa) = 0.02610746
#
# Stress axis : x y z
#
# Youngs Moduli (GPa) = 68.60104 25.31469 61.10117
#
# Poissons Ratio (x) = 0.13729 0.41660
# Poissons Ratio (y) = 0.37205 0.60660
# Poissons Ratio (z) = 0.46774 0.25132
#
# Static dielectric constant tensor:
#      x y z
#    x 3.346030 0.000000 0.000000 
#    y 0.000000 3.104850 0.000000 
#    z 0.000000 0.000000 3.160650 
# 
# 
# High freq. dielectric constant tensor:
#      x y z
#    x 1.663290 0.000000 0.000000 
#    y 0.000000 1.644020 0.000000 
#    z 0.000000 0.000000 1.645300 
# 
# From -- ./inp_files/18701.got.cif
#   From: 2010.03.12/outbox.cif.g09.slc.cpg/sg59_10_cif.got.tgz:18701.got - 2010.04.16 16:29:54.
