data_PCOD8246057
_publ_section_title
;
Structure prediction by ZEFSAII (Michael W. Deem and Ramdas Pophale) SiO2 
 PCOD8246057
Probable space group: P M M N
;
_chemical_formula_sum "Si O2"
_cell_formula_units_Z 32
_cell_length_a 8.273504
_cell_length_b 17.769405
_cell_length_c 10.277620
_cell_angle_alpha 90.000000
_cell_angle_beta 90.000000
_cell_angle_gamma 90.000000
_cell_volume 1510.966805
_symmetry_space_group_name_H-M "P M M N"
_symmetry_group_IT_number 59
_space_group.IT_coordinate_system_code '2'
_symmetry_cell_setting 'orthorhombic'
loop_
_space_group_symop_operation_xyz
x,y,z
1/2-x,1/2-y,z
1/2+x,-y,-z
-x,1/2+y,-z
-x,-y,-z
1/2+x,1/2+y,-z
1/2-x,y,z
x,1/2-y,z
loop_
_atom_site_type_symbol
_atom_site_label
_atom_site_fract_x
_atom_site_fract_y
_atom_site_fract_z
Si Si1 0.437019 0.086311 0.269317
Si Si2 0.442043 0.165550 0.007791
Si Si3 0.936773 0.923128 0.243346
Si Si4 0.935745 0.163982 0.519505
O O1 0.250000 0.106290 0.292031
O O2 0.540800 0.118493 0.387044
O O3 0.456692 0.997035 0.262399
O O4 0.503549 0.123690 0.137073
O O5 0.250000 0.168400 0.004378
O O6 0.513676 0.250000 0.005053
O O7 0.505818 0.120342 0.882548
O O8 0.750000 0.945635 0.225230
O O9 0.952616 0.869767 0.368038
O O10 0.750000 0.157274 0.562552
O O11 0.987772 0.250000 0.496405
#
# Coordination Sequence:
#
# PCOD8246057 Si02
#       4
#     8   8   8   8
#     4  11  22  38  61  87 118 154 193 237 286 342
#     4   9  19  36  59  87 116 149 192 239 286 340
#     4  11  22  38  61  87 118 154 193 237 286 342
#     4  11  24  41  60  85 117 151 192 241 290 343
#
# _framework density 21.178494000000001
#
# number of rings (size 3 to 8) (size 9 to 14) (size 15 to 20)
#    0.000    1.500    0.000    5.250    0.000    4.000 
#    0.000    3.750    0.000    9.000    0.000    0.000 
#    0.000    0.000    0.000    0.000    0.000    0.000 
#
# Total GULP energy -397034.214487 kJ/mol
# GULP energy per Si atom -12407.319203 kJ/mol
# Density = 2.113029 g / cm^3
# Si number density = 21.178494 Si / 1000 Ang^3
#
#
#
# Elastic Constant Matrix: (Units=GPa)
#
#
# Indices 1 2 3 4 5 6 
#
# 1 33.9814 17.8093 10.2713 0.0000 0.0000 0.0000
# 2 17.8093 116.3065 41.3198 0.0000 0.0000 0.0000
# 3 10.2713 41.3198 151.1876 0.0000 0.0000 0.0000
# 4 0.0000 0.0000 0.0000 69.7305 0.0000 0.0000
# 5 0.0000 0.0000 0.0000 0.0000 -2.1202 0.0000
# 6 0.0000 0.0000 0.0000 0.0000 0.0000 4.8793
#
#
#
# Elastic Compliance Matrix: (Units=1/GPa)
#
#
# Indices 1 2 3 4 5 6 
#
# 1 0.032113 -0.004588 -0.000928 0.000000 0.000000 0.000000
# 2 -0.004588 0.010178 -0.002470 0.000000 0.000000 0.000000
# 3 -0.000928 -0.002470 0.007352 0.000000 0.000000 0.000000
# 4 0.000000 0.000000 0.000000 0.014341 0.000000 0.000000
# 5 0.000000 0.000000 0.000000 0.000000 -0.471656 0.000000
# 6 0.000000 0.000000 0.000000 0.000000 0.000000 0.204948
#
#
# Mechanical properties :
#
#
# Convention : Reuss Voigt Hill
#
# Bulk Modulus (GPa) = 29.69815 48.91960 39.30887
# Shear Modulus (GPa) = -28.48542 29.96958 0.74208
#
# Velocity S-wave (km/s) = -3.67143 3.76586 0.59258
# Velocity P-wave (km/s) = 1.97971 6.48519 4.36683
#
# Compressibility (1/GPa) = 0.03367213
#
# Stress axis : x y z
#
# Youngs Moduli (GPa) = 31.14037 98.25169 136.01029
#
# Poissons Ratio (x) = 0.45074 0.12620
# Poissons Ratio (y) = 0.14286 0.33594
# Poissons Ratio (z) = 0.02889 0.24268
#
# Static dielectric constant tensor:
#      x y z
#    x 3.417000 0.000000 0.000000 
#    y 0.000000 3.966360 0.000000 
#    z 0.000000 0.000000 3.939100 
# 
# 
# High freq. dielectric constant tensor:
#      x y z
#    x 1.808900 0.000000 0.000000 
#    y 0.000000 1.845120 0.000000 
#    z 0.000000 0.000000 1.844660 
# 
# From -- ./inp_files/13610.got.cif
#   From: 2010.03.12/outbox.cif.g09.slc.cpg/sg59_7_cif.got.tgz:13610.got - 2010.04.16 16:29:54.
