data_PCOD8246429
_publ_section_title
;
Structure prediction by ZEFSAII (Michael W. Deem and Ramdas Pophale) SiO2 
 PCOD8246429
Probable space group: P B C N
;
_chemical_formula_sum "Si O2"
_cell_formula_units_Z 56
_cell_length_a 21.069245
_cell_length_b 12.219144
_cell_length_c 10.788562
_cell_angle_alpha 90.000000
_cell_angle_beta 90.000000
_cell_angle_gamma 90.000000
_cell_volume 2777.495205
_symmetry_space_group_name_H-M "P B C N"
_symmetry_group_IT_number 60
_symmetry_cell_setting 'orthorhombic'
loop_
_space_group_symop_operation_xyz
x,y,z
1/2-x,1/2-y,1/2+z
1/2+x,1/2-y,-z
-x,y,1/2-z
-x,-y,-z
1/2+x,1/2+y,1/2-z
1/2-x,1/2+y,z
x,-y,1/2+z
loop_
_atom_site_type_symbol
_atom_site_label
_atom_site_fract_x
_atom_site_fract_y
_atom_site_fract_z
Si Si1 0.369932 0.689175 0.030592
Si Si2 0.791573 0.300826 0.283555
Si Si3 0.829273 0.282736 0.896114
Si Si4 0.569044 0.277429 0.221769
Si Si5 0.672159 0.623793 0.101912
Si Si6 0.753522 0.425917 0.056168
Si Si7 0.927919 0.027265 0.271835
O O1 0.352021 0.793001 0.120873
O O2 0.399111 0.586916 0.107373
O O3 0.420510 0.724520 0.926385
O O4 0.306089 0.655987 0.957476
O O5 0.725360 0.300961 0.354139
O O6 0.793193 0.184669 0.213665
O O7 0.790021 0.402698 0.187329
O O8 0.880799 0.302778 0.789219
O O9 0.858130 0.214165 0.011000
O O10 0.802437 0.400176 0.943601
O O11 0.500000 0.228697 0.250000
O O12 0.575050 0.396528 0.286886
O O13 0.728243 0.548707 0.044155
O O14 0.613438 0.551730 0.149744
O O15 0.000000 0.067377 0.250000
#
# Coordination Sequence:
#
# PCOD8246429 Si02
#       7
#     8   8   8   8   8   8   8
#     4  10  19  33  48  71 107 142 179 217 259 311
#     4   9  19  33  52  74 106 140 173 226 268 312
#     4  10  20  33  52  77 110 138 179 224 259 317
#     4  11  22  32  51  74 108 149 182 214 266 325
#     4  10  19  33  54  78 109 147 173 216 269 321
#     4  10  18  34  54  74 105 138 178 222 274 312
#     4  10  21  31  48  74 111 150 182 205 247 334
#
# _framework density 20.162051999999999
#
# number of rings (size 3 to 8) (size 9 to 14) (size 15 to 20)
#    0.000    2.000    2.857    0.857    2.000    3.429 
#    0.000    0.000    0.000    0.000    0.000    1.000 
#    0.000    2.000    0.000    0.000    0.000    0.000 
#
# Total GULP energy -693978.824570 kJ/mol
# GULP energy per Si atom -12392.479010 kJ/mol
# Density = 2.011616 g / cm^3
# Si number density = 20.162052 Si / 1000 Ang^3
#
#
#
# Elastic Constant Matrix: (Units=GPa)
#
#
# Indices 1 2 3 4 5 6 
#
# 1 96.2061 21.4486 41.4912 0.0000 0.0000 0.0000
# 2 21.4486 31.7612 11.6233 0.0000 0.0000 0.0000
# 3 41.4912 11.6233 102.3010 0.0000 0.0000 0.0000
# 4 0.0000 0.0000 0.0000 16.8269 0.0000 0.0000
# 5 0.0000 0.0000 0.0000 0.0000 32.5169 0.0000
# 6 0.0000 0.0000 0.0000 0.0000 0.0000 22.4784
#
#
#
# Elastic Compliance Matrix: (Units=1/GPa)
#
#
# Indices 1 2 3 4 5 6 
#
# 1 0.014249 -0.007833 -0.004889 0.000000 0.000000 0.000000
# 2 -0.007833 0.037157 -0.001045 0.000000 0.000000 0.000000
# 3 -0.004889 -0.001045 0.011877 0.000000 0.000000 0.000000
# 4 0.000000 0.000000 0.000000 0.059429 0.000000 0.000000
# 5 0.000000 0.000000 0.000000 0.000000 0.030753 0.000000
# 6 0.000000 0.000000 0.000000 0.000000 0.000000 0.044487
#
#
# Mechanical properties :
#
#
# Convention : Reuss Voigt Hill
#
# Bulk Modulus (GPa) = 27.97306 42.15494 35.06400
# Shear Modulus (GPa) = 21.06119 24.74478 22.90298
#
# Velocity S-wave (km/s) = 3.23553 3.50708 3.37403
# Velocity P-wave (km/s) = 5.27849 6.11170 5.71031
#
# Compressibility (1/GPa) = 0.03574868
#
# Stress axis : x y z
#
# Youngs Moduli (GPa) = 70.17855 26.91261 84.19819
#
# Poissons Ratio (x) = 0.21082 0.41166
# Poissons Ratio (y) = 0.54974 0.08796
# Poissons Ratio (z) = 0.34312 0.02812
#
# Static dielectric constant tensor:
#      x y z
#    x 3.653730 0.000000 0.000000 
#    y 0.000000 3.219500 0.000000 
#    z 0.000000 0.000000 3.888930 
# 
# 
# High freq. dielectric constant tensor:
#      x y z
#    x 1.765550 0.000000 0.000000 
#    y 0.000000 1.738420 0.000000 
#    z 0.000000 0.000000 1.807790 
# 
# From -- ./inp_files/12815.got.cif
#   From: 2010.03.12/outbox.cif.g09.slc.cpg/sg60_7_cif.got.tgz:12815.got - 2010.04.10 18:46:24.
