data_PCOD8246290
_publ_section_title
;
Structure prediction by ZEFSAII (Michael W. Deem and Ramdas Pophale) SiO2 
 PCOD8246290
Probable space group: P B C N
;
_chemical_formula_sum "Si O2"
_cell_formula_units_Z 56
_cell_length_a 5.195707
_cell_length_b 38.132020
_cell_length_c 14.889372
_cell_angle_alpha 90.000000
_cell_angle_beta 90.000000
_cell_angle_gamma 90.000000
_cell_volume 2949.924119
_symmetry_space_group_name_H-M "P B C N"
_symmetry_group_IT_number 60
_symmetry_cell_setting 'orthorhombic'
loop_
_space_group_symop_operation_xyz
x,y,z
1/2-x,1/2-y,1/2+z
1/2+x,1/2-y,-z
-x,y,1/2-z
-x,-y,-z
1/2+x,1/2+y,1/2-z
1/2-x,1/2+y,z
x,-y,1/2+z
loop_
_atom_site_type_symbol
_atom_site_label
_atom_site_fract_x
_atom_site_fract_y
_atom_site_fract_z
Si Si1 0.491214 0.097340 0.538520
Si Si2 0.529848 0.304042 0.647161
Si Si3 0.497421 0.029121 0.077669
Si Si4 0.061678 0.739481 0.547427
Si Si5 0.970112 0.672967 0.456512
Si Si6 0.497044 0.500598 0.392654
Si Si7 0.011187 0.079809 0.851932
O O1 0.508440 0.067632 0.463104
O O2 0.493718 0.133474 0.486109
O O3 0.229858 0.094596 0.594059
O O4 0.729540 0.094753 0.605612
O O5 0.500000 0.314977 0.750000
O O6 0.501096 0.261372 0.638107
O O7 0.810205 0.316427 0.614746
O O8 0.309919 0.322835 0.588081
O O9 0.749187 0.022926 0.139250
O O10 0.248742 0.021884 0.140201
O O11 0.500000 0.000000 0.000000
O O12 0.364900 0.743962 0.526554
O O13 0.996166 0.697882 0.545864
O O14 0.500000 0.500000 0.500000
O O15 0.490163 0.462159 0.351595
O O16 0.000000 0.093278 0.750000
#
# Coordination Sequence:
#
# PCOD8246290 Si02
#       7
#     8   8   8   8   8   8   8
#     4  12  21  36  56  81 108 154 185 223 281 338
#     4  10  19  36  60  86 111 146 186 235 279 313
#     4  10  16  30  55  77  93 129 192 220 245 321
#     4   8  16  32  54  80 111 138 182 216 253 329
#     4  10  21  35  57  87 113 151 189 224 268 346
#     4  10  16  32  53  75  95 128 181 231 254 319
#     4  12  23  35  53  80 109 140 184 241 286 325
#
# _framework density 18.983540999999999
#
# number of rings (size 3 to 8) (size 9 to 14) (size 15 to 20)
#    0.000    1.714    5.714    1.714    0.000    0.000 
#    0.000    1.429    0.000    5.143    0.000    0.000 
#    0.000    0.000    0.000    0.000    0.000    0.000 
#
# Total GULP energy -693897.408156 kJ/mol
# GULP energy per Si atom -12391.025146 kJ/mol
# Density = 1.894033 g / cm^3
# Si number density = 18.983541 Si / 1000 Ang^3
#
#
#
# Elastic Constant Matrix: (Units=GPa)
#
#
# Indices 1 2 3 4 5 6 
#
# 1 143.7864 13.8942 12.6730 0.0000 0.0000 0.0000
# 2 13.8942 129.7435 24.6247 0.0000 0.0000 0.0000
# 3 12.6730 24.6247 48.7464 0.0000 0.0000 0.0000
# 4 0.0000 0.0000 0.0000 8.2962 0.0000 0.0000
# 5 0.0000 0.0000 0.0000 0.0000 -2.3721 0.0000
# 6 0.0000 0.0000 0.0000 0.0000 0.0000 35.0010
#
#
#
# Elastic Compliance Matrix: (Units=1/GPa)
#
#
# Indices 1 2 3 4 5 6 
#
# 1 0.007142 -0.000456 -0.001626 0.000000 0.000000 0.000000
# 2 -0.000456 0.008554 -0.004203 0.000000 0.000000 0.000000
# 3 -0.001626 -0.004203 0.023060 0.000000 0.000000 0.000000
# 4 0.000000 0.000000 0.000000 0.120538 0.000000 0.000000
# 5 0.000000 0.000000 0.000000 0.000000 -0.421562 0.000000
# 6 0.000000 0.000000 0.000000 0.000000 0.000000 0.028571
#
#
# Mechanical properties :
#
#
# Convention : Reuss Voigt Hill
#
# Bulk Modulus (GPa) = 38.18818 47.18447 42.68633
# Shear Modulus (GPa) = -23.54062 26.25730 1.35834
#
# Velocity S-wave (km/s) = -3.52526 3.72312 0.84681
# Velocity P-wave (km/s) = 1.89478 6.58723 4.84674
#
# Compressibility (1/GPa) = 0.02618611
#
# Stress axis : x y z
#
# Youngs Moduli (GPa) = 140.01314 116.90454 43.36496
#
# Poissons Ratio (x) = 0.05333 0.07053
# Poissons Ratio (y) = 0.06387 0.18224
# Poissons Ratio (z) = 0.22771 0.49130
#
# Static dielectric constant tensor:
#      x y z
#    x 2.200520 0.000000 0.000000 
#    y 0.000000 3.410480 0.000000 
#    z 0.000000 0.000000 3.038440 
# 
# 
# High freq. dielectric constant tensor:
#      x y z
#    x 1.776670 0.000000 0.000000 
#    y 0.000000 1.724700 0.000000 
#    z 0.000000 0.000000 1.691810 
# 
# From -- ./inp_files/14090.got.cif
#   From: 2010.03.12/outbox.cif.g09.slc.cpg/sg60_8_cif.got.tgz:14090.got - 2010.04.10 18:46:24.
