data_PCOD8246532
_publ_section_title
;
Structure prediction by ZEFSAII (Michael W. Deem and Ramdas Pophale) SiO2 
 PCOD8246532
Probable space group: P B C N
;
_chemical_formula_sum "Si O2"
_cell_formula_units_Z 64
_cell_length_a 21.171884
_cell_length_b 17.878417
_cell_length_c 8.145274
_cell_angle_alpha 90.000000
_cell_angle_beta 90.000000
_cell_angle_gamma 90.000000
_cell_volume 3083.147248
_symmetry_space_group_name_H-M "P B C N"
_symmetry_group_IT_number 60
_symmetry_cell_setting 'orthorhombic'
loop_
_space_group_symop_operation_xyz
x,y,z
1/2-x,1/2-y,1/2+z
1/2+x,1/2-y,-z
-x,y,1/2-z
-x,-y,-z
1/2+x,1/2+y,1/2-z
1/2-x,1/2+y,z
x,-y,1/2+z
loop_
_atom_site_type_symbol
_atom_site_label
_atom_site_fract_x
_atom_site_fract_y
_atom_site_fract_z
Si Si1 0.257692 0.031638 0.559087
Si Si2 0.938905 0.961083 0.145455
Si Si3 0.306718 0.585407 0.867698
Si Si4 0.205542 0.329923 0.861317
Si Si5 0.934720 0.112075 0.299002
Si Si6 0.872919 0.427911 0.843606
Si Si7 0.187348 0.792379 0.615949
Si Si8 0.046070 0.539654 0.876941
O O1 0.242098 0.078714 0.720277
O O2 0.272279 0.087631 0.411458
O O3 0.198101 0.982963 0.497898
O O4 0.315095 0.977348 0.594521
O O5 0.878164 0.911467 0.201101
O O6 0.000000 0.937051 0.250000
O O7 0.919911 0.049194 0.160929
O O8 0.950504 0.940062 0.956304
O O9 0.286157 0.658684 0.966161
O O10 0.147977 0.348339 0.736094
O O11 0.262705 0.287988 0.765616
O O12 0.180514 0.287899 0.025397
O O13 0.879283 0.173053 0.320883
O O14 0.000000 0.154920 0.250000
O O15 0.913686 0.476196 0.716339
O O16 0.910495 0.406208 0.011807
O O17 0.000000 0.584619 0.750000
O O18 0.000000 0.500000 0.000000
#
# Coordination Sequence:
#
# PCOD8246532 Si02
#       8
#     8   8   8   8   8   8   8   8
#     4  12  20  35  63  94 122 160 208 273 319 379
#     4  10  19  31  55  93 122 163 205 261 305 355
#     4  11  20  35  57  92 127 161 213 261 320 376
#     4  12  24  41  61  90 133 169 217 261 328 403
#     4  10  20  37  62  90 128 163 214 258 313 373
#     4  11  19  36  63  95 121 160 207 265 331 379
#     4  11  25  42  59  91 130 177 210 260 331 399
#     4   9  19  35  61  96 127 153 194 270 338 370
#
# _framework density 20.758009999999999
#
# number of rings (size 3 to 8) (size 9 to 14) (size 15 to 20)
#    0.000    1.250    3.750    4.500    0.000    1.000 
#    0.000    0.000    2.750   10.500    0.000    0.000 
#    0.000    0.000    0.000    0.000    0.000    0.000 
#
# Total GULP energy -792929.822764 kJ/mol
# GULP energy per Si atom -12389.528481 kJ/mol
# Density = 2.071076 g / cm^3
# Si number density = 20.758010 Si / 1000 Ang^3
#
#
#
# Elastic Constant Matrix: (Units=GPa)
#
#
# Indices 1 2 3 4 5 6 
#
# 1 112.9506 26.3176 53.2627 0.0000 0.0000 0.0000
# 2 26.3176 56.1762 17.8100 0.0000 0.0000 0.0000
# 3 53.2627 17.8100 88.2667 0.0000 0.0000 0.0000
# 4 0.0000 0.0000 0.0000 43.1088 0.0000 0.0000
# 5 0.0000 0.0000 0.0000 0.0000 52.3033 0.0000
# 6 0.0000 0.0000 0.0000 0.0000 0.0000 18.6640
#
#
#
# Elastic Compliance Matrix: (Units=1/GPa)
#
#
# Indices 1 2 3 4 5 6 
#
# 1 0.013123 -0.003886 -0.007135 0.000000 0.000000 0.000000
# 2 -0.003886 0.020168 -0.001725 0.000000 0.000000 0.000000
# 3 -0.007135 -0.001725 0.015983 0.000000 0.000000 0.000000
# 4 0.000000 0.000000 0.000000 0.023197 0.000000 0.000000
# 5 0.000000 0.000000 0.000000 0.000000 0.019119 0.000000
# 6 0.000000 0.000000 0.000000 0.000000 0.000000 0.053579
#
#
# Mechanical properties :
#
#
# Convention : Reuss Voigt Hill
#
# Bulk Modulus (GPa) = 42.04595 50.24157 46.14376
# Shear Modulus (GPa) = 27.99730 33.48212 30.73971
#
# Velocity S-wave (km/s) = 3.67651 4.02054 3.85237
# Velocity P-wave (km/s) = 6.19044 6.76823 6.48578
#
# Compressibility (1/GPa) = 0.02378350
#
# Stress axis : x y z
#
# Youngs Moduli (GPa) = 76.19969 49.58251 62.56769
#
# Poissons Ratio (x) = 0.19268 0.44642
# Poissons Ratio (y) = 0.29612 0.10790
# Poissons Ratio (z) = 0.54368 0.08551
#
# Static dielectric constant tensor:
#      x y z
#    x 2.414100 0.000000 0.000000 
#    y 0.000000 3.316480 0.000000 
#    z 0.000000 0.000000 4.297060 
# 
# 
# High freq. dielectric constant tensor:
#      x y z
#    x 1.825620 0.000000 0.000000 
#    y 0.000000 1.757630 0.000000 
#    z 0.000000 0.000000 1.835060 
# 
# From -- ./inp_files/7580.got.cif
#   From: 2010.03.12/outbox.cif.g09.slc.cpg/sg60_4_cif.got.tgz:7580.got - 2010.04.10 18:46:24.
