data_PCOD8246603
_publ_section_title
;
Structure prediction by ZEFSAII (Michael W. Deem and Ramdas Pophale) SiO2 
 PCOD8246603
Probable space group: P B C N
;
_chemical_formula_sum "Si O2"
_cell_formula_units_Z 52
_cell_length_a 25.204550
_cell_length_b 5.219667
_cell_length_c 16.923029
_cell_angle_alpha 90.000000
_cell_angle_beta 90.000000
_cell_angle_gamma 90.000000
_cell_volume 2226.382829
_symmetry_space_group_name_H-M "P B C N"
_symmetry_group_IT_number 60
_symmetry_cell_setting 'orthorhombic'
loop_
_space_group_symop_operation_xyz
x,y,z
1/2-x,1/2-y,1/2+z
1/2+x,1/2-y,-z
-x,y,1/2-z
-x,-y,-z
1/2+x,1/2+y,1/2-z
1/2-x,1/2+y,z
x,-y,1/2+z
loop_
_atom_site_type_symbol
_atom_site_label
_atom_site_fract_x
_atom_site_fract_y
_atom_site_fract_z
Si Si1 0.516833 0.349947 0.122386
Si Si2 0.049107 0.224639 0.045068
Si Si3 0.605820 0.208106 0.494703
Si Si4 0.723224 0.279247 0.499271
Si Si5 0.000000 0.536053 0.750000
Si Si6 0.097778 0.798456 0.827667
Si Si7 0.280128 0.704474 0.313164
O O1 0.487170 0.634530 0.120239
O O2 0.486561 0.149435 0.176353
O O3 0.576943 0.410285 0.152529
O O4 0.511899 0.240528 0.033075
O O5 0.089171 0.994213 0.026753
O O6 0.078595 0.491258 0.059793
O O7 0.666427 0.191021 0.469956
O O8 0.597450 0.144304 0.588408
O O9 0.762666 0.060250 0.466108
O O10 0.724928 0.296204 0.593349
O O11 0.054927 0.688108 0.765420
O O12 0.156889 0.805519 0.790355
O O13 0.251157 0.957466 0.278231
#
# Coordination Sequence:
#
# PCOD8246603 Si02
#       7
#     8   8   8   8   4   8   8
#     4  10  23  36  56  83 120 155 200 235 296 353
#     4  10  21  36  57  80 116 160 193 234 283 370
#     4  10  19  34  55  81 114 156 193 235 294 352
#     4   9  16  27  47  78 111 140 183 242 296 340
#     4  12  22  38  56  86 122 164 192 252 302 362
#     4  10  22  35  57  84 122 154 193 246 300 352
#     4   9  19  33  54  80 111 149 191 237 295 353
#
# _framework density 23.356269999999999
#
# number of rings (size 3 to 8) (size 9 to 14) (size 15 to 20)
#    0.000    2.154    1.538    1.385    4.308    5.538 
#    0.000    0.000    0.000    0.000    0.000    6.462 
#    0.000    2.462    0.000    0.000    0.000    0.000 
#
# Total GULP energy -644402.902999 kJ/mol
# GULP energy per Si atom -12392.363519 kJ/mol
# Density = 2.330311 g / cm^3
# Si number density = 23.356270 Si / 1000 Ang^3
#
#
#
# Elastic Constant Matrix: (Units=GPa)
#
#
# Indices 1 2 3 4 5 6 
#
# 1 166.3096 52.2305 24.0637 0.0000 0.0000 0.0000
# 2 52.2305 120.1808 11.1328 0.0000 0.0000 0.0000
# 3 24.0637 11.1328 27.2895 0.0000 0.0000 0.0000
# 4 0.0000 0.0000 0.0000 22.0007 0.0000 0.0000
# 5 0.0000 0.0000 0.0000 0.0000 21.5966 0.0000
# 6 0.0000 0.0000 0.0000 0.0000 0.0000 38.3169
#
#
#
# Elastic Compliance Matrix: (Units=1/GPa)
#
#
# Indices 1 2 3 4 5 6 
#
# 1 0.007720 -0.002832 -0.005652 0.000000 0.000000 0.000000
# 2 -0.002832 0.009686 -0.001455 0.000000 0.000000 0.000000
# 3 -0.005652 -0.001455 0.042222 0.000000 0.000000 0.000000
# 4 0.000000 0.000000 0.000000 0.045453 0.000000 0.000000
# 5 0.000000 0.000000 0.000000 0.000000 0.046304 0.000000
# 6 0.000000 0.000000 0.000000 0.000000 0.000000 0.026098
#
#
# Mechanical properties :
#
#
# Convention : Reuss Voigt Hill
#
# Bulk Modulus (GPa) = 25.15669 54.29265 39.72467
# Shear Modulus (GPa) = 23.74057 31.47303 27.60680
#
# Velocity S-wave (km/s) = 3.19165 3.67484 3.44173
# Velocity P-wave (km/s) = 4.93724 6.42665 5.73054
#
# Compressibility (1/GPa) = 0.03975086
#
# Stress axis : x y z
#
# Youngs Moduli (GPa) = 129.53406 103.24058 23.68450
#
# Poissons Ratio (x) = 0.29233 0.13387
# Poissons Ratio (y) = 0.36678 0.03445
# Poissons Ratio (z) = 0.73217 0.15018
#
# Static dielectric constant tensor:
#      x y z
#    x 4.387050 0.000000 0.000000 
#    y 0.000000 4.368690 0.000000 
#    z 0.000000 0.000000 3.792920 
# 
# 
# High freq. dielectric constant tensor:
#      x y z
#    x 1.924290 0.000000 0.000000 
#    y 0.000000 1.941060 0.000000 
#    z 0.000000 0.000000 1.865330 
# 
# From -- ./inp_files/21197.got.cif
#   From: 2010.03.12/outbox.cif.g09.slc.cpg/sg60_11_cif.got.tgz:21197.got - 2010.04.10 18:46:24.
