data_PCOD8246087
_publ_section_title
;
Structure prediction by ZEFSAII (Michael W. Deem and Ramdas Pophale) SiO2 
 PCOD8246087
Probable space group: P M M N
;
_chemical_formula_sum "Si O2"
_cell_formula_units_Z 64
_cell_length_a 18.065182
_cell_length_b 8.598259
_cell_length_c 21.495110
_cell_angle_alpha 90.000000
_cell_angle_beta 90.000000
_cell_angle_gamma 90.000000
_cell_volume 3338.816386
_symmetry_space_group_name_H-M "P M M N"
_symmetry_group_IT_number 59
_space_group.IT_coordinate_system_code '2'
_symmetry_cell_setting 'orthorhombic'
loop_
_space_group_symop_operation_xyz
x,y,z
1/2-x,1/2-y,z
1/2+x,-y,-z
-x,1/2+y,-z
-x,-y,-z
1/2+x,1/2+y,-z
1/2-x,y,z
x,1/2-y,z
loop_
_atom_site_type_symbol
_atom_site_label
_atom_site_fract_x
_atom_site_fract_y
_atom_site_fract_z
Si Si1 0.835787 0.928956 0.724360
Si Si2 0.335939 0.070111 0.512532
Si Si3 0.091993 0.570200 0.394136
Si Si4 0.668071 0.564671 0.132717
Si Si5 0.974826 0.565737 0.065132
Si Si6 0.941672 0.427147 0.814079
Si Si7 0.092874 0.072529 0.743449
Si Si8 0.933444 0.429303 0.382923
O O1 0.750000 0.968780 0.731210
O O2 0.848869 0.750000 0.706462
O O3 0.871568 0.037702 0.672324
O O4 0.874484 0.966141 0.790356
O O5 0.250000 0.027233 0.512302
O O6 0.349319 0.250000 0.528946
O O7 0.368256 0.036747 0.444659
O O8 0.375315 0.962355 0.562919
O O9 0.103233 0.750000 0.411290
O O10 0.005070 0.535465 0.392776
O O11 0.750000 0.501769 0.115382
O O12 0.665900 0.750000 0.133113
O O13 0.607781 0.503584 0.082567
O O14 0.646209 0.508093 0.201985
O O15 0.973607 0.750000 0.062439
O O16 0.032105 0.510925 0.118428
O O17 0.000000 0.500000 0.000000
O O18 0.914101 0.250000 0.819230
O O19 0.008367 0.439456 0.765256
O O20 0.113000 0.250000 0.726585
O O21 0.105139 0.967470 0.682845
O O22 0.957183 0.250000 0.384801
#
# Coordination Sequence:
#
# PCOD8246087 Si02
#       8
#     8   8   8   8   8   8   8   8
#     4  11  23  37  56  85 116 145 184 235 290 343
#     4  11  25  44  62  81 110 148 190 237 288 342
#     4  12  24  40  62  85 112 147 190 235 283 342
#     4   8  15  30  54  82 111 144 185 231 277 329
#     4   9  18  33  55  83 112 149 192 231 275 329
#     4   9  18  34  55  78 109 147 188 230 271 331
#     4   9  17  32  55  82 108 140 184 229 276 331
#     4  12  24  38  59  86 116 149 187 232 282 339
#
# _framework density 19.168469000000002
#
# number of rings (size 3 to 8) (size 9 to 14) (size 15 to 20)
#    0.000    1.875    1.250    5.250    0.000    4.500 
#    0.000    3.750    0.000    3.375    0.000    0.000 
#    0.000    0.000    0.000    0.000    0.000    0.000 
#
# Total GULP energy -793725.423795 kJ/mol
# GULP energy per Si atom -12401.959747 kJ/mol
# Density = 1.912484 g / cm^3
# Si number density = 19.168469 Si / 1000 Ang^3
#
#
#
# Elastic Constant Matrix: (Units=GPa)
#
#
# Indices 1 2 3 4 5 6 
#
# 1 119.0099 18.8627 67.9713 0.0000 0.0000 0.0000
# 2 18.8627 44.7889 26.3898 0.0000 0.0000 0.0000
# 3 67.9713 26.3898 120.0670 0.0000 0.0000 0.0000
# 4 0.0000 0.0000 0.0000 32.5731 0.0000 0.0000
# 5 0.0000 0.0000 0.0000 0.0000 23.0609 0.0000
# 6 0.0000 0.0000 0.0000 0.0000 0.0000 24.4206
#
#
#
# Elastic Compliance Matrix: (Units=1/GPa)
#
#
# Indices 1 2 3 4 5 6 
#
# 1 0.012479 -0.001256 -0.006788 0.000000 0.000000 0.000000
# 2 -0.001256 0.025775 -0.004954 0.000000 0.000000 0.000000
# 3 -0.006788 -0.004954 0.013261 0.000000 0.000000 0.000000
# 4 0.000000 0.000000 0.000000 0.030700 0.000000 0.000000
# 5 0.000000 0.000000 0.000000 0.000000 0.043363 0.000000
# 6 0.000000 0.000000 0.000000 0.000000 0.000000 0.040949
#
#
# Mechanical properties :
#
#
# Convention : Reuss Voigt Hill
#
# Bulk Modulus (GPa) = 39.18868 56.70150 47.94509
# Shear Modulus (GPa) = 24.87198 27.38706 26.12952
#
# Velocity S-wave (km/s) = 3.60606 3.78399 3.69609
# Velocity P-wave (km/s) = 6.15036 6.98114 6.57887
#
# Compressibility (1/GPa) = 0.02551757
#
# Stress axis : x y z
#
# Youngs Moduli (GPa) = 80.13587 38.79748 75.41144
#
# Poissons Ratio (x) = 0.04872 0.51192
# Poissons Ratio (y) = 0.10062 0.37361
# Poissons Ratio (z) = 0.54399 0.19221
#
# Static dielectric constant tensor:
#      x y z
#    x 3.189390 0.000000 0.000000 
#    y 0.000000 3.312590 0.000000 
#    z 0.000000 0.000000 2.629290 
# 
# 
# High freq. dielectric constant tensor:
#      x y z
#    x 1.744690 0.000000 0.000000 
#    y 0.000000 1.731300 0.000000 
#    z 0.000000 0.000000 1.743600 
# 
# From -- ./inp_files/30786.got.cif
#   From: 2010.03.12/outbox.cif.g09.slc.cpg/sg59_16_cif.got.tgz:30786.got - 2010.04.16 16:29:54.
