data_PCOD8246853
_publ_section_title
;
Structure prediction by ZEFSAII (Michael W. Deem and Ramdas Pophale) SiO2 
 PCOD8246853
Probable space group: P B C N
;
_chemical_formula_sum "Si O2"
_cell_formula_units_Z 56
_cell_length_a 16.774358
_cell_length_b 20.396988
_cell_length_c 9.867538
_cell_angle_alpha 90.000000
_cell_angle_beta 90.000000
_cell_angle_gamma 90.000000
_cell_volume 3376.142395
_symmetry_space_group_name_H-M "P B C N"
_symmetry_group_IT_number 60
_symmetry_cell_setting 'orthorhombic'
loop_
_space_group_symop_operation_xyz
x,y,z
1/2-x,1/2-y,1/2+z
1/2+x,1/2-y,-z
-x,y,1/2-z
-x,-y,-z
1/2+x,1/2+y,1/2-z
1/2-x,1/2+y,z
x,-y,1/2+z
loop_
_atom_site_type_symbol
_atom_site_label
_atom_site_fract_x
_atom_site_fract_y
_atom_site_fract_z
Si Si1 0.281031 0.791566 0.271279
Si Si2 0.855589 0.117344 0.030696
Si Si3 0.871890 0.864153 0.220735
Si Si4 0.062857 0.755258 0.868872
Si Si5 0.943547 0.996343 0.125951
Si Si6 0.705203 0.189574 0.034507
Si Si7 0.544561 0.769528 0.622059
O O1 0.223959 0.854788 0.296415
O O2 0.370150 0.800102 0.332237
O O3 0.238621 0.731467 0.342610
O O4 0.286321 0.774539 0.111128
O O5 0.893619 0.175195 0.119212
O O6 0.874160 0.049703 0.105953
O O7 0.758623 0.123507 0.028428
O O8 0.891952 0.122082 0.878623
O O9 0.918901 0.800854 0.165016
O O10 0.900894 0.926142 0.135244
O O11 0.000000 0.760341 0.750000
O O12 0.021721 0.736859 0.007972
O O13 0.000000 0.014124 0.250000
O O14 0.000000 0.000000 0.000000
O O15 0.611801 0.179546 0.068131
O O16 0.500000 0.801639 0.750000
#
# Coordination Sequence:
#
# PCOD8246853 Si02
#       7
#     8   8   8   8   8   8   8
#     4   9  19  33  49  70 100 132 165 201 248 304
#     4  10  20  35  50  70 103 136 165 205 244 291
#     4  10  20  36  50  68 103 141 163 196 255 298
#     4  11  19  31  50  79 103 124 168 210 243 291
#     4  12  22  35  51  74  99 132 175 203 234 288
#     4   9  19  33  49  71  99 133 165 199 251 300
#     4  11  19  32  53  74 104 135 161 202 255 302
#
# _framework density 16.586977999999998
#
# number of rings (size 3 to 8) (size 9 to 14) (size 15 to 20)
#    0.000    1.714    4.286    1.714    2.000    0.000 
#    2.571    0.000    0.000    0.000    0.000    2.000 
#    0.000    0.000    0.000    0.000    0.000    0.000 
#
# Total GULP energy -693941.736263 kJ/mol
# GULP energy per Si atom -12391.816719 kJ/mol
# Density = 1.654923 g / cm^3
# Si number density = 16.586978 Si / 1000 Ang^3
#
#
#
# Elastic Constant Matrix: (Units=GPa)
#
#
# Indices 1 2 3 4 5 6 
#
# 1 116.4495 42.0262 44.3313 0.0000 0.0000 0.0000
# 2 42.0262 54.1763 25.0273 0.0000 0.0000 0.0000
# 3 44.3313 25.0273 104.3968 0.0000 0.0000 0.0000
# 4 0.0000 0.0000 0.0000 18.0513 0.0000 0.0000
# 5 0.0000 0.0000 0.0000 0.0000 34.4237 0.0000
# 6 0.0000 0.0000 0.0000 0.0000 0.0000 24.3737
#
#
#
# Elastic Compliance Matrix: (Units=1/GPa)
#
#
# Indices 1 2 3 4 5 6 
#
# 1 0.012960 -0.008447 -0.003478 0.000000 0.000000 0.000000
# 2 -0.008447 0.026262 -0.002709 0.000000 0.000000 0.000000
# 3 -0.003478 -0.002709 0.011705 0.000000 0.000000 0.000000
# 4 0.000000 0.000000 0.000000 0.055398 0.000000 0.000000
# 5 0.000000 0.000000 0.000000 0.000000 0.029050 0.000000
# 6 0.000000 0.000000 0.000000 0.000000 0.000000 0.041028
#
#
# Mechanical properties :
#
#
# Convention : Reuss Voigt Hill
#
# Bulk Modulus (GPa) = 46.16975 55.31022 50.73999
# Shear Modulus (GPa) = 23.48628 26.27895 24.88261
#
# Velocity S-wave (km/s) = 3.76699 3.98466 3.87735
# Velocity P-wave (km/s) = 6.84220 7.38837 7.12052
#
# Compressibility (1/GPa) = 0.02165920
#
# Stress axis : x y z
#
# Youngs Moduli (GPa) = 77.16085 38.07789 85.43079
#
# Poissons Ratio (x) = 0.32163 0.29717
# Poissons Ratio (y) = 0.65174 0.23144
# Poissons Ratio (z) = 0.26840 0.10316
#
# Static dielectric constant tensor:
#      x y z
#    x 3.717750 0.000000 0.000000 
#    y 0.000000 3.048560 0.000000 
#    z 0.000000 0.000000 3.734500 
# 
# 
# High freq. dielectric constant tensor:
#      x y z
#    x 1.655560 0.000000 0.000000 
#    y 0.000000 1.579910 0.000000 
#    z 0.000000 0.000000 1.659890 
# 
# From -- ./inp_files/6160.got.cif
#   From: 2010.03.12/outbox.cif.g09.slc.cpg/sg60_4_cif.got.tgz:6160.got - 2010.04.10 18:46:24.
