data_PCOD8246038
_publ_section_title
;
Structure prediction by ZEFSAII (Michael W. Deem and Ramdas Pophale) SiO2 
 PCOD8246038
Probable space group: P M M N
;
_chemical_formula_sum "Si O2"
_cell_formula_units_Z 64
_cell_length_a 8.892865
_cell_length_b 22.885406
_cell_length_c 18.248038
_cell_angle_alpha 90.000000
_cell_angle_beta 90.000000
_cell_angle_gamma 90.000000
_cell_volume 3713.782775
_symmetry_space_group_name_H-M "P M M N"
_symmetry_group_IT_number 59
_space_group.IT_coordinate_system_code '2'
_symmetry_cell_setting 'orthorhombic'
loop_
_space_group_symop_operation_xyz
x,y,z
1/2-x,1/2-y,z
1/2+x,-y,-z
-x,1/2+y,-z
-x,-y,-z
1/2+x,1/2+y,-z
1/2-x,y,z
x,1/2-y,z
loop_
_atom_site_type_symbol
_atom_site_label
_atom_site_fract_x
_atom_site_fract_y
_atom_site_fract_z
Si Si1 0.072513 0.316263 0.767114
Si Si2 0.425315 0.002274 0.421026
Si Si3 0.574837 0.631118 0.634102
Si Si4 0.428719 0.817714 0.772618
Si Si5 0.571681 0.610310 0.371235
Si Si6 0.078033 0.819260 0.088075
Si Si7 0.923616 0.182638 0.502121
Si Si8 0.917034 0.319327 0.068635
O O1 0.250000 0.317064 0.770078
O O2 0.013042 0.250000 0.756076
O O3 0.012660 0.354507 0.699446
O O4 0.012814 0.345000 0.842833
O O5 0.250000 0.989824 0.430556
O O6 0.457651 0.063954 0.383699
O O7 0.500000 0.000000 0.500000
O O8 0.497864 0.953461 0.368656
O O9 0.750000 0.646523 0.627271
O O10 0.517353 0.642305 0.715875
O O11 0.481402 0.672764 0.580104
O O12 0.250000 0.827962 0.767164
O O13 0.466772 0.750000 0.757666
O O14 0.491422 0.837666 0.853667
O O15 0.750000 0.604071 0.372153
O O16 0.523145 0.643640 0.444401
O O17 0.250000 0.840092 0.094151
O O18 0.066751 0.750000 0.092377
O O19 0.006560 0.839888 0.008822
O O20 0.750000 0.163708 0.507729
O O21 0.944713 0.250000 0.523433
O O22 0.750000 0.345621 0.067299
O O23 0.906294 0.250000 0.068580
#
# Coordination Sequence:
#
# PCOD8246038 Si02
#       8
#     8   8   8   8   8   8   8   8
#     4   9  18  31  46  69 103 135 160 192 240 296
#     4  11  23  39  57  74  93 123 165 212 255 297
#     4  11  23  36  51  72  98 128 161 202 253 297
#     4   9  17  30  49  73 102 134 166 200 239 288
#     4  11  22  36  54  74  97 129 165 205 252 295
#     4   8  13  23  42  67  95 129 166 198 230 276
#     4  11  23  36  52  74  99 129 164 199 239 293
#     4   7  11  22  41  66  96 129 163 197 233 277
#
# _framework density 17.233103
#
# number of rings (size 3 to 8) (size 9 to 14) (size 15 to 20)
#    0.000    2.375    1.250    3.750    0.000    5.750 
#    0.000    1.875    0.000    2.250    0.000    0.875 
#    0.000    0.000    0.000    0.000    0.000    0.000 
#
# Total GULP energy -793173.336288 kJ/mol
# GULP energy per Si atom -12393.333380 kJ/mol
# Density = 1.719388 g / cm^3
# Si number density = 17.233103 Si / 1000 Ang^3
#
#
#
# Elastic Constant Matrix: (Units=GPa)
#
#
# Indices 1 2 3 4 5 6 
#
# 1 55.7462 32.6040 33.5849 0.0000 0.0000 0.0000
# 2 32.6040 61.9015 38.9650 0.0000 0.0000 0.0000
# 3 33.5849 38.9650 145.5668 0.0000 0.0000 0.0000
# 4 0.0000 0.0000 0.0000 9.3444 0.0000 0.0000
# 5 0.0000 0.0000 0.0000 0.0000 27.1831 0.0000
# 6 0.0000 0.0000 0.0000 0.0000 0.0000 23.0335
#
#
#
# Elastic Compliance Matrix: (Units=1/GPa)
#
#
# Indices 1 2 3 4 5 6 
#
# 1 0.026908 -0.012345 -0.002904 0.000000 0.000000 0.000000
# 2 -0.012345 0.025092 -0.003868 0.000000 0.000000 0.000000
# 3 -0.002904 -0.003868 0.008575 0.000000 0.000000 0.000000
# 4 0.000000 0.000000 0.000000 0.107016 0.000000 0.000000
# 5 0.000000 0.000000 0.000000 0.000000 0.036788 0.000000
# 6 0.000000 0.000000 0.000000 0.000000 0.000000 0.043415
#
#
# Mechanical properties :
#
#
# Convention : Reuss Voigt Hill
#
# Bulk Modulus (GPa) = 44.76063 52.61362 48.68712
# Shear Modulus (GPa) = 17.03729 22.44958 19.74344
#
# Velocity S-wave (km/s) = 3.14767 3.61321 3.38845
# Velocity P-wave (km/s) = 6.26422 6.92848 6.60471
#
# Compressibility (1/GPa) = 0.02234106
#
# Stress axis : x y z
#
# Youngs Moduli (GPa) = 37.16382 39.85361 116.61656
#
# Poissons Ratio (x) = 0.49199 0.33862
# Poissons Ratio (y) = 0.45878 0.45111
# Poissons Ratio (z) = 0.10791 0.15417
#
# Static dielectric constant tensor:
#      x y z
#    x 3.142730 0.000000 0.000000 
#    y 0.000000 3.210860 0.000000 
#    z 0.000000 0.000000 3.752540 
# 
# 
# High freq. dielectric constant tensor:
#      x y z
#    x 1.655620 0.000000 0.000000 
#    y 0.000000 1.624800 0.000000 
#    z 0.000000 0.000000 1.682170 
# 
# From -- ./inp_files/26310.got.cif
#   From: 2010.03.12/outbox.cif.g09.slc.cpg/sg59_14_cif.got.tgz:26310.got - 2010.04.16 16:29:54.
