data_PCOD8246906
_publ_section_title
;
Structure prediction by ZEFSAII (Michael W. Deem and Ramdas Pophale) SiO2 
 PCOD8246906
Probable space group: P B C N
;
_chemical_formula_sum "Si O2"
_cell_formula_units_Z 56
_cell_length_a 24.757116
_cell_length_b 20.645683
_cell_length_c 5.368403
_cell_angle_alpha 90.000000
_cell_angle_beta 90.000000
_cell_angle_gamma 90.000000
_cell_volume 2743.938774
_symmetry_space_group_name_H-M "P B C N"
_symmetry_group_IT_number 60
_symmetry_cell_setting 'orthorhombic'
loop_
_space_group_symop_operation_xyz
x,y,z
1/2-x,1/2-y,1/2+z
1/2+x,1/2-y,-z
-x,y,1/2-z
-x,-y,-z
1/2+x,1/2+y,1/2-z
1/2-x,1/2+y,z
x,-y,1/2+z
loop_
_atom_site_type_symbol
_atom_site_label
_atom_site_fract_x
_atom_site_fract_y
_atom_site_fract_z
Si Si1 0.888921 0.356936 0.361855
Si Si2 0.712450 0.463884 0.617650
Si Si3 0.159734 0.534692 0.368177
Si Si4 0.811298 0.699969 0.515049
Si Si5 0.699635 0.670607 0.312686
Si Si6 0.000000 0.666335 0.750000
Si Si7 0.114246 0.770953 0.378744
Si Si8 0.500000 0.750081 0.750000
O O1 0.866859 0.394062 0.606422
O O2 0.947909 0.381316 0.273982
O O3 0.899581 0.280507 0.406380
O O4 0.843332 0.359055 0.147906
O O5 0.691478 0.496876 0.362394
O O6 0.776477 0.460975 0.623434
O O7 0.689872 0.389920 0.626891
O O8 0.138158 0.502882 0.114905
O O9 0.757641 0.660549 0.440844
O O10 0.794405 0.759059 0.691720
O O11 0.847236 0.731571 0.303966
O O12 0.648951 0.669836 0.506215
O O13 0.992178 0.707574 0.497252
O O14 0.055655 0.793300 0.268554
#
# Coordination Sequence:
#
# PCOD8246906 Si02
#       8
#     8   8   8   8   8   4   8   4
#     4  10  22  36  56  79 110 157 195 242 299 344
#     4  10  24  40  58  81 115 163 196 233 277 352
#     4  10  23  37  55  79 108 153 205 248 285 341
#     4  11  21  34  55  86 121 151 179 244 301 353
#     4  11  23  34  56  90 122 149 193 235 302 353
#     4  10  20  36  58  79 108 151 202 242 284 354
#     4  10  21  36  57  85 117 154 185 241 294 358
#     4  10  20  38  56  85 118 151 196 226 294 360
#
# _framework density 20.408619999999999
#
# number of rings (size 3 to 8) (size 9 to 14) (size 15 to 20)
#    0.000    1.714    2.857    0.857   12.000    0.000 
#    0.000    0.714    0.000    0.000    0.000    1.000 
#    0.000    0.000    0.000    0.000    0.000    0.000 
#
# Total GULP energy -693830.212006 kJ/mol
# GULP energy per Si atom -12389.825214 kJ/mol
# Density = 2.036217 g / cm^3
# Si number density = 20.408620 Si / 1000 Ang^3
#
#
#
# Elastic Constant Matrix: (Units=GPa)
#
#
# Indices 1 2 3 4 5 6 
#
# 1 99.7697 7.4300 24.8881 0.0000 0.0000 0.0000
# 2 7.4300 48.8473 20.4469 0.0000 0.0000 0.0000
# 3 24.8881 20.4469 106.1106 0.0000 0.0000 0.0000
# 4 0.0000 0.0000 0.0000 23.4502 0.0000 0.0000
# 5 0.0000 0.0000 0.0000 0.0000 23.2408 0.0000
# 6 0.0000 0.0000 0.0000 0.0000 0.0000 9.4923
#
#
#
# Elastic Compliance Matrix: (Units=1/GPa)
#
#
# Indices 1 2 3 4 5 6 
#
# 1 0.010664 -0.000626 -0.002381 0.000000 0.000000 0.000000
# 2 -0.000626 0.022305 -0.004151 0.000000 0.000000 0.000000
# 3 -0.002381 -0.004151 0.010782 0.000000 0.000000 0.000000
# 4 0.000000 0.000000 0.000000 0.042643 0.000000 0.000000
# 5 0.000000 0.000000 0.000000 0.000000 0.043028 0.000000
# 6 0.000000 0.000000 0.000000 0.000000 0.000000 0.105348
#
#
# Mechanical properties :
#
#
# Convention : Reuss Voigt Hill
#
# Bulk Modulus (GPa) = 33.97206 40.02862 37.00034
# Shear Modulus (GPa) = 19.31269 24.70084 22.00676
#
# Velocity S-wave (km/s) = 3.07954 3.48273 3.28732
# Velocity P-wave (km/s) = 5.41542 5.98571 5.70769
#
# Compressibility (1/GPa) = 0.02943595
#
# Stress axis : x y z
#
# Youngs Moduli (GPa) = 93.77766 44.83347 92.74350
#
# Poissons Ratio (x) = 0.02804 0.22078
# Poissons Ratio (y) = 0.05866 0.38500
# Poissons Ratio (z) = 0.22325 0.18612
#
# Static dielectric constant tensor:
#      x y z
#    x 4.118010 0.000000 0.000000 
#    y 0.000000 3.592410 0.000000 
#    z 0.000000 0.000000 4.006410 
# 
# 
# High freq. dielectric constant tensor:
#      x y z
#    x 1.787010 0.000000 0.000000 
#    y 0.000000 1.756010 0.000000 
#    z 0.000000 0.000000 1.812250 
# 
# From -- ./inp_files/2408.got.cif
#   From: 2010.03.12/outbox.cif.g09.slc.cpg/sg60_2_cif.got.tgz:2408.got - 2010.04.10 18:46:24.
