data_PCOD8246885
_publ_section_title
;
Structure prediction by ZEFSAII (Michael W. Deem and Ramdas Pophale) SiO2 
 PCOD8246885
Probable space group: P B C N
;
_chemical_formula_sum "Si O2"
_cell_formula_units_Z 64
_cell_length_a 8.485150
_cell_length_b 17.836701
_cell_length_c 21.504097
_cell_angle_alpha 90.000000
_cell_angle_beta 90.000000
_cell_angle_gamma 90.000000
_cell_volume 3254.582364
_symmetry_space_group_name_H-M "P B C N"
_symmetry_group_IT_number 60
_symmetry_cell_setting 'orthorhombic'
loop_
_space_group_symop_operation_xyz
x,y,z
1/2-x,1/2-y,1/2+z
1/2+x,1/2-y,-z
-x,y,1/2-z
-x,-y,-z
1/2+x,1/2+y,1/2-z
1/2-x,1/2+y,z
x,-y,1/2+z
loop_
_atom_site_type_symbol
_atom_site_label
_atom_site_fract_x
_atom_site_fract_y
_atom_site_fract_z
Si Si1 0.934334 0.861646 0.318356
Si Si2 0.675766 0.762719 0.271185
Si Si3 0.294734 0.568343 0.483547
Si Si4 0.044863 0.000725 0.598364
Si Si5 0.440126 0.730174 0.457757
Si Si6 0.491600 0.854528 0.940178
Si Si7 0.184986 0.152133 0.120351
Si Si8 0.817812 0.247345 0.638063
O O1 0.755342 0.829697 0.312128
O O2 0.000000 0.860121 0.250000
O O3 0.039509 0.812314 0.366102
O O4 0.950078 0.945358 0.342764
O O5 0.500000 0.784967 0.250000
O O6 0.694425 0.687249 0.311220
O O7 0.768530 0.744629 0.208833
O O8 0.374093 0.509820 0.434691
O O9 0.323859 0.531846 0.550687
O O10 0.368351 0.652090 0.482765
O O11 0.105539 0.576653 0.471929
O O12 0.077618 0.920045 0.627132
O O13 0.478614 0.785721 0.513388
O O14 0.606669 0.713574 0.424916
O O15 0.326502 0.773072 0.408283
O O16 0.654681 0.879439 0.909840
O O17 0.382481 0.827605 0.883267
#
# Coordination Sequence:
#
# PCOD8246885 Si02
#       8
#     8   8   8   8   8   8   8   8
#     4  10  22  40  64  87 116 164 208 255 308 372
#     4  11  22  39  65  90 121 156 209 267 308 366
#     4   9  21  37  58  84 126 167 201 251 313 386
#     4  10  22  41  57  84 127 167 204 248 319 377
#     4  10  20  35  60  95 119 158 202 264 314 365
#     4  11  21  35  60  94 121 158 209 256 318 366
#     4  11  22  37  59  93 123 160 204 254 316 374
#     4  10  20  37  60  90 118 154 208 256 308 361
#
# _framework density 19.664580999999998
#
# number of rings (size 3 to 8) (size 9 to 14) (size 15 to 20)
#    0.000    1.750    2.500    2.250    1.750    3.000 
#    0.000    2.500    0.000    0.000    0.000    0.000 
#    0.000    0.000    0.000    0.000    0.000    0.000 
#
# Total GULP energy -793185.718778 kJ/mol
# GULP energy per Si atom -12393.526856 kJ/mol
# Density = 1.961982 g / cm^3
# Si number density = 19.664581 Si / 1000 Ang^3
#
#
#
# Elastic Constant Matrix: (Units=GPa)
#
#
# Indices 1 2 3 4 5 6 
#
# 1 116.5905 20.1361 18.7806 0.0000 0.0000 0.0000
# 2 20.1361 68.5948 29.4167 0.0000 0.0000 0.0000
# 3 18.7806 29.4167 59.9041 0.0000 0.0000 0.0000
# 4 0.0000 0.0000 0.0000 26.3839 0.0000 0.0000
# 5 0.0000 0.0000 0.0000 0.0000 29.1971 0.0000
# 6 0.0000 0.0000 0.0000 0.0000 0.0000 21.2487
#
#
#
# Elastic Compliance Matrix: (Units=1/GPa)
#
#
# Indices 1 2 3 4 5 6 
#
# 1 0.009216 -0.001858 -0.001977 0.000000 0.000000 0.000000
# 2 -0.001858 0.018842 -0.008670 0.000000 0.000000 0.000000
# 3 -0.001977 -0.008670 0.021571 0.000000 0.000000 0.000000
# 4 0.000000 0.000000 0.000000 0.037902 0.000000 0.000000
# 5 0.000000 0.000000 0.000000 0.000000 0.034250 0.000000
# 6 0.000000 0.000000 0.000000 0.000000 0.000000 0.047062
#
#
# Mechanical properties :
#
#
# Convention : Reuss Voigt Hill
#
# Bulk Modulus (GPa) = 40.61889 42.41736 41.51813
# Shear Modulus (GPa) = 24.74526 27.14967 25.94747
#
# Velocity S-wave (km/s) = 3.55120 3.71973 3.63644
# Velocity P-wave (km/s) = 6.12498 6.32975 6.22821
#
# Compressibility (1/GPa) = 0.02461908
#
# Stress axis : x y z
#
# Youngs Moduli (GPa) = 108.50301 53.07342 46.35890
#
# Poissons Ratio (x) = 0.09859 0.09166
# Poissons Ratio (y) = 0.20155 0.40194
# Poissons Ratio (z) = 0.21454 0.46016
#
# Static dielectric constant tensor:
#      x y z
#    x 3.976550 0.000000 0.000000 
#    y 0.000000 3.552530 0.000000 
#    z 0.000000 0.000000 3.582550 
# 
# 
# High freq. dielectric constant tensor:
#      x y z
#    x 1.772970 0.000000 0.000000 
#    y 0.000000 1.743020 0.000000 
#    z 0.000000 0.000000 1.771750 
# 
# From -- ./inp_files/22371.got.cif
#   From: 2010.03.12/outbox.cif.g09.slc.cpg/sg60_12_cif.got.tgz:22371.got - 2010.04.10 18:46:24.
