data_PCOD8246991
_publ_section_title
;
Structure prediction by ZEFSAII (Michael W. Deem and Ramdas Pophale) SiO2 
 PCOD8246991
Probable space group: P B C N
;
_chemical_formula_sum "Si O2"
_cell_formula_units_Z 56
_cell_length_a 12.517440
_cell_length_b 22.343324
_cell_length_c 8.301337
_cell_angle_alpha 90.000000
_cell_angle_beta 90.000000
_cell_angle_gamma 90.000000
_cell_volume 2321.728040
_symmetry_space_group_name_H-M "P B C N"
_symmetry_group_IT_number 60
_symmetry_cell_setting 'orthorhombic'
loop_
_space_group_symop_operation_xyz
x,y,z
1/2-x,1/2-y,1/2+z
1/2+x,1/2-y,-z
-x,y,1/2-z
-x,-y,-z
1/2+x,1/2+y,1/2-z
1/2-x,1/2+y,z
x,-y,1/2+z
loop_
_atom_site_type_symbol
_atom_site_label
_atom_site_fract_x
_atom_site_fract_y
_atom_site_fract_z
Si Si1 0.400713 0.396370 0.443015
Si Si2 0.241980 0.499449 0.477098
Si Si3 0.368514 0.731056 0.432776
Si Si4 0.624291 0.794352 0.747693
Si Si5 0.138088 0.109274 0.585955
Si Si6 0.622851 0.726960 0.427679
Si Si7 0.880196 0.566064 0.284020
O O1 0.346296 0.459806 0.462983
O O2 0.377548 0.367734 0.267893
O O3 0.523306 0.413261 0.476468
O O4 0.358597 0.344706 0.562854
O O5 0.272790 0.557292 0.584972
O O6 0.205287 0.525598 0.308309
O O7 0.146159 0.455504 0.535671
O O8 0.322508 0.773469 0.579663
O O9 0.328724 0.664278 0.472667
O O10 0.496256 0.738688 0.435165
O O11 0.329770 0.746778 0.248783
O O12 0.500000 0.775814 0.750000
O O13 0.674677 0.764315 0.581728
O O14 0.638289 0.865209 0.741105
O O15 0.000000 0.546514 0.250000
#
# Coordination Sequence:
#
# PCOD8246991 Si02
#       7
#     8   8   8   8   8   8   8
#     4  10  20  37  64  99 139 176 204 253 330 409
#     4  12  24  44  64  92 130 170 228 270 326 394
#     4   9  17  32  62  99 133 170 209 255 324 404
#     4   9  18  39  64  91 125 166 220 277 331 382
#     4  10  20  37  64  99 139 176 204 253 330 409
#     4   9  17  32  62  99 133 170 209 255 324 404
#     4  11  26  47  69  87 119 172 231 291 332 368
#
# _framework density 24.119966000000002
#
# number of rings (size 3 to 8) (size 9 to 14) (size 15 to 20)
#    0.000    2.000    2.857    0.857    2.000    0.000 
#    2.571    1.429    0.000    0.000    0.000    0.000 
#    0.000    0.000    0.000    0.000    0.000    0.000 
#
# Total GULP energy -694155.034483 kJ/mol
# GULP energy per Si atom -12395.625616 kJ/mol
# Density = 2.406507 g / cm^3
# Si number density = 24.119966 Si / 1000 Ang^3
#
#
#
# Elastic Constant Matrix: (Units=GPa)
#
#
# Indices 1 2 3 4 5 6 
#
# 1 63.8928 36.6647 37.3166 0.0000 0.0000 0.0000
# 2 36.6647 109.8140 57.0998 0.0000 0.0000 0.0000
# 3 37.3166 57.0998 137.5086 0.0000 0.0000 0.0000
# 4 0.0000 0.0000 0.0000 40.0862 0.0000 0.0000
# 5 0.0000 0.0000 0.0000 0.0000 42.7334 0.0000
# 6 0.0000 0.0000 0.0000 0.0000 0.0000 34.9165
#
#
#
# Elastic Compliance Matrix: (Units=1/GPa)
#
#
# Indices 1 2 3 4 5 6 
#
# 1 0.020593 -0.005063 -0.003486 0.000000 0.000000 0.000000
# 2 -0.005063 0.012859 -0.003966 0.000000 0.000000 0.000000
# 3 -0.003486 -0.003966 0.009865 0.000000 0.000000 0.000000
# 4 0.000000 0.000000 0.000000 0.024946 0.000000 0.000000
# 5 0.000000 0.000000 0.000000 0.000000 0.023401 0.000000
# 6 0.000000 0.000000 0.000000 0.000000 0.000000 0.028640
#
#
# Mechanical properties :
#
#
# Convention : Reuss Voigt Hill
#
# Bulk Modulus (GPa) = 54.68263 63.70863 59.19563
# Shear Modulus (GPa) = 33.01909 35.55618 34.28763
#
# Velocity S-wave (km/s) = 3.70395 3.84362 3.77443
# Velocity P-wave (km/s) = 6.40411 6.79474 6.60231
#
# Compressibility (1/GPa) = 0.01828734
#
# Stress axis : x y z
#
# Youngs Moduli (GPa) = 48.56136 77.76866 101.36872
#
# Poissons Ratio (x) = 0.39373 0.35337
# Poissons Ratio (y) = 0.24586 0.40198
# Poissons Ratio (z) = 0.16929 0.30840
#
# Static dielectric constant tensor:
#      x y z
#    x 4.502780 0.000000 0.000000 
#    y 0.000000 4.063080 0.000000 
#    z 0.000000 0.000000 4.644350 
# 
# 
# High freq. dielectric constant tensor:
#      x y z
#    x 1.986440 0.000000 0.000000 
#    y 0.000000 1.945880 0.000000 
#    z 0.000000 0.000000 1.966610 
# 
# From -- ./inp_files/6135.got.cif
#   From: 2010.03.12/outbox.cif.g09.slc.cpg/sg60_4_cif.got.tgz:6135.got - 2010.04.10 18:46:24.
