data_PCOD8246610
_publ_section_title
;
Structure prediction by ZEFSAII (Michael W. Deem and Ramdas Pophale) SiO2 
 PCOD8246610
Probable space group: P B C N
;
_chemical_formula_sum "Si O2"
_cell_formula_units_Z 64
_cell_length_a 27.050933
_cell_length_b 5.446752
_cell_length_c 21.383215
_cell_angle_alpha 90.000000
_cell_angle_beta 90.000000
_cell_angle_gamma 90.000000
_cell_volume 3150.596984
_symmetry_space_group_name_H-M "P B C N"
_symmetry_group_IT_number 60
_symmetry_cell_setting 'orthorhombic'
loop_
_space_group_symop_operation_xyz
x,y,z
1/2-x,1/2-y,1/2+z
1/2+x,1/2-y,-z
-x,y,1/2-z
-x,-y,-z
1/2+x,1/2+y,1/2-z
1/2-x,1/2+y,z
x,-y,1/2+z
loop_
_atom_site_type_symbol
_atom_site_label
_atom_site_fract_x
_atom_site_fract_y
_atom_site_fract_z
Si Si1 0.442187 0.451399 0.926269
Si Si2 0.443014 0.960894 0.996234
Si Si3 0.733776 0.703302 0.835786
Si Si4 0.378789 0.383165 0.182133
Si Si5 0.884541 0.190704 0.192279
Si Si6 0.449805 0.997879 0.729826
Si Si7 0.273371 0.206113 0.804312
Si Si8 0.449952 0.299577 0.614453
O O1 0.429915 0.711164 0.958472
O O2 0.409659 0.460511 0.863399
O O3 0.501794 0.435189 0.915273
O O4 0.421644 0.213363 0.965832
O O5 0.428333 0.913490 0.068693
O O6 0.500000 0.000000 0.000000
O O7 0.749340 0.452236 0.871948
O O8 0.675393 0.716441 0.830262
O O9 0.764088 0.705524 0.770302
O O10 0.378259 0.521319 0.247672
O O11 0.414541 0.154798 0.186424
O O12 0.401236 0.533193 0.124077
O O13 0.921318 0.414012 0.208335
O O14 0.830799 0.299349 0.176521
O O15 0.500000 0.855958 0.750000
O O16 0.467421 0.215816 0.683470
O O17 0.249828 0.456096 0.833266
#
# Coordination Sequence:
#
# PCOD8246610 Si02
#       8
#     8   8   8   8   8   8   8   8
#     4  11  24  39  62  85 118 162 205 255 290 355
#     4  10  23  42  62  81 112 162 217 255 286 336
#     4  10  19  37  54  80 116 149 196 236 287 355
#     4  11  24  32  59  86 122 162 192 246 298 379
#     4  11  23  36  54  91 124 157 198 241 311 360
#     4  11  23  35  53  84 133 164 188 232 304 378
#     4  10  19  34  57  79 118 150 193 241 288 363
#     4  10  23  38  55  85 118 162 202 243 294 350
#
# _framework density 20.313609
#
# number of rings (size 3 to 8) (size 9 to 14) (size 15 to 20)
#    0.000    1.500    3.750    3.000   10.500    0.000 
#    0.000    0.000    0.000    0.000    0.000    5.250 
#    0.000    0.000    0.000    0.000    0.000    0.000 
#
# Total GULP energy -792838.969983 kJ/mol
# GULP energy per Si atom -12388.108906 kJ/mol
# Density = 2.026737 g / cm^3
# Si number density = 20.313609 Si / 1000 Ang^3
#
#
#
# Elastic Constant Matrix: (Units=GPa)
#
#
# Indices 1 2 3 4 5 6 
#
# 1 113.9341 45.7236 34.1743 0.0000 0.0000 0.0000
# 2 45.7236 137.9754 19.4242 0.0000 0.0000 0.0000
# 3 34.1743 19.4242 52.9153 0.0000 0.0000 0.0000
# 4 0.0000 0.0000 0.0000 13.7787 0.0000 0.0000
# 5 0.0000 0.0000 0.0000 0.0000 7.8335 0.0000
# 6 0.0000 0.0000 0.0000 0.0000 0.0000 27.0089
#
#
#
# Elastic Compliance Matrix: (Units=1/GPa)
#
#
# Indices 1 2 3 4 5 6 
#
# 1 0.011983 -0.003039 -0.006624 0.000000 0.000000 0.000000
# 2 -0.003039 0.008413 -0.001126 0.000000 0.000000 0.000000
# 3 -0.006624 -0.001126 0.023589 0.000000 0.000000 0.000000
# 4 0.000000 0.000000 0.000000 0.072576 0.000000 0.000000
# 5 0.000000 0.000000 0.000000 0.000000 0.127657 0.000000
# 6 0.000000 0.000000 0.000000 0.000000 0.000000 0.037025
#
#
# Mechanical properties :
#
#
# Convention : Reuss Voigt Hill
#
# Bulk Modulus (GPa) = 44.62459 55.94100 50.28279
# Shear Modulus (GPa) = 16.11398 23.42438 19.76918
#
# Velocity S-wave (km/s) = 2.81954 3.39947 3.12300
# Velocity P-wave (km/s) = 5.71098 6.55797 6.14908
#
# Compressibility (1/GPa) = 0.02240917
#
# Stress axis : x y z
#
# Youngs Moduli (GPa) = 83.44999 118.86169 42.39222
#
# Poissons Ratio (x) = 0.36118 0.28079
# Poissons Ratio (y) = 0.25357 0.04773
# Poissons Ratio (z) = 0.55275 0.13382
#
# Static dielectric constant tensor:
#      x y z
#    x 3.652290 0.000000 0.000000 
#    y 0.000000 4.471670 0.000000 
#    z 0.000000 0.000000 3.491320 
# 
# 
# High freq. dielectric constant tensor:
#      x y z
#    x 1.781470 0.000000 0.000000 
#    y 0.000000 1.809430 0.000000 
#    z 0.000000 0.000000 1.749490 
# 
# From -- ./inp_files/23352.got.cif
#   From: 2010.03.12/outbox.cif.g09.slc.cpg/sg60_12_cif.got.tgz:23352.got - 2010.04.10 18:46:24.
