data_PCOD8246908
_publ_section_title
;
Structure prediction by ZEFSAII (Michael W. Deem and Ramdas Pophale) SiO2 
 PCOD8246908
Probable space group: P B C N
;
_chemical_formula_sum "Si O2"
_cell_formula_units_Z 56
_cell_length_a 15.731879
_cell_length_b 20.417743
_cell_length_c 8.773075
_cell_angle_alpha 90.000000
_cell_angle_beta 90.000000
_cell_angle_gamma 90.000000
_cell_volume 2817.994704
_symmetry_space_group_name_H-M "P B C N"
_symmetry_group_IT_number 60
_symmetry_cell_setting 'orthorhombic'
loop_
_space_group_symop_operation_xyz
x,y,z
1/2-x,1/2-y,1/2+z
1/2+x,1/2-y,-z
-x,y,1/2-z
-x,-y,-z
1/2+x,1/2+y,1/2-z
1/2-x,1/2+y,z
x,-y,1/2+z
loop_
_atom_site_type_symbol
_atom_site_label
_atom_site_fract_x
_atom_site_fract_y
_atom_site_fract_z
Si Si1 0.868797 0.087296 0.917115
Si Si2 0.380782 0.705530 0.000046
Si Si3 0.745739 0.704967 0.874560
Si Si4 0.809966 0.018391 0.195674
Si Si5 0.249248 0.588524 0.026101
Si Si6 0.500000 0.330004 0.250000
Si Si7 0.500000 0.254629 0.750000
Si Si8 0.153092 0.701695 0.925364
O O1 0.954034 0.126819 0.879816
O O2 0.868214 0.025070 0.805585
O O3 0.781562 0.129486 0.895275
O O4 0.871546 0.063567 0.092155
O O5 0.326411 0.772123 0.023895
O O6 0.327203 0.638685 0.998564
O O7 0.429403 0.712858 0.838384
O O8 0.445866 0.698713 0.140648
O O9 0.665393 0.748508 0.932508
O O10 0.770770 0.716472 0.697808
O O11 0.749197 0.064301 0.298930
O O12 0.752921 0.973425 0.085813
O O13 0.162458 0.627778 0.989527
O O14 0.560437 0.208266 0.647488
#
# Coordination Sequence:
#
# PCOD8246908 Si02
#       8
#     8   8   8   8   8   4   4   8
#     4  11  22  38  56  84 115 153 194 238 285 343
#     4  10  22  37  56  85 119 148 191 238 295 347
#     4  10  20  36  59  82 110 152 192 243 279 347
#     4  10  22  38  57  81 110 155 205 229 277 339
#     4  10  20  40  57  83 107 152 198 237 275 350
#     4  12  22  38  55  86 125 154 180 250 292 346
#     4  10  22  34  57  88 117 152 178 244 316 346
#     4  10  20  36  58  86 114 146 193 243 298 341
#
# _framework density 19.872288000000001
#
# number of rings (size 3 to 8) (size 9 to 14) (size 15 to 20)
#    0.000    1.714    2.857    1.714    8.000    0.571 
#    0.000    0.000    0.000    0.857    0.000    0.000 
#    0.000    0.000    0.000    0.000    0.000    0.000 
#
# Total GULP energy -694120.959592 kJ/mol
# GULP energy per Si atom -12395.017136 kJ/mol
# Density = 1.982706 g / cm^3
# Si number density = 19.872288 Si / 1000 Ang^3
#
#
#
# Elastic Constant Matrix: (Units=GPa)
#
#
# Indices 1 2 3 4 5 6 
#
# 1 67.6861 38.7961 32.5192 0.0000 0.0000 0.0000
# 2 38.7961 76.4579 47.7716 0.0000 0.0000 0.0000
# 3 32.5192 47.7716 123.0845 0.0000 0.0000 0.0000
# 4 0.0000 0.0000 0.0000 33.6883 0.0000 0.0000
# 5 0.0000 0.0000 0.0000 0.0000 35.2713 0.0000
# 6 0.0000 0.0000 0.0000 0.0000 0.0000 4.9425
#
#
#
# Elastic Compliance Matrix: (Units=1/GPa)
#
#
# Indices 1 2 3 4 5 6 
#
# 1 0.021157 -0.009562 -0.001879 0.000000 0.000000 0.000000
# 2 -0.009562 0.021587 -0.005852 0.000000 0.000000 0.000000
# 3 -0.001879 -0.005852 0.010892 0.000000 0.000000 0.000000
# 4 0.000000 0.000000 0.000000 0.029684 0.000000 0.000000
# 5 0.000000 0.000000 0.000000 0.000000 0.028352 0.000000
# 6 0.000000 0.000000 0.000000 0.000000 0.000000 0.202325
#
#
# Mechanical properties :
#
#
# Convention : Reuss Voigt Hill
#
# Bulk Modulus (GPa) = 52.48930 56.15582 54.32256
# Shear Modulus (GPa) = 14.08715 24.65653 19.37184
#
# Velocity S-wave (km/s) = 2.66538 3.52625 3.12559
# Velocity P-wave (km/s) = 5.99524 6.70067 6.35775
#
# Compressibility (1/GPa) = 0.01905150
#
# Stress axis : x y z
#
# Youngs Moduli (GPa) = 47.26521 46.32320 91.80837
#
# Poissons Ratio (x) = 0.44293 0.17248
# Poissons Ratio (y) = 0.45194 0.53729
# Poissons Ratio (z) = 0.08880 0.27110
#
# Static dielectric constant tensor:
#      x y z
#    x 3.521750 0.000000 0.000000 
#    y 0.000000 3.633020 0.000000 
#    z 0.000000 0.000000 3.977530 
# 
# 
# High freq. dielectric constant tensor:
#      x y z
#    x 1.742640 0.000000 0.000000 
#    y 0.000000 1.759570 0.000000 
#    z 0.000000 0.000000 1.801940 
# 
# From -- ./inp_files/6204.got.cif
#   From: 2010.03.12/outbox.cif.g09.slc.cpg/sg60_4_cif.got.tgz:6204.got - 2010.04.10 18:46:24.
