data_PCOD8246270
_publ_section_title
;
Structure prediction by ZEFSAII (Michael W. Deem and Ramdas Pophale) SiO2 
 PCOD8246270
Probable space group: P B C N
;
_chemical_formula_sum "Si O2"
_cell_formula_units_Z 56
_cell_length_a 9.269736
_cell_length_b 18.051877
_cell_length_c 18.628868
_cell_angle_alpha 90.000000
_cell_angle_beta 90.000000
_cell_angle_gamma 90.000000
_cell_volume 3117.282754
_symmetry_space_group_name_H-M "P B C N"
_symmetry_group_IT_number 60
_symmetry_cell_setting 'orthorhombic'
loop_
_space_group_symop_operation_xyz
x,y,z
1/2-x,1/2-y,1/2+z
1/2+x,1/2-y,-z
-x,y,1/2-z
-x,-y,-z
1/2+x,1/2+y,1/2-z
1/2-x,1/2+y,z
x,-y,1/2+z
loop_
_atom_site_type_symbol
_atom_site_label
_atom_site_fract_x
_atom_site_fract_y
_atom_site_fract_z
Si Si1 0.360911 0.470705 0.460049
Si Si2 0.865735 0.612887 0.449304
Si Si3 0.845821 0.713877 0.212289
Si Si4 0.739329 0.247146 0.359411
Si Si5 0.827341 0.600163 0.092442
Si Si6 0.423053 0.792127 0.018507
Si Si7 0.451623 0.678834 0.900222
O O1 0.500000 0.500000 0.500000
O O2 0.248015 0.445413 0.521041
O O3 0.286576 0.534186 0.412643
O O4 0.409952 0.407136 0.404781
O O5 0.799103 0.666205 0.389487
O O6 0.994948 0.428368 0.586516
O O7 0.922139 0.666087 0.514775
O O8 0.730991 0.735084 0.274668
O O9 0.801357 0.639803 0.169186
O O10 0.846787 0.781737 0.156621
O O11 0.000000 0.701126 0.250000
O O12 0.880434 0.279699 0.398851
O O13 0.613946 0.307486 0.372704
O O14 0.805525 0.658554 0.026403
O O15 0.432467 0.712331 0.979970
#
# Coordination Sequence:
#
# PCOD8246270 Si02
#       7
#     8   8   8   8   8   8   8
#     4  12  22  34  56  83 123 146 184 240 299 339
#     4   9  19  33  56  84 106 146 191 234 282 337
#     4   9  16  33  60  81 106 155 196 232 282 343
#     4  10  15  32  61  83 104 142 200 238 278 332
#     4   9  19  35  55  83 113 151 188 237 286 348
#     4   8  16  31  54  82 104 134 195 239 268 324
#     4   9  18  30  51  82 106 145 181 235 280 334
#
# _framework density 17.964362999999999
#
# number of rings (size 3 to 8) (size 9 to 14) (size 15 to 20)
#    0.857    1.714    4.286    1.286    0.000    0.000 
#    0.000    0.000   15.714    1.714    0.000    0.000 
#    0.000    0.000    0.000    0.000    0.000    0.000 
#
# Total GULP energy -693800.935168 kJ/mol
# GULP energy per Si atom -12389.302414 kJ/mol
# Density = 1.792348 g / cm^3
# Si number density = 17.964363 Si / 1000 Ang^3
#
#
#
# Elastic Constant Matrix: (Units=GPa)
#
#
# Indices 1 2 3 4 5 6 
#
# 1 62.8233 42.8755 42.8181 0.0000 0.0000 0.0000
# 2 42.8755 109.7900 40.9985 0.0000 0.0000 0.0000
# 3 42.8181 40.9985 110.9960 0.0000 0.0000 0.0000
# 4 0.0000 0.0000 0.0000 23.6427 0.0000 0.0000
# 5 0.0000 0.0000 0.0000 0.0000 21.9070 0.0000
# 6 0.0000 0.0000 0.0000 0.0000 0.0000 23.7519
#
#
#
# Elastic Compliance Matrix: (Units=1/GPa)
#
#
# Indices 1 2 3 4 5 6 
#
# 1 0.025927 -0.007413 -0.007264 0.000000 0.000000 0.000000
# 2 -0.007413 0.012685 -0.001826 0.000000 0.000000 0.000000
# 3 -0.007264 -0.001826 0.012486 0.000000 0.000000 0.000000
# 4 0.000000 0.000000 0.000000 0.042296 0.000000 0.000000
# 5 0.000000 0.000000 0.000000 0.000000 0.045647 0.000000
# 6 0.000000 0.000000 0.000000 0.000000 0.000000 0.042102
#
#
# Mechanical properties :
#
#
# Convention : Reuss Voigt Hill
#
# Bulk Modulus (GPa) = 55.26869 59.66593 57.46731
# Shear Modulus (GPa) = 22.70869 24.32147 23.51508
#
# Velocity S-wave (km/s) = 3.55927 3.68349 3.62191
# Velocity P-wave (km/s) = 6.90824 7.16774 7.03918
#
# Compressibility (1/GPa) = 0.01809343
#
# Stress axis : x y z
#
# Youngs Moduli (GPa) = 38.56912 78.83328 80.09065
#
# Poissons Ratio (x) = 0.58437 0.58176
# Poissons Ratio (y) = 0.28590 0.14624
# Poissons Ratio (z) = 0.28016 0.14394
#
# Static dielectric constant tensor:
#      x y z
#    x 3.121120 0.000000 0.000000 
#    y 0.000000 3.134700 0.000000 
#    z 0.000000 0.000000 3.332320 
# 
# 
# High freq. dielectric constant tensor:
#      x y z
#    x 1.676210 0.000000 0.000000 
#    y 0.000000 1.678640 0.000000 
#    z 0.000000 0.000000 1.677910 
# 
# From -- ./inp_files/20236.got.cif
#   From: 2010.03.12/outbox.cif.g09.slc.cpg/sg60_11_cif.got.tgz:20236.got - 2010.04.10 18:46:24.
