data_PCOD8246416
_publ_section_title
;
Structure prediction by ZEFSAII (Michael W. Deem and Ramdas Pophale) SiO2 
 PCOD8246416
Probable space group: P B C N
;
_chemical_formula_sum "Si O2"
_cell_formula_units_Z 56
_cell_length_a 15.294863
_cell_length_b 20.770864
_cell_length_c 8.778566
_cell_angle_alpha 90.000000
_cell_angle_beta 90.000000
_cell_angle_gamma 90.000000
_cell_volume 2788.840855
_symmetry_space_group_name_H-M "P B C N"
_symmetry_group_IT_number 60
_symmetry_cell_setting 'orthorhombic'
loop_
_space_group_symop_operation_xyz
x,y,z
1/2-x,1/2-y,1/2+z
1/2+x,1/2-y,-z
-x,y,1/2-z
-x,-y,-z
1/2+x,1/2+y,1/2-z
1/2-x,1/2+y,z
x,-y,1/2+z
loop_
_atom_site_type_symbol
_atom_site_label
_atom_site_fract_x
_atom_site_fract_y
_atom_site_fract_z
Si Si1 0.545695 0.836642 0.518617
Si Si2 0.225937 0.214059 0.741832
Si Si3 0.187131 0.588916 0.637391
Si Si4 0.243406 0.003919 0.372778
Si Si5 0.361266 0.282834 0.561984
Si Si6 0.131214 0.334348 0.659880
Si Si7 0.809416 0.911858 0.883375
O O1 0.591472 0.878119 0.383695
O O2 0.555605 0.759825 0.484282
O O3 0.595547 0.853765 0.674426
O O4 0.442460 0.849961 0.532153
O O5 0.236904 0.142301 0.671166
O O6 0.316902 0.250871 0.710190
O O7 0.208913 0.212540 0.922318
O O8 0.151225 0.257344 0.659168
O O9 0.185833 0.536399 0.772605
O O10 0.206294 0.553084 0.480090
O O11 0.182723 0.955366 0.466895
O O12 0.177708 0.043719 0.264161
O O13 0.384584 0.356722 0.606509
O O14 0.214052 0.378122 0.622078
#
# Coordination Sequence:
#
# PCOD8246416 Si02
#       7
#     8   8   8   8   8   8   8
#     4   9  17  31  50  72  97 125 155 194 241 285
#     4   9  17  29  50  71  92 119 155 201 242 275
#     4  10  18  33  47  71  96 125 163 197 231 273
#     4  10  20  30  49  68  95 130 166 194 222 280
#     4   9  17  29  50  71  92 119 155 201 242 275
#     4   9  17  31  50  72  97 125 155 194 241 285
#     4  10  18  33  47  71  96 125 163 197 231 273
#
# _framework density 20.080027000000001
#
# number of rings (size 3 to 8) (size 9 to 14) (size 15 to 20)
#    0.000    2.571    2.857    0.000    2.000    0.000 
#    0.000    5.000    0.000    0.000    0.000    6.000 
#    0.000    0.000    0.000    0.000    0.000    0.000 
#
# Total GULP energy -693735.052387 kJ/mol
# GULP energy per Si atom -12388.125935 kJ/mol
# Density = 2.003432 g / cm^3
# Si number density = 20.080027 Si / 1000 Ang^3
#
#
#
# Elastic Constant Matrix: (Units=GPa)
#
#
# Indices 1 2 3 4 5 6 
#
# 1 7.3573 -3.6000 -1.9656 0.0000 0.0000 0.0000
# 2 -3.6000 119.4258 37.1579 0.0000 0.0000 0.0000
# 3 -1.9656 37.1579 70.7554 0.0000 0.0000 0.0000
# 4 0.0000 0.0000 0.0000 30.1673 0.0000 0.0000
# 5 0.0000 0.0000 0.0000 0.0000 13.1959 0.0000
# 6 0.0000 0.0000 0.0000 0.0000 0.0000 13.7899
#
#
#
# Elastic Compliance Matrix: (Units=1/GPa)
#
#
# Indices 1 2 3 4 5 6 
#
# 1 0.138185 0.003551 0.001974 0.000000 0.000000 0.000000
# 2 0.003551 0.010100 -0.005206 0.000000 0.000000 0.000000
# 3 0.001974 -0.005206 0.016922 0.000000 0.000000 0.000000
# 4 0.000000 0.000000 0.000000 0.033148 0.000000 0.000000
# 5 0.000000 0.000000 0.000000 0.000000 0.075781 0.000000
# 6 0.000000 0.000000 0.000000 0.000000 0.000000 0.072517
#
#
# Mechanical properties :
#
#
# Convention : Reuss Voigt Hill
#
# Bulk Modulus (GPa) = 6.02968 28.96922 17.49945
# Shear Modulus (GPa) = 12.45964 22.49371 17.47667
#
# Velocity S-wave (km/s) = 2.49368 3.35057 2.95337
# Velocity P-wave (km/s) = 3.36164 5.42464 4.51261
#
# Compressibility (1/GPa) = 0.16584624
#
# Stress axis : x y z
#
# Youngs Moduli (GPa) = 7.23668 99.00903 59.09555
#
# Poissons Ratio (x) = -0.35162 -0.11664
# Poissons Ratio (y) = -0.02570 0.30762
# Poissons Ratio (z) = -0.01428 0.51539
#
# Static dielectric constant tensor:
#      x y z
#    x 3.069190 0.000000 0.000000 
#    y 0.000000 4.116890 0.000000 
#    z 0.000000 0.000000 3.770500 
# 
# 
# High freq. dielectric constant tensor:
#      x y z
#    x 1.708950 0.000000 0.000000 
#    y 0.000000 1.801420 0.000000 
#    z 0.000000 0.000000 1.793660 
# 
# From -- ./inp_files/6974.got.cif
#   From: 2010.03.12/outbox.cif.g09.slc.cpg/sg60_4_cif.got.tgz:6974.got - 2010.04.10 18:46:24.
