data_PCOD8246313
_publ_section_title
;
Structure prediction by ZEFSAII (Michael W. Deem and Ramdas Pophale) SiO2 
 PCOD8246313
Probable space group: P B C N
;
_chemical_formula_sum "Si O2"
_cell_formula_units_Z 52
_cell_length_a 9.266352
_cell_length_b 15.193300
_cell_length_c 20.726201
_cell_angle_alpha 90.000000
_cell_angle_beta 90.000000
_cell_angle_gamma 90.000000
_cell_volume 2917.968589
_symmetry_space_group_name_H-M "P B C N"
_symmetry_group_IT_number 60
_symmetry_cell_setting 'orthorhombic'
loop_
_space_group_symop_operation_xyz
x,y,z
1/2-x,1/2-y,1/2+z
1/2+x,1/2-y,-z
-x,y,1/2-z
-x,-y,-z
1/2+x,1/2+y,1/2-z
1/2-x,1/2+y,z
x,-y,1/2+z
loop_
_atom_site_type_symbol
_atom_site_label
_atom_site_fract_x
_atom_site_fract_y
_atom_site_fract_z
Si Si1 0.368258 0.843216 0.421545
Si Si2 0.841153 0.539727 0.067828
Si Si3 0.189824 0.608008 0.575606
Si Si4 0.330787 0.206906 0.365038
Si Si5 0.856676 0.560335 0.367859
Si Si6 0.874282 0.725384 0.436024
Si Si7 0.000000 0.639051 0.250000
O O1 0.535991 0.851441 0.403212
O O2 0.289574 0.782768 0.367741
O O3 0.351643 0.792726 0.488917
O O4 0.289112 0.938859 0.422304
O O5 0.764520 0.610150 0.116389
O O6 0.011582 0.542258 0.082147
O O7 0.812327 0.569644 0.995765
O O8 0.238005 0.528137 0.624375
O O9 0.311426 0.680782 0.583094
O O10 0.456655 0.226615 0.417437
O O11 0.397619 0.201869 0.293122
O O12 0.787092 0.650962 0.394542
O O13 0.905312 0.573844 0.294288
#
# Coordination Sequence:
#
# PCOD8246313 Si02
#       7
#     8   8   8   8   8   8   4
#     4  11  16  29  50  76 100 129 166 205 248 294
#     4   9  16  28  49  74 101 128 159 203 249 293
#     4  11  17  29  51  79 103 122 162 212 254 290
#     4  10  20  33  50  71 103 134 167 203 246 311
#     4   9  17  32  49  68  96 134 168 201 235 299
#     4  10  17  29  47  75 104 130 153 204 265 295
#     4   8  18  36  52  66  94 144 176 192 240 304
#
# _framework density 17.820618
#
# number of rings (size 3 to 8) (size 9 to 14) (size 15 to 20)
#    0.000    2.462    6.154    0.923    0.000    0.000 
#    0.000   11.538    0.000    0.000    0.000    0.000 
#    0.000    0.000    0.000    0.000    0.000    0.000 
#
# Total GULP energy -644298.920277 kJ/mol
# GULP energy per Si atom -12390.363851 kJ/mol
# Density = 1.778006 g / cm^3
# Si number density = 17.820618 Si / 1000 Ang^3
#
#
#
# Elastic Constant Matrix: (Units=GPa)
#
#
# Indices 1 2 3 4 5 6 
#
# 1 17.2952 6.1808 0.2893 0.0000 0.0000 0.0000
# 2 6.1808 86.8746 8.3450 0.0000 0.0000 0.0000
# 3 0.2893 8.3450 80.0365 0.0000 0.0000 0.0000
# 4 0.0000 0.0000 0.0000 16.5171 0.0000 0.0000
# 5 0.0000 0.0000 0.0000 0.0000 14.4381 0.0000
# 6 0.0000 0.0000 0.0000 0.0000 0.0000 29.3154
#
#
#
# Elastic Compliance Matrix: (Units=1/GPa)
#
#
# Indices 1 2 3 4 5 6 
#
# 1 0.059332 -0.004243 0.000228 0.000000 0.000000 0.000000
# 2 -0.004243 0.011931 -0.001229 0.000000 0.000000 0.000000
# 3 0.000228 -0.001229 0.012622 0.000000 0.000000 0.000000
# 4 0.000000 0.000000 0.000000 0.060543 0.000000 0.000000
# 5 0.000000 0.000000 0.000000 0.000000 0.069261 0.000000
# 6 0.000000 0.000000 0.000000 0.000000 0.000000 0.034112
#
#
# Mechanical properties :
#
#
# Convention : Reuss Voigt Hill
#
# Bulk Modulus (GPa) = 13.62458 23.75960 18.69209
# Shear Modulus (GPa) = 17.68324 23.34688 20.51506
#
# Velocity S-wave (km/s) = 3.15348 3.62346 3.39661
# Velocity P-wave (km/s) = 4.57398 5.55586 5.08866
#
# Compressibility (1/GPa) = 0.07339678
#
# Stress axis : x y z
#
# Youngs Moduli (GPa) = 16.85430 83.81707 79.22940
#
# Poissons Ratio (x) = 0.35565 -0.01806
# Poissons Ratio (y) = 0.07152 0.09734
# Poissons Ratio (z) = -0.00384 0.10298
#
# Static dielectric constant tensor:
#      x y z
#    x 2.849770 0.000000 0.000000 
#    y 0.000000 3.978870 0.000000 
#    z 0.000000 0.000000 3.098100 
# 
# 
# High freq. dielectric constant tensor:
#      x y z
#    x 1.631000 0.000000 0.000000 
#    y 0.000000 1.713200 0.000000 
#    z 0.000000 0.000000 1.671210 
# 
# From -- ./inp_files/22711.got.cif
#   From: 2010.03.12/outbox.cif.g09.slc.cpg/sg60_12_cif.got.tgz:22711.got - 2010.04.10 18:46:24.
