data_PCOD8246884
_publ_section_title
;
Structure prediction by ZEFSAII (Michael W. Deem and Ramdas Pophale) SiO2 
 PCOD8246884
Probable space group: P B C N
;
_chemical_formula_sum "Si O2"
_cell_formula_units_Z 56
_cell_length_a 27.086550
_cell_length_b 5.176200
_cell_length_c 18.998796
_cell_angle_alpha 90.000000
_cell_angle_beta 90.000000
_cell_angle_gamma 90.000000
_cell_volume 2663.733795
_symmetry_space_group_name_H-M "P B C N"
_symmetry_group_IT_number 60
_symmetry_cell_setting 'orthorhombic'
loop_
_space_group_symop_operation_xyz
x,y,z
1/2-x,1/2-y,1/2+z
1/2+x,1/2-y,-z
-x,y,1/2-z
-x,-y,-z
1/2+x,1/2+y,1/2-z
1/2-x,1/2+y,z
x,-y,1/2+z
loop_
_atom_site_type_symbol
_atom_site_label
_atom_site_fract_x
_atom_site_fract_y
_atom_site_fract_z
Si Si1 0.778914 0.304044 0.306875
Si Si2 0.390772 0.184677 0.879649
Si Si3 0.566849 0.330695 0.188316
Si Si4 0.543874 0.395443 0.344752
Si Si5 0.872170 0.803528 0.897377
Si Si6 0.720747 0.814777 0.140417
Si Si7 0.897530 0.699575 0.463487
O O1 0.758007 0.578816 0.332574
O O2 0.832613 0.252836 0.337603
O O3 0.785332 0.309979 0.223823
O O4 0.395793 0.438988 0.831140
O O5 0.332854 0.137540 0.892930
O O6 0.416822 0.937988 0.845370
O O7 0.415164 0.233281 0.956195
O O8 0.565067 0.279955 0.271697
O O9 0.514447 0.434548 0.159433
O O10 0.573670 0.663810 0.359892
O O11 0.555453 0.202894 0.410059
O O12 0.871012 0.574717 0.954161
O O13 0.860430 0.067732 0.940420
O O14 0.743991 0.545973 0.114313
#
# Coordination Sequence:
#
# PCOD8246884 Si02
#       7
#     8   8   8   8   8   8   8
#     4  10  20  35  60  93 117 153 212 262 312 370
#     4  12  25  43  63  97 125 173 209 263 313 392
#     4  11  25  39  68  96 130 162 225 256 319 377
#     4   9  25  41  65  95 129 171 207 270 316 370
#     4  10  21  40  61  83 127 167 198 260 317 372
#     4  10  22  39  62  88 122 161 205 260 316 372
#     4  10  24  40  64  89 133 164 210 248 325 375
#
# _framework density 21.023119999999999
#
# number of rings (size 3 to 8) (size 9 to 14) (size 15 to 20)
#    0.857    0.857    0.000    3.429    6.000    3.429 
#    0.000    4.286    0.000    0.000    0.000    0.000 
#    0.000    0.000    0.000    0.000    0.000    0.000 
#
# Total GULP energy -694152.404850 kJ/mol
# GULP energy per Si atom -12395.578658 kJ/mol
# Density = 2.097527 g / cm^3
# Si number density = 21.023120 Si / 1000 Ang^3
#
#
#
# Elastic Constant Matrix: (Units=GPa)
#
#
# Indices 1 2 3 4 5 6 
#
# 1 81.1257 17.1992 27.5678 0.0000 0.0000 0.0000
# 2 17.1992 129.1164 30.5874 0.0000 0.0000 0.0000
# 3 27.5678 30.5874 81.4169 0.0000 0.0000 0.0000
# 4 0.0000 0.0000 0.0000 23.0668 0.0000 0.0000
# 5 0.0000 0.0000 0.0000 0.0000 21.5473 0.0000
# 6 0.0000 0.0000 0.0000 0.0000 0.0000 26.0231
#
#
#
# Elastic Compliance Matrix: (Units=1/GPa)
#
#
# Indices 1 2 3 4 5 6 
#
# 1 0.014007 -0.000815 -0.004437 0.000000 0.000000 0.000000
# 2 -0.000815 0.008549 -0.002936 0.000000 0.000000 0.000000
# 3 -0.004437 -0.002936 0.014888 0.000000 0.000000 0.000000
# 4 0.000000 0.000000 0.000000 0.043352 0.000000 0.000000
# 5 0.000000 0.000000 0.000000 0.000000 0.046410 0.000000
# 6 0.000000 0.000000 0.000000 0.000000 0.000000 0.038427
#
#
# Mechanical properties :
#
#
# Convention : Reuss Voigt Hill
#
# Bulk Modulus (GPa) = 47.46308 49.15194 48.30751
# Shear Modulus (GPa) = 26.45074 28.54773 27.49924
#
# Velocity S-wave (km/s) = 3.55092 3.68900 3.62062
# Velocity P-wave (km/s) = 6.27994 6.44792 6.36448
#
# Compressibility (1/GPa) = 0.02106901
#
# Stress axis : x y z
#
# Youngs Moduli (GPa) = 71.39316 116.97294 67.16956
#
# Poissons Ratio (x) = 0.09531 0.29801
# Poissons Ratio (y) = 0.05817 0.19720
# Poissons Ratio (z) = 0.31675 0.34342
#
# Static dielectric constant tensor:
#      x y z
#    x 3.617200 0.000000 0.000000 
#    y 0.000000 3.895120 0.000000 
#    z 0.000000 0.000000 3.674790 
# 
# 
# High freq. dielectric constant tensor:
#      x y z
#    x 1.809710 0.000000 0.000000 
#    y 0.000000 1.832270 0.000000 
#    z 0.000000 0.000000 1.816340 
# 
# From -- ./inp_files/23289.got.cif
#   From: 2010.03.12/outbox.cif.g09.slc.cpg/sg60_12_cif.got.tgz:23289.got - 2010.04.10 18:46:24.
