data_PCOD8246950
_publ_section_title
;
Structure prediction by ZEFSAII (Michael W. Deem and Ramdas Pophale) SiO2 
 PCOD8246950
Probable space group: P B C N
;
_chemical_formula_sum "Si O2"
_cell_formula_units_Z 52
_cell_length_a 21.205163
_cell_length_b 14.382053
_cell_length_c 8.518924
_cell_angle_alpha 90.000000
_cell_angle_beta 90.000000
_cell_angle_gamma 90.000000
_cell_volume 2598.048438
_symmetry_space_group_name_H-M "P B C N"
_symmetry_group_IT_number 60
_symmetry_cell_setting 'orthorhombic'
loop_
_space_group_symop_operation_xyz
x,y,z
1/2-x,1/2-y,1/2+z
1/2+x,1/2-y,-z
-x,y,1/2-z
-x,-y,-z
1/2+x,1/2+y,1/2-z
1/2-x,1/2+y,z
x,-y,1/2+z
loop_
_atom_site_type_symbol
_atom_site_label
_atom_site_fract_x
_atom_site_fract_y
_atom_site_fract_z
Si Si1 0.610133 0.259376 0.958576
Si Si2 0.803240 0.289090 0.190169
Si Si3 0.000000 0.714266 0.750000
Si Si4 0.262275 0.410407 0.790409
Si Si5 0.912597 0.601640 0.532089
Si Si6 0.698848 0.406689 0.061954
Si Si7 0.614140 0.907624 0.676256
O O1 0.669434 0.212892 0.866697
O O2 0.553561 0.277508 0.833784
O O3 0.630363 0.358136 0.035642
O O4 0.591359 0.186022 0.090877
O O5 0.790240 0.183711 0.134818
O O6 0.849911 0.341268 0.073056
O O7 0.737443 0.344325 0.187251
O O8 0.972059 0.651314 0.611294
O O9 0.265552 0.411785 0.603086
O O10 0.306155 0.491017 0.864533
O O11 0.189146 0.422039 0.829319
O O12 0.917538 0.599694 0.345696
O O13 0.913985 0.496145 0.589428
#
# Coordination Sequence:
#
# PCOD8246950 Si02
#       7
#     8   8   4   8   8   8   8
#     4  10  24  39  61  84 121 162 205 248 297 359
#     4  10  20  37  56  87 121 160 194 242 304 356
#     4  10  24  46  60  80 120 168 210 256 284 352
#     4  11  22  33  57  88 129 151 187 247 307 371
#     4  11  23  37  60  87 123 163 208 243 300 353
#     4  11  22  36  58  89 122 162 191 244 306 363
#     4  12  21  35  58  92 121 160 193 248 303 366
#
# _framework density 20.015024
#
# number of rings (size 3 to 8) (size 9 to 14) (size 15 to 20)
#    0.000    1.231    4.615    1.846    2.154    4.308 
#    0.000    0.000    0.000    8.308    0.000    0.000 
#    0.000    0.000    0.000    0.000    0.000    0.000 
#
# Total GULP energy -644769.505997 kJ/mol
# GULP energy per Si atom -12399.413577 kJ/mol
# Density = 1.996947 g / cm^3
# Si number density = 20.015024 Si / 1000 Ang^3
#
#
#
# Elastic Constant Matrix: (Units=GPa)
#
#
# Indices 1 2 3 4 5 6 
#
# 1 70.0992 20.3873 23.5704 0.0000 0.0000 0.0000
# 2 20.3873 106.0946 22.2221 0.0000 0.0000 0.0000
# 3 23.5704 22.2221 90.0507 0.0000 0.0000 0.0000
# 4 0.0000 0.0000 0.0000 29.0734 0.0000 0.0000
# 5 0.0000 0.0000 0.0000 0.0000 19.0951 0.0000
# 6 0.0000 0.0000 0.0000 0.0000 0.0000 23.8629
#
#
#
# Elastic Compliance Matrix: (Units=1/GPa)
#
#
# Indices 1 2 3 4 5 6 
#
# 1 0.016176 -0.002343 -0.003656 0.000000 0.000000 0.000000
# 2 -0.002343 0.010279 -0.001923 0.000000 0.000000 0.000000
# 3 -0.003656 -0.001923 0.012536 0.000000 0.000000 0.000000
# 4 0.000000 0.000000 0.000000 0.034396 0.000000 0.000000
# 5 0.000000 0.000000 0.000000 0.000000 0.052370 0.000000
# 6 0.000000 0.000000 0.000000 0.000000 0.000000 0.041906
#
#
# Mechanical properties :
#
#
# Convention : Reuss Voigt Hill
#
# Bulk Modulus (GPa) = 43.20159 44.28936 43.74547
# Shear Modulus (GPa) = 26.14765 27.74394 26.94580
#
# Velocity S-wave (km/s) = 3.61834 3.72715 3.67315
# Velocity P-wave (km/s) = 6.25203 6.37952 6.31610
#
# Compressibility (1/GPa) = 0.02314730
#
# Stress axis : x y z
#
# Youngs Moduli (GPa) = 61.81961 97.28986 79.76776
#
# Poissons Ratio (x) = 0.22792 0.29162
# Poissons Ratio (y) = 0.14482 0.15342
# Poissons Ratio (z) = 0.22601 0.18712
#
# Static dielectric constant tensor:
#      x y z
#    x 3.556050 0.000000 0.000000 
#    y 0.000000 3.720740 0.000000 
#    z 0.000000 0.000000 3.667180 
# 
# 
# High freq. dielectric constant tensor:
#      x y z
#    x 1.762640 0.000000 0.000000 
#    y 0.000000 1.774620 0.000000 
#    z 0.000000 0.000000 1.788760 
# 
# From -- ./inp_files/7354.got.cif
#   From: 2010.03.12/outbox.cif.g09.slc.cpg/sg60_4_cif.got.tgz:7354.got - 2010.04.10 18:46:24.
