data_PCOD8246272
_publ_section_title
;
Structure prediction by ZEFSAII (Michael W. Deem and Ramdas Pophale) SiO2 
 PCOD8246272
Probable space group: P B C N
;
_chemical_formula_sum "Si O2"
_cell_formula_units_Z 32
_cell_length_a 8.293406
_cell_length_b 33.775763
_cell_length_c 5.292854
_cell_angle_alpha 90.000000
_cell_angle_beta 90.000000
_cell_angle_gamma 90.000000
_cell_volume 1482.613702
_symmetry_space_group_name_H-M "P B C N"
_symmetry_group_IT_number 60
_symmetry_cell_setting 'orthorhombic'
loop_
_space_group_symop_operation_xyz
x,y,z
1/2-x,1/2-y,1/2+z
1/2+x,1/2-y,-z
-x,y,1/2-z
-x,-y,-z
1/2+x,1/2+y,1/2-z
1/2-x,1/2+y,z
x,-y,1/2+z
loop_
_atom_site_type_symbol
_atom_site_label
_atom_site_fract_x
_atom_site_fract_y
_atom_site_fract_z
Si Si1 0.680503 0.356745 0.976585
Si Si2 0.319877 0.390063 0.021313
Si Si3 0.824855 0.765446 0.845403
Si Si4 0.319868 0.483323 0.018023
O O1 0.499344 0.372889 0.998433
O O2 0.768572 0.369570 0.237801
O O3 0.770026 0.377657 0.738484
O O4 0.682210 0.310123 0.941331
O O5 0.322067 0.436714 0.056207
O O6 0.712206 0.760290 0.597265
O O7 0.000000 0.752621 0.750000
O O8 0.230630 0.496408 0.758724
O O9 0.500000 0.500000 0.000000
#
# Coordination Sequence:
#
# PCOD8246272 Si02
#       4
#     8   8   8   8
#     4  10  18  31  48  69  95 132 188 226 261 334
#     4  10  17  27  47  63 100 137 188 222 261 328
#     4  12  25  41  62  86 115 147 193 253 302 350
#     4  10  16  23  34  60  93 133 181 216 254 313
#
# _framework density 21.583504000000001
#
# number of rings (size 3 to 8) (size 9 to 14) (size 15 to 20)
#    0.000    1.500    2.500    9.750    3.500    0.000 
#    0.000    0.000    0.000    0.000    0.000    0.000 
#    0.000    0.000    0.000    0.000    0.000 1065.000 
#
# Total GULP energy -396442.871967 kJ/mol
# GULP energy per Si atom -12388.839749 kJ/mol
# Density = 2.153438 g / cm^3
# Si number density = 21.583504 Si / 1000 Ang^3
#
#
#
# Elastic Constant Matrix: (Units=GPa)
#
#
# Indices 1 2 3 4 5 6 
#
# 1 19.4838 31.3595 21.2465 0.0000 0.0000 0.0000
# 2 31.3595 160.2364 82.3912 0.0000 0.0000 0.0000
# 3 21.2465 82.3912 277.9482 0.0000 0.0000 0.0000
# 4 0.0000 0.0000 0.0000 91.6602 0.0000 0.0000
# 5 0.0000 0.0000 0.0000 0.0000 13.5695 0.0000
# 6 0.0000 0.0000 0.0000 0.0000 0.0000 13.7154
#
#
#
# Elastic Compliance Matrix: (Units=1/GPa)
#
#
# Indices 1 2 3 4 5 6 
#
# 1 0.075557 -0.013942 -0.001643 0.000000 0.000000 0.000000
# 2 -0.013942 0.009936 -0.001879 0.000000 0.000000 0.000000
# 3 -0.001643 -0.001879 0.004280 0.000000 0.000000 0.000000
# 4 0.000000 0.000000 0.000000 0.010910 0.000000 0.000000
# 5 0.000000 0.000000 0.000000 0.000000 0.073695 0.000000
# 6 0.000000 0.000000 0.000000 0.000000 0.000000 0.072911
#
#
# Mechanical properties :
#
#
# Convention : Reuss Voigt Hill
#
# Bulk Modulus (GPa) = 18.23362 80.85144 49.54253
# Shear Modulus (GPa) = 16.63903 45.30042 30.96972
#
# Velocity S-wave (km/s) = 2.77955 4.58629 3.79209
# Velocity P-wave (km/s) = 4.33214 8.09855 6.49438
#
# Compressibility (1/GPa) = 0.05484373
#
# Stress axis : x y z
#
# Youngs Moduli (GPa) = 13.23513 100.64604 233.61829
#
# Poissons Ratio (x) = 1.40324 0.38377
# Poissons Ratio (y) = 0.18453 0.43908
# Poissons Ratio (z) = 0.02174 0.18916
#
# Static dielectric constant tensor:
#      x y z
#    x 3.028770 0.000000 0.000000 
#    y 0.000000 4.399180 0.000000 
#    z 0.000000 0.000000 10.288360 
# 
# 
# High freq. dielectric constant tensor:
#      x y z
#    x 1.743130 0.000000 0.000000 
#    y 0.000000 1.860890 0.000000 
#    z 0.000000 0.000000 1.905820 
# 
# From -- ./inp_files/375.got.cif
#   From: 2010.03.12/outbox.cif.g09.slc.cpg/sg60_1_cif.got.tgz:375.got - 2010.04.10 18:46:24.
