data_PCOD8246926
_publ_section_title
;
Structure prediction by ZEFSAII (Michael W. Deem and Ramdas Pophale) SiO2 
 PCOD8246926
Probable space group: P B C N
;
_chemical_formula_sum "Si O2"
_cell_formula_units_Z 48
_cell_length_a 8.447149
_cell_length_b 25.615798
_cell_length_c 11.517382
_cell_angle_alpha 90.000000
_cell_angle_beta 90.000000
_cell_angle_gamma 90.000000
_cell_volume 2492.136443
_symmetry_space_group_name_H-M "P B C N"
_symmetry_group_IT_number 60
_symmetry_cell_setting 'orthorhombic'
loop_
_space_group_symop_operation_xyz
x,y,z
1/2-x,1/2-y,1/2+z
1/2+x,1/2-y,-z
-x,y,1/2-z
-x,-y,-z
1/2+x,1/2+y,1/2-z
1/2-x,1/2+y,z
x,-y,1/2+z
loop_
_atom_site_type_symbol
_atom_site_label
_atom_site_fract_x
_atom_site_fract_y
_atom_site_fract_z
Si Si1 0.709920 0.042754 0.855847
Si Si2 0.682275 0.307893 0.513635
Si Si3 0.601608 0.725754 0.640296
Si Si4 0.500000 0.512741 0.250000
Si Si5 0.500000 0.041656 0.250000
Si Si6 0.724411 0.582115 0.106217
Si Si7 0.326742 0.155815 0.721477
O O1 0.670023 0.093074 0.777079
O O2 0.881389 0.024367 0.817200
O O3 0.583013 0.996543 0.842742
O O4 0.710970 0.057609 0.988957
O O5 0.511440 0.288420 0.468173
O O6 0.768165 0.266502 0.596416
O O7 0.659353 0.359475 0.591212
O O8 0.790920 0.320916 0.404350
O O9 0.500000 0.748257 0.750000
O O10 0.696610 0.674613 0.684480
O O11 0.580451 0.548368 0.153221
O O12 0.372782 0.080353 0.306625
O O13 0.500000 0.177752 0.750000
#
# Coordination Sequence:
#
# PCOD8246926 Si02
#       7
#     8   8   8   4   4   8   8
#     4  10  20  36  61  84 117 153 198 237 290 349
#     4  10  22  40  60  87 120 153 197 247 300 353
#     4  10  22  40  62  88 118 155 198 248 300 356
#     4  10  22  38  56  84 120 156 188 242 294 346
#     4  10  20  38  58  88 116 156 192 242 294 344
#     4  10  22  38  57  85 120 152 199 237 296 348
#     4  10  20  37  62  90 114 152 198 244 296 352
#
# _framework density 19.260581999999999
#
# number of rings (size 3 to 8) (size 9 to 14) (size 15 to 20)
#    0.000    2.000    0.833    2.000    7.000    0.000 
#    7.500    3.333    0.000    0.000    0.000    0.000 
#    0.000    0.000    0.000    0.000    0.000    0.000 
#
# Total GULP energy -595211.640997 kJ/mol
# GULP energy per Si atom -12400.242521 kJ/mol
# Density = 1.921674 g / cm^3
# Si number density = 19.260582 Si / 1000 Ang^3
#
#
#
# Elastic Constant Matrix: (Units=GPa)
#
#
# Indices 1 2 3 4 5 6 
#
# 1 94.2855 24.7867 29.7064 0.0000 0.0000 0.0000
# 2 24.7867 78.8437 43.6231 0.0000 0.0000 0.0000
# 3 29.7064 43.6231 70.0021 0.0000 0.0000 0.0000
# 4 0.0000 0.0000 0.0000 46.9185 0.0000 0.0000
# 5 0.0000 0.0000 0.0000 0.0000 27.1078 0.0000
# 6 0.0000 0.0000 0.0000 0.0000 0.0000 22.5183
#
#
#
# Elastic Compliance Matrix: (Units=1/GPa)
#
#
# Indices 1 2 3 4 5 6 
#
# 1 0.012358 -0.001501 -0.004309 0.000000 0.000000 0.000000
# 2 -0.001501 0.019540 -0.011540 0.000000 0.000000 0.000000
# 3 -0.004309 -0.011540 0.023305 0.000000 0.000000 0.000000
# 4 0.000000 0.000000 0.000000 0.021314 0.000000 0.000000
# 5 0.000000 0.000000 0.000000 0.000000 0.036890 0.000000
# 6 0.000000 0.000000 0.000000 0.000000 0.000000 0.044408
#
#
# Mechanical properties :
#
#
# Convention : Reuss Voigt Hill
#
# Bulk Modulus (GPa) = 48.77145 48.81819 48.79482
# Shear Modulus (GPa) = 25.08161 28.97659 27.02910
#
# Velocity S-wave (km/s) = 3.61255 3.88293 3.75018
# Velocity P-wave (km/s) = 6.54046 6.74567 6.64386
#
# Compressibility (1/GPa) = 0.02050380
#
# Stress axis : x y z
#
# Youngs Moduli (GPa) = 80.91708 51.17711 42.90915
#
# Poissons Ratio (x) = 0.07682 0.18490
# Poissons Ratio (y) = 0.12146 0.49516
# Poissons Ratio (z) = 0.34867 0.59057
#
# Static dielectric constant tensor:
#      x y z
#    x 3.338810 0.000000 0.000000 
#    y 0.000000 3.505770 0.000000 
#    z 0.000000 0.000000 3.463560 
# 
# 
# High freq. dielectric constant tensor:
#      x y z
#    x 1.761700 0.000000 0.000000 
#    y 0.000000 1.746300 0.000000 
#    z 0.000000 0.000000 1.748030 
# 
# From -- ./inp_files/10142.got.cif
#   From: 2010.03.12/outbox.cif.g09.slc.cpg/sg60_6_cif.got.tgz:10142.got - 2010.04.10 18:46:24.
