data_PCOD8246180
_publ_section_title
;
Structure prediction by ZEFSAII (Michael W. Deem and Ramdas Pophale) SiO2 
 PCOD8246180
Probable space group: P M M N
;
_chemical_formula_sum "Si O2"
_cell_formula_units_Z 56
_cell_length_a 9.627412
_cell_length_b 18.658832
_cell_length_c 18.108272
_cell_angle_alpha 90.000000
_cell_angle_beta 90.000000
_cell_angle_gamma 90.000000
_cell_volume 3252.902313
_symmetry_space_group_name_H-M "P M M N"
_symmetry_group_IT_number 59
_space_group.IT_coordinate_system_code '2'
_symmetry_cell_setting 'orthorhombic'
loop_
_space_group_symop_operation_xyz
x,y,z
1/2-x,1/2-y,z
1/2+x,-y,-z
-x,1/2+y,-z
-x,-y,-z
1/2+x,1/2+y,-z
1/2-x,y,z
x,1/2-y,z
loop_
_atom_site_type_symbol
_atom_site_label
_atom_site_fract_x
_atom_site_fract_y
_atom_site_fract_z
Si Si1 0.084580 0.669966 0.349872
Si Si2 0.904596 0.164711 0.487925
Si Si3 0.584823 0.582896 0.789520
Si Si4 0.084707 0.578587 0.214286
Si Si5 0.410789 0.833117 0.072972
Si Si6 0.411253 0.333803 0.353548
Si Si7 0.589264 0.833285 0.932503
O O1 0.250000 0.673340 0.345628
O O2 0.024595 0.750000 0.336505
O O3 0.041413 0.640144 0.430959
O O4 0.023855 0.617362 0.287200
O O5 0.750000 0.134376 0.472295
O O6 0.900084 0.250000 0.487964
O O7 0.008124 0.136190 0.425069
O O8 0.750000 0.584503 0.789141
O O9 0.526376 0.502111 0.788644
O O10 0.529686 0.624691 0.717625
O O11 0.531113 0.622358 0.862987
O O12 0.250000 0.578357 0.217633
O O13 0.034454 0.621213 0.142133
O O14 0.250000 0.849044 0.055554
O O15 0.434204 0.750000 0.092185
O O16 0.500307 0.857263 0.002868
O O17 0.250000 0.350028 0.366865
O O18 0.438498 0.250000 0.340523
O O19 0.750000 0.850654 0.948889
O O20 0.567887 0.750000 0.914168
#
# Coordination Sequence:
#
# PCOD8246180 Si02
#       7
#     8   8   8   8   8   8   8
#     4   8  13  23  41  63  85 110 140 172 207 249
#     4   8  14  25  42  64  86 107 136 174 212 250
#     4   9  17  28  42  61  84 112 146 176 203 244
#     4   9  16  26  42  64  88 112 139 173 210 246
#     4   9  17  29  46  68  89 107 134 174 214 249
#     4   9  16  27  44  63  83 109 142 178 211 243
#     4   9  17  30  47  64  84 112 143 173 207 248
#
# _framework density 17.215394
#
# number of rings (size 3 to 8) (size 9 to 14) (size 15 to 20)
#    0.000    3.286    0.000    1.714    0.000    4.000 
#    0.000    1.429    0.000    5.143    0.000    4.000 
#    0.000    0.000    0.000    0.000    0.000    0.000 
#
# Total GULP energy -694211.784832 kJ/mol
# GULP energy per Si atom -12396.639015 kJ/mol
# Density = 1.717621 g / cm^3
# Si number density = 17.215394 Si / 1000 Ang^3
#
#
#
# Elastic Constant Matrix: (Units=GPa)
#
#
# Indices 1 2 3 4 5 6 
#
# 1 35.5264 25.9600 51.4556 0.0000 0.0000 0.0000
# 2 25.9600 85.7512 82.7402 0.0000 0.0000 0.0000
# 3 51.4556 82.7402 196.8565 0.0000 0.0000 0.0000
# 4 0.0000 0.0000 0.0000 10.3776 0.0000 0.0000
# 5 0.0000 0.0000 0.0000 0.0000 26.6521 0.0000
# 6 0.0000 0.0000 0.0000 0.0000 0.0000 9.9917
#
#
#
# Elastic Compliance Matrix: (Units=1/GPa)
#
#
# Indices 1 2 3 4 5 6 
#
# 1 0.046065 -0.003916 -0.010395 0.000000 0.000000 0.000000
# 2 -0.003916 0.019950 -0.007362 0.000000 0.000000 0.000000
# 3 -0.010395 -0.007362 0.010891 0.000000 0.000000 0.000000
# 4 0.000000 0.000000 0.000000 0.096361 0.000000 0.000000
# 5 0.000000 0.000000 0.000000 0.000000 0.037520 0.000000
# 6 0.000000 0.000000 0.000000 0.000000 0.000000 0.100083
#
#
# Mechanical properties :
#
#
# Convention : Reuss Voigt Hill
#
# Bulk Modulus (GPa) = 29.79568 70.93841 50.36704
# Shear Modulus (GPa) = 13.68349 19.93618 16.80983
#
# Velocity S-wave (km/s) = 2.82235 3.40670 3.12820
# Velocity P-wave (km/s) = 5.28829 7.53458 6.50907
#
# Compressibility (1/GPa) = 0.03356191
#
# Stress axis : x y z
#
# Youngs Moduli (GPa) = 21.70834 50.12458 91.81737
#
# Poissons Ratio (x) = 0.19626 0.95445
# Poissons Ratio (y) = 0.08500 0.67594
# Poissons Ratio (z) = 0.22566 0.36901
#
# Static dielectric constant tensor:
#      x y z
#    x 2.837670 0.000000 0.000000 
#    y 0.000000 3.181120 0.000000 
#    z 0.000000 0.000000 3.528540 
# 
# 
# High freq. dielectric constant tensor:
#      x y z
#    x 1.611580 0.000000 0.000000 
#    y 0.000000 1.648430 0.000000 
#    z 0.000000 0.000000 1.681020 
# 
# From -- ./inp_files/16005.got.cif
#   From: 2010.03.12/outbox.cif.g09.slc.cpg/sg59_9_cif.got.tgz:16005.got - 2010.04.16 16:29:54.
