data_PCOD8246564
_publ_section_title
;
Structure prediction by ZEFSAII (Michael W. Deem and Ramdas Pophale) SiO2 
 PCOD8246564
Probable space group: P B C N
;
_chemical_formula_sum "Si O2"
_cell_formula_units_Z 48
_cell_length_a 20.847302
_cell_length_b 10.921592
_cell_length_c 9.799203
_cell_angle_alpha 90.000000
_cell_angle_beta 90.000000
_cell_angle_gamma 90.000000
_cell_volume 2231.138657
_symmetry_space_group_name_H-M "P B C N"
_symmetry_group_IT_number 60
_symmetry_cell_setting 'orthorhombic'
loop_
_space_group_symop_operation_xyz
x,y,z
1/2-x,1/2-y,1/2+z
1/2+x,1/2-y,-z
-x,y,1/2-z
-x,-y,-z
1/2+x,1/2+y,1/2-z
1/2-x,1/2+y,z
x,-y,1/2+z
loop_
_atom_site_type_symbol
_atom_site_label
_atom_site_fract_x
_atom_site_fract_y
_atom_site_fract_z
Si Si1 0.643937 0.248251 0.891463
Si Si2 0.350426 0.353903 0.131942
Si Si3 0.957257 0.052941 0.380151
Si Si4 0.821444 0.692642 0.603957
Si Si5 0.806447 0.670929 0.156013
Si Si6 0.253754 0.952788 0.604749
O O1 0.577605 0.320084 0.919664
O O2 0.640784 0.174907 0.747000
O O3 0.702796 0.342804 0.893530
O O4 0.656067 0.147631 0.012026
O O5 0.404175 0.453488 0.158084
O O6 0.346190 0.279516 0.271542
O O7 0.280512 0.416389 0.103992
O O8 0.366968 0.263659 0.005791
O O9 0.000000 0.080128 0.250000
O O10 0.000000 0.000000 0.500000
O O11 0.765028 0.787062 0.628848
O O12 0.795544 0.565257 0.535486
O O13 0.800166 0.556339 0.261553
#
# Coordination Sequence:
#
# PCOD8246564 Si02
#       6
#     8   8   8   8   8   8
#     4   9  17  29  43  62  91 123 158 201 231 264
#     4  10  19  33  48  67 101 136 161 197 237 279
#     4  11  21  31  45  68  95 135 174 193 224 281
#     4   9  17  30  46  66  91 128 164 194 239 294
#     4   9  17  30  46  66  91 128 163 193 239 293
#     4   8  17  29  46  65  87 128 162 188 240 295
#
# _framework density 21.513677000000001
#
# number of rings (size 3 to 8) (size 9 to 14) (size 15 to 20)
#    0.000    2.667    0.000    3.000    0.000   10.667 
#    0.000    1.667    0.000    0.000    0.000    0.000 
#    0.000    0.000    0.000 1698.000    0.000    0.000 
#
# Total GULP energy -594788.949820 kJ/mol
# GULP energy per Si atom -12391.436455 kJ/mol
# Density = 2.146471 g / cm^3
# Si number density = 21.513677 Si / 1000 Ang^3
#
#
#
# Elastic Constant Matrix: (Units=GPa)
#
#
# Indices 1 2 3 4 5 6 
#
# 1 68.8173 20.7857 37.6172 0.0000 0.0000 0.0000
# 2 20.7857 36.7179 27.6127 0.0000 0.0000 0.0000
# 3 37.6172 27.6127 176.9629 0.0000 0.0000 0.0000
# 4 0.0000 0.0000 0.0000 5.6319 0.0000 0.0000
# 5 0.0000 0.0000 0.0000 0.0000 30.9354 0.0000
# 6 0.0000 0.0000 0.0000 0.0000 0.0000 29.1418
#
#
#
# Elastic Compliance Matrix: (Units=1/GPa)
#
#
# Indices 1 2 3 4 5 6 
#
# 1 0.018534 -0.008530 -0.002609 0.000000 0.000000 0.000000
# 2 -0.008530 0.034781 -0.003614 0.000000 0.000000 0.000000
# 3 -0.002609 -0.003614 0.006769 0.000000 0.000000 0.000000
# 4 0.000000 0.000000 0.000000 0.177560 0.000000 0.000000
# 5 0.000000 0.000000 0.000000 0.000000 0.032325 0.000000
# 6 0.000000 0.000000 0.000000 0.000000 0.000000 0.034315
#
#
# Mechanical properties :
#
#
# Convention : Reuss Voigt Hill
#
# Bulk Modulus (GPa) = 32.70217 50.50323 41.60270
# Shear Modulus (GPa) = 14.53562 26.24066 20.38814
#
# Velocity S-wave (km/s) = 2.60214 3.49624 3.08179
# Velocity P-wave (km/s) = 4.92563 6.31064 5.66065
#
# Compressibility (1/GPa) = 0.03057901
#
# Stress axis : x y z
#
# Youngs Moduli (GPa) = 53.95602 28.75122 147.72477
#
# Poissons Ratio (x) = 0.24524 0.38537
# Poissons Ratio (y) = 0.46024 0.53386
# Poissons Ratio (z) = 0.14076 0.10390
#
# Static dielectric constant tensor:
#      x y z
#    x 3.593320 0.000000 0.000000 
#    y 0.000000 3.774400 0.000000 
#    z 0.000000 0.000000 4.551820 
# 
# 
# High freq. dielectric constant tensor:
#      x y z
#    x 1.780260 0.000000 0.000000 
#    y 0.000000 1.832380 0.000000 
#    z 0.000000 0.000000 1.879030 
# 
# From -- ./inp_files/7293.got.cif
#   From: 2010.03.12/outbox.cif.g09.slc.cpg/sg60_4_cif.got.tgz:7293.got - 2010.04.10 18:46:24.
