data_PCOD8246514
_publ_section_title
;
Structure prediction by ZEFSAII (Michael W. Deem and Ramdas Pophale) SiO2 
 PCOD8246514
Probable space group: P B C N
;
_chemical_formula_sum "Si O2"
_cell_formula_units_Z 64
_cell_length_a 26.561624
_cell_length_b 9.213752
_cell_length_c 11.384512
_cell_angle_alpha 90.000000
_cell_angle_beta 90.000000
_cell_angle_gamma 90.000000
_cell_volume 2786.156853
_symmetry_space_group_name_H-M "P B C N"
_symmetry_group_IT_number 60
_symmetry_cell_setting 'orthorhombic'
loop_
_space_group_symop_operation_xyz
x,y,z
1/2-x,1/2-y,1/2+z
1/2+x,1/2-y,-z
-x,y,1/2-z
-x,-y,-z
1/2+x,1/2+y,1/2-z
1/2-x,1/2+y,z
x,-y,1/2+z
loop_
_atom_site_type_symbol
_atom_site_label
_atom_site_fract_x
_atom_site_fract_y
_atom_site_fract_z
Si Si1 0.466728 0.704686 0.541622
Si Si2 0.778648 0.394540 0.697299
Si Si3 0.933868 0.893753 0.915690
Si Si4 0.368722 0.191631 0.447059
Si Si5 0.077725 0.298172 0.298050
Si Si6 0.189164 0.701374 0.857683
Si Si7 0.434080 0.114057 0.239114
Si Si8 0.159108 0.402094 0.585240
O O1 0.520775 0.658927 0.496722
O O2 0.433591 0.567470 0.585727
O O3 0.436916 0.781824 0.434583
O O4 0.477302 0.807395 0.658279
O O5 0.818480 0.286292 0.631924
O O6 0.778980 0.552780 0.639500
O O7 0.722358 0.333018 0.689871
O O8 0.791998 0.421028 0.833112
O O9 0.940888 0.836684 0.781513
O O10 0.881728 0.830353 0.971052
O O11 0.419204 0.167932 0.368744
O O12 0.358890 0.051131 0.525923
O O13 0.138141 0.315579 0.281886
O O14 0.053012 0.443298 0.243802
O O15 0.173019 0.724387 0.992587
O O16 0.386330 0.158175 0.160701
#
# Coordination Sequence:
#
# PCOD8246514 Si02
#       8
#     8   8   8   8   8   8   8   8
#     4  11  27  46  66 107 140 185 235 295 356 428
#     4  10  23  38  65  95 133 173 232 281 354 413
#     4  11  26  46  69  96 150 184 229 293 367 421
#     4  10  20  41  69  94 132 188 224 281 356 415
#     4  12  23  46  73  95 140 187 239 290 352 429
#     4  11  22  41  64  96 132 173 227 288 351 416
#     4  11  20  42  73  95 132 182 229 288 341 409
#     4  10  18  42  64  89 137 175 215 290 339 401
#
# _framework density 22.970708999999999
#
# number of rings (size 3 to 8) (size 9 to 14) (size 15 to 20)
#    0.000    1.250    6.250    0.375    1.750    5.000 
#    4.500    1.250    0.000    0.000    0.000    0.000 
#    0.000    0.000    0.000    0.000    0.000    0.000 
#
# Total GULP energy -793260.896453 kJ/mol
# GULP energy per Si atom -12394.701507 kJ/mol
# Density = 2.291843 g / cm^3
# Si number density = 22.970709 Si / 1000 Ang^3
#
#
#
# Elastic Constant Matrix: (Units=GPa)
#
#
# Indices 1 2 3 4 5 6 
#
# 1 50.2930 12.1375 -1.7401 0.0000 0.0000 0.0000
# 2 12.1375 98.8273 29.5113 0.0000 0.0000 0.0000
# 3 -1.7401 29.5113 115.5351 0.0000 0.0000 0.0000
# 4 0.0000 0.0000 0.0000 27.4200 0.0000 0.0000
# 5 0.0000 0.0000 0.0000 0.0000 34.2463 0.0000
# 6 0.0000 0.0000 0.0000 0.0000 0.0000 33.5727
#
#
#
# Elastic Compliance Matrix: (Units=1/GPa)
#
#
# Indices 1 2 3 4 5 6 
#
# 1 0.020605 -0.002840 0.001036 0.000000 0.000000 0.000000
# 2 -0.002840 0.011346 -0.002941 0.000000 0.000000 0.000000
# 3 0.001036 -0.002941 0.009422 0.000000 0.000000 0.000000
# 4 0.000000 0.000000 0.000000 0.036470 0.000000 0.000000
# 5 0.000000 0.000000 0.000000 0.000000 0.029200 0.000000
# 6 0.000000 0.000000 0.000000 0.000000 0.000000 0.029786
#
#
# Mechanical properties :
#
#
# Convention : Reuss Voigt Hill
#
# Bulk Modulus (GPa) = 31.36512 38.27477 34.81994
# Shear Modulus (GPa) = 31.85815 34.03094 32.94454
#
# Velocity S-wave (km/s) = 3.72815 3.85319 3.79119
# Velocity P-wave (km/s) = 5.67593 6.04109 5.86135
#
# Compressibility (1/GPa) = 0.03188255
#
# Stress axis : x y z
#
# Youngs Moduli (GPa) = 48.53271 88.13988 106.13296
#
# Poissons Ratio (x) = 0.25030 -0.10992
# Poissons Ratio (y) = 0.13783 0.31211
# Poissons Ratio (z) = -0.05027 0.25920
#
# Static dielectric constant tensor:
#      x y z
#    x 4.121410 0.000000 0.000000 
#    y 0.000000 3.904760 0.000000 
#    z 0.000000 0.000000 4.664130 
# 
# 
# High freq. dielectric constant tensor:
#      x y z
#    x 1.901820 0.000000 0.000000 
#    y 0.000000 1.878930 0.000000 
#    z 0.000000 0.000000 1.928750 
# 
# From -- ./inp_files/13397.got.cif
#   From: 2010.03.12/outbox.cif.g09.slc.cpg/sg60_7_cif.got.tgz:13397.got - 2010.04.10 18:46:24.
