data_PCOD8246637
_publ_section_title
;
Structure prediction by ZEFSAII (Michael W. Deem and Ramdas Pophale) SiO2 
 PCOD8246637
Probable space group: P B C N
;
_chemical_formula_sum "Si O2"
_cell_formula_units_Z 56
_cell_length_a 5.190442
_cell_length_b 36.503304
_cell_length_c 15.194239
_cell_angle_alpha 90.000000
_cell_angle_beta 90.000000
_cell_angle_gamma 90.000000
_cell_volume 2878.826363
_symmetry_space_group_name_H-M "P B C N"
_symmetry_group_IT_number 60
_symmetry_cell_setting 'orthorhombic'
loop_
_space_group_symop_operation_xyz
x,y,z
1/2-x,1/2-y,1/2+z
1/2+x,1/2-y,-z
-x,y,1/2-z
-x,-y,-z
1/2+x,1/2+y,1/2-z
1/2-x,1/2+y,z
x,-y,1/2+z
loop_
_atom_site_type_symbol
_atom_site_label
_atom_site_fract_x
_atom_site_fract_y
_atom_site_fract_z
Si Si1 0.499953 0.562044 0.145587
Si Si2 0.500029 0.110120 0.941987
Si Si3 0.499970 0.716637 0.086218
Si Si4 0.000000 0.182240 0.750000
Si Si5 0.500056 0.634678 0.463737
Si Si6 0.000000 0.367133 0.250000
Si Si7 0.499971 0.744202 0.888660
Si Si8 0.999984 0.462240 0.550959
O O1 0.500000 0.563358 0.250000
O O2 0.250052 0.540348 0.112329
O O3 0.749838 0.540356 0.112288
O O4 0.499884 0.603414 0.110218
O O5 0.749707 0.132187 0.974654
O O6 0.500031 0.107319 0.836358
O O7 0.250445 0.132209 0.974663
O O8 0.499921 0.069009 0.977135
O O9 0.751774 0.731444 0.136588
O O10 0.248108 0.731429 0.136577
O O11 0.500035 0.672816 0.087707
O O12 0.499969 0.732964 0.989313
O O13 0.250994 0.157796 0.750017
O O14 0.999946 0.206598 0.836610
O O15 0.000000 0.500000 0.500000
#
# Coordination Sequence:
#
# PCOD8246637 Si02
#       8
#     8   8   8   4   8   4   8   8
#     4  10  21  39  61  93 119 155 205 238 282 355
#     4  10  21  36  58  88 114 149 197 234 283 350
#     4  10  19  35  55  75 101 146 183 231 275 349
#     4  12  24  38  54  80 112 153 178 249 302 330
#     4  10  20  37  60  81 114 154 190 243 294 335
#     4  12  22  36  58  82 116 147 198 241 278 350
#     4  10  21  34  51  76 106 136 191 224 286 346
#     4  10  21  40  65  86 128 160 189 238 297 345
#
# _framework density 19.452373000000001
#
# number of rings (size 3 to 8) (size 9 to 14) (size 15 to 20)
#    0.000    1.714    0.000    5.143    0.000    2.286 
#    5.143    0.000    0.000    0.000    0.000    0.000 
#    0.000    0.000    0.000    0.000    0.000    0.000 
#
# Total GULP energy -694634.885556 kJ/mol
# GULP energy per Si atom -12404.194385 kJ/mol
# Density = 1.940810 g / cm^3
# Si number density = 19.452373 Si / 1000 Ang^3
#
#
#
# Elastic Constant Matrix: (Units=GPa)
#
#
# Indices 1 2 3 4 5 6 
#
# 1 189.4709 48.6242 57.1043 0.0000 0.0000 0.0000
# 2 48.6242 93.7974 35.4567 0.0000 0.0000 0.0000
# 3 57.1043 35.4567 124.8941 0.0000 0.0000 0.0000
# 4 0.0000 0.0000 0.0000 18.5341 0.0000 0.0000
# 5 0.0000 0.0000 0.0000 0.0000 18.9977 0.0000
# 6 0.0000 0.0000 0.0000 0.0000 0.0000 3.9652
#
#
#
# Elastic Compliance Matrix: (Units=1/GPa)
#
#
# Indices 1 2 3 4 5 6 
#
# 1 0.006631 -0.002567 -0.002303 0.000000 0.000000 0.000000
# 2 -0.002567 0.012937 -0.002499 0.000000 0.000000 0.000000
# 3 -0.002303 -0.002499 0.009769 0.000000 0.000000 0.000000
# 4 0.000000 0.000000 0.000000 0.053955 0.000000 0.000000
# 5 0.000000 0.000000 0.000000 0.000000 0.052638 0.000000
# 6 0.000000 0.000000 0.000000 0.000000 0.000000 0.252195
#
#
# Mechanical properties :
#
#
# Convention : Reuss Voigt Hill
#
# Bulk Modulus (GPa) = 68.49849 76.72588 72.61218
# Shear Modulus (GPa) = 12.26309 26.09789 19.18049
#
# Velocity S-wave (km/s) = 2.51353 3.66680 3.14351
# Velocity P-wave (km/s) = 6.61163 7.57996 7.11229
#
# Compressibility (1/GPa) = 0.01459886
#
# Stress axis : x y z
#
# Youngs Moduli (GPa) = 150.81455 77.30049 102.36227
#
# Poissons Ratio (x) = 0.19841 0.23574
# Poissons Ratio (y) = 0.38710 0.25581
# Poissons Ratio (z) = 0.34733 0.19318
#
# Static dielectric constant tensor:
#      x y z
#    x 3.980020 0.000000 0.000000 
#    y 0.000000 3.421000 0.000000 
#    z 0.000000 0.000000 3.452470 
# 
# 
# High freq. dielectric constant tensor:
#      x y z
#    x 1.784620 0.000000 0.000000 
#    y 0.000000 1.751030 0.000000 
#    z 0.000000 0.000000 1.751170 
# 
# From -- ./inp_files/14149.got.cif
#   From: 2010.03.12/outbox.cif.g09.slc.cpg/sg60_8_cif.got.tgz:14149.got - 2010.04.10 18:46:24.
