data_PCOD8246252
_publ_section_title
;
Structure prediction by ZEFSAII (Michael W. Deem and Ramdas Pophale) SiO2 
 PCOD8246252
Probable space group: P M M N
;
_chemical_formula_sum "Si O2"
_cell_formula_units_Z 64
_cell_length_a 12.000000
_cell_length_b 30.000000
_cell_length_c 9.000000
_cell_angle_alpha 90.000000
_cell_angle_beta 90.000000
_cell_angle_gamma 90.000000
_cell_volume 3240.000000
_symmetry_space_group_name_H-M "P M M N"
_symmetry_group_IT_number 59
_space_group.IT_coordinate_system_code '2'
_symmetry_cell_setting 'orthorhombic'
loop_
_space_group_symop_operation_xyz
x,y,z
1/2-x,1/2-y,z
1/2+x,-y,-z
-x,1/2+y,-z
-x,-y,-z
1/2+x,1/2+y,-z
1/2-x,y,z
x,1/2-y,z
loop_
_atom_site_type_symbol
_atom_site_label
_atom_site_fract_x
_atom_site_fract_y
_atom_site_fract_z
Si Si1 0.016541 0.560903 0.081256
Si Si2 0.873476 0.869996 0.565993
Si Si3 0.624025 0.017415 0.175245
Si Si4 0.873709 0.877620 0.911043
Si Si5 0.535354 0.050768 0.466116
Si Si6 0.871102 0.114614 0.684232
Si Si7 0.623016 0.701656 0.102504
Si Si8 0.507918 0.199373 0.596021
O O1 0.048028 0.603842 0.178257
O O2 0.955271 0.525756 0.188047
O O3 0.117996 0.537977 0.991425
O O4 0.935714 0.576980 0.950463
O O5 0.750000 0.873862 0.500966
O O6 0.876940 0.868987 0.739930
O O7 0.935221 0.914082 0.507126
O O8 0.921975 0.822002 0.519781
O O9 0.750000 0.002968 0.207706
O O10 0.583611 0.052701 0.299273
O O11 0.750000 0.884548 0.970747
O O12 0.926727 0.834344 0.989196
O O13 0.628947 0.071455 0.574411
O O14 0.500000 0.000000 0.500000
O O15 0.750000 0.117959 0.754193
O O16 0.893944 0.162428 0.606382
O O17 0.750000 0.690951 0.148512
O O18 0.615724 0.750000 0.024144
O O19 0.548460 0.702156 0.246395
O O20 0.546036 0.250000 0.547665
#
# Coordination Sequence:
#
# PCOD8246252 Si02
#       8
#     8   8   8   8   8   8   8   8
#     4  11  21  39  56  85 117 145 198 235 286 338
#     4  10  22  37  57  83 115 153 190 231 285 342
#     4  11  23  38  59  81 113 157 194 236 285 341
#     4  10  19  34  56  81 114 149 181 226 279 336
#     4  11  22  41  55  84 117 151 193 235 283 341
#     4  11  23  39  61  86 114 150 192 242 294 345
#     4   9  17  30  52  82 111 140 175 218 273 331
#     4  10  21  38  59  84 115 148 188 239 288 344
#
# _framework density 19.753086
#
# number of rings (size 3 to 8) (size 9 to 14) (size 15 to 20)
#    0.000    1.625    3.750    1.500    0.000    2.500 
#    0.000    1.250    0.000    0.000    0.000    0.000 
#    0.000    0.000    0.000    0.000    0.000    0.000 
#
# Total GULP energy -792922.241848 kJ/mol
# GULP energy per Si atom -12389.410029 kJ/mol
# Density = 1.970813 g / cm^3
# Si number density = 19.753086 Si / 1000 Ang^3
#
#
#
# Elastic Constant Matrix: (Units=GPa)
#
#
# Indices 1 2 3 4 5 6 
#
# 1 67.3437 33.7596 24.5985 0.0000 0.0000 0.0000
# 2 33.7596 136.6623 23.4262 0.0000 0.0000 0.0000
# 3 24.5985 23.4262 33.7163 0.0000 0.0000 0.0000
# 4 0.0000 0.0000 0.0000 30.1644 0.0000 0.0000
# 5 0.0000 0.0000 0.0000 0.0000 37.0370 0.0000
# 6 0.0000 0.0000 0.0000 0.0000 0.0000 21.4929
#
#
#
# Elastic Compliance Matrix: (Units=1/GPa)
#
#
# Indices 1 2 3 4 5 6 
#
# 1 0.021236 -0.002940 -0.013450 0.000000 0.000000 0.000000
# 2 -0.002940 0.008714 -0.003909 0.000000 0.000000 0.000000
# 3 -0.013450 -0.003909 0.042188 0.000000 0.000000 0.000000
# 4 0.000000 0.000000 0.000000 0.033152 0.000000 0.000000
# 5 0.000000 0.000000 0.000000 0.000000 0.027000 0.000000
# 6 0.000000 0.000000 0.000000 0.000000 0.000000 0.046527
#
#
# Mechanical properties :
#
#
# Convention : Reuss Voigt Hill
#
# Bulk Modulus (GPa) = 31.70724 44.58790 38.14757
# Shear Modulus (GPa) = 21.74578 28.13471 24.94024
#
# Velocity S-wave (km/s) = 3.32155 3.77811 3.55716
# Velocity P-wave (km/s) = 5.54950 6.45397 6.01875
#
# Compressibility (1/GPa) = 0.03153854
#
# Stress axis : x y z
#
# Youngs Moduli (GPa) = 47.08939 114.76110 23.70321
#
# Poissons Ratio (x) = 0.33744 0.31882
# Poissons Ratio (y) = 0.13846 0.09266
# Poissons Ratio (z) = 0.63337 0.44862
#
# Static dielectric constant tensor:
#      x y z
#    x 4.537750 0.000000 0.000000 
#    y 0.000000 3.965800 0.000000 
#    z 0.000000 0.000000 3.540180 
# 
# 
# High freq. dielectric constant tensor:
#      x y z
#    x 1.739810 0.000000 0.000000 
#    y 0.000000 1.775520 0.000000 
#    z 0.000000 0.000000 1.759690 
# 
# From -- ./inp_files/8047.got.cif
#   From: 2010.03.12/outbox.ucp.g09.slc.cvg/sg59_5_cif.got.tgz:8047.got - 2010.05.04 19:30:51.
