data_PCOD8246188
_publ_section_title
;
Structure prediction by ZEFSAII (Michael W. Deem and Ramdas Pophale) SiO2 
 PCOD8246188
Probable space group: P M M N
;
_chemical_formula_sum "Si O2"
_cell_formula_units_Z 56
_cell_length_a 9.483997
_cell_length_b 24.623258
_cell_length_c 16.045681
_cell_angle_alpha 90.000000
_cell_angle_beta 90.000000
_cell_angle_gamma 90.000000
_cell_volume 3747.098223
_symmetry_space_group_name_H-M "P M M N"
_symmetry_group_IT_number 59
_space_group.IT_coordinate_system_code '2'
_symmetry_cell_setting 'orthorhombic'
loop_
_space_group_symop_operation_xyz
x,y,z
1/2-x,1/2-y,z
1/2+x,-y,-z
-x,1/2+y,-z
-x,-y,-z
1/2+x,1/2+y,-z
1/2-x,y,z
x,1/2-y,z
loop_
_atom_site_type_symbol
_atom_site_label
_atom_site_fract_x
_atom_site_fract_y
_atom_site_fract_z
Si Si1 0.412876 0.991786 0.376989
Si Si2 0.913750 0.015102 0.812628
Si Si3 0.587165 0.546761 0.044271
Si Si4 0.417269 0.690854 0.600080
Si Si5 0.409087 0.102540 0.119171
Si Si6 0.085283 0.920563 0.530649
Si Si7 0.411704 0.687717 0.786985
O O1 0.250000 0.008864 0.385225
O O2 0.448901 0.973395 0.283666
O O3 0.449182 0.941150 0.437532
O O4 0.504565 0.043809 0.401098
O O5 0.750000 0.026070 0.833418
O O6 0.010684 0.056714 0.866611
O O7 0.954864 0.953340 0.835504
O O8 0.750000 0.529618 0.058094
O O9 0.500000 0.500000 0.000000
O O10 0.578746 0.598088 0.981743
O O11 0.250000 0.694499 0.603700
O O12 0.475542 0.750000 0.569219
O O13 0.465910 0.642149 0.538891
O O14 0.472116 0.678828 0.693607
O O15 0.250000 0.116340 0.145382
O O16 0.506042 0.151427 0.147429
O O17 0.250000 0.925727 0.551347
O O18 0.250000 0.669708 0.790813
O O19 0.430365 0.750000 0.813971
#
# Coordination Sequence:
#
# PCOD8246188 Si02
#       7
#     8   8   8   8   8   8   8
#     4   9  17  27  39  58  85 110 133 168 207 241
#     4   9  17  28  40  57  82 109 135 163 198 237
#     4   9  17  28  41  59  81 103 131 162 192 232
#     4   8  14  25  40  58  80 104 133 169 199 228
#     4   9  17  27  39  56  78 103 129 159 195 233
#     4   9  16  26  41  60  80 107 141 167 198 246
#     4   9  17  27  39  57  79 103 132 162 192 230
#
# _framework density 14.944898
#
# number of rings (size 3 to 8) (size 9 to 14) (size 15 to 20)
#    0.000    3.143    0.000    3.000    0.000    3.714 
#    0.000    0.000    0.000    1.286    0.000    1.000 
#    0.000    3.429    0.000    0.000    0.000    0.000 
#
# Total GULP energy -694004.018562 kJ/mol
# GULP energy per Si atom -12392.928903 kJ/mol
# Density = 1.491088 g / cm^3
# Si number density = 14.944898 Si / 1000 Ang^3
#
#
#
# Elastic Constant Matrix: (Units=GPa)
#
#
# Indices 1 2 3 4 5 6 
#
# 1 53.8347 35.0181 40.7085 0.0000 0.0000 0.0000
# 2 35.0181 88.4264 48.5152 0.0000 0.0000 0.0000
# 3 40.7085 48.5152 98.8222 0.0000 0.0000 0.0000
# 4 0.0000 0.0000 0.0000 20.6626 0.0000 0.0000
# 5 0.0000 0.0000 0.0000 0.0000 21.3107 0.0000
# 6 0.0000 0.0000 0.0000 0.0000 0.0000 20.4592
#
#
#
# Elastic Compliance Matrix: (Units=1/GPa)
#
#
# Indices 1 2 3 4 5 6 
#
# 1 0.029791 -0.006932 -0.008869 0.000000 0.000000 0.000000
# 2 -0.006932 0.017091 -0.005535 0.000000 0.000000 0.000000
# 3 -0.008869 -0.005535 0.016490 0.000000 0.000000 0.000000
# 4 0.000000 0.000000 0.000000 0.048397 0.000000 0.000000
# 5 0.000000 0.000000 0.000000 0.000000 0.046925 0.000000
# 6 0.000000 0.000000 0.000000 0.000000 0.000000 0.048878
#
#
# Mechanical properties :
#
#
# Convention : Reuss Voigt Hill
#
# Bulk Modulus (GPa) = 48.30867 54.39633 51.35250
# Shear Modulus (GPa) = 19.44454 20.27592 19.86023
#
# Velocity S-wave (km/s) = 3.61096 3.68735 3.64936
# Velocity P-wave (km/s) = 7.05550 7.38957 7.22447
#
# Compressibility (1/GPa) = 0.02070022
#
# Stress axis : x y z
#
# Youngs Moduli (GPa) = 33.56755 58.51157 60.64307
#
# Poissons Ratio (x) = 0.40558 0.53784
# Poissons Ratio (y) = 0.23268 0.33566
# Poissons Ratio (z) = 0.29771 0.32386
#
# Static dielectric constant tensor:
#      x y z
#    x 2.873840 0.000000 0.000000 
#    y 0.000000 2.844120 0.000000 
#    z 0.000000 0.000000 3.118610 
# 
# 
# High freq. dielectric constant tensor:
#      x y z
#    x 1.566040 0.000000 0.000000 
#    y 0.000000 1.543510 0.000000 
#    z 0.000000 0.000000 1.565910 
# 
# From -- ./inp_files/26418.got.cif
#   From: 2010.03.12/outbox.cif.g09.slc.cpg/sg59_14_cif.got.tgz:26418.got - 2010.04.16 16:29:54.
