data_PCOD8246771
_publ_section_title
;
Structure prediction by ZEFSAII (Michael W. Deem and Ramdas Pophale) SiO2 
 PCOD8246771
Probable space group: P B C N
;
_chemical_formula_sum "Si O2"
_cell_formula_units_Z 64
_cell_length_a 11.856292
_cell_length_b 14.170354
_cell_length_c 17.724878
_cell_angle_alpha 90.000000
_cell_angle_beta 90.000000
_cell_angle_gamma 90.000000
_cell_volume 2977.918729
_symmetry_space_group_name_H-M "P B C N"
_symmetry_group_IT_number 60
_symmetry_cell_setting 'orthorhombic'
loop_
_space_group_symop_operation_xyz
x,y,z
1/2-x,1/2-y,1/2+z
1/2+x,1/2-y,-z
-x,y,1/2-z
-x,-y,-z
1/2+x,1/2+y,1/2-z
1/2-x,1/2+y,z
x,-y,1/2+z
loop_
_atom_site_type_symbol
_atom_site_label
_atom_site_fract_x
_atom_site_fract_y
_atom_site_fract_z
Si Si1 0.113824 0.825845 0.893611
Si Si2 0.029408 0.640042 0.832121
Si Si3 0.322966 0.985802 0.130216
Si Si4 0.406643 0.187402 0.147293
Si Si5 0.256473 0.427802 0.288557
Si Si6 0.158308 0.717811 0.311221
Si Si7 0.864366 0.874911 0.434115
Si Si8 0.027823 0.002761 0.835904
O O1 0.064524 0.721181 0.889398
O O2 0.239287 0.830428 0.856935
O O3 0.018659 0.891352 0.852787
O O4 0.110532 0.854331 0.979961
O O5 0.131687 0.566717 0.822164
O O6 0.000000 0.684064 0.750000
O O7 0.928746 0.582334 0.866507
O O8 0.245280 0.976501 0.205690
O O9 0.244240 0.943250 0.065050
O O10 0.366178 0.090214 0.107297
O O11 0.541419 0.209026 0.141138
O O12 0.365671 0.166100 0.232344
O O13 0.342489 0.275884 0.109392
O O14 0.307917 0.322768 0.286343
O O15 0.337087 0.484154 0.345219
O O16 0.967146 0.930741 0.395540
O O17 0.000000 0.031643 0.750000
#
# Coordination Sequence:
#
# PCOD8246771 Si02
#       8
#     8   8   8   8   8   8   8   8
#     4  11  26  43  66 100 140 177 223 283 358 395
#     4   9  22  42  66  97 132 172 224 282 331 400
#     4  11  23  40  67 100 135 170 223 280 341 399
#     4  11  23  41  72  97 131 183 232 274 336 413
#     4  10  19  40  68  99 129 167 228 288 314 399
#     4  10  21  41  69  99 127 179 234 278 331 408
#     4  12  26  46  63 105 140 178 220 288 342 407
#     4  12  22  41  73  95 130 179 232 273 331 416
#
# _framework density 21.491520000000001
#
# number of rings (size 3 to 8) (size 9 to 14) (size 15 to 20)
#    0.000    1.250    3.750    1.500    7.000    2.000 
#    4.500    1.250    0.000    0.000    0.000    0.000 
#    0.000    0.000    0.000    0.000    0.000    0.000 
#
# Total GULP energy -793252.512638 kJ/mol
# GULP energy per Si atom -12394.570510 kJ/mol
# Density = 2.144260 g / cm^3
# Si number density = 21.491520 Si / 1000 Ang^3
#
#
#
# Elastic Constant Matrix: (Units=GPa)
#
#
# Indices 1 2 3 4 5 6 
#
# 1 105.4356 28.3391 24.3669 0.0000 0.0000 0.0000
# 2 28.3391 92.2984 13.0957 0.0000 0.0000 0.0000
# 3 24.3669 13.0957 68.9698 0.0000 0.0000 0.0000
# 4 0.0000 0.0000 0.0000 13.7079 0.0000 0.0000
# 5 0.0000 0.0000 0.0000 0.0000 23.2917 0.0000
# 6 0.0000 0.0000 0.0000 0.0000 0.0000 29.9617
#
#
#
# Elastic Compliance Matrix: (Units=1/GPa)
#
#
# Indices 1 2 3 4 5 6 
#
# 1 0.011042 -0.002915 -0.003347 0.000000 0.000000 0.000000
# 2 -0.002915 0.011904 -0.001230 0.000000 0.000000 0.000000
# 3 -0.003347 -0.001230 0.015915 0.000000 0.000000 0.000000
# 4 0.000000 0.000000 0.000000 0.072951 0.000000 0.000000
# 5 0.000000 0.000000 0.000000 0.000000 0.042934 0.000000
# 6 0.000000 0.000000 0.000000 0.000000 0.000000 0.033376
#
#
# Mechanical properties :
#
#
# Convention : Reuss Voigt Hill
#
# Bulk Modulus (GPa) = 41.88486 44.25637 43.07062
# Shear Modulus (GPa) = 23.68930 26.78575 25.23753
#
# Velocity S-wave (km/s) = 3.32364 3.53418 3.43053
# Velocity P-wave (km/s) = 5.85321 6.10665 5.98127
#
# Compressibility (1/GPa) = 0.02387498
#
# Stress axis : x y z
#
# Youngs Moduli (GPa) = 90.56613 84.00480 62.83241
#
# Poissons Ratio (x) = 0.24490 0.21033
# Poissons Ratio (y) = 0.26402 0.07731
# Poissons Ratio (z) = 0.30317 0.10335
#
# Static dielectric constant tensor:
#      x y z
#    x 4.181280 0.000000 0.000000 
#    y 0.000000 3.931720 0.000000 
#    z 0.000000 0.000000 3.533860 
# 
# 
# High freq. dielectric constant tensor:
#      x y z
#    x 1.856750 0.000000 0.000000 
#    y 0.000000 1.854220 0.000000 
#    z 0.000000 0.000000 1.810090 
# 
# From -- ./inp_files/20192.got.cif
#   From: 2010.03.12/outbox.cif.g09.slc.cpg/sg60_11_cif.got.tgz:20192.got - 2010.04.10 18:46:24.
