data_PCOD8246138
_publ_section_title
;
Structure prediction by ZEFSAII (Michael W. Deem and Ramdas Pophale) SiO2 
 PCOD8246138
Probable space group: P M M N
;
_chemical_formula_sum "Si O2"
_cell_formula_units_Z 56
_cell_length_a 18.453213
_cell_length_b 9.551574
_cell_length_c 19.198798
_cell_angle_alpha 90.000000
_cell_angle_beta 90.000000
_cell_angle_gamma 90.000000
_cell_volume 3383.926945
_symmetry_space_group_name_H-M "P M M N"
_symmetry_group_IT_number 59
_space_group.IT_coordinate_system_code '2'
_symmetry_cell_setting 'orthorhombic'
loop_
_space_group_symop_operation_xyz
x,y,z
1/2-x,1/2-y,z
1/2+x,-y,-z
-x,1/2+y,-z
-x,-y,-z
1/2+x,1/2+y,-z
1/2-x,y,z
x,1/2-y,z
loop_
_atom_site_type_symbol
_atom_site_label
_atom_site_fract_x
_atom_site_fract_y
_atom_site_fract_z
Si Si1 0.829543 0.916271 0.640839
Si Si2 0.080688 0.411090 0.070335
Si Si3 0.955005 0.084614 0.292518
Si Si4 0.097662 0.416507 0.222178
Si Si5 0.410615 0.910888 0.940315
Si Si6 0.974584 0.915279 0.566337
Si Si7 0.830546 0.416852 0.197546
O O1 0.750000 0.972878 0.617193
O O2 0.830392 0.750000 0.640318
O O3 0.843482 0.967261 0.720640
O O4 0.893752 0.966669 0.589269
O O5 0.100330 0.250000 0.055826
O O6 0.115725 0.465530 0.143399
O O7 0.994714 0.432096 0.076673
O O8 0.113678 0.501977 0.007993
O O9 0.956493 0.250000 0.284021
O O10 0.878765 0.026521 0.262588
O O11 0.019962 0.021821 0.245891
O O12 0.967697 0.045895 0.373219
O O13 0.092627 0.250000 0.221773
O O14 0.392462 0.750000 0.955809
O O15 0.364950 0.968385 0.875039
O O16 0.974826 0.750000 0.550271
O O17 0.000000 0.000000 0.500000
O O18 0.750000 0.479631 0.205715
O O19 0.828609 0.250000 0.198029
#
# Coordination Sequence:
#
# PCOD8246138 Si02
#       7
#     8   8   8   8   8   8   8
#     4   8  14  25  43  67  89 111 144 182 216 252
#     4   9  15  24  40  60  81 107 138 175 217 255
#     4   8  13  24  41  61  81 104 138 176 208 240
#     4   8  12  21  39  59  79 104 137 178 214 243
#     4   9  16  25  38  58  83 108 139 177 214 252
#     4   9  17  29  48  70  92 116 142 175 213 255
#     4   9  15  24  40  60  82 110 145 182 214 244
#
# _framework density 16.548821
#
# number of rings (size 3 to 8) (size 9 to 14) (size 15 to 20)
#    0.000    3.429    1.429    1.714    0.000    0.000 
#    0.000    1.429    0.000    6.857    0.000    0.000 
#    0.000    0.000    0.000    0.000    0.000    0.000 
#
# Total GULP energy -693765.635329 kJ/mol
# GULP energy per Si atom -12388.672059 kJ/mol
# Density = 1.651116 g / cm^3
# Si number density = 16.548821 Si / 1000 Ang^3
#
#
#
# Elastic Constant Matrix: (Units=GPa)
#
#
# Indices 1 2 3 4 5 6 
#
# 1 111.1645 17.8225 71.0987 0.0000 0.0000 0.0000
# 2 17.8225 24.2604 35.9131 0.0000 0.0000 0.0000
# 3 71.0987 35.9131 146.4291 0.0000 0.0000 0.0000
# 4 0.0000 0.0000 0.0000 25.6048 0.0000 0.0000
# 5 0.0000 0.0000 0.0000 0.0000 22.1497 0.0000
# 6 0.0000 0.0000 0.0000 0.0000 0.0000 8.5869
#
#
#
# Elastic Compliance Matrix: (Units=1/GPa)
#
#
# Indices 1 2 3 4 5 6 
#
# 1 0.013049 -0.000325 -0.006256 0.000000 0.000000 0.000000
# 2 -0.000325 0.064723 -0.015716 0.000000 0.000000 0.000000
# 3 -0.006256 -0.015716 0.013722 0.000000 0.000000 0.000000
# 4 0.000000 0.000000 0.000000 0.039055 0.000000 0.000000
# 5 0.000000 0.000000 0.000000 0.000000 0.045147 0.000000
# 6 0.000000 0.000000 0.000000 0.000000 0.000000 0.116456
#
#
# Mechanical properties :
#
#
# Convention : Reuss Voigt Hill
#
# Bulk Modulus (GPa) = 21.32246 59.05805 40.19026
# Shear Modulus (GPa) = 14.18919 21.73625 17.96272
#
# Velocity S-wave (km/s) = 2.93134 3.62810 3.29817
# Velocity P-wave (km/s) = 4.93655 7.30175 6.23238
#
# Compressibility (1/GPa) = 0.04689890
#
# Stress axis : x y z
#
# Youngs Moduli (GPa) = 76.63288 15.45042 72.87812
#
# Poissons Ratio (x) = 0.00502 0.45595
# Poissons Ratio (y) = 0.02491 1.14536
# Poissons Ratio (z) = 0.47944 0.24282
#
# Static dielectric constant tensor:
#      x y z
#    x 3.432820 0.000000 0.000000 
#    y 0.000000 2.518030 0.000000 
#    z 0.000000 0.000000 3.253020 
# 
# 
# High freq. dielectric constant tensor:
#      x y z
#    x 1.625660 0.000000 0.000000 
#    y 0.000000 1.570440 0.000000 
#    z 0.000000 0.000000 1.642270 
# 
# From -- ./inp_files/27937.got.cif
#   From: 2010.03.12/outbox.cif.g09.slc.cpg/sg59_14_cif.got.tgz:27937.got - 2010.04.16 16:29:54.
