data_PCOD8246174
_publ_section_title
;
Structure prediction by ZEFSAII (Michael W. Deem and Ramdas Pophale) SiO2 
 PCOD8246174
Probable space group: P M M N
;
_chemical_formula_sum "Si O2"
_cell_formula_units_Z 48
_cell_length_a 9.258800
_cell_length_b 21.629286
_cell_length_c 15.277451
_cell_angle_alpha 90.000000
_cell_angle_beta 90.000000
_cell_angle_gamma 90.000000
_cell_volume 3059.481178
_symmetry_space_group_name_H-M "P M M N"
_symmetry_group_IT_number 59
_space_group.IT_coordinate_system_code '2'
_symmetry_cell_setting 'orthorhombic'
loop_
_space_group_symop_operation_xyz
x,y,z
1/2-x,1/2-y,z
1/2+x,-y,-z
-x,1/2+y,-z
-x,-y,-z
1/2+x,1/2+y,-z
1/2-x,y,z
x,1/2-y,z
loop_
_atom_site_type_symbol
_atom_site_label
_atom_site_fract_x
_atom_site_fract_y
_atom_site_fract_z
Si Si1 0.083363 0.411801 0.048400
Si Si2 0.417350 0.533271 0.300547
Si Si3 0.078309 0.180677 0.194726
Si Si4 0.078761 0.101068 0.357230
Si Si5 0.583514 0.050106 0.888167
Si Si6 0.419463 0.935840 0.486374
O O1 0.250000 0.398872 0.029495
O O2 0.018328 0.360626 0.114717
O O3 0.058737 0.478172 0.091689
O O4 0.002217 0.406771 0.955771
O O5 0.250000 0.522211 0.280842
O O6 0.478765 0.464988 0.321542
O O7 0.480919 0.561298 0.210088
O O8 0.441225 0.580092 0.382693
O O9 0.250000 0.179808 0.190845
O O10 0.016394 0.250000 0.186340
O O11 0.030066 0.152993 0.288203
O O12 0.250000 0.101277 0.374814
O O13 0.995516 0.114200 0.449576
O O14 0.750000 0.069026 0.896406
O O15 0.250000 0.942082 0.508202
O O16 0.500000 0.000000 0.500000
#
# Coordination Sequence:
#
# PCOD8246174 Si02
#       6
#     8   8   8   8   8   8
#     4   9  16  26  40  60  83 106 137 176 209 245
#     4   8  13  23  39  57  79 109 135 158 197 251
#     4   9  16  27  45  64  82 112 149 177 207 253
#     4   9  15  26  41  58  83 110 138 172 205 244
#     4   9  15  25  41  58  81 111 136 163 208 257
#     4   9  16  25  39  59  83 110 137 164 201 246
#
# _framework density 15.688935000000001
#
# number of rings (size 3 to 8) (size 9 to 14) (size 15 to 20)
#    0.000    3.167    1.667    1.500    0.000    0.000 
#    0.000    5.000    0.000    2.000    0.000    1.167 
#    0.000    9.333    0.000    0.000    0.000    0.000 
#
# Total GULP energy -594685.386203 kJ/mol
# GULP energy per Si atom -12389.278879 kJ/mol
# Density = 1.565323 g / cm^3
# Si number density = 15.688935 Si / 1000 Ang^3
#
#
#
# Elastic Constant Matrix: (Units=GPa)
#
#
# Indices 1 2 3 4 5 6 
#
# 1 45.6944 19.1135 49.1913 0.0000 0.0000 0.0000
# 2 19.1135 59.0738 48.5099 0.0000 0.0000 0.0000
# 3 49.1913 48.5099 167.3434 0.0000 0.0000 0.0000
# 4 0.0000 0.0000 0.0000 18.5367 0.0000 0.0000
# 5 0.0000 0.0000 0.0000 0.0000 27.5136 0.0000
# 6 0.0000 0.0000 0.0000 0.0000 0.0000 10.2582
#
#
#
# Elastic Compliance Matrix: (Units=1/GPa)
#
#
# Indices 1 2 3 4 5 6 
#
# 1 0.032562 -0.003511 -0.008554 0.000000 0.000000 0.000000
# 2 -0.003511 0.022595 -0.005518 0.000000 0.000000 0.000000
# 3 -0.008554 -0.005518 0.010090 0.000000 0.000000 0.000000
# 4 0.000000 0.000000 0.000000 0.053947 0.000000 0.000000
# 5 0.000000 0.000000 0.000000 0.000000 0.036346 0.000000
# 6 0.000000 0.000000 0.000000 0.000000 0.000000 0.097483
#
#
# Mechanical properties :
#
#
# Convention : Reuss Voigt Hill
#
# Bulk Modulus (GPa) = 33.24383 56.19344 44.71864
# Shear Modulus (GPa) = 16.76646 21.61484 19.19065
#
# Velocity S-wave (km/s) = 3.27261 3.71578 3.50122
# Velocity P-wave (km/s) = 5.95948 7.36915 6.70148
#
# Compressibility (1/GPa) = 0.03008077
#
# Stress axis : x y z
#
# Youngs Moduli (GPa) = 30.71096 44.25730 99.11145
#
# Poissons Ratio (x) = 0.15540 0.84778
# Poissons Ratio (y) = 0.10784 0.54687
# Poissons Ratio (z) = 0.26269 0.24420
#
# Static dielectric constant tensor:
#      x y z
#    x 2.833360 0.000000 0.000000 
#    y 0.000000 2.687300 0.000000 
#    z 0.000000 0.000000 3.579880 
# 
# 
# High freq. dielectric constant tensor:
#      x y z
#    x 1.573880 0.000000 0.000000 
#    y 0.000000 1.541480 0.000000 
#    z 0.000000 0.000000 1.623940 
# 
# From -- ./inp_files/18237.got.cif
#   From: 2010.03.12/outbox.cif.g09.slc.cpg/sg59_10_cif.got.tgz:18237.got - 2010.04.16 16:29:54.
