data_PCOD8246107
_publ_section_title
;
Structure prediction by ZEFSAII (Michael W. Deem and Ramdas Pophale) SiO2 
 PCOD8246107
Probable space group: P M M N
;
_chemical_formula_sum "Si O2"
_cell_formula_units_Z 64
_cell_length_a 9.145825
_cell_length_b 19.721843
_cell_length_c 20.308825
_cell_angle_alpha 90.000000
_cell_angle_beta 90.000000
_cell_angle_gamma 90.000000
_cell_volume 3663.154040
_symmetry_space_group_name_H-M "P M M N"
_symmetry_group_IT_number 59
_space_group.IT_coordinate_system_code '2'
_symmetry_cell_setting 'orthorhombic'
loop_
_space_group_symop_operation_xyz
x,y,z
1/2-x,1/2-y,z
1/2+x,-y,-z
-x,1/2+y,-z
-x,-y,-z
1/2+x,1/2+y,-z
1/2-x,y,z
x,1/2-y,z
loop_
_atom_site_type_symbol
_atom_site_label
_atom_site_fract_x
_atom_site_fract_y
_atom_site_fract_z
Si Si1 0.086366 0.912082 0.053733
Si Si2 0.586374 0.572849 0.928072
Si Si3 0.424583 0.434129 0.469786
Si Si4 0.919719 0.460457 0.340949
Si Si5 0.587696 0.897736 0.177108
Si Si6 0.082844 0.672006 0.441933
Si Si7 0.412219 0.557808 0.804810
Si Si8 0.080286 0.118439 0.677125
O O1 0.250000 0.884853 0.046089
O O2 0.016796 0.875162 0.117415
O O3 0.083114 0.992398 0.063425
O O4 0.000157 0.891793 0.987709
O O5 0.750000 0.601165 0.929578
O O6 0.517225 0.593762 0.857761
O O7 0.500000 0.500000 0.500000
O O8 0.250000 0.440406 0.474611
O O9 0.475693 0.425484 0.394385
O O10 0.477854 0.368596 0.509145
O O11 0.750000 0.444054 0.355828
O O12 0.966133 0.429726 0.269974
O O13 0.945141 0.540761 0.343111
O O14 0.750000 0.870428 0.161471
O O15 0.532849 0.868239 0.247065
O O16 0.593141 0.978227 0.182457
O O17 0.250000 0.645129 0.445365
O O18 0.076004 0.750000 0.463002
O O19 0.022909 0.664679 0.367685
O O20 0.250000 0.588060 0.814268
O O21 0.250000 0.137845 0.667206
#
# Coordination Sequence:
#
# PCOD8246107 Si02
#       8
#     8   8   8   8   8   8   8   8
#     4   9  15  21  30  46  69 103 145 185 225 269
#     4   9  15  21  30  45  70 105 144 185 225 269
#     4  12  23  35  54  77 100 128 163 204 249 298
#     4   9  17  30  48  70  94 121 155 197 243 289
#     4   8  14  24  37  55  78 106 143 185 228 272
#     4  11  24  39  54  74 100 130 164 204 250 299
#     4   8  14  24  37  54  79 110 143 182 228 277
#     4   9  17  30  49  69  91 122 156 195 241 290
#
# _framework density 17.471283
#
# number of rings (size 3 to 8) (size 9 to 14) (size 15 to 20)
#    0.000    2.625    1.250    3.750    0.000    5.000 
#    0.000    2.500    0.000    0.000    0.000    0.000 
#    0.000    0.000    0.000    1.125    0.000   19.250 
#
# Total GULP energy -793359.475667 kJ/mol
# GULP energy per Si atom -12396.241807 kJ/mol
# Density = 1.743152 g / cm^3
# Si number density = 17.471283 Si / 1000 Ang^3
#
#
#
# Elastic Constant Matrix: (Units=GPa)
#
#
# Indices 1 2 3 4 5 6 
#
# 1 139.8073 24.6518 86.4763 0.0000 0.0000 0.0000
# 2 24.6518 27.8183 23.2297 0.0000 0.0000 0.0000
# 3 86.4763 23.2297 155.6728 0.0000 0.0000 0.0000
# 4 0.0000 0.0000 0.0000 9.8495 0.0000 0.0000
# 5 0.0000 0.0000 0.0000 0.0000 38.9495 0.0000
# 6 0.0000 0.0000 0.0000 0.0000 0.0000 13.1630
#
#
#
# Elastic Compliance Matrix: (Units=1/GPa)
#
#
# Indices 1 2 3 4 5 6 
#
# 1 0.011614 -0.005603 -0.005616 0.000000 0.000000 0.000000
# 2 -0.005603 0.043767 -0.003419 0.000000 0.000000 0.000000
# 3 -0.005616 -0.003419 0.010053 0.000000 0.000000 0.000000
# 4 0.000000 0.000000 0.000000 0.101528 0.000000 0.000000
# 5 0.000000 0.000000 0.000000 0.000000 0.025674 0.000000
# 6 0.000000 0.000000 0.000000 0.000000 0.000000 0.075970
#
#
# Mechanical properties :
#
#
# Convention : Reuss Voigt Hill
#
# Bulk Modulus (GPa) = 27.65435 65.77932 46.71684
# Shear Modulus (GPa) = 16.13243 24.98845 20.56044
#
# Velocity S-wave (km/s) = 3.04199 3.78598 3.43419
# Velocity P-wave (km/s) = 5.31047 7.53944 6.52090
#
# Compressibility (1/GPa) = 0.03616068
#
# Stress axis : x y z
#
# Youngs Moduli (GPa) = 86.10247 22.84812 99.46969
#
# Poissons Ratio (x) = 0.12801 0.55858
# Poissons Ratio (y) = 0.48241 0.34005
# Poissons Ratio (z) = 0.48351 0.07811
#
# Static dielectric constant tensor:
#      x y z
#    x 3.407390 0.000000 0.000000 
#    y 0.000000 2.556850 0.000000 
#    z 0.000000 0.000000 3.599480 
# 
# 
# High freq. dielectric constant tensor:
#      x y z
#    x 1.681100 0.000000 0.000000 
#    y 0.000000 1.590370 0.000000 
#    z 0.000000 0.000000 1.694290 
# 
# From -- ./inp_files/29787.got.cif
#   From: 2010.03.12/outbox.cif.g09.slc.cpg/sg59_15_cif.got.tgz:29787.got - 2010.04.16 16:29:54.
