data_PCOD8246168
_publ_section_title
;
Structure prediction by ZEFSAII (Michael W. Deem and Ramdas Pophale) SiO2 
 PCOD8246168
Probable space group: P M M N
;
_chemical_formula_sum "Si O2"
_cell_formula_units_Z 48
_cell_length_a 18.457682
_cell_length_b 9.733179
_cell_length_c 16.060921
_cell_angle_alpha 90.000000
_cell_angle_beta 90.000000
_cell_angle_gamma 90.000000
_cell_volume 2885.375340
_symmetry_space_group_name_H-M "P M M N"
_symmetry_group_IT_number 59
_space_group.IT_coordinate_system_code '2'
_symmetry_cell_setting 'orthorhombic'
loop_
_space_group_symop_operation_xyz
x,y,z
1/2-x,1/2-y,z
1/2+x,-y,-z
-x,1/2+y,-z
-x,-y,-z
1/2+x,1/2+y,-z
1/2-x,y,z
x,1/2-y,z
loop_
_atom_site_type_symbol
_atom_site_label
_atom_site_fract_x
_atom_site_fract_y
_atom_site_fract_z
Si Si1 0.551945 0.407509 0.755152
Si Si2 0.330427 0.086554 0.832799
Si Si3 0.591811 0.586614 0.329728
Si Si4 0.529518 0.908075 0.073588
Si Si5 0.334843 0.091872 0.323720
Si Si6 0.669428 0.586537 0.490849
O O1 0.573021 0.250000 0.737977
O O2 0.490164 0.458583 0.690456
O O3 0.523596 0.425764 0.848440
O O4 0.622442 0.500720 0.742916
O O5 0.250000 0.029866 0.854994
O O6 0.330181 0.250000 0.829276
O O7 0.354244 0.030037 0.742011
O O8 0.389344 0.040682 0.901917
O O9 0.596171 0.750000 0.329094
O O10 0.615712 0.527267 0.419799
O O11 0.531398 0.750000 0.044393
O O12 0.500000 0.000000 0.000000
O O13 0.250000 0.071441 0.307781
O O14 0.356813 0.250000 0.310905
O O15 0.355731 0.040804 0.417045
O O16 0.750000 0.529768 0.472539
O O17 0.671572 0.750000 0.488293
#
# Coordination Sequence:
#
# PCOD8246168 Si02
#       6
#     8   8   8   8   8   8
#     4   9  18  31  46  66  90 115 145 180 221 270
#     4   8  13  23  42  67  91 113 140 176 216 258
#     4   8  13  22  39  64  91 116 142 175 217 264
#     4   9  18  32  49  69  92 116 143 178 220 266
#     4   9  18  31  45  63  88 118 154 191 220 250
#     4   8  13  22  38  61  89 119 149 182 218 253
#
# _framework density 16.635617
#
# number of rings (size 3 to 8) (size 9 to 14) (size 15 to 20)
#    0.000    3.500    0.000    3.500    0.000    3.667 
#    0.000    0.833    0.000    3.500    0.000    0.000 
#    0.000    4.000    0.000    0.000    0.000    0.000 
#
# Total GULP energy -594822.025530 kJ/mol
# GULP energy per Si atom -12392.125532 kJ/mol
# Density = 1.659775 g / cm^3
# Si number density = 16.635617 Si / 1000 Ang^3
#
#
#
# Elastic Constant Matrix: (Units=GPa)
#
#
# Indices 1 2 3 4 5 6 
#
# 1 102.9665 43.6058 55.2573 0.0000 0.0000 0.0000
# 2 43.6058 42.7563 37.4934 0.0000 0.0000 0.0000
# 3 55.2573 37.4934 72.9371 0.0000 0.0000 0.0000
# 4 0.0000 0.0000 0.0000 21.4903 0.0000 0.0000
# 5 0.0000 0.0000 0.0000 0.0000 26.1100 0.0000
# 6 0.0000 0.0000 0.0000 0.0000 0.0000 20.4307
#
#
#
# Elastic Compliance Matrix: (Units=1/GPa)
#
#
# Indices 1 2 3 4 5 6 
#
# 1 0.019507 -0.012627 -0.008288 0.000000 0.000000 0.000000
# 2 -0.012627 0.050758 -0.016526 0.000000 0.000000 0.000000
# 3 -0.008288 -0.016526 0.028484 0.000000 0.000000 0.000000
# 4 0.000000 0.000000 0.000000 0.046533 0.000000 0.000000
# 5 0.000000 0.000000 0.000000 0.000000 0.038299 0.000000
# 6 0.000000 0.000000 0.000000 0.000000 0.000000 0.048946
#
#
# Mechanical properties :
#
#
# Convention : Reuss Voigt Hill
#
# Bulk Modulus (GPa) = 41.89677 54.59700 48.24688
# Shear Modulus (GPa) = 15.85466 19.09308 17.47387
#
# Velocity S-wave (km/s) = 3.09051 3.39148 3.24449
# Velocity P-wave (km/s) = 6.16236 6.94455 6.56511
#
# Compressibility (1/GPa) = 0.02386819
#
# Stress axis : x y z
#
# Youngs Moduli (GPa) = 51.26379 19.70129 35.10711
#
# Poissons Ratio (x) = 0.24877 0.29095
# Poissons Ratio (y) = 0.64731 0.58018
# Poissons Ratio (z) = 0.42485 0.32558
#
# Static dielectric constant tensor:
#      x y z
#    x 3.266980 0.000000 0.000000 
#    y 0.000000 2.609470 0.000000 
#    z 0.000000 0.000000 3.137530 
# 
# 
# High freq. dielectric constant tensor:
#      x y z
#    x 1.644010 0.000000 0.000000 
#    y 0.000000 1.585340 0.000000 
#    z 0.000000 0.000000 1.635360 
# 
# From -- ./inp_files/27783.got.cif
#   From: 2010.03.12/outbox.cif.g09.slc.cpg/sg59_14_cif.got.tgz:27783.got - 2010.04.16 16:29:54.
