data_PCOD8246233
_publ_section_title
;
Structure prediction by ZEFSAII (Michael W. Deem and Ramdas Pophale) SiO2 
 PCOD8246233
Probable space group: P M M N
;
_chemical_formula_sum "Si O2"
_cell_formula_units_Z 48
_cell_length_a 13.782247
_cell_length_b 9.452384
_cell_length_c 21.260041
_cell_angle_alpha 90.000000
_cell_angle_beta 90.000000
_cell_angle_gamma 90.000000
_cell_volume 2769.653777
_symmetry_space_group_name_H-M "P M M N"
_symmetry_group_IT_number 59
_space_group.IT_coordinate_system_code '2'
_symmetry_cell_setting 'orthorhombic'
loop_
_space_group_symop_operation_xyz
x,y,z
1/2-x,1/2-y,z
1/2+x,-y,-z
-x,1/2+y,-z
-x,-y,-z
1/2+x,1/2+y,-z
1/2-x,y,z
x,1/2-y,z
loop_
_atom_site_type_symbol
_atom_site_label
_atom_site_fract_x
_atom_site_fract_y
_atom_site_fract_z
Si Si1 0.640945 0.913077 0.521391
Si Si2 0.454786 0.915090 0.844060
Si Si3 0.360292 0.918441 0.718462
Si Si4 0.051154 0.584578 0.588900
Si Si5 0.141791 0.414214 0.090674
Si Si6 0.135430 0.589687 0.971505
O O1 0.750000 0.945777 0.546191
O O2 0.630951 0.750000 0.501223
O O3 0.562731 0.948735 0.576079
O O4 0.619893 0.006234 0.460415
O O5 0.430544 0.750000 0.841260
O O6 0.412302 0.984425 0.780416
O O7 0.570709 0.943058 0.850058
O O8 0.403837 0.977272 0.906474
O O9 0.250000 0.974783 0.714832
O O10 0.361474 0.750000 0.720995
O O11 0.421128 0.971250 0.658130
O O12 0.073721 0.750000 0.582214
O O13 0.250000 0.465604 0.109366
O O14 0.141616 0.250000 0.072459
O O15 0.099591 0.496197 0.030205
O O16 0.250000 0.585819 0.968137
O O17 0.096884 0.750000 0.980682
#
# Coordination Sequence:
#
# PCOD8246233 Si02
#       6
#     8   8   8   8   8   8
#     4   9  17  29  45  66  93 120 143 173 215 256
#     4   9  16  26  40  59  83 108 134 167 207 247
#     4   9  16  26  42  64  87 109 137 175 212 244
#     4   9  17  29  46  68  90 114 147 181 211 248
#     4   9  17  28  41  58  81 107 134 166 206 249
#     4   9  16  26  42  62  80 101 133 170 206 244
#
# _framework density 17.330686
#
# number of rings (size 3 to 8) (size 9 to 14) (size 15 to 20)
#    0.000    3.000    0.000    1.500    0.000    3.000 
#    0.000    0.833    0.000    7.000    0.000    2.333 
#    0.000    2.667    0.000    0.000    0.000    0.000 
#
# Total GULP energy -594930.720630 kJ/mol
# GULP energy per Si atom -12394.390013 kJ/mol
# Density = 1.729124 g / cm^3
# Si number density = 17.330686 Si / 1000 Ang^3
#
#
#
# Elastic Constant Matrix: (Units=GPa)
#
#
# Indices 1 2 3 4 5 6 
#
# 1 117.8448 20.9518 81.5056 0.0000 0.0000 0.0000
# 2 20.9518 25.3551 26.6104 0.0000 0.0000 0.0000
# 3 81.5056 26.6104 138.8393 0.0000 0.0000 0.0000
# 4 0.0000 0.0000 0.0000 17.7408 0.0000 0.0000
# 5 0.0000 0.0000 0.0000 0.0000 27.7696 0.0000
# 6 0.0000 0.0000 0.0000 0.0000 0.0000 15.2075
#
#
#
# Elastic Compliance Matrix: (Units=1/GPa)
#
#
# Indices 1 2 3 4 5 6 
#
# 1 0.014578 -0.003836 -0.007823 0.000000 0.000000 0.000000
# 2 -0.003836 0.050380 -0.007404 0.000000 0.000000 0.000000
# 3 -0.007823 -0.007404 0.013214 0.000000 0.000000 0.000000
# 4 0.000000 0.000000 0.000000 0.056367 0.000000 0.000000
# 5 0.000000 0.000000 0.000000 0.000000 0.036011 0.000000
# 6 0.000000 0.000000 0.000000 0.000000 0.000000 0.065757
#
#
# Mechanical properties :
#
#
# Convention : Reuss Voigt Hill
#
# Bulk Modulus (GPa) = 24.97105 60.01942 42.49524
# Shear Modulus (GPa) = 17.37417 22.34167 19.85792
#
# Velocity S-wave (km/s) = 3.16968 3.59435 3.38867
# Velocity P-wave (km/s) = 5.27595 7.20645 6.31540
#
# Compressibility (1/GPa) = 0.04004637
#
# Stress axis : x y z
#
# Youngs Moduli (GPa) = 68.59427 19.84899 75.67657
#
# Poissons Ratio (x) = 0.07615 0.59202
# Poissons Ratio (y) = 0.26315 0.56030
# Poissons Ratio (z) = 0.53661 0.14696
#
# Static dielectric constant tensor:
#      x y z
#    x 3.493080 0.000000 0.000000 
#    y 0.000000 2.995700 0.000000 
#    z 0.000000 0.000000 3.311900 
# 
# 
# High freq. dielectric constant tensor:
#      x y z
#    x 1.686360 0.000000 0.000000 
#    y 0.000000 1.626740 0.000000 
#    z 0.000000 0.000000 1.653620 
# 
# From -- ./inp_files/26963.got.cif
#   From: 2010.03.12/outbox.cif.g09.slc.cpg/sg59_14_cif.got.tgz:26963.got - 2010.04.16 16:29:54.
