data_PCOD8246782
_publ_section_title
;
Structure prediction by ZEFSAII (Michael W. Deem and Ramdas Pophale) SiO2 
 PCOD8246782
Probable space group: P B C N
;
_chemical_formula_sum "Si O2"
_cell_formula_units_Z 40
_cell_length_a 14.020029
_cell_length_b 10.166852
_cell_length_c 12.527388
_cell_angle_alpha 90.000000
_cell_angle_beta 90.000000
_cell_angle_gamma 90.000000
_cell_volume 1785.648372
_symmetry_space_group_name_H-M "P B C N"
_symmetry_group_IT_number 60
_symmetry_cell_setting 'orthorhombic'
loop_
_space_group_symop_operation_xyz
x,y,z
1/2-x,1/2-y,1/2+z
1/2+x,1/2-y,-z
-x,y,1/2-z
-x,-y,-z
1/2+x,1/2+y,1/2-z
1/2-x,1/2+y,z
x,-y,1/2+z
loop_
_atom_site_type_symbol
_atom_site_label
_atom_site_fract_x
_atom_site_fract_y
_atom_site_fract_z
Si Si1 0.977032 0.277669 0.080110
Si Si2 0.733151 0.099796 0.220167
Si Si3 0.065384 0.009702 0.352057
Si Si4 0.452159 0.206565 0.363138
Si Si5 0.152445 0.339010 0.225783
O O1 0.075666 0.308470 0.137474
O O2 0.967567 0.119249 0.062210
O O3 0.890440 0.332390 0.152749
O O4 0.982985 0.345657 0.962320
O O5 0.822997 0.034471 0.164100
O O6 0.652324 0.141669 0.134332
O O7 0.763194 0.230480 0.286032
O O8 0.691682 0.985246 0.296779
O O9 0.000000 0.042049 0.250000
O O10 0.054105 0.860904 0.386663
O O11 0.500000 0.171373 0.250000
#
# Coordination Sequence:
#
# PCOD8246782 Si02
#       5
#     8   8   8   8   8
#     4  10  21  44  68  92 130 182 215 275 333 391
#     4  11  21  43  63 100 132 164 221 272 326 394
#     4  10  19  42  69  92 132 173 220 269 330 395
#     4  11  25  41  65 100 135 173 220 272 331 401
#     4  10  22  43  70  91 132 171 222 272 330 389
#
# _framework density 22.400825999999999
#
# number of rings (size 3 to 8) (size 9 to 14) (size 15 to 20)
#    0.000    1.600    6.000    0.600    2.800    0.800 
#   10.800    0.000    0.000    0.000    0.000    0.000 
#    0.000    0.000    0.000    0.000    0.000    0.000 
#
# Total GULP energy -495601.748177 kJ/mol
# GULP energy per Si atom -12390.043704 kJ/mol
# Density = 2.234984 g / cm^3
# Si number density = 22.400826 Si / 1000 Ang^3
#
#
#
# Elastic Constant Matrix: (Units=GPa)
#
#
# Indices 1 2 3 4 5 6 
#
# 1 116.1258 43.1014 35.3441 0.0000 0.0000 0.0000
# 2 43.1014 104.2938 28.2187 0.0000 0.0000 0.0000
# 3 35.3441 28.2187 82.9258 0.0000 0.0000 0.0000
# 4 0.0000 0.0000 0.0000 7.2264 0.0000 0.0000
# 5 0.0000 0.0000 0.0000 0.0000 19.3780 0.0000
# 6 0.0000 0.0000 0.0000 0.0000 0.0000 -1.3964
#
#
#
# Elastic Compliance Matrix: (Units=1/GPa)
#
#
# Indices 1 2 3 4 5 6 
#
# 1 0.011005 -0.003612 -0.003462 0.000000 0.000000 0.000000
# 2 -0.003612 0.011746 -0.002458 0.000000 0.000000 0.000000
# 3 -0.003462 -0.002458 0.014371 0.000000 0.000000 0.000000
# 4 0.000000 0.000000 0.000000 0.138382 0.000000 0.000000
# 5 0.000000 0.000000 0.000000 0.000000 0.051605 0.000000
# 6 0.000000 0.000000 0.000000 0.000000 0.000000 -0.716112
#
#
# Mechanical properties :
#
#
# Convention : Reuss Voigt Hill
#
# Bulk Modulus (GPa) = 55.37068 57.40821 56.38945
# Shear Modulus (GPa) = -10.77768 18.15366 3.68799
#
# Velocity S-wave (km/s) = -2.19584 2.84984 1.28450
# Velocity P-wave (km/s) = 4.28285 6.04253 5.23713
#
# Compressibility (1/GPa) = 0.01806010
#
# Stress axis : x y z
#
# Youngs Moduli (GPa) = 90.86424 85.13667 69.58595
#
# Poissons Ratio (x) = 0.30748 0.24088
# Poissons Ratio (y) = 0.32816 0.17102
# Poissons Ratio (z) = 0.31454 0.20924
#
# Static dielectric constant tensor:
#      x y z
#    x 4.124130 0.000000 0.000000 
#    y 0.000000 4.506150 0.000000 
#    z 0.000000 0.000000 3.584740 
# 
# 
# High freq. dielectric constant tensor:
#      x y z
#    x 1.888640 0.000000 0.000000 
#    y 0.000000 1.905230 0.000000 
#    z 0.000000 0.000000 1.841180 
# 
# From -- ./inp_files/11680.got.cif
#   From: 2010.03.12/outbox.cif.g09.slc.cpg/sg60_6_cif.got.tgz:11680.got - 2010.04.10 18:46:24.
