data_PCOD8246582
_publ_section_title
;
Structure prediction by ZEFSAII (Michael W. Deem and Ramdas Pophale) SiO2 
 PCOD8246582
Probable space group: P B C N
;
_chemical_formula_sum "Si O2"
_cell_formula_units_Z 40
_cell_length_a 4.777108
_cell_length_b 21.573169
_cell_length_c 18.752160
_cell_angle_alpha 90.000000
_cell_angle_beta 90.000000
_cell_angle_gamma 90.000000
_cell_volume 1932.548070
_symmetry_space_group_name_H-M "P B C N"
_symmetry_group_IT_number 60
_symmetry_cell_setting 'orthorhombic'
loop_
_space_group_symop_operation_xyz
x,y,z
1/2-x,1/2-y,1/2+z
1/2+x,1/2-y,-z
-x,y,1/2-z
-x,-y,-z
1/2+x,1/2+y,1/2-z
1/2-x,1/2+y,z
x,-y,1/2+z
loop_
_atom_site_type_symbol
_atom_site_label
_atom_site_fract_x
_atom_site_fract_y
_atom_site_fract_z
Si Si1 0.251089 0.060548 0.566081
Si Si2 0.583949 0.685832 0.055845
Si Si3 0.093652 0.761415 0.095347
Si Si4 0.256597 0.925968 0.527314
Si Si5 0.235084 0.140126 0.701929
O O1 0.439379 0.096194 0.504201
O O2 0.322523 0.092192 0.640747
O O3 0.926564 0.061010 0.543805
O O4 0.329740 0.987804 0.572052
O O5 0.894057 0.700000 0.087413
O O6 0.423098 0.621778 0.076498
O O7 0.413853 0.741026 0.092329
O O8 0.545528 0.690704 0.970031
O O9 0.076002 0.799260 0.168953
O O10 0.500000 0.158779 0.750000
O O11 0.000000 0.107076 0.750000
#
# Coordination Sequence:
#
# PCOD8246582 Si02
#       5
#     8   8   8   8   8
#     4  10  21  35  56  88 118 149 197 233 313 353
#     4  10  19  33  58  82 118 143 186 262 298 344
#     4  10  21  33  53  86 113 151 198 235 301 350
#     4  10  19  35  60  86 119 145 182 266 300 353
#     4  12  24  38  58  81 126 165 197 241 283 374
#
# _framework density 20.698060999999999
#
# number of rings (size 3 to 8) (size 9 to 14) (size 15 to 20)
#    0.000    1.600    2.000    3.600    5.600    0.000 
#    0.000    0.000    0.000    4.800    0.000    0.000 
#    0.000    0.000    0.000    0.000    0.000    0.000 
#
# Total GULP energy -495567.209118 kJ/mol
# GULP energy per Si atom -12389.180228 kJ/mol
# Density = 2.065095 g / cm^3
# Si number density = 20.698061 Si / 1000 Ang^3
#
#
#
# Elastic Constant Matrix: (Units=GPa)
#
#
# Indices 1 2 3 4 5 6 
#
# 1 96.3545 9.0247 34.0390 0.0000 0.0000 0.0000
# 2 9.0247 79.5287 45.8419 0.0000 0.0000 0.0000
# 3 34.0390 45.8419 86.9864 0.0000 0.0000 0.0000
# 4 0.0000 0.0000 0.0000 15.7947 0.0000 0.0000
# 5 0.0000 0.0000 0.0000 0.0000 33.6583 0.0000
# 6 0.0000 0.0000 0.0000 0.0000 0.0000 24.3689
#
#
#
# Elastic Compliance Matrix: (Units=1/GPa)
#
#
# Indices 1 2 3 4 5 6 
#
# 1 0.012255 0.001973 -0.005835 0.000000 0.000000 0.000000
# 2 0.001973 0.018378 -0.010457 0.000000 0.000000 0.000000
# 3 -0.005835 -0.010457 0.019290 0.000000 0.000000 0.000000
# 4 0.000000 0.000000 0.000000 0.063312 0.000000 0.000000
# 5 0.000000 0.000000 0.000000 0.000000 0.029710 0.000000
# 6 0.000000 0.000000 0.000000 0.000000 0.000000 0.041036
#
#
# Mechanical properties :
#
#
# Convention : Reuss Voigt Hill
#
# Bulk Modulus (GPa) = 46.98323 48.96453 47.97388
# Shear Modulus (GPa) = 22.75669 26.36201 24.55935
#
# Velocity S-wave (km/s) = 3.31941 3.57269 3.44838
# Velocity P-wave (km/s) = 6.11882 6.38175 6.25167
#
# Compressibility (1/GPa) = 0.02128419
#
# Stress axis : x y z
#
# Youngs Moduli (GPa) = 81.59960 54.41314 51.83926
#
# Poissons Ratio (x) = -0.10735 0.30249
# Poissons Ratio (y) = -0.16099 0.54209
# Poissons Ratio (z) = 0.47615 0.56901
#
# Static dielectric constant tensor:
#      x y z
#    x 3.934930 0.000000 0.000000 
#    y 0.000000 3.750310 0.000000 
#    z 0.000000 0.000000 3.328700 
# 
# 
# High freq. dielectric constant tensor:
#      x y z
#    x 1.838820 0.000000 0.000000 
#    y 0.000000 1.810840 0.000000 
#    z 0.000000 0.000000 1.748890 
# 
# From -- ./inp_files/18617.got.cif
#   From: 2010.03.12/outbox.cif.g09.slc.cpg/sg60_10_cif.got.tgz:18617.got - 2010.04.10 18:46:24.
