data_PCOD8246992
_publ_section_title
;
Structure prediction by ZEFSAII (Michael W. Deem and Ramdas Pophale) SiO2 
 PCOD8246992
Probable space group: P B C N
;
_chemical_formula_sum "Si O2"
_cell_formula_units_Z 56
_cell_length_a 24.118350
_cell_length_b 8.712891
_cell_length_c 12.585801
_cell_angle_alpha 90.000000
_cell_angle_beta 90.000000
_cell_angle_gamma 90.000000
_cell_volume 2644.787203
_symmetry_space_group_name_H-M "P B C N"
_symmetry_group_IT_number 60
_symmetry_cell_setting 'orthorhombic'
loop_
_space_group_symop_operation_xyz
x,y,z
1/2-x,1/2-y,1/2+z
1/2+x,1/2-y,-z
-x,y,1/2-z
-x,-y,-z
1/2+x,1/2+y,1/2-z
1/2-x,1/2+y,z
x,-y,1/2+z
loop_
_atom_site_type_symbol
_atom_site_label
_atom_site_fract_x
_atom_site_fract_y
_atom_site_fract_z
Si Si1 0.000000 0.856195 0.250000
Si Si2 0.811261 0.714286 0.579894
Si Si3 0.806142 0.810931 0.819638
Si Si4 0.572036 0.602578 0.363047
Si Si5 0.500000 0.848744 0.250000
Si Si6 0.742578 0.950497 0.451051
Si Si7 0.067311 0.596373 0.942758
Si Si8 0.462686 0.775243 0.952799
O O1 0.961436 0.755485 0.173117
O O2 0.957934 0.950869 0.323385
O O3 0.793572 0.754560 0.700101
O O4 0.792939 0.853286 0.502843
O O5 0.784017 0.553189 0.544544
O O6 0.877308 0.694698 0.571015
O O7 0.864692 0.895964 0.827349
O O8 0.802277 0.666005 0.900012
O O9 0.762381 0.940487 0.855019
O O10 0.542779 0.750312 0.316255
O O11 0.563942 0.624925 0.490197
O O12 0.462887 0.945855 0.330932
O O13 0.075194 0.423197 0.986806
O O14 0.027173 0.697784 0.015984
#
# Coordination Sequence:
#
# PCOD8246992 Si02
#       8
#     4   8   8   8   4   8   8   8
#     4  11  23  38  58  90 127 163 206 250 308 389
#     4  11  22  43  68  92 128 173 210 270 328 373
#     4  11  22  43  66  92 127 171 208 272 322 376
#     4  10  21  36  60  84 125 159 199 249 310 366
#     4   9  17  36  56  92 113 157 198 238 298 381
#     4  10  25  41  64  97 127 160 228 268 312 386
#     4  10  20  37  65  87 125 164 200 255 316 371
#     4  10  22  38  56  92 129 156 209 253 298 389
#
# _framework density 21.173725999999998
#
# number of rings (size 3 to 8) (size 9 to 14) (size 15 to 20)
#    0.000    1.714    1.429    2.571    2.000    1.143 
#    2.571    1.429    0.000    0.000    0.000    0.000 
#    0.000    0.000    0.000    0.000    0.000    0.000 
#
# Total GULP energy -694138.040171 kJ/mol
# GULP energy per Si atom -12395.322146 kJ/mol
# Density = 2.112553 g / cm^3
# Si number density = 21.173726 Si / 1000 Ang^3
#
#
#
# Elastic Constant Matrix: (Units=GPa)
#
#
# Indices 1 2 3 4 5 6 
#
# 1 71.9316 19.1769 13.4170 0.0000 0.0000 0.0000
# 2 19.1769 89.6417 29.2270 0.0000 0.0000 0.0000
# 3 13.4170 29.2270 108.7748 0.0000 0.0000 0.0000
# 4 0.0000 0.0000 0.0000 34.3692 0.0000 0.0000
# 5 0.0000 0.0000 0.0000 0.0000 22.7758 0.0000
# 6 0.0000 0.0000 0.0000 0.0000 0.0000 33.6762
#
#
#
# Elastic Compliance Matrix: (Units=1/GPa)
#
#
# Indices 1 2 3 4 5 6 
#
# 1 0.014856 -0.002828 -0.001072 0.000000 0.000000 0.000000
# 2 -0.002828 0.012765 -0.003081 0.000000 0.000000 0.000000
# 3 -0.001072 -0.003081 0.010153 0.000000 0.000000 0.000000
# 4 0.000000 0.000000 0.000000 0.029096 0.000000 0.000000
# 5 0.000000 0.000000 0.000000 0.000000 0.043906 0.000000
# 6 0.000000 0.000000 0.000000 0.000000 0.000000 0.029695
#
#
# Mechanical properties :
#
#
# Convention : Reuss Voigt Hill
#
# Bulk Modulus (GPa) = 41.99767 43.77666 42.88717
# Shear Modulus (GPa) = 30.79340 32.06604 31.42972
#
# Velocity S-wave (km/s) = 3.81769 3.89578 3.85694
# Velocity P-wave (km/s) = 6.26984 6.39969 6.33510
#
# Compressibility (1/GPa) = 0.02381084
#
# Stress axis : x y z
#
# Youngs Moduli (GPa) = 67.31194 78.33821 98.48880
#
# Poissons Ratio (x) = 0.22158 0.10563
# Poissons Ratio (y) = 0.19039 0.30345
# Poissons Ratio (z) = 0.07219 0.24136
#
# Static dielectric constant tensor:
#      x y z
#    x 3.520910 0.000000 0.000000 
#    y 0.000000 3.769130 0.000000 
#    z 0.000000 0.000000 4.045530 
# 
# 
# High freq. dielectric constant tensor:
#      x y z
#    x 1.810630 0.000000 0.000000 
#    y 0.000000 1.836600 0.000000 
#    z 0.000000 0.000000 1.839290 
# 
# From -- ./inp_files/17766.got.cif
#   From: 2010.03.12/outbox.cif.g09.slc.cpg/sg60_9_cif.got.tgz:17766.got - 2010.04.10 18:46:24.
