data_PCOD8246935
_publ_section_title
;
Structure prediction by ZEFSAII (Michael W. Deem and Ramdas Pophale) SiO2 
 PCOD8246935
Probable space group: P B C N
;
_chemical_formula_sum "Si O2"
_cell_formula_units_Z 36
_cell_length_a 11.257130
_cell_length_b 19.515268
_cell_length_c 8.203358
_cell_angle_alpha 90.000000
_cell_angle_beta 90.000000
_cell_angle_gamma 90.000000
_cell_volume 1802.162158
_symmetry_space_group_name_H-M "P B C N"
_symmetry_group_IT_number 60
_symmetry_cell_setting 'orthorhombic'
loop_
_space_group_symop_operation_xyz
x,y,z
1/2-x,1/2-y,1/2+z
1/2+x,1/2-y,-z
-x,y,1/2-z
-x,-y,-z
1/2+x,1/2+y,1/2-z
1/2-x,1/2+y,z
x,-y,1/2+z
loop_
_atom_site_type_symbol
_atom_site_label
_atom_site_fract_x
_atom_site_fract_y
_atom_site_fract_z
Si Si1 0.500000 0.346396 0.750000
Si Si2 0.302962 0.432355 0.579840
Si Si3 0.682625 0.296032 0.503145
Si Si4 0.139764 0.672630 0.230554
Si Si5 0.638850 0.425246 0.280390
O O1 0.423120 0.395520 0.636007
O O2 0.579740 0.297172 0.638998
O O3 0.190674 0.401241 0.677066
O O4 0.288475 0.421779 0.387474
O O5 0.310207 0.513047 0.612006
O O6 0.808596 0.304069 0.594487
O O7 0.680026 0.224441 0.410706
O O8 0.663429 0.355566 0.373702
O O9 0.000000 0.668365 0.250000
O O10 0.500000 0.436355 0.250000
#
# Coordination Sequence:
#
# PCOD8246935 Si02
#       5
#     4   8   8   8   8
#     4  10  20  36  62  94 126 158 204 268 316 376
#     4  11  22  39  62  99 128 165 211 264 329 378
#     4  11  24  40  67  95 127 166 220 262 327 372
#     4  11  26  44  61  94 135 171 211 262 318 395
#     4  12  21  39  69 100 129 163 214 282 321 370
#
# _framework density 19.976004
#
# number of rings (size 3 to 8) (size 9 to 14) (size 15 to 20)
#    0.000    0.889    3.333    5.333    6.222    0.000 
#    0.000    4.444    0.000    0.000    0.000    0.000 
#    0.000    0.000    0.000    0.000    0.000    0.000 
#
# Total GULP energy -446623.585827 kJ/mol
# GULP energy per Si atom -12406.210717 kJ/mol
# Density = 1.993054 g / cm^3
# Si number density = 19.976004 Si / 1000 Ang^3
#
#
#
# Elastic Constant Matrix: (Units=GPa)
#
#
# Indices 1 2 3 4 5 6 
#
# 1 118.1392 8.8932 26.0493 0.0000 0.0000 0.0000
# 2 8.8932 51.3510 4.4574 0.0000 0.0000 0.0000
# 3 26.0493 4.4574 104.2048 0.0000 0.0000 0.0000
# 4 0.0000 0.0000 0.0000 24.1451 0.0000 0.0000
# 5 0.0000 0.0000 0.0000 0.0000 19.4073 0.0000
# 6 0.0000 0.0000 0.0000 0.0000 0.0000 13.3000
#
#
#
# Elastic Compliance Matrix: (Units=1/GPa)
#
#
# Indices 1 2 3 4 5 6 
#
# 1 0.009054 -0.001377 -0.002205 0.000000 0.000000 0.000000
# 2 -0.001377 0.019756 -0.000501 0.000000 0.000000 0.000000
# 3 -0.002205 -0.000501 0.010169 0.000000 0.000000 0.000000
# 4 0.000000 0.000000 0.000000 0.041416 0.000000 0.000000
# 5 0.000000 0.000000 0.000000 0.000000 0.051527 0.000000
# 6 0.000000 0.000000 0.000000 0.000000 0.000000 0.075188
#
#
# Mechanical properties :
#
#
# Convention : Reuss Voigt Hill
#
# Bulk Modulus (GPa) = 32.45200 39.16609 35.80904
# Shear Modulus (GPa) = 22.16839 26.99014 24.57927
#
# Velocity S-wave (km/s) = 3.33491 3.67976 3.51157
# Velocity P-wave (km/s) = 5.57759 6.14030 5.86570
#
# Compressibility (1/GPa) = 0.03081474
#
# Stress axis : x y z
#
# Youngs Moduli (GPa) = 110.44456 50.61828 98.33807
#
# Poissons Ratio (x) = 0.06969 0.21679
# Poissons Ratio (y) = 0.15205 0.04926
# Poissons Ratio (z) = 0.24348 0.02536
#
# Static dielectric constant tensor:
#      x y z
#    x 3.566760 0.000000 0.000000 
#    y 0.000000 3.612910 0.000000 
#    z 0.000000 0.000000 3.929130 
# 
# 
# High freq. dielectric constant tensor:
#      x y z
#    x 1.761950 0.000000 0.000000 
#    y 0.000000 1.781210 0.000000 
#    z 0.000000 0.000000 1.802200 
# 
# From -- ./inp_files/4871.got.cif
#   From: 2010.03.12/outbox.cif.g09.slc.cpg/sg60_3_cif.got.tgz:4871.got - 2010.04.10 18:46:24.
