data_PCOD8246687
_publ_section_title
;
Structure prediction by ZEFSAII (Michael W. Deem and Ramdas Pophale) SiO2 
 PCOD8246687
Probable space group: P B C N
;
_chemical_formula_sum "Si O2"
_cell_formula_units_Z 40
_cell_length_a 6.375552
_cell_length_b 27.003632
_cell_length_c 11.793815
_cell_angle_alpha 90.000000
_cell_angle_beta 90.000000
_cell_angle_gamma 90.000000
_cell_volume 2030.459280
_symmetry_space_group_name_H-M "P B C N"
_symmetry_group_IT_number 60
_symmetry_cell_setting 'orthorhombic'
loop_
_space_group_symop_operation_xyz
x,y,z
1/2-x,1/2-y,1/2+z
1/2+x,1/2-y,-z
-x,y,1/2-z
-x,-y,-z
1/2+x,1/2+y,1/2-z
1/2-x,1/2+y,z
x,-y,1/2+z
loop_
_atom_site_type_symbol
_atom_site_label
_atom_site_fract_x
_atom_site_fract_y
_atom_site_fract_z
Si Si1 0.694707 0.681987 0.067317
Si Si2 0.663276 0.571447 0.075655
Si Si3 0.865121 0.984596 0.349362
Si Si4 0.000000 0.284918 0.750000
Si Si5 0.876851 0.266579 0.360861
Si Si6 0.500000 0.040474 0.250000
O O1 0.585283 0.628163 0.065724
O O2 0.851667 0.681205 0.173478
O O3 0.512463 0.722479 0.083097
O O4 0.835515 0.691102 0.954555
O O5 0.486788 0.535640 0.124117
O O6 0.871467 0.571773 0.155337
O O7 0.693047 0.553156 0.947959
O O8 0.000000 0.957230 0.250000
O O9 0.640117 0.001791 0.314726
O O10 0.145098 0.250835 0.671633
O O11 0.000000 0.287747 0.250000
#
# Coordination Sequence:
#
# PCOD8246687 Si02
#       6
#     8   8   8   4   8   4
#     4  11  21  39  60  86 115 154 193 237 289 340
#     4  10  21  36  59  85 112 149 189 232 288 338
#     4   9  20  39  55  82 118 146 182 235 286 342
#     4  10  21  38  60  82 116 150 196 244 281 334
#     4  10  22  39  58  81 119 153 189 239 287 336
#     4  10  19  36  62  84 110 144 190 240 277 338
#
# _framework density 19.699978000000002
#
# number of rings (size 3 to 8) (size 9 to 14) (size 15 to 20)
#    0.000    2.000    2.000    1.200    0.000    8.800 
#    3.600    0.000    0.000    0.000    0.000    0.000 
#    0.000    0.000    0.000    0.000    0.000    0.000 
#
# Total GULP energy -495607.971430 kJ/mol
# GULP energy per Si atom -12390.199286 kJ/mol
# Density = 1.965514 g / cm^3
# Si number density = 19.699978 Si / 1000 Ang^3
#
#
#
# Elastic Constant Matrix: (Units=GPa)
#
#
# Indices 1 2 3 4 5 6 
#
# 1 83.5425 19.0455 25.8799 0.0000 0.0000 0.0000
# 2 19.0455 71.6647 41.2941 0.0000 0.0000 0.0000
# 3 25.8799 41.2941 126.4936 0.0000 0.0000 0.0000
# 4 0.0000 0.0000 0.0000 26.1055 0.0000 0.0000
# 5 0.0000 0.0000 0.0000 0.0000 29.8190 0.0000
# 6 0.0000 0.0000 0.0000 0.0000 0.0000 -997.9866
#
#
#
# Elastic Compliance Matrix: (Units=1/GPa)
#
#
# Indices 1 2 3 4 5 6 
#
# 1 0.013103 -0.002386 -0.001902 0.000000 0.000000 0.000000
# 2 -0.002386 0.017621 -0.005264 0.000000 0.000000 0.000000
# 3 -0.001902 -0.005264 0.010013 0.000000 0.000000 0.000000
# 4 0.000000 0.000000 0.000000 0.038306 0.000000 0.000000
# 5 0.000000 0.000000 0.000000 0.000000 0.033536 0.000000
# 6 0.000000 0.000000 0.000000 0.000000 0.000000 -0.001002
#
#
# Mechanical properties :
#
#
# Convention : Reuss Voigt Hill
#
# Bulk Modulus (GPa) = 46.22627 50.45996 48.34311
# Shear Modulus (GPa) = 36.25990 -175.38032 -69.56021
#
# Velocity S-wave (km/s) = 4.29488 -9.44558 -5.94865
# Velocity P-wave (km/s) = 6.93619 9.65861 4.75279
#
# Compressibility (1/GPa) = 0.02163272
#
# Stress axis : x y z
#
# Youngs Moduli (GPa) = 76.31766 56.74906 99.86843
#
# Poissons Ratio (x) = 0.13543 0.18993
# Poissons Ratio (y) = 0.18213 0.52574
# Poissons Ratio (z) = 0.14514 0.29874
#
# Static dielectric constant tensor:
#      x y z
#    x 3.606630 0.000000 0.000000 
#    y 0.000000 3.171530 0.000000 
#    z 0.000000 0.000000 4.116390 
# 
# 
# High freq. dielectric constant tensor:
#      x y z
#    x 1.773490 0.000000 0.000000 
#    y 0.000000 1.735050 0.000000 
#    z 0.000000 0.000000 1.791920 
# 
# From -- ./inp_files/9139.got.cif
#   From: 2010.03.12/outbox.cif.g09.slc.cpg/sg60_5_cif.got.tgz:9139.got - 2010.04.10 18:46:24.
