data_PCOD8246470
_publ_section_title
;
Structure prediction by ZEFSAII (Michael W. Deem and Ramdas Pophale) SiO2 
 PCOD8246470
Probable space group: P B C N
;
_chemical_formula_sum "Si O2"
_cell_formula_units_Z 56
_cell_length_a 15.813772
_cell_length_b 8.852148
_cell_length_c 18.918220
_cell_angle_alpha 90.000000
_cell_angle_beta 90.000000
_cell_angle_gamma 90.000000
_cell_volume 2648.283111
_symmetry_space_group_name_H-M "P B C N"
_symmetry_group_IT_number 60
_symmetry_cell_setting 'orthorhombic'
loop_
_space_group_symop_operation_xyz
x,y,z
1/2-x,1/2-y,1/2+z
1/2+x,1/2-y,-z
-x,y,1/2-z
-x,-y,-z
1/2+x,1/2+y,1/2-z
1/2-x,1/2+y,z
x,-y,1/2+z
loop_
_atom_site_type_symbol
_atom_site_label
_atom_site_fract_x
_atom_site_fract_y
_atom_site_fract_z
Si Si1 0.761483 0.486365 0.431638
Si Si2 0.412842 0.083916 0.492313
Si Si3 0.180779 0.398030 0.374267
Si Si4 0.834434 0.055498 0.079494
Si Si5 0.408408 0.113207 0.273780
Si Si6 0.465110 0.328989 0.395757
Si Si7 0.842827 0.235929 0.863972
O O1 0.853394 0.402386 0.438813
O O2 0.698087 0.457081 0.498405
O O3 0.713727 0.416880 0.362801
O O4 0.788907 0.659574 0.418431
O O5 0.430952 0.250973 0.466510
O O6 0.500000 0.000000 0.500000
O O7 0.357133 0.984691 0.440255
O O8 0.170597 0.220456 0.385929
O O9 0.279523 0.440911 0.372173
O O10 0.136323 0.462613 0.303755
O O11 0.931606 0.000326 0.092839
O O12 0.500000 0.054951 0.250000
O O13 0.421698 0.248305 0.328997
O O14 0.351251 0.181913 0.211038
O O15 0.565677 0.313622 0.393126
#
# Coordination Sequence:
#
# PCOD8246470 Si02
#       7
#     8   8   8   8   8   8   8
#     4  11  22  38  58  92 127 159 205 258 329 380
#     4  10  18  36  62  85 122 163 207 255 320 378
#     4  10  21  38  64  89 120 167 211 267 307 376
#     4  11  22  39  64  94 124 159 220 265 314 388
#     4   9  21  42  64  88 123 169 219 255 317 380
#     4  10  21  40  63  87 121 167 208 264 315 377
#     4  11  23  40  58  88 129 165 200 261 318 381
#
# _framework density 21.145776000000001
#
# number of rings (size 3 to 8) (size 9 to 14) (size 15 to 20)
#    0.000    1.714    1.429    5.143    0.000    2.857 
#    2.571    2.143    0.000    0.000    0.000    0.000 
#    0.000    0.000    0.000    0.000    0.000    0.000 
#
# Total GULP energy -693740.815501 kJ/mol
# GULP energy per Si atom -12388.228848 kJ/mol
# Density = 2.109765 g / cm^3
# Si number density = 21.145776 Si / 1000 Ang^3
#
#
#
# Elastic Constant Matrix: (Units=GPa)
#
#
# Indices 1 2 3 4 5 6 
#
# 1 119.9346 64.2234 38.9552 0.0000 0.0000 0.0000
# 2 64.2234 126.4366 22.4070 0.0000 0.0000 0.0000
# 3 38.9552 22.4070 53.3619 0.0000 0.0000 0.0000
# 4 0.0000 0.0000 0.0000 22.2109 0.0000 0.0000
# 5 0.0000 0.0000 0.0000 0.0000 34.4286 0.0000
# 6 0.0000 0.0000 0.0000 0.0000 0.0000 40.6927
#
#
#
# Elastic Compliance Matrix: (Units=1/GPa)
#
#
# Indices 1 2 3 4 5 6 
#
# 1 0.013905 -0.005687 -0.007763 0.000000 0.000000 0.000000
# 2 -0.005687 0.010871 -0.000413 0.000000 0.000000 0.000000
# 3 -0.007763 -0.000413 0.024580 0.000000 0.000000 0.000000
# 4 0.000000 0.000000 0.000000 0.045023 0.000000 0.000000
# 5 0.000000 0.000000 0.000000 0.000000 0.029046 0.000000
# 6 0.000000 0.000000 0.000000 0.000000 0.000000 0.024574
#
#
# Mechanical properties :
#
#
# Convention : Reuss Voigt Hill
#
# Bulk Modulus (GPa) = 46.23146 61.21159 53.72153
# Shear Modulus (GPa) = 27.33218 31.07627 29.20422
#
# Velocity S-wave (km/s) = 3.59912 3.83772 3.72033
# Velocity P-wave (km/s) = 6.25957 6.97479 6.62684
#
# Compressibility (1/GPa) = 0.02163029
#
# Stress axis : x y z
#
# Youngs Moduli (GPa) = 71.91885 91.98703 40.68312
#
# Poissons Ratio (x) = 0.52314 0.31580
# Poissons Ratio (y) = 0.40901 0.01681
# Poissons Ratio (z) = 0.55827 0.03800
#
# Static dielectric constant tensor:
#      x y z
#    x 7.045060 0.000000 0.000000 
#    y 0.000000 3.732610 0.000000 
#    z 0.000000 0.000000 3.742750 
# 
# 
# High freq. dielectric constant tensor:
#      x y z
#    x 1.847220 0.000000 0.000000 
#    y 0.000000 1.821190 0.000000 
#    z 0.000000 0.000000 1.806330 
# 
# From -- ./inp_files/22935.got.cif
#   From: 2010.03.12/outbox.cif.g09.slc.cpg/sg60_12_cif.got.tgz:22935.got - 2010.04.10 18:46:24.
