data_PCOD8246703
_publ_section_title
;
Structure prediction by ZEFSAII (Michael W. Deem and Ramdas Pophale) SiO2 
 PCOD8246703
Probable space group: P B C N
;
_chemical_formula_sum "Si O2"
_cell_formula_units_Z 40
_cell_length_a 13.787390
_cell_length_b 9.682174
_cell_length_c 14.954640
_cell_angle_alpha 90.000000
_cell_angle_beta 90.000000
_cell_angle_gamma 90.000000
_cell_volume 1996.323442
_symmetry_space_group_name_H-M "P B C N"
_symmetry_group_IT_number 60
_symmetry_cell_setting 'orthorhombic'
loop_
_space_group_symop_operation_xyz
x,y,z
1/2-x,1/2-y,1/2+z
1/2+x,1/2-y,-z
-x,y,1/2-z
-x,-y,-z
1/2+x,1/2+y,1/2-z
1/2-x,1/2+y,z
x,-y,1/2+z
loop_
_atom_site_type_symbol
_atom_site_label
_atom_site_fract_x
_atom_site_fract_y
_atom_site_fract_z
Si Si1 0.918613 0.917056 0.905438
Si Si2 0.698891 0.591157 0.228209
Si Si3 0.414278 0.897580 0.819551
Si Si4 0.907092 0.891319 0.102856
Si Si5 0.556059 0.198389 0.657476
O O1 0.836709 0.906774 0.830518
O O2 0.988720 0.782181 0.911476
O O3 0.869674 0.931138 0.003077
O O4 0.984931 0.049004 0.881672
O O5 0.814124 0.595961 0.235234
O O6 0.665237 0.452187 0.177374
O O7 0.657826 0.722021 0.172537
O O8 0.500000 0.872031 0.750000
O O9 0.411567 0.773750 0.889993
O O10 0.426661 0.041272 0.874634
O O11 0.500000 0.195536 0.750000
#
# Coordination Sequence:
#
# PCOD8246703 Si02
#       5
#     8   8   8   8   8
#     4   9  19  38  60  81 110 149 184 225 283 333
#     4  10  19  37  58  77 113 153 183 222 277 336
#     4  11  21  34  54  82 112 145 187 233 275 321
#     4  10  20  36  61  87 108 142 193 232 268 334
#     4   8  17  33  53  77 107 142 176 220 279 327
#
# _framework density 20.036832
#
# number of rings (size 3 to 8) (size 9 to 14) (size 15 to 20)
#    0.000    2.400    0.000    4.200    0.000    0.800 
#    0.000   16.000    0.000    0.000    0.000    0.000 
#    0.000    0.000    0.000    0.000    0.000    0.000 
#
# Total GULP energy -495915.555103 kJ/mol
# GULP energy per Si atom -12397.888878 kJ/mol
# Density = 1.999123 g / cm^3
# Si number density = 20.036832 Si / 1000 Ang^3
#
#
#
# Elastic Constant Matrix: (Units=GPa)
#
#
# Indices 1 2 3 4 5 6 
#
# 1 114.9835 26.3544 39.8959 0.0000 0.0000 0.0000
# 2 26.3544 142.9113 19.4418 0.0000 0.0000 0.0000
# 3 39.8959 19.4418 81.6530 0.0000 0.0000 0.0000
# 4 0.0000 0.0000 0.0000 20.4627 0.0000 0.0000
# 5 0.0000 0.0000 0.0000 0.0000 16.8261 0.0000
# 6 0.0000 0.0000 0.0000 0.0000 0.0000 13.8164
#
#
#
# Elastic Compliance Matrix: (Units=1/GPa)
#
#
# Indices 1 2 3 4 5 6 
#
# 1 0.010703 -0.001305 -0.004919 0.000000 0.000000 0.000000
# 2 -0.001305 0.007391 -0.001122 0.000000 0.000000 0.000000
# 3 -0.004919 -0.001122 0.014917 0.000000 0.000000 0.000000
# 4 0.000000 0.000000 0.000000 0.048869 0.000000 0.000000
# 5 0.000000 0.000000 0.000000 0.000000 0.059431 0.000000
# 6 0.000000 0.000000 0.000000 0.000000 0.000000 0.072378
#
#
# Mechanical properties :
#
#
# Convention : Reuss Voigt Hill
#
# Bulk Modulus (GPa) = 54.58655 56.77022 55.67838
# Shear Modulus (GPa) = 21.32316 27.14475 24.23395
#
# Velocity S-wave (km/s) = 3.26574 3.68468 3.48152
# Velocity P-wave (km/s) = 6.44378 6.81886 6.63397
#
# Compressibility (1/GPa) = 0.01831953
#
# Stress axis : x y z
#
# Youngs Moduli (GPa) = 93.43572 135.30702 67.03549
#
# Poissons Ratio (x) = 0.17651 0.32973
# Poissons Ratio (y) = 0.12189 0.07524
# Poissons Ratio (z) = 0.45958 0.15186
#
# Static dielectric constant tensor:
#      x y z
#    x 3.473410 0.000000 0.000000 
#    y 0.000000 4.127770 0.000000 
#    z 0.000000 0.000000 3.320330 
# 
# 
# High freq. dielectric constant tensor:
#      x y z
#    x 1.769260 0.000000 0.000000 
#    y 0.000000 1.794760 0.000000 
#    z 0.000000 0.000000 1.756230 
# 
# From -- ./inp_files/16595.got.cif
#   From: 2010.03.12/outbox.cif.g09.slc.cpg/sg60_9_cif.got.tgz:16595.got - 2010.04.10 18:46:24.
