data_PCOD8246631
_publ_section_title
;
Structure prediction by ZEFSAII (Michael W. Deem and Ramdas Pophale) SiO2 
 PCOD8246631
Probable space group: P B C N
;
_chemical_formula_sum "Si O2"
_cell_formula_units_Z 48
_cell_length_a 8.905602
_cell_length_b 28.792027
_cell_length_c 9.212709
_cell_angle_alpha 90.000000
_cell_angle_beta 90.000000
_cell_angle_gamma 90.000000
_cell_volume 2362.233785
_symmetry_space_group_name_H-M "P B C N"
_symmetry_group_IT_number 60
_symmetry_cell_setting 'orthorhombic'
loop_
_space_group_symop_operation_xyz
x,y,z
1/2-x,1/2-y,1/2+z
1/2+x,1/2-y,-z
-x,y,1/2-z
-x,-y,-z
1/2+x,1/2+y,1/2-z
1/2-x,1/2+y,z
x,-y,1/2+z
loop_
_atom_site_type_symbol
_atom_site_label
_atom_site_fract_x
_atom_site_fract_y
_atom_site_fract_z
Si Si1 0.562625 0.436265 0.104641
Si Si2 0.327275 0.879751 0.782378
Si Si3 0.306062 0.307441 0.957641
Si Si4 0.642681 0.656408 0.476055
Si Si5 0.635859 0.535634 0.144112
Si Si6 0.675374 0.726451 0.725975
O O1 0.500000 0.412449 0.250000
O O2 0.651421 0.397615 0.018339
O O3 0.670914 0.480246 0.144109
O O4 0.414084 0.452435 0.018695
O O5 0.500000 0.882708 0.750000
O O6 0.296755 0.853128 0.933985
O O7 0.245731 0.845216 0.666503
O O8 0.272456 0.932995 0.798362
O O9 0.267748 0.270053 0.833196
O O10 0.478228 0.323709 0.940394
O O11 0.261866 0.287816 0.116002
O O12 0.707681 0.685708 0.610011
O O13 0.500000 0.547548 0.250000
O O14 0.500000 0.738350 0.750000
#
# Coordination Sequence:
#
# PCOD8246631 Si02
#       6
#     8   8   8   8   8   8
#     4  10  19  34  68  97 122 153 213 258 294 366
#     4  12  24  40  60  88 127 165 206 254 313 368
#     4  11  21  40  64  90 122 160 205 255 309 369
#     4  11  22  42  66  92 123 166 211 255 308 366
#     4  10  19  37  64  95 121 163 209 251 305 362
#     4  10  23  39  63  96 124 157 204 259 311 367
#
# _framework density 20.319749000000002
#
# number of rings (size 3 to 8) (size 9 to 14) (size 15 to 20)
#    0.000    1.333    3.333    3.500    0.000    2.667 
#    0.000    5.000    0.000    0.000    0.000    0.000 
#    0.000    0.000    0.000    0.000    0.000    0.000 
#
# Total GULP energy -594878.959240 kJ/mol
# GULP energy per Si atom -12393.311651 kJ/mol
# Density = 2.027350 g / cm^3
# Si number density = 20.319749 Si / 1000 Ang^3
#
#
#
# Elastic Constant Matrix: (Units=GPa)
#
#
# Indices 1 2 3 4 5 6 
#
# 1 95.3837 60.3895 41.3027 0.0000 0.0000 0.0000
# 2 60.3895 136.2156 46.1677 0.0000 0.0000 0.0000
# 3 41.3027 46.1677 106.8036 0.0000 0.0000 0.0000
# 4 0.0000 0.0000 0.0000 35.0035 0.0000 0.0000
# 5 0.0000 0.0000 0.0000 0.0000 22.6429 0.0000
# 6 0.0000 0.0000 0.0000 0.0000 0.0000 12.2238
#
#
#
# Elastic Compliance Matrix: (Units=1/GPa)
#
#
# Indices 1 2 3 4 5 6 
#
# 1 0.015662 -0.005730 -0.003580 0.000000 0.000000 0.000000
# 2 -0.005730 0.010698 -0.002408 0.000000 0.000000 0.000000
# 3 -0.003580 -0.002408 0.011788 0.000000 0.000000 0.000000
# 4 0.000000 0.000000 0.000000 0.028569 0.000000 0.000000
# 5 0.000000 0.000000 0.000000 0.000000 0.044164 0.000000
# 6 0.000000 0.000000 0.000000 0.000000 0.000000 0.081807
#
#
# Mechanical properties :
#
#
# Convention : Reuss Voigt Hill
#
# Bulk Modulus (GPa) = 67.97365 70.45806 69.21586
# Shear Modulus (GPa) = 22.62144 26.67691 24.64918
#
# Velocity S-wave (km/s) = 3.34020 3.62727 3.48669
# Velocity P-wave (km/s) = 6.95705 7.23137 7.09553
#
# Compressibility (1/GPa) = 0.01471158
#
# Stress axis : x y z
#
# Youngs Moduli (GPa) = 63.84878 93.47518 84.82911
#
# Poissons Ratio (x) = 0.53564 0.30367
# Poissons Ratio (y) = 0.36587 0.20430
# Poissons Ratio (z) = 0.22856 0.22513
#
# Static dielectric constant tensor:
#      x y z
#    x 3.225880 0.000000 0.000000 
#    y 0.000000 4.001140 0.000000 
#    z 0.000000 0.000000 4.143740 
# 
# 
# High freq. dielectric constant tensor:
#      x y z
#    x 1.740090 0.000000 0.000000 
#    y 0.000000 1.814530 0.000000 
#    z 0.000000 0.000000 1.817530 
# 
# From -- ./inp_files/4231.got.cif
#   From: 2010.03.12/outbox.cif.g09.slc.cpg/sg60_3_cif.got.tgz:4231.got - 2010.04.10 18:46:24.
