data_PCOD8246505
_publ_section_title
;
Structure prediction by ZEFSAII (Michael W. Deem and Ramdas Pophale) SiO2 
 PCOD8246505
Probable space group: P B C N
;
_chemical_formula_sum "Si O2"
_cell_formula_units_Z 28
_cell_length_a 17.386101
_cell_length_b 9.799398
_cell_length_c 8.479505
_cell_angle_alpha 90.000000
_cell_angle_beta 90.000000
_cell_angle_gamma 90.000000
_cell_volume 1444.681447
_symmetry_space_group_name_H-M "P B C N"
_symmetry_group_IT_number 60
_symmetry_cell_setting 'orthorhombic'
loop_
_space_group_symop_operation_xyz
x,y,z
1/2-x,1/2-y,1/2+z
1/2+x,1/2-y,-z
-x,y,1/2-z
-x,-y,-z
1/2+x,1/2+y,1/2-z
1/2-x,1/2+y,z
x,-y,1/2+z
loop_
_atom_site_type_symbol
_atom_site_label
_atom_site_fract_x
_atom_site_fract_y
_atom_site_fract_z
Si Si1 0.313243 0.143812 0.182437
Si Si2 0.500000 0.446454 0.750000
Si Si3 0.902989 0.862701 0.469645
Si Si4 0.267107 0.873861 0.025588
O O1 0.238773 0.232520 0.124753
O O2 0.308471 0.987261 0.131401
O O3 0.390262 0.212538 0.108093
O O4 0.318007 0.150812 0.370944
O O5 0.561653 0.539921 0.837743
O O6 0.543169 0.350597 0.623391
O O7 0.819457 0.923557 0.520258
#
# Coordination Sequence:
#
# PCOD8246505 Si02
#       4
#     8   4   8   8
#     4  10  21  34  57  89 114 140 186 230 303 315
#     4  10  18  40  54  82 114 150 204 210 264 346
#     4   9  22  33  60  83 109 152 185 235 268 331
#     4  10  20  36  56  91 108 145 179 240 289 332
#
# _framework density 19.381433999999999
#
# number of rings (size 3 to 8) (size 9 to 14) (size 15 to 20)
#    1.714    0.571    0.000    3.429    4.000    0.000 
#    0.000    0.000    0.000    5.143    0.000    0.000 
#    0.000    0.000    0.000    0.000    0.000    0.000 
#
# Total GULP energy -346973.196427 kJ/mol
# GULP energy per Si atom -12391.899872 kJ/mol
# Density = 1.933732 g / cm^3
# Si number density = 19.381434 Si / 1000 Ang^3
#
#
#
# Elastic Constant Matrix: (Units=GPa)
#
#
# Indices 1 2 3 4 5 6 
#
# 1 44.4159 -8.1996 -10.4414 0.0000 0.0000 0.0000
# 2 -8.1996 62.3865 13.6232 0.0000 0.0000 0.0000
# 3 -10.4414 13.6232 71.5250 0.0000 0.0000 0.0000
# 4 0.0000 0.0000 0.0000 30.8863 0.0000 0.0000
# 5 0.0000 0.0000 0.0000 0.0000 30.6381 0.0000
# 6 0.0000 0.0000 0.0000 0.0000 0.0000 21.1146
#
#
#
# Elastic Compliance Matrix: (Units=1/GPa)
#
#
# Indices 1 2 3 4 5 6 
#
# 1 0.023671 0.002459 0.002987 0.000000 0.000000 0.000000
# 2 0.002459 0.016980 -0.002875 0.000000 0.000000 0.000000
# 3 0.002987 -0.002875 0.014965 0.000000 0.000000 0.000000
# 4 0.000000 0.000000 0.000000 0.032377 0.000000 0.000000
# 5 0.000000 0.000000 0.000000 0.000000 0.032639 0.000000
# 6 0.000000 0.000000 0.000000 0.000000 0.000000 0.047361
#
#
# Mechanical properties :
#
#
# Convention : Reuss Voigt Hill
#
# Bulk Modulus (GPa) = 16.45900 18.69909 17.57904
# Shear Modulus (GPa) = 27.30704 28.75082 28.02893
#
# Velocity S-wave (km/s) = 3.75764 3.85570 3.80699
# Velocity P-wave (km/s) = 5.22849 5.43054 5.33047
#
# Compressibility (1/GPa) = 0.06075704
#
# Stress axis : x y z
#
# Youngs Moduli (GPa) = 42.24651 58.89237 66.82333
#
# Poissons Ratio (x) = -0.14480 -0.19961
# Poissons Ratio (y) = -0.10387 0.19213
# Poissons Ratio (z) = -0.12620 0.16933
#
# Static dielectric constant tensor:
#      x y z
#    x 3.260130 0.000000 0.000000 
#    y 0.000000 3.272070 0.000000 
#    z 0.000000 0.000000 3.479800 
# 
# 
# High freq. dielectric constant tensor:
#      x y z
#    x 1.719770 0.000000 0.000000 
#    y 0.000000 1.735750 0.000000 
#    z 0.000000 0.000000 1.767860 
# 
# From -- ./inp_files/5421.got.cif
#   From: 2010.03.12/outbox.cif.g09.slc.cpg/sg60_3_cif.got.tgz:5421.got - 2010.04.10 18:46:24.
