data_PCOD8246720
_publ_section_title
;
Structure prediction by ZEFSAII (Michael W. Deem and Ramdas Pophale) SiO2 
 PCOD8246720
Probable space group: P B C N
;
_chemical_formula_sum "Si O2"
_cell_formula_units_Z 44
_cell_length_a 5.693345
_cell_length_b 14.105057
_cell_length_c 25.254890
_cell_angle_alpha 90.000000
_cell_angle_beta 90.000000
_cell_angle_gamma 90.000000
_cell_volume 2028.092824
_symmetry_space_group_name_H-M "P B C N"
_symmetry_group_IT_number 60
_symmetry_cell_setting 'orthorhombic'
loop_
_space_group_symop_operation_xyz
x,y,z
1/2-x,1/2-y,1/2+z
1/2+x,1/2-y,-z
-x,y,1/2-z
-x,-y,-z
1/2+x,1/2+y,1/2-z
1/2-x,1/2+y,z
x,-y,1/2+z
loop_
_atom_site_type_symbol
_atom_site_label
_atom_site_fract_x
_atom_site_fract_y
_atom_site_fract_z
Si Si1 0.272806 0.968310 0.840877
Si Si2 0.474566 0.701724 0.013910
Si Si3 0.650914 0.114056 0.831080
Si Si4 0.837297 0.769182 0.623307
Si Si5 0.500000 0.560627 0.750000
Si Si6 0.030159 0.101704 0.915671
O O1 0.289943 0.855435 0.846322
O O2 0.515169 0.014898 0.822068
O O3 0.083383 0.992284 0.796462
O O4 0.196852 0.016213 0.896858
O O5 0.497672 0.686384 0.076995
O O6 0.709487 0.758801 0.995141
O O7 0.491260 0.603337 0.979812
O O8 0.485503 0.206128 0.835179
O O9 0.809602 0.129107 0.778478
O O10 0.780310 0.098343 0.886936
O O11 0.635096 0.704444 0.599353
#
# Coordination Sequence:
#
# PCOD8246720 Si02
#       6
#     8   8   8   8   4   8
#     4  10  22  40  62  91 126 163 216 273 320 388
#     4  10  19  37  64  96 136 177 217 265 322 393
#     4  10  20  42  64  87 127 169 209 268 326 395
#     4  10  21  38  65  95 126 169 215 259 320 392
#     4  10  22  42  64  86 126 164 204 274 336 380
#     4   9  20  37  61  90 130 175 204 260 326 379
#
# _framework density 21.695259
#
# number of rings (size 3 to 8) (size 9 to 14) (size 15 to 20)
#    0.000    2.182    1.818    0.545    0.000    3.636 
#    9.818    0.909    0.000    0.000    0.000    0.000 
#    0.000    0.000    0.000    0.000    0.000    0.000 
#
# Total GULP energy -545093.819550 kJ/mol
# GULP energy per Si atom -12388.495899 kJ/mol
# Density = 2.164588 g / cm^3
# Si number density = 21.695259 Si / 1000 Ang^3
#
#
#
# Elastic Constant Matrix: (Units=GPa)
#
#
# Indices 1 2 3 4 5 6 
#
# 1 99.7675 30.3594 12.4788 0.0000 0.0000 0.0000
# 2 30.3594 107.5628 25.8970 0.0000 0.0000 0.0000
# 3 12.4788 25.8970 66.9059 0.0000 0.0000 0.0000
# 4 0.0000 0.0000 0.0000 17.2113 0.0000 0.0000
# 5 0.0000 0.0000 0.0000 0.0000 28.5766 0.0000
# 6 0.0000 0.0000 0.0000 0.0000 0.0000 12.0688
#
#
#
# Elastic Compliance Matrix: (Units=1/GPa)
#
#
# Indices 1 2 3 4 5 6 
#
# 1 0.011018 -0.002884 -0.000939 0.000000 0.000000 0.000000
# 2 -0.002884 0.011007 -0.003723 0.000000 0.000000 0.000000
# 3 -0.000939 -0.003723 0.016562 0.000000 0.000000 0.000000
# 4 0.000000 0.000000 0.000000 0.058101 0.000000 0.000000
# 5 0.000000 0.000000 0.000000 0.000000 0.034994 0.000000
# 6 0.000000 0.000000 0.000000 0.000000 0.000000 0.082858
#
#
# Mechanical properties :
#
#
# Convention : Reuss Voigt Hill
#
# Bulk Modulus (GPa) = 42.55821 45.74518 44.15169
# Shear Modulus (GPa) = 21.05582 25.27141 23.16362
#
# Velocity S-wave (km/s) = 3.11871 3.41667 3.27108
# Velocity P-wave (km/s) = 5.71204 6.05772 5.88742
#
# Compressibility (1/GPa) = 0.02349723
#
# Stress axis : x y z
#
# Youngs Moduli (GPa) = 90.75814 90.85030 60.37791
#
# Poissons Ratio (x) = 0.26200 0.05668
# Poissons Ratio (y) = 0.26173 0.22476
# Poissons Ratio (z) = 0.08520 0.33820
#
# Static dielectric constant tensor:
#      x y z
#    x 4.069620 0.000000 0.000000 
#    y 0.000000 3.539780 0.000000 
#    z 0.000000 0.000000 4.277910 
# 
# 
# High freq. dielectric constant tensor:
#      x y z
#    x 1.859940 0.000000 0.000000 
#    y 0.000000 1.816610 0.000000 
#    z 0.000000 0.000000 1.857790 
# 
# From -- ./inp_files/24808.got.cif
#   From: 2010.03.12/outbox.cif.g09.slc.cpg/sg60_13_cif.got.tgz:24808.got - 2010.04.10 18:46:24.
