data_PCOD8246496
_publ_section_title
;
Structure prediction by ZEFSAII (Michael W. Deem and Ramdas Pophale) SiO2 
 PCOD8246496
Probable space group: P B C N
;
_chemical_formula_sum "Si O2"
_cell_formula_units_Z 60
_cell_length_a 13.592505
_cell_length_b 12.533187
_cell_length_c 17.423612
_cell_angle_alpha 90.000000
_cell_angle_beta 90.000000
_cell_angle_gamma 90.000000
_cell_volume 2968.241360
_symmetry_space_group_name_H-M "P B C N"
_symmetry_group_IT_number 60
_symmetry_cell_setting 'orthorhombic'
loop_
_space_group_symop_operation_xyz
x,y,z
1/2-x,1/2-y,1/2+z
1/2+x,1/2-y,-z
-x,y,1/2-z
-x,-y,-z
1/2+x,1/2+y,1/2-z
1/2-x,1/2+y,z
x,-y,1/2+z
loop_
_atom_site_type_symbol
_atom_site_label
_atom_site_fract_x
_atom_site_fract_y
_atom_site_fract_z
Si Si1 0.534487 0.176231 0.167538
Si Si2 0.345509 0.197293 0.851170
Si Si3 0.500000 0.692223 0.250000
Si Si4 0.205283 0.111961 0.456143
Si Si5 0.532538 0.518202 0.135655
Si Si6 0.337966 0.634532 0.777914
Si Si7 0.408790 0.005064 0.941470
Si Si8 0.386197 0.662835 0.609350
O O1 0.500000 0.138811 0.250000
O O2 0.619696 0.262153 0.179291
O O3 0.569883 0.068368 0.130556
O O4 0.449639 0.229021 0.114795
O O5 0.408801 0.235395 0.777370
O O6 0.288037 0.295808 0.891441
O O7 0.267594 0.113975 0.815487
O O8 0.405271 0.128505 0.914009
O O9 0.478341 0.621404 0.172981
O O10 0.111135 0.041694 0.431532
O O11 0.302670 0.039494 0.470769
O O12 0.186362 0.170035 0.537482
O O13 0.589608 0.464436 0.207737
O O14 0.454222 0.440633 0.097349
O O15 0.324518 0.650718 0.687440
O O16 0.500000 0.000000 0.000000
#
# Coordination Sequence:
#
# PCOD8246496 Si02
#       8
#     8   8   4   8   8   8   8   8
#     4   9  20  40  64  88 121 165 209 260 311 374
#     4  11  24  41  63  91 130 177 208 265 325 382
#     4  10  22  38  62  98 124 158 222 272 302 370
#     4  11  23  40  61  92 132 165 203 259 331 374
#     4  10  18  39  66  93 124 161 210 264 319 371
#     4  10  18  38  68  89 121 164 216 256 313 381
#     4  12  25  42  62  90 131 176 211 255 323 397
#     4  10  20  37  66  99 119 156 215 269 308 382
#
# _framework density 20.213989999999999
#
# number of rings (size 3 to 8) (size 9 to 14) (size 15 to 20)
#    0.000    1.600    4.000    2.000    0.933    1.067 
#    0.000    4.000    0.000    0.000    0.000    0.000 
#    0.000    0.000    0.000    0.000    0.000    0.000 
#
# Total GULP energy -743535.754318 kJ/mol
# GULP energy per Si atom -12392.262572 kJ/mol
# Density = 2.016798 g / cm^3
# Si number density = 20.213990 Si / 1000 Ang^3
#
#
#
# Elastic Constant Matrix: (Units=GPa)
#
#
# Indices 1 2 3 4 5 6 
#
# 1 86.5667 19.4660 48.2548 0.0000 0.0000 0.0000
# 2 19.4660 68.9426 14.4764 0.0000 0.0000 0.0000
# 3 48.2548 14.4764 88.8089 0.0000 0.0000 0.0000
# 4 0.0000 0.0000 0.0000 24.8392 0.0000 0.0000
# 5 0.0000 0.0000 0.0000 0.0000 33.5477 0.0000
# 6 0.0000 0.0000 0.0000 0.0000 0.0000 28.5167
#
#
#
# Elastic Compliance Matrix: (Units=1/GPa)
#
#
# Indices 1 2 3 4 5 6 
#
# 1 0.017145 -0.002987 -0.008829 0.000000 0.000000 0.000000
# 2 -0.002987 0.015539 -0.000910 0.000000 0.000000 0.000000
# 3 -0.008829 -0.000910 0.016206 0.000000 0.000000 0.000000
# 4 0.000000 0.000000 0.000000 0.040259 0.000000 0.000000
# 5 0.000000 0.000000 0.000000 0.000000 0.029808 0.000000
# 6 0.000000 0.000000 0.000000 0.000000 0.000000 0.035067
#
#
# Mechanical properties :
#
#
# Convention : Reuss Voigt Hill
#
# Bulk Modulus (GPa) = 42.66550 45.41248 44.03899
# Shear Modulus (GPa) = 26.69675 28.18881 27.44278
#
# Velocity S-wave (km/s) = 3.63810 3.73838 3.68858
# Velocity P-wave (km/s) = 6.22900 6.41472 6.32254
#
# Compressibility (1/GPa) = 0.02343814
#
# Stress axis : x y z
#
# Youngs Moduli (GPa) = 58.32628 64.35300 61.70675
#
# Poissons Ratio (x) = 0.19222 0.54480
# Poissons Ratio (y) = 0.17422 0.05615
# Poissons Ratio (z) = 0.51496 0.05856
#
# Static dielectric constant tensor:
#      x y z
#    x 3.665740 0.000000 0.000000 
#    y 0.000000 3.698880 0.000000 
#    z 0.000000 0.000000 3.490060 
# 
# 
# High freq. dielectric constant tensor:
#      x y z
#    x 1.777880 0.000000 0.000000 
#    y 0.000000 1.788290 0.000000 
#    z 0.000000 0.000000 1.788120 
# 
# From -- ./inp_files/20620.got.cif
#   From: 2010.03.12/outbox.cif.g09.slc.cpg/sg60_11_cif.got.tgz:20620.got - 2010.04.10 18:46:24.
