data_PCOD8246948
_publ_section_title
;
Structure prediction by ZEFSAII (Michael W. Deem and Ramdas Pophale) SiO2 
 PCOD8246948
Probable space group: P B C N
;
_chemical_formula_sum "Si O2"
_cell_formula_units_Z 40
_cell_length_a 5.062294
_cell_length_b 28.363539
_cell_length_c 12.328470
_cell_angle_alpha 90.000000
_cell_angle_beta 90.000000
_cell_angle_gamma 90.000000
_cell_volume 1770.178104
_symmetry_space_group_name_H-M "P B C N"
_symmetry_group_IT_number 60
_symmetry_cell_setting 'orthorhombic'
loop_
_space_group_symop_operation_xyz
x,y,z
1/2-x,1/2-y,1/2+z
1/2+x,1/2-y,-z
-x,y,1/2-z
-x,-y,-z
1/2+x,1/2+y,1/2-z
1/2-x,1/2+y,z
x,-y,1/2+z
loop_
_atom_site_type_symbol
_atom_site_label
_atom_site_fract_x
_atom_site_fract_y
_atom_site_fract_z
Si Si1 0.496352 0.311156 0.491523
Si Si2 0.606037 0.968775 0.098010
Si Si3 0.492017 0.214334 0.377922
Si Si4 0.131402 0.912419 0.052722
Si Si5 0.740592 0.937320 0.686356
O O1 0.513334 0.269938 0.402876
O O2 0.217787 0.313297 0.554688
O O3 0.555164 0.358506 0.422367
O O4 0.712096 0.305058 0.584605
O O5 0.692904 0.005846 0.190114
O O6 0.366049 0.932683 0.132026
O O7 0.866523 0.942089 0.060840
O O8 0.500000 0.000000 0.000000
O O9 0.500000 0.205812 0.250000
O O10 0.248655 0.915557 0.932342
O O11 0.500000 0.912458 0.750000
O O12 0.000000 0.923734 0.750000
#
# Coordination Sequence:
#
# PCOD8246948 Si02
#       5
#     8   8   8   8   8
#     4  10  22  38  61  90 114 151 196 235 292 351
#     4  10  20  37  55  74 109 154 183 218 280 334
#     4  10  21  40  61  84 120 154 186 236 296 354
#     4  11  21  37  58  81 111 148 190 235 280 337
#     4  11  21  34  53  81 113 145 188 236 282 330
#
# _framework density 22.596598
#
# number of rings (size 3 to 8) (size 9 to 14) (size 15 to 20)
#    0.000    1.600    0.000    7.800    0.000    2.400 
#    0.000    3.000    0.000    2.400    0.000    0.000 
#    0.000    0.000    0.000    0.000    0.000    0.000 
#
# Total GULP energy -495883.782772 kJ/mol
# GULP energy per Si atom -12397.094569 kJ/mol
# Density = 2.254517 g / cm^3
# Si number density = 22.596598 Si / 1000 Ang^3
#
#
#
# Elastic Constant Matrix: (Units=GPa)
#
#
# Indices 1 2 3 4 5 6 
#
# 1 136.2107 10.1337 -2.1524 0.0000 0.0000 0.0000
# 2 10.1337 79.7887 -18.8431 0.0000 0.0000 0.0000
# 3 -2.1524 -18.8431 17.4597 0.0000 0.0000 0.0000
# 4 0.0000 0.0000 0.0000 18.4024 0.0000 0.0000
# 5 0.0000 0.0000 0.0000 0.0000 30.6214 0.0000
# 6 0.0000 0.0000 0.0000 0.0000 0.0000 24.3744
#
#
#
# Elastic Compliance Matrix: (Units=1/GPa)
#
#
# Indices 1 2 3 4 5 6 
#
# 1 0.007412 -0.000974 -0.000137 0.000000 0.000000 0.000000
# 2 -0.000974 0.016948 0.018171 0.000000 0.000000 0.000000
# 3 -0.000137 0.018171 0.076869 0.000000 0.000000 0.000000
# 4 0.000000 0.000000 0.000000 0.054341 0.000000 0.000000
# 5 0.000000 0.000000 0.000000 0.000000 0.032657 0.000000
# 6 0.000000 0.000000 0.000000 0.000000 0.000000 0.041027
#
#
# Mechanical properties :
#
#
# Convention : Reuss Voigt Hill
#
# Bulk Modulus (GPa) = 7.38834 23.52616 15.45725
# Shear Modulus (GPa) = 20.81174 30.96769 25.88971
#
# Velocity S-wave (km/s) = 3.03811 3.70599 3.38854
# Velocity P-wave (km/s) = 3.94760 5.36157 4.70797
#
# Compressibility (1/GPa) = 0.13534845
#
# Stress axis : x y z
#
# Youngs Moduli (GPa) = 134.91918 59.00378 13.00922
#
# Poissons Ratio (x) = 0.05745 0.00178
# Poissons Ratio (y) = 0.13138 -0.23639
# Poissons Ratio (z) = 0.01851 -1.07215
#
# Static dielectric constant tensor:
#      x y z
#    x 4.455330 0.000000 0.000000 
#    y 0.000000 4.601870 0.000000 
#    z 0.000000 0.000000 3.412410 
# 
# 
# High freq. dielectric constant tensor:
#      x y z
#    x 1.917340 0.000000 0.000000 
#    y 0.000000 1.890900 0.000000 
#    z 0.000000 0.000000 1.864290 
# 
# From -- ./inp_files/9189.got.cif
#   From: 2010.03.12/outbox.cif.g09.slc.cpg/sg60_5_cif.got.tgz:9189.got - 2010.04.10 18:46:24.
