data_PCOD8246435
_publ_section_title
;
Structure prediction by ZEFSAII (Michael W. Deem and Ramdas Pophale) SiO2 
 PCOD8246435
Probable space group: P B C N
;
_chemical_formula_sum "Si O2"
_cell_formula_units_Z 60
_cell_length_a 11.901347
_cell_length_b 22.287868
_cell_length_c 11.098151
_cell_angle_alpha 90.000000
_cell_angle_beta 90.000000
_cell_angle_gamma 90.000000
_cell_volume 2943.847268
_symmetry_space_group_name_H-M "P B C N"
_symmetry_group_IT_number 60
_symmetry_cell_setting 'orthorhombic'
loop_
_space_group_symop_operation_xyz
x,y,z
1/2-x,1/2-y,1/2+z
1/2+x,1/2-y,-z
-x,y,1/2-z
-x,-y,-z
1/2+x,1/2+y,1/2-z
1/2-x,1/2+y,z
x,-y,1/2+z
loop_
_atom_site_type_symbol
_atom_site_label
_atom_site_fract_x
_atom_site_fract_y
_atom_site_fract_z
Si Si1 0.495960 0.895928 0.119056
Si Si2 0.000000 0.546334 0.250000
Si Si3 0.340936 0.966143 0.542367
Si Si4 0.081567 0.721398 0.963196
Si Si5 0.827218 0.588217 0.064394
Si Si6 0.085981 0.773461 0.356039
Si Si7 0.289986 0.343885 0.549023
Si Si8 0.203976 0.810016 0.809925
O O1 0.500000 0.925522 0.250000
O O2 0.560522 0.833066 0.128767
O O3 0.556981 0.945801 0.040622
O O4 0.373715 0.883791 0.061134
O O5 0.902414 0.512649 0.331693
O O6 0.928950 0.588875 0.161101
O O7 0.249384 0.913261 0.555600
O O8 0.282188 0.021847 0.472989
O O9 0.102934 0.780110 0.883667
O O10 0.187620 0.702827 0.043215
O O11 0.977229 0.729757 0.051843
O O12 0.728950 0.628755 0.117449
O O13 0.128477 0.831597 0.433767
O O14 0.189814 0.735527 0.302737
O O15 0.000000 0.794655 0.250000
O O16 0.344071 0.327184 0.678246
#
# Coordination Sequence:
#
# PCOD8246435 Si02
#       8
#     8   4   8   8   8   8   8   8
#     4  10  21  32  50  83 121 154 188 245 303 363
#     4  10  18  34  56  80 116 160 194 234 310 370
#     4  10  22  35  55  86 119 158 199 246 300 374
#     4  10  22  36  56  89 117 156 202 244 298 361
#     4  11  22  33  58  83 119 164 198 247 306 367
#     4  11  22  40  62  85 123 164 198 250 308 364
#     4  10  22  39  60  86 118 160 207 247 305 360
#     4  11  22  37  62  88 120 163 207 246 298 374
#
# _framework density 20.381492000000001
#
# number of rings (size 3 to 8) (size 9 to 14) (size 15 to 20)
#    0.000    1.600    4.000    1.600    6.533    0.000 
#    2.400    0.000    0.000    0.800    0.000    0.000 
#    0.000    0.000    0.000    0.000    0.000    0.000 
#
# Total GULP energy -743471.131583 kJ/mol
# GULP energy per Si atom -12391.185526 kJ/mol
# Density = 2.033510 g / cm^3
# Si number density = 20.381492 Si / 1000 Ang^3
#
#
#
# Elastic Constant Matrix: (Units=GPa)
#
#
# Indices 1 2 3 4 5 6 
#
# 1 35.8798 17.4622 24.0012 0.0000 0.0000 0.0000
# 2 17.4622 115.5315 47.3345 0.0000 0.0000 0.0000
# 3 24.0012 47.3345 134.8454 0.0000 0.0000 0.0000
# 4 0.0000 0.0000 0.0000 20.7010 0.0000 0.0000
# 5 0.0000 0.0000 0.0000 0.0000 26.1975 0.0000
# 6 0.0000 0.0000 0.0000 0.0000 0.0000 18.4005
#
#
#
# Elastic Compliance Matrix: (Units=1/GPa)
#
#
# Indices 1 2 3 4 5 6 
#
# 1 0.032486 -0.002968 -0.004740 0.000000 0.000000 0.000000
# 2 -0.002968 0.010381 -0.003116 0.000000 0.000000 0.000000
# 3 -0.004740 -0.003116 0.009353 0.000000 0.000000 0.000000
# 4 0.000000 0.000000 0.000000 0.048307 0.000000 0.000000
# 5 0.000000 0.000000 0.000000 0.000000 0.038172 0.000000
# 6 0.000000 0.000000 0.000000 0.000000 0.000000 0.054346
#
#
# Mechanical properties :
#
#
# Convention : Reuss Voigt Hill
#
# Bulk Modulus (GPa) = 32.70938 51.53918 42.12428
# Shear Modulus (GPa) = 22.23370 26.22374 24.22872
#
# Velocity S-wave (km/s) = 3.30643 3.59087 3.45158
# Velocity P-wave (km/s) = 5.53715 6.52186 6.04957
#
# Compressibility (1/GPa) = 0.03057227
#
# Stress axis : x y z
#
# Youngs Moduli (GPa) = 30.78221 96.33196 106.91371
#
# Poissons Ratio (x) = 0.28591 0.50681
# Poissons Ratio (y) = 0.09136 0.33311
# Poissons Ratio (z) = 0.14592 0.30014
#
# Static dielectric constant tensor:
#      x y z
#    x 3.356020 0.000000 0.000000 
#    y 0.000000 3.585580 0.000000 
#    z 0.000000 0.000000 4.408100 
# 
# 
# High freq. dielectric constant tensor:
#      x y z
#    x 1.744440 0.000000 0.000000 
#    y 0.000000 1.791480 0.000000 
#    z 0.000000 0.000000 1.817320 
# 
# From -- ./inp_files/11238.got.cif
#   From: 2010.03.12/outbox.cif.g09.slc.cpg/sg60_6_cif.got.tgz:11238.got - 2010.04.10 18:46:24.
