data_PCOD8246993
_publ_section_title
;
Structure prediction by ZEFSAII (Michael W. Deem and Ramdas Pophale) SiO2 
 PCOD8246993
Probable space group: P B C N
;
_chemical_formula_sum "Si O2"
_cell_formula_units_Z 48
_cell_length_a 9.817167
_cell_length_b 22.273525
_cell_length_c 11.648840
_cell_angle_alpha 90.000000
_cell_angle_beta 90.000000
_cell_angle_gamma 90.000000
_cell_volume 2547.169306
_symmetry_space_group_name_H-M "P B C N"
_symmetry_group_IT_number 60
_symmetry_cell_setting 'orthorhombic'
loop_
_space_group_symop_operation_xyz
x,y,z
1/2-x,1/2-y,1/2+z
1/2+x,1/2-y,-z
-x,y,1/2-z
-x,-y,-z
1/2+x,1/2+y,1/2-z
1/2-x,1/2+y,z
x,-y,1/2+z
loop_
_atom_site_type_symbol
_atom_site_label
_atom_site_fract_x
_atom_site_fract_y
_atom_site_fract_z
Si Si1 0.964072 0.918075 0.929677
Si Si2 0.310191 0.329787 0.432704
Si Si3 0.272825 0.247399 0.639270
Si Si4 0.000000 0.175032 0.250000
Si Si5 0.346649 0.124484 0.728933
Si Si6 0.000000 0.220216 0.750000
Si Si7 0.893614 0.957419 0.345039
O O1 0.041993 0.867645 0.855897
O O2 0.902223 0.970202 0.848191
O O3 0.832819 0.887525 0.987649
O O4 0.071875 0.938712 0.025076
O O5 0.274689 0.271255 0.508813
O O6 0.185623 0.345124 0.350992
O O7 0.445149 0.320201 0.355071
O O8 0.372634 0.283702 0.721648
O O9 0.319512 0.177382 0.635717
O O10 0.124049 0.258218 0.696107
O O11 0.500000 0.101970 0.750000
O O12 0.254624 0.067138 0.693041
O O13 0.000000 0.932889 0.250000
#
# Coordination Sequence:
#
# PCOD8246993 Si02
#       7
#     8   8   8   4   8   4   8
#     4  10  20  37  65  88 115 152 208 257 288 359
#     4  10  21  37  60  85 123 159 198 250 303 364
#     4  10  22  36  60  88 126 162 196 247 304 373
#     4  10  20  38  59  94 125 154 196 250 306 354
#     4  11  23  39  57  90 124 159 201 247 309 372
#     4  10  22  36  59  90 123 162 204 242 304 386
#     4  11  21  38  64  89 111 157 210 251 299 353
#
# _framework density 18.844449000000001
#
# number of rings (size 3 to 8) (size 9 to 14) (size 15 to 20)
#    0.000    1.667    3.333    2.000    3.500    4.000 
#    0.000    0.833    7.333    0.000    0.000    0.000 
#    0.000    0.000    0.000    0.000    0.000    0.000 
#
# Total GULP energy -594896.812899 kJ/mol
# GULP energy per Si atom -12393.683602 kJ/mol
# Density = 1.880156 g / cm^3
# Si number density = 18.844449 Si / 1000 Ang^3
#
#
#
# Elastic Constant Matrix: (Units=GPa)
#
#
# Indices 1 2 3 4 5 6 
#
# 1 139.6777 46.4596 43.5942 0.0000 0.0000 0.0000
# 2 46.4596 86.5719 34.8700 0.0000 0.0000 0.0000
# 3 43.5942 34.8700 89.2964 0.0000 0.0000 0.0000
# 4 0.0000 0.0000 0.0000 30.0811 0.0000 0.0000
# 5 0.0000 0.0000 0.0000 0.0000 26.2722 0.0000
# 6 0.0000 0.0000 0.0000 0.0000 0.0000 15.7210
#
#
#
# Elastic Compliance Matrix: (Units=1/GPa)
#
#
# Indices 1 2 3 4 5 6 
#
# 1 0.009388 -0.003788 -0.003104 0.000000 0.000000 0.000000
# 2 -0.003788 0.015235 -0.004100 0.000000 0.000000 0.000000
# 3 -0.003104 -0.004100 0.014315 0.000000 0.000000 0.000000
# 4 0.000000 0.000000 0.000000 0.033243 0.000000 0.000000
# 5 0.000000 0.000000 0.000000 0.000000 0.038063 0.000000
# 6 0.000000 0.000000 0.000000 0.000000 0.000000 0.063609
#
#
# Mechanical properties :
#
#
# Convention : Reuss Voigt Hill
#
# Bulk Modulus (GPa) = 58.98175 62.82150 60.90163
# Shear Modulus (GPa) = 24.81514 27.12301 25.96907
#
# Velocity S-wave (km/s) = 3.63277 3.79794 3.71627
# Velocity P-wave (km/s) = 6.99737 7.25546 7.12758
#
# Compressibility (1/GPa) = 0.01695440
#
# Stress axis : x y z
#
# Youngs Moduli (GPa) = 106.51819 65.63663 69.85618
#
# Poissons Ratio (x) = 0.24863 0.21684
# Poissons Ratio (y) = 0.40348 0.28642
# Poissons Ratio (z) = 0.33064 0.26912
#
# Static dielectric constant tensor:
#      x y z
#    x 3.228390 0.000000 0.000000 
#    y 0.000000 3.602480 0.000000 
#    z 0.000000 0.000000 3.744640 
# 
# 
# High freq. dielectric constant tensor:
#      x y z
#    x 1.708010 0.000000 0.000000 
#    y 0.000000 1.730520 0.000000 
#    z 0.000000 0.000000 1.746370 
# 
# From -- ./inp_files/10144.got.cif
#   From: 2010.03.12/outbox.cif.g09.slc.cpg/sg60_6_cif.got.tgz:10144.got - 2010.04.10 18:46:24.
