data_PCOD8246062
_publ_section_title
;
Structure prediction by ZEFSAII (Michael W. Deem and Ramdas Pophale) SiO2 
 PCOD8246062
Probable space group: P M M N
;
_chemical_formula_sum "Si O2"
_cell_formula_units_Z 48
_cell_length_a 8.576990
_cell_length_b 18.886189
_cell_length_c 13.495829
_cell_angle_alpha 90.000000
_cell_angle_beta 90.000000
_cell_angle_gamma 90.000000
_cell_volume 2186.144185
_symmetry_space_group_name_H-M "P M M N"
_symmetry_group_IT_number 59
_space_group.IT_coordinate_system_code '2'
_symmetry_cell_setting 'orthorhombic'
loop_
_space_group_symop_operation_xyz
x,y,z
1/2-x,1/2-y,z
1/2+x,-y,-z
-x,1/2+y,-z
-x,-y,-z
1/2+x,1/2+y,-z
1/2-x,y,z
x,1/2-y,z
loop_
_atom_site_type_symbol
_atom_site_label
_atom_site_fract_x
_atom_site_fract_y
_atom_site_fract_z
Si Si1 0.567313 0.035868 0.902657
Si Si2 0.432982 0.673743 0.996370
Si Si3 0.933989 0.168990 0.586110
Si Si4 0.566856 0.957849 0.306165
Si Si5 0.927096 0.166472 0.221436
Si Si6 0.931088 0.910307 0.600393
O O1 0.750000 0.020132 0.893661
O O2 0.482703 0.012717 0.801939
O O3 0.529321 0.119190 0.916501
O O4 0.500000 0.000000 0.000000
O O5 0.250000 0.682917 0.981482
O O6 0.507127 0.750000 0.024944
O O7 0.492677 0.647547 0.888412
O O8 0.750000 0.168701 0.596777
O O9 0.996786 0.250000 0.593290
O O10 0.004088 0.121562 0.675110
O O11 0.980485 0.134839 0.481977
O O12 0.750000 0.958061 0.315312
O O13 0.497640 0.009833 0.390432
O O14 0.750000 0.138033 0.238287
O O15 0.931121 0.250000 0.238610
O O16 0.044770 0.129022 0.295820
O O17 0.750000 0.914355 0.572656
#
# Coordination Sequence:
#
# PCOD8246062 Si02
#       6
#     8   8   8   8   8   8
#     4  11  22  38  62  92 125 163 209 258 312 371
#     4   8  16  32  55  82 113 153 200 248 299 359
#     4  11  25  46  70  95 125 162 204 250 306 374
#     4  12  26  44  65  90 125 165 208 260 314 367
#     4   9  17  32  56  87 123 163 207 254 308 369
#     4  12  24  39  62  92 126 162 205 256 311 372
#
# _framework density 21.956465000000001
#
# number of rings (size 3 to 8) (size 9 to 14) (size 15 to 20)
#    0.000    1.500    0.000    7.000    0.000    5.667 
#    0.000    2.500    0.000    3.500    0.000    0.000 
#    0.000    0.000    0.000    0.000    0.000    0.000 
#
# Total GULP energy -595193.922913 kJ/mol
# GULP energy per Si atom -12399.873394 kJ/mol
# Density = 2.190649 g / cm^3
# Si number density = 21.956465 Si / 1000 Ang^3
#
#
#
# Elastic Constant Matrix: (Units=GPa)
#
#
# Indices 1 2 3 4 5 6 
#
# 1 66.1221 24.4734 12.5961 0.0000 0.0000 0.0000
# 2 24.4734 91.4948 28.8679 0.0000 0.0000 0.0000
# 3 12.5961 28.8679 84.2288 0.0000 0.0000 0.0000
# 4 0.0000 0.0000 0.0000 31.5030 0.0000 0.0000
# 5 0.0000 0.0000 0.0000 0.0000 31.2295 0.0000
# 6 0.0000 0.0000 0.0000 0.0000 0.0000 28.4426
#
#
#
# Elastic Compliance Matrix: (Units=1/GPa)
#
#
# Indices 1 2 3 4 5 6 
#
# 1 0.016875 -0.004168 -0.001095 0.000000 0.000000 0.000000
# 2 -0.004168 0.013284 -0.003930 0.000000 0.000000 0.000000
# 3 -0.001095 -0.003930 0.013383 0.000000 0.000000 0.000000
# 4 0.000000 0.000000 0.000000 0.031743 0.000000 0.000000
# 5 0.000000 0.000000 0.000000 0.000000 0.032021 0.000000
# 6 0.000000 0.000000 0.000000 0.000000 0.000000 0.035159
#
#
# Mechanical properties :
#
#
# Convention : Reuss Voigt Hill
#
# Bulk Modulus (GPa) = 39.75118 41.52451 40.63785
# Shear Modulus (GPa) = 29.54449 29.96221 29.75335
#
# Velocity S-wave (km/s) = 3.67221 3.69808 3.68517
# Velocity P-wave (km/s) = 6.01033 6.09817 6.05441
#
# Compressibility (1/GPa) = 0.02515648
#
# Stress axis : x y z
#
# Youngs Moduli (GPa) = 59.25956 75.27626 74.72172
#
# Poissons Ratio (x) = 0.31377 0.08182
# Poissons Ratio (y) = 0.24701 0.29363
# Poissons Ratio (z) = 0.06489 0.29581
#
# Static dielectric constant tensor:
#      x y z
#    x 3.684320 0.000000 0.000000 
#    y 0.000000 4.447620 0.000000 
#    z 0.000000 0.000000 2.612560 
# 
# 
# High freq. dielectric constant tensor:
#      x y z
#    x 1.843500 0.000000 0.000000 
#    y 0.000000 1.881780 0.000000 
#    z 0.000000 0.000000 1.865440 
# 
# From -- ./inp_files/20482.got.cif
#   From: 2010.03.12/outbox.cif.g09.slc.cpg/sg59_11_cif.got.tgz:20482.got - 2010.04.16 16:29:54.
