data_PCOD8246398
_publ_section_title
;
Structure prediction by ZEFSAII (Michael W. Deem and Ramdas Pophale) SiO2 
 PCOD8246398
Probable space group: P B C N
;
_chemical_formula_sum "Si O2"
_cell_formula_units_Z 52
_cell_length_a 21.300712
_cell_length_b 14.044573
_cell_length_c 8.886196
_cell_angle_alpha 90.000000
_cell_angle_beta 90.000000
_cell_angle_gamma 90.000000
_cell_volume 2658.389105
_symmetry_space_group_name_H-M "P B C N"
_symmetry_group_IT_number 60
_symmetry_cell_setting 'orthorhombic'
loop_
_space_group_symop_operation_xyz
x,y,z
1/2-x,1/2-y,1/2+z
1/2+x,1/2-y,-z
-x,y,1/2-z
-x,-y,-z
1/2+x,1/2+y,1/2-z
1/2-x,1/2+y,z
x,-y,1/2+z
loop_
_atom_site_type_symbol
_atom_site_label
_atom_site_fract_x
_atom_site_fract_y
_atom_site_fract_z
Si Si1 0.317472 0.378248 0.135631
Si Si2 0.301919 0.743545 0.133563
Si Si3 0.144412 0.542922 0.871406
Si Si4 0.000000 0.290885 0.250000
Si Si5 0.285709 0.442060 0.449731
Si Si6 0.899118 0.385621 0.434110
Si Si7 0.118277 0.750905 0.918585
O O1 0.253525 0.319450 0.131382
O O2 0.328691 0.411009 0.307427
O O3 0.318912 0.470663 0.030828
O O4 0.373852 0.311304 0.071744
O O5 0.359924 0.788073 0.038179
O O6 0.323694 0.725250 0.305972
O O7 0.278781 0.645379 0.064156
O O8 0.217294 0.522846 0.899900
O O9 0.137349 0.554153 0.693424
O O10 0.119894 0.638197 0.955477
O O11 0.101412 0.452932 0.920265
O O12 0.031408 0.358718 0.122730
O O13 0.052097 0.225940 0.334401
#
# Coordination Sequence:
#
# PCOD8246398 Si02
#       7
#     8   8   8   4   8   8   8
#     4  12  21  34  54  84 114 149 184 231 290 344
#     4  10  19  35  53  80 113 150 181 232 280 337
#     4  10  18  32  52  84 112 151 177 228 278 346
#     4   8  20  40  58  76 112 160 196 238 264 336
#     4  12  21  33  54  84 123 142 180 229 295 350
#     4  10  20  34  55  80 115 150 192 224 281 325
#     4  10  21  37  57  80 112 150 196 227 285 328
#
# _framework density 19.560718000000001
#
# number of rings (size 3 to 8) (size 9 to 14) (size 15 to 20)
#    0.000    1.846    6.154    0.923    0.000    3.692 
#    0.000    0.000    0.000   19.385    0.000    0.000 
#    0.000    0.000    0.000    0.000    0.000    0.000 
#
# Total GULP energy -644597.281739 kJ/mol
# GULP energy per Si atom -12396.101572 kJ/mol
# Density = 1.951620 g / cm^3
# Si number density = 19.560718 Si / 1000 Ang^3
#
#
#
# Elastic Constant Matrix: (Units=GPa)
#
#
# Indices 1 2 3 4 5 6 
#
# 1 64.0360 2.4913 15.2408 0.0000 0.0000 0.0000
# 2 2.4913 54.6081 19.1416 0.0000 0.0000 0.0000
# 3 15.2408 19.1416 54.4633 0.0000 0.0000 0.0000
# 4 0.0000 0.0000 0.0000 38.0381 0.0000 0.0000
# 5 0.0000 0.0000 0.0000 0.0000 23.3684 0.0000
# 6 0.0000 0.0000 0.0000 0.0000 0.0000 15.1000
#
#
#
# Elastic Compliance Matrix: (Units=1/GPa)
#
#
# Indices 1 2 3 4 5 6 
#
# 1 0.016779 0.001004 -0.005048 0.000000 0.000000 0.000000
# 2 0.001004 0.020945 -0.007642 0.000000 0.000000 0.000000
# 3 -0.005048 -0.007642 0.022460 0.000000 0.000000 0.000000
# 4 0.000000 0.000000 0.000000 0.026289 0.000000 0.000000
# 5 0.000000 0.000000 0.000000 0.000000 0.042793 0.000000
# 6 0.000000 0.000000 0.000000 0.000000 0.000000 0.066225
#
#
# Mechanical properties :
#
#
# Convention : Reuss Voigt Hill
#
# Bulk Modulus (GPa) = 27.16607 27.42831 27.29719
# Shear Modulus (GPa) = 21.63248 24.38356 23.00802
#
# Velocity S-wave (km/s) = 3.32914 3.53449 3.43335
# Velocity P-wave (km/s) = 5.35684 5.54161 5.45001
#
# Compressibility (1/GPa) = 0.03681062
#
# Stress axis : x y z
#
# Youngs Moduli (GPa) = 59.59960 47.74332 44.52441
#
# Poissons Ratio (x) = -0.04794 0.22477
# Poissons Ratio (y) = -0.05984 0.34027
# Poissons Ratio (z) = 0.30087 0.36487
#
# Static dielectric constant tensor:
#      x y z
#    x 3.363830 0.000000 0.000000 
#    y 0.000000 3.588420 0.000000 
#    z 0.000000 0.000000 3.606160 
# 
# 
# High freq. dielectric constant tensor:
#      x y z
#    x 1.730970 0.000000 0.000000 
#    y 0.000000 1.757630 0.000000 
#    z 0.000000 0.000000 1.752600 
# 
# From -- ./inp_files/7351.got.cif
#   From: 2010.03.12/outbox.cif.g09.slc.cpg/sg60_4_cif.got.tgz:7351.got - 2010.04.10 18:46:24.
