data_PCOD8246615
_publ_section_title
;
Structure prediction by ZEFSAII (Michael W. Deem and Ramdas Pophale) SiO2 
 PCOD8246615
Probable space group: P B C N
;
_chemical_formula_sum "Si O2"
_cell_formula_units_Z 36
_cell_length_a 22.294236
_cell_length_b 16.135102
_cell_length_c 5.012604
_cell_angle_alpha 90.000000
_cell_angle_beta 90.000000
_cell_angle_gamma 90.000000
_cell_volume 1803.132767
_symmetry_space_group_name_H-M "P B C N"
_symmetry_group_IT_number 60
_symmetry_cell_setting 'orthorhombic'
loop_
_space_group_symop_operation_xyz
x,y,z
1/2-x,1/2-y,1/2+z
1/2+x,1/2-y,-z
-x,y,1/2-z
-x,-y,-z
1/2+x,1/2+y,1/2-z
1/2-x,1/2+y,z
x,-y,1/2+z
loop_
_atom_site_type_symbol
_atom_site_label
_atom_site_fract_x
_atom_site_fract_y
_atom_site_fract_z
Si Si1 0.780284 0.052653 0.900330
Si Si2 0.500000 0.680570 0.750000
Si Si3 0.962861 0.660526 0.009066
Si Si4 0.153231 0.556707 0.478533
Si Si5 0.090276 0.056466 0.506824
O O1 0.718730 0.101034 0.977025
O O2 0.843374 0.098580 0.963059
O O3 0.779489 0.029877 0.587732
O O4 0.540848 0.739986 0.561011
O O5 0.541127 0.626085 0.942944
O O6 0.000000 0.617051 0.250000
O O7 0.895912 0.627132 0.979390
O O8 0.000000 0.638088 0.750000
O O9 0.146510 0.519281 0.184164
O O10 0.081745 0.020441 0.210610
#
# Coordination Sequence:
#
# PCOD8246615 Si02
#       5
#     8   4   8   8   8
#     4   8  16  31  52  80 102 125 168 225 262 302
#     4  10  24  36  54  74 120 138 176 220 270 314
#     4  10  23  36  51  75 113 143 175 215 271 313
#     4  10  19  34  58  78 104 138 180 223 261 310
#     4  10  20  34  59  82 101 136 183 219 268 317
#
# _framework density 19.965253000000001
#
# number of rings (size 3 to 8) (size 9 to 14) (size 15 to 20)
#    0.667    1.778    0.000    2.000    3.111    2.667 
#    0.000    0.000    4.889    0.000    0.000    0.000 
#    0.000    0.000    0.000    0.000    0.000    0.000 
#
# Total GULP energy -446019.494681 kJ/mol
# GULP energy per Si atom -12389.430408 kJ/mol
# Density = 1.991981 g / cm^3
# Si number density = 19.965253 Si / 1000 Ang^3
#
#
#
# Elastic Constant Matrix: (Units=GPa)
#
#
# Indices 1 2 3 4 5 6 
#
# 1 131.2654 49.3697 -3.0120 0.0000 0.0000 0.0000
# 2 49.3697 50.8783 0.2468 0.0000 0.0000 0.0000
# 3 -3.0120 0.2468 84.5700 0.0000 0.0000 0.0000
# 4 0.0000 0.0000 0.0000 -113.1914 0.0000 0.0000
# 5 0.0000 0.0000 0.0000 0.0000 28.4424 0.0000
# 6 0.0000 0.0000 0.0000 0.0000 0.0000 -3.6311
#
#
#
# Elastic Compliance Matrix: (Units=1/GPa)
#
#
# Indices 1 2 3 4 5 6 
#
# 1 0.012014 -0.011660 0.000462 0.000000 0.000000 0.000000
# 2 -0.011660 0.030972 -0.000506 0.000000 0.000000 0.000000
# 3 0.000462 -0.000506 0.011842 0.000000 0.000000 0.000000
# 4 0.000000 0.000000 0.000000 -0.008835 0.000000 0.000000
# 5 0.000000 0.000000 0.000000 0.000000 0.035159 0.000000
# 6 0.000000 0.000000 0.000000 0.000000 0.000000 -0.275400
#
#
# Mechanical properties :
#
#
# Convention : Reuss Voigt Hill
#
# Bulk Modulus (GPa) = 31.82644 39.99139 35.90892
# Shear Modulus (GPa) = -31.17858 -3.00206 -17.09032
#
# Velocity S-wave (km/s) = -3.95605 -1.22756 -2.92893
# Velocity P-wave (km/s) = 2.21169 4.25027 2.56644
#
# Compressibility (1/GPa) = 0.03142041
#
# Stress axis : x y z
#
# Youngs Moduli (GPa) = 83.23459 32.28755 84.44203
#
# Poissons Ratio (x) = 0.37648 -0.03901
# Poissons Ratio (y) = 0.97053 0.04270
# Poissons Ratio (z) = -0.03845 0.01633
#
# Static dielectric constant tensor:
#      x y z
#    x 3.676270 0.000000 0.000000 
#    y 0.000000 2.969220 0.000000 
#    z 0.000000 0.000000 3.761360 
# 
# 
# High freq. dielectric constant tensor:
#      x y z
#    x 1.803240 0.000000 0.000000 
#    y 0.000000 1.703170 0.000000 
#    z 0.000000 0.000000 1.801640 
# 
# From -- ./inp_files/1961.got.cif
#   From: 2010.03.12/outbox.cif.g09.slc.cpg/sg60_1_cif.got.tgz:1961.got - 2010.04.10 18:46:24.
