data_PCOD8246872
_publ_section_title
;
Structure prediction by ZEFSAII (Michael W. Deem and Ramdas Pophale) SiO2 
 PCOD8246872
Probable space group: P B C N
;
_chemical_formula_sum "Si O2"
_cell_formula_units_Z 60
_cell_length_a 30.932886
_cell_length_b 5.135714
_cell_length_c 17.450431
_cell_angle_alpha 90.000000
_cell_angle_beta 90.000000
_cell_angle_gamma 90.000000
_cell_volume 2772.218322
_symmetry_space_group_name_H-M "P B C N"
_symmetry_group_IT_number 60
_symmetry_cell_setting 'orthorhombic'
loop_
_space_group_symop_operation_xyz
x,y,z
1/2-x,1/2-y,1/2+z
1/2+x,1/2-y,-z
-x,y,1/2-z
-x,-y,-z
1/2+x,1/2+y,1/2-z
1/2-x,1/2+y,z
x,-y,1/2+z
loop_
_atom_site_type_symbol
_atom_site_label
_atom_site_fract_x
_atom_site_fract_y
_atom_site_fract_z
Si Si1 0.374349 0.778269 0.953766
Si Si2 0.275292 0.750482 0.142857
Si Si3 0.500000 0.887560 0.250000
Si Si4 0.417883 0.786540 0.796756
Si Si5 0.935723 0.080661 0.335234
Si Si6 0.137655 0.540292 0.679844
Si Si7 0.222974 0.711709 0.462708
Si Si8 0.109787 0.775266 0.050856
O O1 0.406389 0.716826 0.883574
O O2 0.324832 0.828119 0.926497
O O3 0.371827 0.521938 0.006031
O O4 0.395656 0.030480 0.994456
O O5 0.240137 0.965721 0.167528
O O6 0.318811 0.798825 0.190464
O O7 0.284592 0.786708 0.053467
O O8 0.482381 0.712280 0.178674
O O9 0.537026 0.061092 0.211649
O O10 0.421652 0.523626 0.748268
O O11 0.377913 0.953384 0.763489
O O12 0.900113 0.291227 0.360787
O O13 0.934835 0.858853 0.402611
O O14 0.143942 0.300500 0.619036
O O15 0.253837 0.476209 0.435707
#
# Coordination Sequence:
#
# PCOD8246872 Si02
#       8
#     8   8   4   8   8   8   8   8
#     4  12  24  41  65 101 133 175 221 274 329 397
#     4  10  21  32  58  93 125 166 221 271 310 368
#     4  10  22  46  70 100 128 172 228 260 336 418
#     4  10  25  41  71  94 132 172 218 268 342 404
#     4  10  21  43  72  95 130 176 217 269 326 408
#     4  10  21  41  64  94 127 179 218 271 319 391
#     4  10  20  35  57  89 130 174 216 266 317 379
#     4  11  22  39  68  96 134 168 220 271 322 380
#
# _framework density 21.643319000000002
#
# number of rings (size 3 to 8) (size 9 to 14) (size 15 to 20)
#    0.000    1.600    2.667    1.200   11.200    0.000 
#    0.000    2.667    0.000    0.000    0.000    0.000 
#    0.000    0.000    0.000    0.000    0.000    0.000 
#
# Total GULP energy -743656.663674 kJ/mol
# GULP energy per Si atom -12394.277728 kJ/mol
# Density = 2.159406 g / cm^3
# Si number density = 21.643319 Si / 1000 Ang^3
#
#
#
# Elastic Constant Matrix: (Units=GPa)
#
#
# Indices 1 2 3 4 5 6 
#
# 1 103.5064 18.8071 37.8872 0.0000 0.0000 0.0000
# 2 18.8071 103.3862 30.6171 0.0000 0.0000 0.0000
# 3 37.8872 30.6171 71.9264 0.0000 0.0000 0.0000
# 4 0.0000 0.0000 0.0000 24.9694 0.0000 0.0000
# 5 0.0000 0.0000 0.0000 0.0000 24.1565 0.0000
# 6 0.0000 0.0000 0.0000 0.0000 0.0000 24.2373
#
#
#
# Elastic Compliance Matrix: (Units=1/GPa)
#
#
# Indices 1 2 3 4 5 6 
#
# 1 0.011980 -0.000355 -0.006159 0.000000 0.000000 0.000000
# 2 -0.000355 0.011078 -0.004529 0.000000 0.000000 0.000000
# 3 -0.006159 -0.004529 0.019075 0.000000 0.000000 0.000000
# 4 0.000000 0.000000 0.000000 0.040049 0.000000 0.000000
# 5 0.000000 0.000000 0.000000 0.000000 0.041397 0.000000
# 6 0.000000 0.000000 0.000000 0.000000 0.000000 0.041259
#
#
# Mechanical properties :
#
#
# Convention : Reuss Voigt Hill
#
# Bulk Modulus (GPa) = 49.88198 50.38242 50.13220
# Shear Modulus (GPa) = 25.82548 27.43981 26.63265
#
# Velocity S-wave (km/s) = 3.45807 3.56451 3.51169
# Velocity P-wave (km/s) = 6.24833 6.34586 6.29729
#
# Compressibility (1/GPa) = 0.02004732
#
# Stress axis : x y z
#
# Youngs Moduli (GPa) = 83.46989 90.26735 52.42395
#
# Poissons Ratio (x) = 0.03207 0.32290
# Poissons Ratio (y) = 0.02966 0.23740
# Poissons Ratio (z) = 0.51413 0.40878
#
# Static dielectric constant tensor:
#      x y z
#    x 3.769020 0.000000 0.000000 
#    y 0.000000 4.199660 0.000000 
#    z 0.000000 0.000000 3.563160 
# 
# 
# High freq. dielectric constant tensor:
#      x y z
#    x 1.835440 0.000000 0.000000 
#    y 0.000000 1.872270 0.000000 
#    z 0.000000 0.000000 1.812970 
# 
# From -- ./inp_files/21280.got.cif
#   From: 2010.03.12/outbox.cif.g09.slc.cpg/sg60_11_cif.got.tgz:21280.got - 2010.04.10 18:46:24.
