data_PCOD8246799
_publ_section_title
;
Structure prediction by ZEFSAII (Michael W. Deem and Ramdas Pophale) SiO2 
 PCOD8246799
Probable space group: P B C N
;
_chemical_formula_sum "Si O2"
_cell_formula_units_Z 44
_cell_length_a 13.590070
_cell_length_b 13.793961
_cell_length_c 12.263935
_cell_angle_alpha 90.000000
_cell_angle_beta 90.000000
_cell_angle_gamma 90.000000
_cell_volume 2299.008238
_symmetry_space_group_name_H-M "P B C N"
_symmetry_group_IT_number 60
_symmetry_cell_setting 'orthorhombic'
loop_
_space_group_symop_operation_xyz
x,y,z
1/2-x,1/2-y,1/2+z
1/2+x,1/2-y,-z
-x,y,1/2-z
-x,-y,-z
1/2+x,1/2+y,1/2-z
1/2-x,1/2+y,z
x,-y,1/2+z
loop_
_atom_site_type_symbol
_atom_site_label
_atom_site_fract_x
_atom_site_fract_y
_atom_site_fract_z
Si Si1 0.255418 0.608130 0.091456
Si Si2 0.814684 0.905344 0.362278
Si Si3 0.394762 0.242029 0.983079
Si Si4 0.263678 0.260033 0.791294
Si Si5 0.596347 0.287774 0.059778
Si Si6 0.500000 0.594172 0.750000
O O1 0.245705 0.491394 0.093813
O O2 0.155205 0.648974 0.039752
O O3 0.268713 0.647350 0.213905
O O4 0.350257 0.636684 0.019988
O O5 0.854885 0.840773 0.461250
O O6 0.755980 0.837801 0.277602
O O7 0.905867 0.961835 0.299753
O O8 0.513187 0.229027 0.991715
O O9 0.366523 0.246763 0.855299
O O10 0.178998 0.279527 0.883122
O O11 0.536850 0.338141 0.154315
#
# Coordination Sequence:
#
# PCOD8246799 Si02
#       6
#     8   8   8   8   8   4
#     4  10  20  32  53  78 103 137 172 218 264 308
#     4   9  18  32  50  77 105 130 175 217 265 320
#     4   9  19  34  53  74 104 140 171 213 264 318
#     4   9  19  34  52  75 104 137 170 217 268 311
#     4   9  18  34  53  76 103 134 175 212 263 315
#     4   8  16  30  50  74 102 130 158 218 272 308
#
# _framework density 19.138688999999999
#
# number of rings (size 3 to 8) (size 9 to 14) (size 15 to 20)
#    0.000    2.909    0.000    1.091    0.000    9.455 
#    0.000    0.000    0.000   24.000    0.000    0.000 
#    0.000    0.000    0.000    0.000    0.000    0.000 
#
# Total GULP energy -545161.417210 kJ/mol
# GULP energy per Si atom -12390.032209 kJ/mol
# Density = 1.909513 g / cm^3
# Si number density = 19.138689 Si / 1000 Ang^3
#
#
#
# Elastic Constant Matrix: (Units=GPa)
#
#
# Indices 1 2 3 4 5 6 
#
# 1 78.3585 19.2342 16.9933 0.0000 0.0000 0.0000
# 2 19.2342 86.7955 8.0861 0.0000 0.0000 0.0000
# 3 16.9933 8.0861 78.7686 0.0000 0.0000 0.0000
# 4 0.0000 0.0000 0.0000 38.3920 0.0000 0.0000
# 5 0.0000 0.0000 0.0000 0.0000 29.4591 0.0000
# 6 0.0000 0.0000 0.0000 0.0000 0.0000 16.8836
#
#
#
# Elastic Compliance Matrix: (Units=1/GPa)
#
#
# Indices 1 2 3 4 5 6 
#
# 1 0.014058 -0.002860 -0.002739 0.000000 0.000000 0.000000
# 2 -0.002860 0.012214 -0.000637 0.000000 0.000000 0.000000
# 3 -0.002739 -0.000637 0.013352 0.000000 0.000000 0.000000
# 4 0.000000 0.000000 0.000000 0.026047 0.000000 0.000000
# 5 0.000000 0.000000 0.000000 0.000000 0.033945 0.000000
# 6 0.000000 0.000000 0.000000 0.000000 0.000000 0.059229
#
#
# Mechanical properties :
#
#
# Convention : Reuss Voigt Hill
#
# Bulk Modulus (GPa) = 36.82994 36.94997 36.88996
# Shear Modulus (GPa) = 27.72099 30.25421 28.98760
#
# Velocity S-wave (km/s) = 3.80995 3.98023 3.89602
# Velocity P-wave (km/s) = 6.21609 6.36170 6.28932
#
# Compressibility (1/GPa) = 0.02715182
#
# Stress axis : x y z
#
# Youngs Moduli (GPa) = 71.13411 81.87012 74.89660
#
# Poissons Ratio (x) = 0.23416 0.20516
# Poissons Ratio (y) = 0.20345 0.04770
# Poissons Ratio (z) = 0.19485 0.05214
#
# Static dielectric constant tensor:
#      x y z
#    x 4.384130 0.000000 0.000000 
#    y 0.000000 3.024550 0.000000 
#    z 0.000000 0.000000 3.725370 
# 
# 
# High freq. dielectric constant tensor:
#      x y z
#    x 1.742930 0.000000 0.000000 
#    y 0.000000 1.698580 0.000000 
#    z 0.000000 0.000000 1.761630 
# 
# From -- ./inp_files/11809.got.cif
#   From: 2010.03.12/outbox.cif.g09.slc.cpg/sg60_6_cif.got.tgz:11809.got - 2010.04.10 18:46:24.
