data_PCOD8246112
_publ_section_title
;
Structure prediction by ZEFSAII (Michael W. Deem and Ramdas Pophale) SiO2 
 PCOD8246112
Probable space group: P M M N
;
_chemical_formula_sum "Si O2"
_cell_formula_units_Z 48
_cell_length_a 9.339322
_cell_length_b 8.783985
_cell_length_c 31.036180
_cell_angle_alpha 90.000000
_cell_angle_beta 90.000000
_cell_angle_gamma 90.000000
_cell_volume 2546.098474
_symmetry_space_group_name_H-M "P M M N"
_symmetry_group_IT_number 59
_space_group.IT_coordinate_system_code '2'
_symmetry_cell_setting 'orthorhombic'
loop_
_space_group_symop_operation_xyz
x,y,z
1/2-x,1/2-y,z
1/2+x,-y,-z
-x,1/2+y,-z
-x,-y,-z
1/2+x,1/2+y,-z
1/2-x,y,z
x,1/2-y,z
loop_
_atom_site_type_symbol
_atom_site_label
_atom_site_fract_x
_atom_site_fract_y
_atom_site_fract_z
Si Si1 0.412004 0.071105 0.038095
Si Si2 0.084975 0.930017 0.539568
Si Si3 0.917857 0.427167 0.306584
Si Si4 0.583421 0.428345 0.617726
Si Si5 0.090538 0.068920 0.132504
Si Si6 0.407369 0.930252 0.789843
O O1 0.250000 0.012504 0.034307
O O2 0.419009 0.250000 0.032918
O O3 0.473133 0.023337 0.085440
O O4 0.500000 0.000000 0.000000
O O5 0.250000 0.986940 0.539525
O O6 0.079850 0.750000 0.535520
O O7 0.000000 0.000000 0.500000
O O8 0.007646 0.979323 0.583087
O O9 0.750000 0.464277 0.313763
O O10 0.946022 0.250000 0.316820
O O11 0.965948 0.468196 0.257833
O O12 0.017834 0.531479 0.336004
O O13 0.750000 0.476985 0.615736
O O14 0.567024 0.250000 0.608648
O O15 0.250000 0.003439 0.136613
O O16 0.093510 0.250000 0.136322
O O17 0.001877 0.996556 0.172023
O O18 0.250000 0.000939 0.795003
O O19 0.399698 0.750000 0.795117
#
# Coordination Sequence:
#
# PCOD8246112 Si02
#       6
#     8   8   8   8   8   8
#     4   9  18  31  46  67  95 125 160 203 248 297
#     4  11  24  41  62  88 115 143 178 218 259 306
#     4   9  18  33  53  78 106 134 167 209 256 305
#     4  11  24  39  55  79 110 143 181 220 256 300
#     4   8  14  25  41  63  92 123 155 195 244 296
#     4   8  14  25  43  69  98 124 155 199 247 296
#
# _framework density 18.852373
#
# number of rings (size 3 to 8) (size 9 to 14) (size 15 to 20)
#    0.000    2.667    0.000    4.000    0.000    8.667 
#    0.000    3.333    0.000    1.000    0.000    0.000 
#    0.000    0.000    0.000    0.000    0.000    0.000 
#
# Total GULP energy -594942.983972 kJ/mol
# GULP energy per Si atom -12394.645499 kJ/mol
# Density = 1.880946 g / cm^3
# Si number density = 18.852373 Si / 1000 Ang^3
#
#
#
# Elastic Constant Matrix: (Units=GPa)
#
#
# Indices 1 2 3 4 5 6 
#
# 1 116.8947 31.3773 81.8503 0.0000 0.0000 0.0000
# 2 31.3773 31.7831 26.0355 0.0000 0.0000 0.0000
# 3 81.8503 26.0355 163.3466 0.0000 0.0000 0.0000
# 4 0.0000 0.0000 0.0000 26.8119 0.0000 0.0000
# 5 0.0000 0.0000 0.0000 0.0000 43.5168 0.0000
# 6 0.0000 0.0000 0.0000 0.0000 0.0000 24.6534
#
#
#
# Elastic Compliance Matrix: (Units=1/GPa)
#
#
# Indices 1 2 3 4 5 6 
#
# 1 0.015694 -0.010411 -0.006204 0.000000 0.000000 0.000000
# 2 -0.010411 0.043094 -0.001652 0.000000 0.000000 0.000000
# 3 -0.006204 -0.001652 0.009494 0.000000 0.000000 0.000000
# 4 0.000000 0.000000 0.000000 0.037297 0.000000 0.000000
# 5 0.000000 0.000000 0.000000 0.000000 0.022980 0.000000
# 6 0.000000 0.000000 0.000000 0.000000 0.000000 0.040562
#
#
# Mechanical properties :
#
#
# Convention : Reuss Voigt Hill
#
# Bulk Modulus (GPa) = 31.49837 65.61675 48.55756
# Shear Modulus (GPa) = 23.12263 30.51384 26.81824
#
# Velocity S-wave (km/s) = 3.50596 4.02751 3.77575
# Velocity P-wave (km/s) = 5.75614 7.51724 6.69485
#
# Compressibility (1/GPa) = 0.03174767
#
# Stress axis : x y z
#
# Youngs Moduli (GPa) = 63.72018 23.20482 105.32715
#
# Poissons Ratio (x) = 0.24158 0.65350
# Poissons Ratio (y) = 0.66338 0.17401
# Poissons Ratio (z) = 0.39535 0.03834
#
# Static dielectric constant tensor:
#      x y z
#    x 3.686530 0.000000 0.000000 
#    y 0.000000 3.047610 0.000000 
#    z 0.000000 0.000000 3.769250 
# 
# 
# High freq. dielectric constant tensor:
#      x y z
#    x 1.731440 0.000000 0.000000 
#    y 0.000000 1.692380 0.000000 
#    z 0.000000 0.000000 1.753750 
# 
# From -- ./inp_files/32873.got.cif
#   From: 2010.03.12/outbox.cif.g09.slc.cpg/sg59_17_cif.got.tgz:32873.got - 2010.04.16 16:29:54.
