data_PCOD8246695
_publ_section_title
;
Structure prediction by ZEFSAII (Michael W. Deem and Ramdas Pophale) SiO2 
 PCOD8246695
Probable space group: P B C N
;
_chemical_formula_sum "Si O2"
_cell_formula_units_Z 64
_cell_length_a 20.656354
_cell_length_b 9.214168
_cell_length_c 15.984461
_cell_angle_alpha 90.000000
_cell_angle_beta 90.000000
_cell_angle_gamma 90.000000
_cell_volume 3042.340301
_symmetry_space_group_name_H-M "P B C N"
_symmetry_group_IT_number 60
_symmetry_cell_setting 'orthorhombic'
loop_
_space_group_symop_operation_xyz
x,y,z
1/2-x,1/2-y,1/2+z
1/2+x,1/2-y,-z
-x,y,1/2-z
-x,-y,-z
1/2+x,1/2+y,1/2-z
1/2-x,1/2+y,z
x,-y,1/2+z
loop_
_atom_site_type_symbol
_atom_site_label
_atom_site_fract_x
_atom_site_fract_y
_atom_site_fract_z
Si Si1 0.677778 0.275313 0.542842
Si Si2 0.876579 0.266735 0.688320
Si Si3 0.070146 0.899709 0.653720
Si Si4 0.923157 0.053834 0.153983
Si Si5 0.879099 0.806641 0.369823
Si Si6 0.196450 0.548212 0.441413
Si Si7 0.998809 0.360899 0.613003
Si Si8 0.078363 0.379081 0.052935
O O1 0.618601 0.339965 0.595623
O O2 0.655478 0.234963 0.448751
O O3 0.733398 0.394945 0.532491
O O4 0.700913 0.122484 0.583678
O O5 0.849133 0.251923 0.782446
O O6 0.821934 0.350503 0.636945
O O7 0.942058 0.365513 0.683045
O O8 0.894279 0.109077 0.649255
O O9 0.077463 0.883162 0.752837
O O10 0.095301 0.754571 0.611410
O O11 0.997427 0.939583 0.623581
O O12 0.122050 0.019612 0.623342
O O13 0.955371 0.772557 0.365412
O O14 0.145705 0.560396 0.517206
O O15 0.967706 0.331773 0.522534
O O16 0.041444 0.506510 0.612048
#
# Coordination Sequence:
#
# PCOD8246695 Si02
#       8
#     8   8   8   8   8   8   8   8
#     4  12  26  45  67  91 127 176 223 269 324 383
#     4  10  22  42  66  96 133 169 212 268 331 391
#     4  10  22  38  64 101 131 163 214 263 331 394
#     4  10  22  41  64  96 134 169 212 264 331 396
#     4  11  22  40  66 101 126 167 214 266 324 395
#     4  11  26  46  63  90 127 172 227 265 320 385
#     4  10  19  36  64  94 135 164 201 267 331 392
#     4  10  22  38  59  97 130 166 218 266 323 387
#
# _framework density 21.036438
#
# number of rings (size 3 to 8) (size 9 to 14) (size 15 to 20)
#    0.000    1.500    2.500    1.875    8.750    2.000 
#    4.500    0.000    0.000    0.000    0.000    0.000 
#    0.000    0.000    0.000    0.000    0.000    0.000 
#
# Total GULP energy -793494.594254 kJ/mol
# GULP energy per Si atom -12398.353035 kJ/mol
# Density = 2.098856 g / cm^3
# Si number density = 21.036438 Si / 1000 Ang^3
#
#
#
# Elastic Constant Matrix: (Units=GPa)
#
#
# Indices 1 2 3 4 5 6 
#
# 1 61.9913 18.3858 29.9299 0.0000 0.0000 0.0000
# 2 18.3858 116.7180 57.0827 0.0000 0.0000 0.0000
# 3 29.9299 57.0827 82.7456 0.0000 0.0000 0.0000
# 4 0.0000 0.0000 0.0000 26.8618 0.0000 0.0000
# 5 0.0000 0.0000 0.0000 0.0000 10.1701 0.0000
# 6 0.0000 0.0000 0.0000 0.0000 0.0000 30.4666
#
#
#
# Elastic Compliance Matrix: (Units=1/GPa)
#
#
# Indices 1 2 3 4 5 6 
#
# 1 0.019570 0.000572 -0.007473 0.000000 0.000000 0.000000
# 2 0.000572 0.012947 -0.009138 0.000000 0.000000 0.000000
# 3 -0.007473 -0.009138 0.021093 0.000000 0.000000 0.000000
# 4 0.000000 0.000000 0.000000 0.037228 0.000000 0.000000
# 5 0.000000 0.000000 0.000000 0.000000 0.098328 0.000000
# 6 0.000000 0.000000 0.000000 0.000000 0.000000 0.032823
#
#
# Mechanical properties :
#
#
# Convention : Reuss Voigt Hill
#
# Bulk Modulus (GPa) = 46.44652 52.47241 49.45947
# Shear Modulus (GPa) = 19.13926 23.90346 21.52136
#
# Velocity S-wave (km/s) = 3.01959 3.37454 3.20199
# Velocity P-wave (km/s) = 5.85527 6.33886 6.10186
#
# Compressibility (1/GPa) = 0.02153014
#
# Stress axis : x y z
#
# Youngs Moduli (GPa) = 51.09924 77.23903 47.40985
#
# Poissons Ratio (x) = -0.04420 0.35431
# Poissons Ratio (y) = -0.02924 0.43325
# Poissons Ratio (z) = 0.38188 0.70585
#
# Static dielectric constant tensor:
#      x y z
#    x 3.596940 0.000000 0.000000 
#    y 0.000000 3.851900 0.000000 
#    z 0.000000 0.000000 3.738230 
# 
# 
# High freq. dielectric constant tensor:
#      x y z
#    x 1.806230 0.000000 0.000000 
#    y 0.000000 1.834150 0.000000 
#    z 0.000000 0.000000 1.818950 
# 
# From -- ./inp_files/21058.got.cif
#   From: 2010.03.12/outbox.cif.g09.slc.cpg/sg60_11_cif.got.tgz:21058.got - 2010.04.10 18:46:24.
