data_PCOD8246081
_publ_section_title
;
Structure prediction by ZEFSAII (Michael W. Deem and Ramdas Pophale) SiO2 
 PCOD8246081
Probable space group: P M M N
;
_chemical_formula_sum "Si O2"
_cell_formula_units_Z 48
_cell_length_a 18.331039
_cell_length_b 9.249957
_cell_length_c 15.453432
_cell_angle_alpha 90.000000
_cell_angle_beta 90.000000
_cell_angle_gamma 90.000000
_cell_volume 2620.304367
_symmetry_space_group_name_H-M "P M M N"
_symmetry_group_IT_number 59
_space_group.IT_coordinate_system_code '2'
_symmetry_cell_setting 'orthorhombic'
loop_
_space_group_symop_operation_xyz
x,y,z
1/2-x,1/2-y,z
1/2+x,-y,-z
-x,1/2+y,-z
-x,-y,-z
1/2+x,1/2+y,-z
1/2-x,y,z
x,1/2-y,z
loop_
_atom_site_type_symbol
_atom_site_label
_atom_site_fract_x
_atom_site_fract_y
_atom_site_fract_z
Si Si1 0.076228 0.920609 0.494966
Si Si2 0.335194 0.417766 0.351671
Si Si3 0.837121 0.412340 0.003521
Si Si4 0.163113 0.413155 0.831762
Si Si5 0.834005 0.417341 0.335333
Si Si6 0.336642 0.409975 0.157531
O O1 0.064450 0.750000 0.485886
O O2 0.120774 0.960899 0.580682
O O3 0.120213 0.976982 0.412848
O O4 0.000000 0.000000 0.500000
O O5 0.250000 0.448780 0.365108
O O6 0.352751 0.250000 0.371699
O O7 0.359975 0.457384 0.253965
O O8 0.750000 0.413804 0.003710
O O9 0.867218 0.250000 0.010898
O O10 0.867723 0.503489 0.084467
O O11 0.867741 0.480238 0.914228
O O12 0.250000 0.415975 0.833571
O O13 0.133140 0.250000 0.833223
O O14 0.134919 0.491181 0.745059
O O15 0.750000 0.455430 0.354553
O O16 0.843180 0.250000 0.311084
O O17 0.250000 0.404936 0.153094
O O18 0.367328 0.250000 0.136995
#
# Coordination Sequence:
#
# PCOD8246081 Si02
#       6
#     8   8   8   8   8   8
#     4  11  23  37  53  73  99 131 167 208 253 301
#     4   9  18  33  53  76 102 132 166 206 251 297
#     4   9  15  22  35  59  93 129 160 193 234 279
#     4   9  16  25  40  64  93 125 159 195 237 285
#     4   9  18  33  51  71  96 126 161 202 247 292
#     4   8  14  25  41  63  93 127 160 195 237 284
#
# _framework density 18.318483000000001
#
# number of rings (size 3 to 8) (size 9 to 14) (size 15 to 20)
#    0.000    2.833    0.000    3.000    0.000    7.000 
#    0.000    3.333    0.000    0.000    0.000    1.167 
#    0.000    0.000    0.000    0.000    0.000    0.000 
#
# Total GULP energy -595116.141385 kJ/mol
# GULP energy per Si atom -12398.252946 kJ/mol
# Density = 1.827679 g / cm^3
# Si number density = 18.318483 Si / 1000 Ang^3
#
#
#
# Elastic Constant Matrix: (Units=GPa)
#
#
# Indices 1 2 3 4 5 6 
#
# 1 42.2266 37.8111 42.9960 0.0000 0.0000 0.0000
# 2 37.8111 136.6699 104.2569 0.0000 0.0000 0.0000
# 3 42.9960 104.2569 179.4921 0.0000 0.0000 0.0000
# 4 0.0000 0.0000 0.0000 42.3998 0.0000 0.0000
# 5 0.0000 0.0000 0.0000 0.0000 -2.1270 0.0000
# 6 0.0000 0.0000 0.0000 0.0000 0.0000 18.8072
#
#
#
# Elastic Compliance Matrix: (Units=1/GPa)
#
#
# Indices 1 2 3 4 5 6 
#
# 1 0.033600 -0.005667 -0.004757 0.000000 0.000000 0.000000
# 2 -0.005667 0.014094 -0.006829 0.000000 0.000000 0.000000
# 3 -0.004757 -0.006829 0.010677 0.000000 0.000000 0.000000
# 4 0.000000 0.000000 0.000000 0.023585 0.000000 0.000000
# 5 0.000000 0.000000 0.000000 0.000000 -0.470149 0.000000
# 6 0.000000 0.000000 0.000000 0.000000 0.000000 0.053171
#
#
# Mechanical properties :
#
#
# Convention : Reuss Voigt Hill
#
# Bulk Modulus (GPa) = 41.90159 80.94627 61.42393
# Shear Modulus (GPa) = -17.09050 23.37097 3.14024
#
# Velocity S-wave (km/s) = -3.05776 3.57573 1.31071
# Velocity P-wave (km/s) = 3.23374 7.83148 5.99121
#
# Compressibility (1/GPa) = 0.02386545
#
# Stress axis : x y z
#
# Youngs Moduli (GPa) = 29.76210 70.95144 93.65602
#
# Poissons Ratio (x) = 0.40208 0.44552
# Poissons Ratio (y) = 0.16866 0.63958
# Poissons Ratio (z) = 0.14158 0.48453
#
# Static dielectric constant tensor:
#      x y z
#    x 2.812010 0.000000 0.000000 
#    y 0.000000 3.526310 0.000000 
#    z 0.000000 0.000000 3.620730 
# 
# 
# High freq. dielectric constant tensor:
#      x y z
#    x 1.645860 0.000000 0.000000 
#    y 0.000000 1.717430 0.000000 
#    z 0.000000 0.000000 1.728120 
# 
# From -- ./inp_files/23634.got.cif
#   From: 2010.03.12/outbox.cif.g09.slc.cpg/sg59_12_cif.got.tgz:23634.got - 2010.04.16 16:29:54.
