data_PCOD8246724
_publ_section_title
;
Structure prediction by ZEFSAII (Michael W. Deem and Ramdas Pophale) SiO2 
 PCOD8246724
Probable space group: P B C N
;
_chemical_formula_sum "Si O2"
_cell_formula_units_Z 32
_cell_length_a 9.301179
_cell_length_b 18.722439
_cell_length_c 8.406686
_cell_angle_alpha 90.000000
_cell_angle_beta 90.000000
_cell_angle_gamma 90.000000
_cell_volume 1463.946659
_symmetry_space_group_name_H-M "P B C N"
_symmetry_group_IT_number 60
_symmetry_cell_setting 'orthorhombic'
loop_
_space_group_symop_operation_xyz
x,y,z
1/2-x,1/2-y,1/2+z
1/2+x,1/2-y,-z
-x,y,1/2-z
-x,-y,-z
1/2+x,1/2+y,1/2-z
1/2-x,1/2+y,z
x,-y,1/2+z
loop_
_atom_site_type_symbol
_atom_site_label
_atom_site_fract_x
_atom_site_fract_y
_atom_site_fract_z
Si Si1 0.835325 0.035464 0.733360
Si Si2 0.840391 0.291530 0.727222
Si Si3 0.163481 0.896704 0.948502
Si Si4 0.153931 0.843123 0.478065
O O1 0.772337 0.083702 0.587943
O O2 0.000000 0.058574 0.750000
O O3 0.824431 0.950910 0.702202
O O4 0.772527 0.057835 0.903886
O O5 0.772158 0.332415 0.578224
O O6 0.850542 0.208662 0.676550
O O7 0.000000 0.322146 0.750000
O O8 0.745460 0.305132 0.884257
O O9 0.005122 0.862392 0.958683
#
# Coordination Sequence:
#
# PCOD8246724 Si02
#       4
#     8   8   8   8
#     4  10  19  37  65  93 114 152 209 256 289 344
#     4  12  24  39  59  90 124 159 198 247 308 369
#     4  11  22  40  66  92 121 158 204 253 300 354
#     4  11  22  40  62  87 119 159 203 250 298 355
#
# _framework density 21.858720999999999
#
# number of rings (size 3 to 8) (size 9 to 14) (size 15 to 20)
#    0.000    1.000    0.000   12.000    0.000    0.000 
#    0.000    8.750    0.000    0.000    0.000    0.000 
#    0.000    0.000    0.000    0.000    0.000    0.000 
#
# Total GULP energy -396562.720385 kJ/mol
# GULP energy per Si atom -12392.585012 kJ/mol
# Density = 2.180897 g / cm^3
# Si number density = 21.858721 Si / 1000 Ang^3
#
#
#
# Elastic Constant Matrix: (Units=GPa)
#
#
# Indices 1 2 3 4 5 6 
#
# 1 89.3301 38.0549 27.8316 0.0000 0.0000 0.0000
# 2 38.0549 110.1335 22.4527 0.0000 0.0000 0.0000
# 3 27.8316 22.4527 73.5297 0.0000 0.0000 0.0000
# 4 0.0000 0.0000 0.0000 61.0198 0.0000 0.0000
# 5 0.0000 0.0000 0.0000 0.0000 18.1604 0.0000
# 6 0.0000 0.0000 0.0000 0.0000 0.0000 24.2019
#
#
#
# Elastic Compliance Matrix: (Units=1/GPa)
#
#
# Indices 1 2 3 4 5 6 
#
# 1 0.014217 -0.004069 -0.004139 0.000000 0.000000 0.000000
# 2 -0.004069 0.010847 -0.001772 0.000000 0.000000 0.000000
# 3 -0.004139 -0.001772 0.015708 0.000000 0.000000 0.000000
# 4 0.000000 0.000000 0.000000 0.016388 0.000000 0.000000
# 5 0.000000 0.000000 0.000000 0.000000 0.055065 0.000000
# 6 0.000000 0.000000 0.000000 0.000000 0.000000 0.041319
#
#
# Mechanical properties :
#
#
# Convention : Reuss Voigt Hill
#
# Bulk Modulus (GPa) = 48.04842 49.96353 49.00597
# Shear Modulus (GPa) = 27.70985 32.98669 30.34827
#
# Velocity S-wave (km/s) = 3.56431 3.88891 3.73014
# Velocity P-wave (km/s) = 6.24245 6.56292 6.40469
#
# Compressibility (1/GPa) = 0.02081234
#
# Stress axis : x y z
#
# Youngs Moduli (GPa) = 70.33700 92.19082 63.66306
#
# Poissons Ratio (x) = 0.37510 0.26350
# Poissons Ratio (y) = 0.28618 0.11282
# Poissons Ratio (z) = 0.29112 0.16338
#
# Static dielectric constant tensor:
#      x y z
#    x 3.512550 0.000000 0.000000 
#    y 0.000000 4.049330 0.000000 
#    z 0.000000 0.000000 4.302530 
# 
# 
# High freq. dielectric constant tensor:
#      x y z
#    x 1.802730 0.000000 0.000000 
#    y 0.000000 1.881590 0.000000 
#    z 0.000000 0.000000 1.882580 
# 
# From -- ./inp_files/3613.got.cif
#   From: 2010.03.12/outbox.cif.g09.slc.cpg/sg60_2_cif.got.tgz:3613.got - 2010.04.10 18:46:24.
