data_PCOD8246111
_publ_section_title
;
Structure prediction by ZEFSAII (Michael W. Deem and Ramdas Pophale) SiO2 
 PCOD8246111
Probable space group: P M M N
;
_chemical_formula_sum "Si O2"
_cell_formula_units_Z 48
_cell_length_a 8.906902
_cell_length_b 18.028904
_cell_length_c 16.460980
_cell_angle_alpha 90.000000
_cell_angle_beta 90.000000
_cell_angle_gamma 90.000000
_cell_volume 2643.331841
_symmetry_space_group_name_H-M "P M M N"
_symmetry_group_IT_number 59
_space_group.IT_coordinate_system_code '2'
_symmetry_cell_setting 'orthorhombic'
loop_
_space_group_symop_operation_xyz
x,y,z
1/2-x,1/2-y,z
1/2+x,-y,-z
-x,1/2+y,-z
-x,-y,-z
1/2+x,1/2+y,-z
1/2-x,y,z
x,1/2-y,z
loop_
_atom_site_type_symbol
_atom_site_label
_atom_site_fract_x
_atom_site_fract_y
_atom_site_fract_z
Si Si1 0.926998 0.419749 0.005099
Si Si2 0.927521 0.524167 0.583150
Si Si3 0.421844 0.944105 0.254494
Si Si4 0.571321 0.668422 0.668396
Si Si5 0.076138 0.163448 0.858595
Si Si6 0.922493 0.597697 0.832654
O O1 0.750000 0.428802 0.999948
O O2 0.975074 0.382935 0.090266
O O3 0.000000 0.500000 0.000000
O O4 0.979818 0.366414 0.933403
O O5 0.750000 0.524252 0.573625
O O6 0.975289 0.468750 0.655667
O O7 0.987102 0.607105 0.604488
O O8 0.000000 0.500000 0.500000
O O9 0.250000 0.917180 0.257257
O O10 0.525842 0.876923 0.224541
O O11 0.438363 0.011631 0.191426
O O12 0.750000 0.665567 0.669232
O O13 0.511093 0.750000 0.643693
O O14 0.516905 0.648489 0.759091
O O15 0.250000 0.146684 0.875223
O O16 0.044635 0.250000 0.847289
O O17 0.750000 0.616156 0.853894
#
# Coordination Sequence:
#
# PCOD8246111 Si02
#       6
#     8   8   8   8   8   8
#     4  12  23  35  54  79 109 146 186 226 269 319
#     4   9  18  33  55  83 109 139 178 216 262 322
#     4   9  18  34  55  76 103 140 179 219 265 322
#     4   8  15  30  53  79 107 138 173 216 266 318
#     4  11  24  39  55  78 107 141 185 233 278 323
#     4   9  17  31  53  79 103 135 179 221 264 317
#
# _framework density 18.158899999999999
#
# number of rings (size 3 to 8) (size 9 to 14) (size 15 to 20)
#    0.000    2.333    1.667    4.000    0.000    2.667 
#    0.000    5.000    0.000    4.500    0.000    0.000 
#    0.000    0.000    0.000    0.000    0.000    0.000 
#
# Total GULP energy -595147.362551 kJ/mol
# GULP energy per Si atom -12398.903386 kJ/mol
# Density = 1.811757 g / cm^3
# Si number density = 18.158900 Si / 1000 Ang^3
#
#
#
# Elastic Constant Matrix: (Units=GPa)
#
#
# Indices 1 2 3 4 5 6 
#
# 1 84.3179 48.7450 49.7830 0.0000 0.0000 0.0000
# 2 48.7450 123.5861 70.7969 0.0000 0.0000 0.0000
# 3 49.7830 70.7969 144.6663 0.0000 0.0000 0.0000
# 4 0.0000 0.0000 0.0000 21.9293 0.0000 0.0000
# 5 0.0000 0.0000 0.0000 0.0000 34.3937 0.0000
# 6 0.0000 0.0000 0.0000 0.0000 0.0000 22.9216
#
#
#
# Elastic Compliance Matrix: (Units=1/GPa)
#
#
# Indices 1 2 3 4 5 6 
#
# 1 0.016528 -0.004531 -0.003470 0.000000 0.000000 0.000000
# 2 -0.004531 0.012486 -0.004551 0.000000 0.000000 0.000000
# 3 -0.003470 -0.004551 0.010334 0.000000 0.000000 0.000000
# 4 0.000000 0.000000 0.000000 0.045601 0.000000 0.000000
# 5 0.000000 0.000000 0.000000 0.000000 0.029075 0.000000
# 6 0.000000 0.000000 0.000000 0.000000 0.000000 0.043627
#
#
# Mechanical properties :
#
#
# Convention : Reuss Voigt Hill
#
# Bulk Modulus (GPa) = 70.21000 76.80223 73.50611
# Shear Modulus (GPa) = 26.66614 28.06529 27.36572
#
# Velocity S-wave (km/s) = 3.83624 3.93560 3.88624
# Velocity P-wave (km/s) = 7.64006 7.93966 7.79130
#
# Compressibility (1/GPa) = 0.01424299
#
# Stress axis : x y z
#
# Youngs Moduli (GPa) = 60.50225 80.09108 96.76924
#
# Poissons Ratio (x) = 0.36290 0.33582
# Poissons Ratio (y) = 0.27414 0.44040
# Poissons Ratio (z) = 0.20996 0.36450
#
# Static dielectric constant tensor:
#      x y z
#    x 3.415450 0.000000 0.000000 
#    y 0.000000 3.543490 0.000000 
#    z 0.000000 0.000000 3.491360 
# 
# 
# High freq. dielectric constant tensor:
#      x y z
#    x 1.684480 0.000000 0.000000 
#    y 0.000000 1.697040 0.000000 
#    z 0.000000 0.000000 1.702050 
# 
# From -- ./inp_files/25765.got.cif
#   From: 2010.03.12/outbox.cif.g09.slc.cpg/sg59_13_cif.got.tgz:25765.got - 2010.04.16 16:29:54.
