data_PCOD8246555
_publ_section_title
;
Structure prediction by ZEFSAII (Michael W. Deem and Ramdas Pophale) SiO2 
 PCOD8246555
Probable space group: P B C N
;
_chemical_formula_sum "Si O2"
_cell_formula_units_Z 56
_cell_length_a 32.685476
_cell_length_b 16.045543
_cell_length_c 5.129451
_cell_angle_alpha 90.000000
_cell_angle_beta 90.000000
_cell_angle_gamma 90.000000
_cell_volume 2690.172434
_symmetry_space_group_name_H-M "P B C N"
_symmetry_group_IT_number 60
_symmetry_cell_setting 'orthorhombic'
loop_
_space_group_symop_operation_xyz
x,y,z
1/2-x,1/2-y,1/2+z
1/2+x,1/2-y,-z
-x,y,1/2-z
-x,-y,-z
1/2+x,1/2+y,1/2-z
1/2-x,1/2+y,z
x,-y,1/2+z
loop_
_atom_site_type_symbol
_atom_site_label
_atom_site_fract_x
_atom_site_fract_y
_atom_site_fract_z
Si Si1 0.605259 0.721132 0.688038
Si Si2 0.860110 0.300600 0.198322
Si Si3 0.915946 0.556998 0.834659
Si Si4 0.224355 0.766751 0.805044
Si Si5 0.609630 0.531485 0.729532
Si Si6 0.800074 0.957681 0.682980
Si Si7 0.474646 0.200115 0.506844
O O1 0.633525 0.735856 0.435901
O O2 0.614895 0.628600 0.785337
O O3 0.558555 0.733434 0.596078
O O4 0.614504 0.780929 0.934348
O O5 0.873921 0.390515 0.308595
O O6 0.812037 0.298662 0.134105
O O7 0.918085 0.499148 0.586860
O O8 0.953808 0.620030 0.858637
O O9 0.240553 0.749916 0.515297
O O10 0.206261 0.859245 0.828675
O O11 0.584867 0.513702 0.462721
O O12 0.651951 0.481475 0.667862
O O13 0.778667 0.001626 0.434950
O O14 0.500000 0.173518 0.250000
O O15 0.500000 0.240260 0.750000
#
# Coordination Sequence:
#
# PCOD8246555 Si02
#       7
#     8   8   8   8   8   8   8
#     4  11  21  39  66  92 121 160 207 251 301 371
#     4  11  22  41  63  85 120 166 212 256 305 371
#     4  11  23  40  62  90 123 165 217 263 303 363
#     4  12  25  41  62  93 128 164 204 258 323 379
#     4  10  19  32  58  91 113 143 194 251 295 339
#     4  10  19  36  59  86 116 146 195 255 300 349
#     4  11  23  39  62  94 129 165 203 253 319 376
#
# _framework density 20.816509
#
# number of rings (size 3 to 8) (size 9 to 14) (size 15 to 20)
#    0.000    1.143    0.000   10.286    0.000    1.714 
#    0.000    4.286    0.000    2.571    0.000    0.000 
#    0.000    0.000    0.000    0.000    0.000    0.000 
#
# Total GULP energy -694092.974770 kJ/mol
# GULP energy per Si atom -12394.517407 kJ/mol
# Density = 2.076913 g / cm^3
# Si number density = 20.816509 Si / 1000 Ang^3
#
#
#
# Elastic Constant Matrix: (Units=GPa)
#
#
# Indices 1 2 3 4 5 6 
#
# 1 85.6342 33.5624 24.9705 0.0000 0.0000 0.0000
# 2 33.5624 88.9134 26.2877 0.0000 0.0000 0.0000
# 3 24.9705 26.2877 164.7623 0.0000 0.0000 0.0000
# 4 0.0000 0.0000 0.0000 34.6170 0.0000 0.0000
# 5 0.0000 0.0000 0.0000 0.0000 31.8499 0.0000
# 6 0.0000 0.0000 0.0000 0.0000 0.0000 21.3112
#
#
#
# Elastic Compliance Matrix: (Units=1/GPa)
#
#
# Indices 1 2 3 4 5 6 
#
# 1 0.013982 -0.004881 -0.001340 0.000000 0.000000 0.000000
# 2 -0.004881 0.013508 -0.001415 0.000000 0.000000 0.000000
# 3 -0.001340 -0.001415 0.006498 0.000000 0.000000 0.000000
# 4 0.000000 0.000000 0.000000 0.028888 0.000000 0.000000
# 5 0.000000 0.000000 0.000000 0.000000 0.031397 0.000000
# 6 0.000000 0.000000 0.000000 0.000000 0.000000 0.046924
#
#
# Mechanical properties :
#
#
# Convention : Reuss Voigt Hill
#
# Bulk Modulus (GPa) = 53.43627 56.55010 54.99319
# Shear Modulus (GPa) = 30.72985 34.52156 32.62571
#
# Velocity S-wave (km/s) = 3.84634 4.07673 3.96321
# Velocity P-wave (km/s) = 6.74178 7.02742 6.88608
#
# Compressibility (1/GPa) = 0.01871388
#
# Stress axis : x y z
#
# Youngs Moduli (GPa) = 71.52296 74.03034 153.88691
#
# Poissons Ratio (x) = 0.36137 0.20623
# Poissons Ratio (y) = 0.34913 0.21781
# Poissons Ratio (z) = 0.09585 0.10478
#
# Static dielectric constant tensor:
#      x y z
#    x 3.556450 0.000000 0.000000 
#    y 0.000000 3.682530 0.000000 
#    z 0.000000 0.000000 4.911360 
# 
# 
# High freq. dielectric constant tensor:
#      x y z
#    x 1.777960 0.000000 0.000000 
#    y 0.000000 1.807520 0.000000 
#    z 0.000000 0.000000 1.857530 
# 
# From -- ./inp_files/2690.got.cif
#   From: 2010.03.12/outbox.cif.g09.slc.cpg/sg60_2_cif.got.tgz:2690.got - 2010.04.10 18:46:24.
