data_PCOD8246337
_publ_section_title
;
Structure prediction by ZEFSAII (Michael W. Deem and Ramdas Pophale) SiO2 
 PCOD8246337
Probable space group: P B C N
;
_chemical_formula_sum "Si O2"
_cell_formula_units_Z 32
_cell_length_a 13.815120
_cell_length_b 10.342200
_cell_length_c 13.206270
_cell_angle_alpha 90.000000
_cell_angle_beta 90.000000
_cell_angle_gamma 90.000000
_cell_volume 1886.895139
_symmetry_space_group_name_H-M "P B C N"
_symmetry_group_IT_number 60
_symmetry_cell_setting 'orthorhombic'
loop_
_space_group_symop_operation_xyz
x,y,z
1/2-x,1/2-y,1/2+z
1/2+x,1/2-y,-z
-x,y,1/2-z
-x,-y,-z
1/2+x,1/2+y,1/2-z
1/2-x,1/2+y,z
x,-y,1/2+z
loop_
_atom_site_type_symbol
_atom_site_label
_atom_site_fract_x
_atom_site_fract_y
_atom_site_fract_z
Si Si1 0.267474 0.177309 0.124133
Si Si2 0.863038 0.918810 0.053332
Si Si3 0.718186 0.428550 0.268347
Si Si4 0.926843 0.856096 0.420481
O O1 0.229174 0.296217 0.194488
O O2 0.372475 0.216667 0.076723
O O3 0.280902 0.050457 0.193219
O O4 0.191699 0.157595 0.034333
O O5 0.791075 0.932781 0.147855
O O6 0.958016 0.835802 0.084157
O O7 0.896324 0.061870 0.019818
O O8 0.611237 0.434348 0.320885
#
# Coordination Sequence:
#
# PCOD8246337 Si02
#       4
#     8   8   8   8
#     4   9  20  33  50  85 102 130 188 212 259 321
#     4  10  17  34  57  74 106 145 168 220 259 311
#     4   9  19  32  54  76 107 135 175 214 262 311
#     4   8  19  32  52  82 100 135 184 209 253 322
#
# _framework density 16.959077000000001
#
# number of rings (size 3 to 8) (size 9 to 14) (size 15 to 20)
#    1.500    1.500    0.000    0.750    3.500    0.000 
#    0.000    1.250    0.000    0.000    0.000    0.000 
#    0.000    0.000    0.000    0.000    0.000    0.000 
#
# Total GULP energy -396441.682520 kJ/mol
# GULP energy per Si atom -12388.802579 kJ/mol
# Density = 1.692048 g / cm^3
# Si number density = 16.959077 Si / 1000 Ang^3
#
#
#
# Elastic Constant Matrix: (Units=GPa)
#
#
# Indices 1 2 3 4 5 6 
#
# 1 62.0502 32.0816 22.3093 0.0000 0.0000 0.0000
# 2 32.0816 108.0754 38.6056 0.0000 0.0000 0.0000
# 3 22.3093 38.6056 101.6140 0.0000 0.0000 0.0000
# 4 0.0000 0.0000 0.0000 19.7224 0.0000 0.0000
# 5 0.0000 0.0000 0.0000 0.0000 19.1531 0.0000
# 6 0.0000 0.0000 0.0000 0.0000 0.0000 27.8433
#
#
#
# Elastic Compliance Matrix: (Units=1/GPa)
#
#
# Indices 1 2 3 4 5 6 
#
# 1 0.019536 -0.004937 -0.002413 0.000000 0.000000 0.000000
# 2 -0.004937 0.011953 -0.003457 0.000000 0.000000 0.000000
# 3 -0.002413 -0.003457 0.011685 0.000000 0.000000 0.000000
# 4 0.000000 0.000000 0.000000 0.050704 0.000000 0.000000
# 5 0.000000 0.000000 0.000000 0.000000 0.052211 0.000000
# 6 0.000000 0.000000 0.000000 0.000000 0.000000 0.035915
#
#
# Mechanical properties :
#
#
# Convention : Reuss Voigt Hill
#
# Bulk Modulus (GPa) = 46.38592 50.85919 48.62256
# Shear Modulus (GPa) = 23.71842 25.25995 24.48919
#
# Velocity S-wave (km/s) = 3.74380 3.86355 3.80414
# Velocity P-wave (km/s) = 6.78963 7.06803 6.93023
#
# Compressibility (1/GPa) = 0.02155826
#
# Stress axis : x y z
#
# Youngs Moduli (GPa) = 51.18664 83.65830 85.58268
#
# Poissons Ratio (x) = 0.41303 0.20655
# Poissons Ratio (y) = 0.25272 0.29590
# Poissons Ratio (z) = 0.12354 0.28924
#
# Static dielectric constant tensor:
#      x y z
#    x 2.881660 0.000000 0.000000 
#    y 0.000000 3.034100 0.000000 
#    z 0.000000 0.000000 3.098440 
# 
# 
# High freq. dielectric constant tensor:
#      x y z
#    x 1.623390 0.000000 0.000000 
#    y 0.000000 1.638300 0.000000 
#    z 0.000000 0.000000 1.658270 
# 
# From -- ./inp_files/10588.got.cif
#   From: 2010.03.12/outbox.cif.g09.slc.cpg/sg60_6_cif.got.tgz:10588.got - 2010.04.10 18:46:24.
