data_PCOD8246277
_publ_section_title
;
Structure prediction by ZEFSAII (Michael W. Deem and Ramdas Pophale) SiO2 
 PCOD8246277
Probable space group: P B C N
;
_chemical_formula_sum "Si O2"
_cell_formula_units_Z 48
_cell_length_a 27.230728
_cell_length_b 5.235009
_cell_length_c 17.495795
_cell_angle_alpha 90.000000
_cell_angle_beta 90.000000
_cell_angle_gamma 90.000000
_cell_volume 2494.079922
_symmetry_space_group_name_H-M "P B C N"
_symmetry_group_IT_number 60
_symmetry_cell_setting 'orthorhombic'
loop_
_space_group_symop_operation_xyz
x,y,z
1/2-x,1/2-y,1/2+z
1/2+x,1/2-y,-z
-x,y,1/2-z
-x,-y,-z
1/2+x,1/2+y,1/2-z
1/2-x,1/2+y,z
x,-y,1/2+z
loop_
_atom_site_type_symbol
_atom_site_label
_atom_site_fract_x
_atom_site_fract_y
_atom_site_fract_z
Si Si1 0.619651 0.519469 0.993867
Si Si2 0.883608 0.512438 0.093876
Si Si3 0.726682 0.982350 0.124755
Si Si4 0.231126 0.990778 0.045709
Si Si5 0.022956 0.034353 0.083070
Si Si6 0.985544 0.465236 0.663623
O O1 0.673471 0.549226 0.959698
O O2 0.581932 0.484738 0.923978
O O3 0.617115 0.277042 0.048783
O O4 0.605192 0.775543 0.038660
O O5 0.831759 0.474948 0.136241
O O6 0.926523 0.523519 0.156676
O O7 0.750257 0.732691 0.164678
O O8 0.741027 0.973246 0.035454
O O9 0.244435 0.251988 0.090553
O O10 0.010138 0.315541 0.112628
O O11 0.003925 0.814354 0.139081
O O12 0.000000 0.000000 0.000000
O O13 0.000000 0.517175 0.750000
#
# Coordination Sequence:
#
# PCOD8246277 Si02
#       6
#     8   8   8   8   8   8
#     4  12  20  30  55  86 115 144 183 245 302 331
#     4  12  19  32  55  82 115 150 189 236 294 345
#     4  10  16  27  45  77 116 137 176 234 298 330
#     4  10  16  27  44  76 121 137 170 229 305 338
#     4  12  23  40  62  88 117 150 203 250 290 346
#     4  12  26  43  59  84 122 166 201 244 299 358
#
# _framework density 19.245574000000001
#
# number of rings (size 3 to 8) (size 9 to 14) (size 15 to 20)
#    0.000    0.667   10.000    2.000    0.000    0.000 
#    0.000    0.000    0.000    0.000    0.000    7.000 
#    0.000    0.000    0.000    0.000    0.000    0.000 
#
# Total GULP energy -595108.466331 kJ/mol
# GULP energy per Si atom -12398.093049 kJ/mol
# Density = 1.920177 g / cm^3
# Si number density = 19.245574 Si / 1000 Ang^3
#
#
#
# Elastic Constant Matrix: (Units=GPa)
#
#
# Indices 1 2 3 4 5 6 
#
# 1 173.6159 1.4298 19.2958 0.0000 0.0000 0.0000
# 2 1.4298 132.4713 0.1239 0.0000 0.0000 0.0000
# 3 19.2958 0.1239 37.2714 0.0000 0.0000 0.0000
# 4 0.0000 0.0000 0.0000 17.5535 0.0000 0.0000
# 5 0.0000 0.0000 0.0000 0.0000 11.2490 0.0000
# 6 0.0000 0.0000 0.0000 0.0000 0.0000 65.5841
#
#
#
# Elastic Compliance Matrix: (Units=1/GPa)
#
#
# Indices 1 2 3 4 5 6 
#
# 1 0.006112 -0.000063 -0.003164 0.000000 0.000000 0.000000
# 2 -0.000063 0.007549 0.000008 0.000000 0.000000 0.000000
# 3 -0.003164 0.000008 0.028468 0.000000 0.000000 0.000000
# 4 0.000000 0.000000 0.000000 0.056969 0.000000 0.000000
# 5 0.000000 0.000000 0.000000 0.000000 0.088897 0.000000
# 6 0.000000 0.000000 0.000000 0.000000 0.000000 0.015248
#
#
# Mechanical properties :
#
#
# Convention : Reuss Voigt Hill
#
# Bulk Modulus (GPa) = 28.01848 42.78417 35.40133
# Shear Modulus (GPa) = 22.56535 40.37792 31.47164
#
# Velocity S-wave (km/s) = 3.42789 4.58540 4.04823
# Velocity P-wave (km/s) = 5.50066 7.09320 6.34707
#
# Compressibility (1/GPa) = 0.03569073
#
# Stress axis : x y z
#
# Youngs Moduli (GPa) = 163.61217 132.45944 35.12681
#
# Poissons Ratio (x) = 0.00835 0.11114
# Poissons Ratio (y) = 0.01031 -0.00026
# Poissons Ratio (z) = 0.51768 -0.00100
#
# Static dielectric constant tensor:
#      x y z
#    x 3.920780 0.000000 0.000000 
#    y 0.000000 4.908760 0.000000 
#    z 0.000000 0.000000 2.976780 
# 
# 
# High freq. dielectric constant tensor:
#      x y z
#    x 1.772380 0.000000 0.000000 
#    y 0.000000 1.790310 0.000000 
#    z 0.000000 0.000000 1.663350 
# 
# From -- ./inp_files/18045.got.cif
#   From: 2010.03.12/outbox.cif.g09.slc.cpg/sg60_10_cif.got.tgz:18045.got - 2010.04.10 18:46:24.
