data_PCOD8246066
_publ_section_title
;
Structure prediction by ZEFSAII (Michael W. Deem and Ramdas Pophale) SiO2 
 PCOD8246066
Probable space group: P M M N
;
_chemical_formula_sum "Si O2"
_cell_formula_units_Z 48
_cell_length_a 9.861345
_cell_length_b 8.849968
_cell_length_c 29.421789
_cell_angle_alpha 90.000000
_cell_angle_beta 90.000000
_cell_angle_gamma 90.000000
_cell_volume 2567.715660
_symmetry_space_group_name_H-M "P M M N"
_symmetry_group_IT_number 59
_space_group.IT_coordinate_system_code '2'
_symmetry_cell_setting 'orthorhombic'
loop_
_space_group_symop_operation_xyz
x,y,z
1/2-x,1/2-y,z
1/2+x,-y,-z
-x,1/2+y,-z
-x,-y,-z
1/2+x,1/2+y,-z
1/2-x,y,z
x,1/2-y,z
loop_
_atom_site_type_symbol
_atom_site_label
_atom_site_fract_x
_atom_site_fract_y
_atom_site_fract_z
Si Si1 0.411393 0.925124 0.265658
Si Si2 0.250000 0.070910 0.965847
Si Si3 0.093573 0.927858 0.462390
Si Si4 0.902783 0.076608 0.192616
Si Si5 0.750000 0.928950 0.932011
Si Si6 0.981448 0.928427 0.100862
Si Si7 0.101297 0.928643 0.364142
O O1 0.250000 0.952810 0.261970
O O2 0.444627 0.750000 0.255719
O O3 0.468055 0.974320 0.316111
O O4 0.489141 0.028882 0.230276
O O5 0.250000 0.250000 0.966724
O O6 0.383275 0.014019 0.939455
O O7 0.250000 0.003721 0.016713
O O8 0.250000 0.981411 0.467644
O O9 0.085404 0.750000 0.468320
O O10 0.033079 0.976803 0.412296
O O11 0.000000 0.000000 0.500000
O O12 0.750000 0.056419 0.211654
O O13 0.930947 0.250000 0.179108
O O14 0.916902 0.971568 0.148757
O O15 0.750000 0.750000 0.933206
O O16 0.622227 0.986841 0.904342
O O17 0.004439 0.750000 0.098968
O O18 0.250000 0.002364 0.364314
O O19 0.117274 0.750000 0.363792
#
# Coordination Sequence:
#
# PCOD8246066 Si02
#       7
#     8   4   8   8   4   8   8
#     4   9  18  34  59  85 104 130 175 227 273 320
#     4   9  20  39  63  87 113 145 185 225 264 311
#     4   9  17  30  49  73 103 139 178 220 266 316
#     4  11  24  40  56  78 110 147 180 216 271 329
#     4  11  23  39  59  89 121 145 175 223 274 317
#     4  11  22  40  62  85 111 146 187 225 262 313
#     4   7  12  27  50  74 100 132 173 220 266 313
#
# _framework density 18.693659
#
# number of rings (size 3 to 8) (size 9 to 14) (size 15 to 20)
#    0.000    2.500    0.833    3.750    1.167    1.667 
#    0.000    4.167    0.000    8.000    0.000    0.000 
#    0.000    0.000    0.000    0.000    0.000    0.000 
#
# Total GULP energy -594774.610067 kJ/mol
# GULP energy per Si atom -12391.137710 kJ/mol
# Density = 1.865111 g / cm^3
# Si number density = 18.693659 Si / 1000 Ang^3
#
#
#
# Elastic Constant Matrix: (Units=GPa)
#
#
# Indices 1 2 3 4 5 6 
#
# 1 85.9571 30.0372 34.7279 0.0000 0.0000 0.0000
# 2 30.0372 51.1926 28.3769 0.0000 0.0000 0.0000
# 3 34.7279 28.3769 116.6696 0.0000 0.0000 0.0000
# 4 0.0000 0.0000 0.0000 26.6968 0.0000 0.0000
# 5 0.0000 0.0000 0.0000 0.0000 31.1845 0.0000
# 6 0.0000 0.0000 0.0000 0.0000 0.0000 22.4619
#
#
#
# Elastic Compliance Matrix: (Units=1/GPa)
#
#
# Indices 1 2 3 4 5 6 
#
# 1 0.015362 -0.007489 -0.002751 0.000000 0.000000 0.000000
# 2 -0.007489 0.026229 -0.004150 0.000000 0.000000 0.000000
# 3 -0.002751 -0.004150 0.010400 0.000000 0.000000 0.000000
# 4 0.000000 0.000000 0.000000 0.037458 0.000000 0.000000
# 5 0.000000 0.000000 0.000000 0.000000 0.032067 0.000000
# 6 0.000000 0.000000 0.000000 0.000000 0.000000 0.044520
#
#
# Mechanical properties :
#
#
# Convention : Reuss Voigt Hill
#
# Bulk Modulus (GPa) = 43.08519 48.90034 45.99276
# Shear Modulus (GPa) = 24.68499 26.78046 25.73273
#
# Velocity S-wave (km/s) = 3.63781 3.78907 3.71421
# Velocity P-wave (km/s) = 6.38302 6.73486 6.56130
#
# Compressibility (1/GPa) = 0.02320983
#
# Stress axis : x y z
#
# Youngs Moduli (GPa) = 65.09520 38.12629 96.15725
#
# Poissons Ratio (x) = 0.28551 0.26455
# Poissons Ratio (y) = 0.48747 0.39909
# Poissons Ratio (z) = 0.17909 0.15824
#
# Static dielectric constant tensor:
#      x y z
#    x 3.358990 0.000000 0.000000 
#    y 0.000000 3.172150 0.000000 
#    z 0.000000 0.000000 4.543780 
# 
# 
# High freq. dielectric constant tensor:
#      x y z
#    x 1.707880 0.000000 0.000000 
#    y 0.000000 1.702620 0.000000 
#    z 0.000000 0.000000 1.744100 
# 
# From -- ./inp_files/32991.got.cif
#   From: 2010.03.12/outbox.cif.g09.slc.cpg/sg59_17_cif.got.tgz:32991.got - 2010.04.16 16:29:54.
