data_PCOD8246928
_publ_section_title
;
Structure prediction by ZEFSAII (Michael W. Deem and Ramdas Pophale) SiO2 
 PCOD8246928
Probable space group: P B C N
;
_chemical_formula_sum "Si O2"
_cell_formula_units_Z 48
_cell_length_a 8.828723
_cell_length_b 24.844841
_cell_length_c 10.241407
_cell_angle_alpha 90.000000
_cell_angle_beta 90.000000
_cell_angle_gamma 90.000000
_cell_volume 2246.434387
_symmetry_space_group_name_H-M "P B C N"
_symmetry_group_IT_number 60
_symmetry_cell_setting 'orthorhombic'
loop_
_space_group_symop_operation_xyz
x,y,z
1/2-x,1/2-y,1/2+z
1/2+x,1/2-y,-z
-x,y,1/2-z
-x,-y,-z
1/2+x,1/2+y,1/2-z
1/2-x,1/2+y,z
x,-y,1/2+z
loop_
_atom_site_type_symbol
_atom_site_label
_atom_site_fract_x
_atom_site_fract_y
_atom_site_fract_z
Si Si1 0.922145 0.090443 0.528108
Si Si2 0.750483 0.101258 0.918734
Si Si3 0.339221 0.704747 0.904615
Si Si4 0.000000 0.552754 0.750000
Si Si5 0.740211 0.990748 0.612667
Si Si6 0.000000 0.060973 0.250000
Si Si7 0.807853 0.780929 0.390552
O O1 0.819874 0.140241 0.576896
O O2 0.831107 0.034813 0.528288
O O3 0.978179 0.098463 0.377974
O O4 0.074046 0.088065 0.618765
O O5 0.637734 0.089379 0.799854
O O6 0.737601 0.164513 0.951899
O O7 0.700867 0.064071 0.037971
O O8 0.513427 0.720707 0.909349
O O9 0.267819 0.722251 0.764770
O O10 0.257749 0.731528 0.028001
O O11 0.075275 0.513299 0.854677
O O12 0.849083 0.976040 0.734660
#
# Coordination Sequence:
#
# PCOD8246928 Si02
#       7
#     8   8   8   4   8   4   8
#     4  10  21  39  62  88 118 160 210 253 295 359
#     4  10  22  38  58  85 119 155 198 244 297 358
#     4  10  23  41  64  90 122 156 202 254 304 362
#     4  12  22  34  55  86 123 160 192 242 312 368
#     4  11  21  36  57  88 123 159 201 248 300 363
#     4  10  20  36  61  88 115 160 208 254 300 354
#     4  10  23  43  63  90 120 158 203 253 305 361
#
# _framework density 21.367191999999999
#
# number of rings (size 3 to 8) (size 9 to 14) (size 15 to 20)
#    0.000    1.667    0.000    5.500    0.000   10.000 
#    0.000    1.667    0.000    0.000    0.000    0.000 
#    0.000    0.000    0.000    0.000    0.000    0.000 
#
# Total GULP energy -594973.873873 kJ/mol
# GULP energy per Si atom -12395.289039 kJ/mol
# Density = 2.131856 g / cm^3
# Si number density = 21.367192 Si / 1000 Ang^3
#
#
#
# Elastic Constant Matrix: (Units=GPa)
#
#
# Indices 1 2 3 4 5 6 
#
# 1 73.4032 47.4948 48.9939 0.0000 0.0000 0.0000
# 2 47.4948 104.5404 44.8555 0.0000 0.0000 0.0000
# 3 48.9939 44.8555 103.2447 0.0000 0.0000 0.0000
# 4 0.0000 0.0000 0.0000 32.5734 0.0000 0.0000
# 5 0.0000 0.0000 0.0000 0.0000 34.9733 0.0000
# 6 0.0000 0.0000 0.0000 0.0000 0.0000 36.6324
#
#
#
# Elastic Compliance Matrix: (Units=1/GPa)
#
#
# Indices 1 2 3 4 5 6 
#
# 1 0.023766 -0.007323 -0.008096 0.000000 0.000000 0.000000
# 2 -0.007323 0.014014 -0.002613 0.000000 0.000000 0.000000
# 3 -0.008096 -0.002613 0.014663 0.000000 0.000000 0.000000
# 4 0.000000 0.000000 0.000000 0.030700 0.000000 0.000000
# 5 0.000000 0.000000 0.000000 0.000000 0.028593 0.000000
# 6 0.000000 0.000000 0.000000 0.000000 0.000000 0.027298
#
#
# Mechanical properties :
#
#
# Convention : Reuss Voigt Hill
#
# Bulk Modulus (GPa) = 61.06020 62.65296 61.85658
# Shear Modulus (GPa) = 27.69172 30.15874 28.92523
#
# Velocity S-wave (km/s) = 3.60389 3.76100 3.68329
# Velocity P-wave (km/s) = 6.77909 6.94593 6.86302
#
# Compressibility (1/GPa) = 0.01637728
#
# Stress axis : x y z
#
# Youngs Moduli (GPa) = 42.07715 71.35632 68.19860
#
# Poissons Ratio (x) = 0.52258 0.55215
# Poissons Ratio (y) = 0.30815 0.17822
# Poissons Ratio (z) = 0.34066 0.18647
#
# Static dielectric constant tensor:
#      x y z
#    x 3.888300 0.000000 0.000000 
#    y 0.000000 3.786450 0.000000 
#    z 0.000000 0.000000 3.793470 
# 
# 
# High freq. dielectric constant tensor:
#      x y z
#    x 1.833420 0.000000 0.000000 
#    y 0.000000 1.832140 0.000000 
#    z 0.000000 0.000000 1.835690 
# 
# From -- ./inp_files/10151.got.cif
#   From: 2010.03.12/outbox.cif.g09.slc.cpg/sg60_6_cif.got.tgz:10151.got - 2010.04.10 18:46:24.
