data_PCOD8246441
_publ_section_title
;
Structure prediction by ZEFSAII (Michael W. Deem and Ramdas Pophale) SiO2 
 PCOD8246441
Probable space group: P B C N
;
_chemical_formula_sum "Si O2"
_cell_formula_units_Z 56
_cell_length_a 15.687268
_cell_length_b 12.137303
_cell_length_c 14.725237
_cell_angle_alpha 90.000000
_cell_angle_beta 90.000000
_cell_angle_gamma 90.000000
_cell_volume 2803.701690
_symmetry_space_group_name_H-M "P B C N"
_symmetry_group_IT_number 60
_symmetry_cell_setting 'orthorhombic'
loop_
_space_group_symop_operation_xyz
x,y,z
1/2-x,1/2-y,1/2+z
1/2+x,1/2-y,-z
-x,y,1/2-z
-x,-y,-z
1/2+x,1/2+y,1/2-z
1/2-x,1/2+y,z
x,-y,1/2+z
loop_
_atom_site_type_symbol
_atom_site_label
_atom_site_fract_x
_atom_site_fract_y
_atom_site_fract_z
Si Si1 0.474130 0.966729 0.100101
Si Si2 0.900182 0.845553 0.257513
Si Si3 0.156708 0.511175 0.868202
Si Si4 0.320190 0.388859 0.432161
Si Si5 0.164422 0.662238 0.527503
Si Si6 0.807111 0.976500 0.403501
Si Si7 0.833977 0.609152 0.311548
O O1 0.414799 0.857819 0.096786
O O2 0.562083 0.940556 0.153364
O O3 0.422613 0.068053 0.144862
O O4 0.500000 0.000000 0.000000
O O5 0.876074 0.888982 0.158027
O O6 0.846718 0.737052 0.286060
O O7 0.000000 0.819180 0.250000
O O8 0.879396 0.942966 0.330278
O O9 0.220602 0.605901 0.902799
O O10 0.192740 0.459666 0.776730
O O11 0.151087 0.416081 0.941910
O O12 0.336413 0.284679 0.494099
O O13 0.347030 0.490939 0.498109
O O14 0.250056 0.632807 0.582177
O O15 0.747015 0.082302 0.376487
#
# Coordination Sequence:
#
# PCOD8246441 Si02
#       7
#     8   8   8   8   8   8   8
#     4   9  19  32  57  92 126 149 194 263 317 363
#     4  12  25  40  67  93 121 169 217 258 311 377
#     4  10  18  34  61  90 120 158 200 259 316 363
#     4  11  22  40  62  87 127 166 207 257 307 386
#     4   9  19  37  58  89 123 156 202 249 315 371
#     4  10  23  41  62  90 128 166 202 257 316 374
#     4  11  20  38  65  95 124 157 211 262 310 383
#
# _framework density 19.973595
#
# number of rings (size 3 to 8) (size 9 to 14) (size 15 to 20)
#    0.000    1.714    2.857    3.000    2.000    0.571 
#    0.000    0.000    3.143    0.000    0.000    0.000 
#    0.000    0.000    0.000    0.000    0.000    0.000 
#
# Total GULP energy -694002.436241 kJ/mol
# GULP energy per Si atom -12392.900647 kJ/mol
# Density = 1.992813 g / cm^3
# Si number density = 19.973595 Si / 1000 Ang^3
#
#
#
# Elastic Constant Matrix: (Units=GPa)
#
#
# Indices 1 2 3 4 5 6 
#
# 1 51.8591 33.3246 29.1291 0.0000 0.0000 0.0000
# 2 33.3246 72.0615 34.5815 0.0000 0.0000 0.0000
# 3 29.1291 34.5815 99.8325 0.0000 0.0000 0.0000
# 4 0.0000 0.0000 0.0000 32.8046 0.0000 0.0000
# 5 0.0000 0.0000 0.0000 0.0000 28.4061 0.0000
# 6 0.0000 0.0000 0.0000 0.0000 0.0000 9.2778
#
#
#
# Elastic Compliance Matrix: (Units=1/GPa)
#
#
# Indices 1 2 3 4 5 6 
#
# 1 0.029091 -0.011250 -0.004591 0.000000 0.000000 0.000000
# 2 -0.011250 0.020994 -0.003990 0.000000 0.000000 0.000000
# 3 -0.004591 -0.003990 0.012738 0.000000 0.000000 0.000000
# 4 0.000000 0.000000 0.000000 0.030484 0.000000 0.000000
# 5 0.000000 0.000000 0.000000 0.000000 0.035204 0.000000
# 6 0.000000 0.000000 0.000000 0.000000 0.000000 0.107784
#
#
# Mechanical properties :
#
#
# Convention : Reuss Voigt Hill
#
# Bulk Modulus (GPa) = 43.17439 46.42483 44.79961
# Shear Modulus (GPa) = 17.62567 22.54555 20.08561
#
# Velocity S-wave (km/s) = 2.97383 3.36336 3.17457
# Velocity P-wave (km/s) = 5.78396 6.19487 5.99294
#
# Compressibility (1/GPa) = 0.02316188
#
# Stress axis : x y z
#
# Youngs Moduli (GPa) = 34.37493 47.63238 78.50225
#
# Poissons Ratio (x) = 0.53585 0.36043
# Poissons Ratio (y) = 0.38671 0.31321
# Poissons Ratio (z) = 0.15783 0.19005
#
# Static dielectric constant tensor:
#      x y z
#    x 4.116140 0.000000 0.000000 
#    y 0.000000 3.271970 0.000000 
#    z 0.000000 0.000000 3.970480 
# 
# 
# High freq. dielectric constant tensor:
#      x y z
#    x 1.771140 0.000000 0.000000 
#    y 0.000000 1.747780 0.000000 
#    z 0.000000 0.000000 1.801050 
# 
# From -- ./inp_files/16859.got.cif
#   From: 2010.03.12/outbox.cif.g09.slc.cpg/sg60_9_cif.got.tgz:16859.got - 2010.04.10 18:46:24.
