data_PCOD8246786
_publ_section_title
;
Structure prediction by ZEFSAII (Michael W. Deem and Ramdas Pophale) SiO2 
 PCOD8246786
Probable space group: P B C N
;
_chemical_formula_sum "Si O2"
_cell_formula_units_Z 48
_cell_length_a 9.714878
_cell_length_b 12.831224
_cell_length_c 17.661551
_cell_angle_alpha 90.000000
_cell_angle_beta 90.000000
_cell_angle_gamma 90.000000
_cell_volume 2201.579018
_symmetry_space_group_name_H-M "P B C N"
_symmetry_group_IT_number 60
_symmetry_cell_setting 'orthorhombic'
loop_
_space_group_symop_operation_xyz
x,y,z
1/2-x,1/2-y,1/2+z
1/2+x,1/2-y,-z
-x,y,1/2-z
-x,-y,-z
1/2+x,1/2+y,1/2-z
1/2-x,1/2+y,z
x,-y,1/2+z
loop_
_atom_site_type_symbol
_atom_site_label
_atom_site_fract_x
_atom_site_fract_y
_atom_site_fract_z
Si Si1 0.257497 0.295942 0.226584
Si Si2 0.531218 0.619479 0.418262
Si Si3 0.356340 0.041494 0.835140
Si Si4 0.500000 0.856022 0.750000
Si Si5 0.725423 0.515907 0.011026
Si Si6 0.500000 0.343606 0.750000
Si Si7 0.397412 0.150331 0.591840
O O1 0.252957 0.400104 0.279470
O O2 0.393125 0.226835 0.216411
O O3 0.135412 0.224998 0.258589
O O4 0.240156 0.331914 0.140224
O O5 0.398820 0.590665 0.466816
O O6 0.670292 0.564874 0.448238
O O7 0.512240 0.590747 0.328633
O O8 0.542932 0.741045 0.436694
O O9 0.496901 0.103677 0.847135
O O10 0.408195 0.927761 0.806468
O O11 0.278832 0.040916 0.914745
O O12 0.857726 0.577307 0.978307
#
# Coordination Sequence:
#
# PCOD8246786 Si02
#       7
#     8   8   8   4   8   4   8
#     4  11  23  45  72 105 137 189 242 310 348 432
#     4  10  24  44  67 101 134 185 233 288 357 430
#     4  12  24  47  69 103 143 187 246 302 359 437
#     4  12  27  42  81 108 136 190 253 294 375 428
#     4  11  27  41  68 104 143 181 237 291 365 434
#     4  10  19  44  75  86 140 186 227 290 365 398
#     4  11  24  43  68  94 141 187 228 289 365 421
#
# _framework density 21.802533
#
# number of rings (size 3 to 8) (size 9 to 14) (size 15 to 20)
#    0.000    1.000    5.000    1.500    7.000    5.333 
#    0.000    0.833    0.000    0.000    0.000    0.000 
#    0.000    0.000    0.000    0.000    0.000    0.000 
#
# Total GULP energy -594766.620577 kJ/mol
# GULP energy per Si atom -12390.971262 kJ/mol
# Density = 2.175291 g / cm^3
# Si number density = 21.802533 Si / 1000 Ang^3
#
#
#
# Elastic Constant Matrix: (Units=GPa)
#
#
# Indices 1 2 3 4 5 6 
#
# 1 54.9105 21.4467 2.6352 0.0000 0.0000 0.0000
# 2 21.4467 83.4006 14.6764 0.0000 0.0000 0.0000
# 3 2.6352 14.6764 84.9056 0.0000 0.0000 0.0000
# 4 0.0000 0.0000 0.0000 37.3586 0.0000 0.0000
# 5 0.0000 0.0000 0.0000 0.0000 23.0968 0.0000
# 6 0.0000 0.0000 0.0000 0.0000 0.0000 39.0471
#
#
#
# Elastic Compliance Matrix: (Units=1/GPa)
#
#
# Indices 1 2 3 4 5 6 
#
# 1 0.020251 -0.005257 0.000280 0.000000 0.000000 0.000000
# 2 -0.005257 0.013731 -0.002210 0.000000 0.000000 0.000000
# 3 0.000280 -0.002210 0.012151 0.000000 0.000000 0.000000
# 4 0.000000 0.000000 0.000000 0.026768 0.000000 0.000000
# 5 0.000000 0.000000 0.000000 0.000000 0.043296 0.000000
# 6 0.000000 0.000000 0.000000 0.000000 0.000000 0.025610
#
#
# Mechanical properties :
#
#
# Convention : Reuss Voigt Hill
#
# Bulk Modulus (GPa) = 31.48688 33.41480 32.45084
# Shear Modulus (GPa) = 29.98176 32.19772 31.08974
#
# Velocity S-wave (km/s) = 3.71232 3.84707 3.78030
# Velocity P-wave (km/s) = 5.73135 5.92390 5.82842
#
# Compressibility (1/GPa) = 0.03175926
#
# Stress axis : x y z
#
# Youngs Moduli (GPa) = 49.37966 72.82722 82.29665
#
# Poissons Ratio (x) = 0.38285 -0.02306
# Poissons Ratio (y) = 0.25959 0.18190
# Poissons Ratio (z) = -0.01383 0.16097
#
# Static dielectric constant tensor:
#      x y z
#    x 4.075670 0.000000 0.000000 
#    y 0.000000 4.031840 0.000000 
#    z 0.000000 0.000000 3.926170 
# 
# 
# High freq. dielectric constant tensor:
#      x y z
#    x 1.859710 0.000000 0.000000 
#    y 0.000000 1.857260 0.000000 
#    z 0.000000 0.000000 1.859880 
# 
# From -- ./inp_files/19348.got.cif
#   From: 2010.03.12/outbox.cif.g09.slc.cpg/sg60_10_cif.got.tgz:19348.got - 2010.04.10 18:46:24.
