data_PCOD8246108
_publ_section_title
;
Structure prediction by ZEFSAII (Michael W. Deem and Ramdas Pophale) SiO2 
 PCOD8246108
Probable space group: P M M N
;
_chemical_formula_sum "Si O2"
_cell_formula_units_Z 48
_cell_length_a 8.906913
_cell_length_b 8.966723
_cell_length_c 31.279918
_cell_angle_alpha 90.000000
_cell_angle_beta 90.000000
_cell_angle_gamma 90.000000
_cell_volume 2498.196352
_symmetry_space_group_name_H-M "P M M N"
_symmetry_group_IT_number 59
_space_group.IT_coordinate_system_code '2'
_symmetry_cell_setting 'orthorhombic'
loop_
_space_group_symop_operation_xyz
x,y,z
1/2-x,1/2-y,z
1/2+x,-y,-z
-x,1/2+y,-z
-x,-y,-z
1/2+x,1/2+y,-z
1/2-x,y,z
x,1/2-y,z
loop_
_atom_site_type_symbol
_atom_site_label
_atom_site_fract_x
_atom_site_fract_y
_atom_site_fract_z
Si Si1 0.078551 0.427948 0.617591
Si Si2 0.927164 0.587680 0.290176
Si Si3 0.926334 0.580479 0.539757
Si Si4 0.926975 0.921120 0.040159
Si Si5 0.924322 0.576154 0.880449
Si Si6 0.577615 0.927914 0.197593
O O1 0.250000 0.473121 0.606987
O O2 0.061681 0.250000 0.616689
O O3 0.029262 0.491919 0.664839
O O4 0.968855 0.500407 0.583604
O O5 0.750000 0.610777 0.290690
O O6 0.004854 0.750000 0.289912
O O7 0.968823 0.508648 0.245052
O O8 0.750000 0.572196 0.533575
O O9 0.983689 0.750000 0.541165
O O10 0.000000 0.500000 0.500000
O O11 0.750000 0.935284 0.035880
O O12 0.978930 0.750000 0.041030
O O13 0.977814 0.998139 0.083514
O O14 0.000000 0.000000 0.000000
O O15 0.750000 0.546763 0.889759
O O16 0.962465 0.750000 0.880354
O O17 0.966576 0.507262 0.834960
O O18 0.750000 0.969663 0.186784
O O19 0.556992 0.750000 0.195592
#
# Coordination Sequence:
#
# PCOD8246108 Si02
#       6
#     8   8   8   8   8   8
#     4   9  17  32  56  83 108 136 172 214 261 313
#     4   7  12  26  50  79 108 136 170 215 262 309
#     4  11  24  39  54  75 103 135 172 214 261 313
#     4  11  24  41  62  88 114 141 177 220 266 318
#     4  11  24  39  54  77 111 149 187 225 267 316
#     4   9  17  32  56  83 108 138 180 226 269 314
#
# _framework density 19.213863
#
# number of rings (size 3 to 8) (size 9 to 14) (size 15 to 20)
#    0.000    2.333    0.000    5.000    0.000   10.667 
#    0.000    1.667    0.000    8.000    0.000    0.000 
#    0.000    0.000    0.000    0.000    0.000    0.000 
#
# Total GULP energy -594900.368119 kJ/mol
# GULP energy per Si atom -12393.757669 kJ/mol
# Density = 1.917013 g / cm^3
# Si number density = 19.213863 Si / 1000 Ang^3
#
#
#
# Elastic Constant Matrix: (Units=GPa)
#
#
# Indices 1 2 3 4 5 6 
#
# 1 44.1447 33.0266 31.3442 0.0000 0.0000 0.0000
# 2 33.0266 81.9240 53.6900 0.0000 0.0000 0.0000
# 3 31.3442 53.6900 166.3752 0.0000 0.0000 0.0000
# 4 0.0000 0.0000 0.0000 23.2239 0.0000 0.0000
# 5 0.0000 0.0000 0.0000 0.0000 35.1201 0.0000
# 6 0.0000 0.0000 0.0000 0.0000 0.0000 28.4910
#
#
#
# Elastic Compliance Matrix: (Units=1/GPa)
#
#
# Indices 1 2 3 4 5 6 
#
# 1 0.033208 -0.011778 -0.002455 0.000000 0.000000 0.000000
# 2 -0.011778 0.019658 -0.004125 0.000000 0.000000 0.000000
# 3 -0.002455 -0.004125 0.007804 0.000000 0.000000 0.000000
# 4 0.000000 0.000000 0.000000 0.043059 0.000000 0.000000
# 5 0.000000 0.000000 0.000000 0.000000 0.028474 0.000000
# 6 0.000000 0.000000 0.000000 0.000000 0.000000 0.035099
#
#
# Mechanical properties :
#
#
# Convention : Reuss Voigt Hill
#
# Bulk Modulus (GPa) = 41.74770 58.72949 50.23860
# Shear Modulus (GPa) = 23.58465 28.99256 26.28860
#
# Velocity S-wave (km/s) = 3.50734 3.88872 3.70295
# Velocity P-wave (km/s) = 6.17876 7.12709 6.66980
#
# Compressibility (1/GPa) = 0.02395341
#
# Stress axis : x y z
#
# Youngs Moduli (GPa) = 30.11335 50.87027 128.13703
#
# Poissons Ratio (x) = 0.59916 0.31462
# Poissons Ratio (y) = 0.35468 0.52853
# Poissons Ratio (z) = 0.07394 0.20983
#
# Static dielectric constant tensor:
#      x y z
#    x 3.333590 0.000000 0.000000 
#    y 0.000000 3.421190 0.000000 
#    z 0.000000 0.000000 4.280440 
# 
# 
# High freq. dielectric constant tensor:
#      x y z
#    x 1.729100 0.000000 0.000000 
#    y 0.000000 1.727370 0.000000 
#    z 0.000000 0.000000 1.776020 
# 
# From -- ./inp_files/32883.got.cif
#   From: 2010.03.12/outbox.cif.g09.slc.cpg/sg59_17_cif.got.tgz:32883.got - 2010.04.16 16:29:54.
