data_PCOD8246726
_publ_section_title
;
Structure prediction by ZEFSAII (Michael W. Deem and Ramdas Pophale) SiO2 
 PCOD8246726
Probable space group: P B C N
;
_chemical_formula_sum "Si O2"
_cell_formula_units_Z 48
_cell_length_a 26.631774
_cell_length_b 5.827044
_cell_length_c 12.105674
_cell_angle_alpha 90.000000
_cell_angle_beta 90.000000
_cell_angle_gamma 90.000000
_cell_volume 1878.613196
_symmetry_space_group_name_H-M "P B C N"
_symmetry_group_IT_number 60
_symmetry_cell_setting 'orthorhombic'
loop_
_space_group_symop_operation_xyz
x,y,z
1/2-x,1/2-y,1/2+z
1/2+x,1/2-y,-z
-x,y,1/2-z
-x,-y,-z
1/2+x,1/2+y,1/2-z
1/2-x,1/2+y,z
x,-y,1/2+z
loop_
_atom_site_type_symbol
_atom_site_label
_atom_site_fract_x
_atom_site_fract_y
_atom_site_fract_z
Si Si1 0.875721 0.249983 0.137802
Si Si2 0.377617 0.038709 0.163070
Si Si3 0.268069 0.614747 0.369643
Si Si4 0.232479 0.619077 0.114659
Si Si5 0.942378 0.570829 0.011896
Si Si6 0.942920 0.116485 0.721758
O O1 0.856817 0.452008 0.219007
O O2 0.828057 0.089495 0.112014
O O3 0.906238 0.348777 0.034083
O O4 0.917261 0.126100 0.211246
O O5 0.327446 0.112822 0.098886
O O6 0.415486 0.249638 0.180795
O O7 0.413655 0.849135 0.100132
O O8 0.246018 0.372425 0.421766
O O9 0.252830 0.627987 0.240518
O O10 0.252857 0.373733 0.060731
O O11 0.937409 0.759669 0.104246
O O12 0.000000 0.500000 0.000000
O O13 0.000000 0.075502 0.750000
#
# Coordination Sequence:
#
# PCOD8246726 Si02
#       6
#     8   8   8   8   8   8
#     4  11  25  40  70 101 132 189 234 290 364 428
#     4  11  23  43  69  94 139 182 229 287 361 430
#     4  10  19  38  69 100 137 178 232 291 353 426
#     4  10  19  37  67 100 134 180 231 283 351 427
#     4  11  26  46  62 100 142 180 234 302 352 430
#     4  11  24  42  70  97 131 181 238 291 362 423
#
# _framework density 25.550761999999999
#
# number of rings (size 3 to 8) (size 9 to 14) (size 15 to 20)
#    0.000    1.333    5.000    2.000    4.667    2.000 
#    0.000    1.667    0.000    0.000    0.000    0.000 
#    0.000    0.000    0.000    0.000    0.000    0.000 
#
# Total GULP energy -594814.847986 kJ/mol
# GULP energy per Si atom -12391.976000 kJ/mol
# Density = 2.549261 g / cm^3
# Si number density = 25.550762 Si / 1000 Ang^3
#
#
#
# Elastic Constant Matrix: (Units=GPa)
#
#
# Indices 1 2 3 4 5 6 
#
# 1 209.6271 48.6209 19.3035 0.0000 0.0000 0.0000
# 2 48.6209 136.2759 45.6109 0.0000 0.0000 0.0000
# 3 19.3035 45.6109 59.5440 0.0000 0.0000 0.0000
# 4 0.0000 0.0000 0.0000 29.3676 0.0000 0.0000
# 5 0.0000 0.0000 0.0000 0.0000 43.1777 0.0000
# 6 0.0000 0.0000 0.0000 0.0000 0.0000 33.9671
#
#
#
# Elastic Compliance Matrix: (Units=1/GPa)
#
#
# Indices 1 2 3 4 5 6 
#
# 1 0.005206 -0.001738 -0.000356 0.000000 0.000000 0.000000
# 2 -0.001738 0.010448 -0.007440 0.000000 0.000000 0.000000
# 3 -0.000356 -0.007440 0.022609 0.000000 0.000000 0.000000
# 4 0.000000 0.000000 0.000000 0.034051 0.000000 0.000000
# 5 0.000000 0.000000 0.000000 0.000000 0.023160 0.000000
# 6 0.000000 0.000000 0.000000 0.000000 0.000000 0.029440
#
#
# Mechanical properties :
#
#
# Convention : Reuss Voigt Hill
#
# Bulk Modulus (GPa) = 52.09830 70.27972 61.18901
# Shear Modulus (GPa) = 33.24857 40.76324 37.00590
#
# Velocity S-wave (km/s) = 3.61123 3.99856 3.80982
# Velocity P-wave (km/s) = 6.14999 6.99168 6.58430
#
# Compressibility (1/GPa) = 0.01919449
#
# Stress axis : x y z
#
# Youngs Moduli (GPa) = 192.07256 95.70876 44.23044
#
# Poissons Ratio (x) = 0.16637 0.01576
# Poissons Ratio (y) = 0.33388 0.32907
# Poissons Ratio (z) = 0.06844 0.71207
#
# Static dielectric constant tensor:
#      x y z
#    x 4.589670 0.000000 0.000000 
#    y 0.000000 4.877400 0.000000 
#    z 0.000000 0.000000 5.081400 
# 
# 
# High freq. dielectric constant tensor:
#      x y z
#    x 2.030950 0.000000 0.000000 
#    y 0.000000 2.019630 0.000000 
#    z 0.000000 0.000000 2.062770 
# 
# From -- ./inp_files/18055.got.cif
#   From: 2010.03.12/outbox.cif.g09.slc.cpg/sg60_10_cif.got.tgz:18055.got - 2010.04.10 18:46:24.
