data_PCOD8246095
_publ_section_title
;
Structure prediction by ZEFSAII (Michael W. Deem and Ramdas Pophale) SiO2 
 PCOD8246095
Probable space group: P M M N
;
_chemical_formula_sum "Si O2"
_cell_formula_units_Z 48
_cell_length_a 15.624375
_cell_length_b 9.024462
_cell_length_c 17.205739
_cell_angle_alpha 90.000000
_cell_angle_beta 90.000000
_cell_angle_gamma 90.000000
_cell_volume 2426.036358
_symmetry_space_group_name_H-M "P M M N"
_symmetry_group_IT_number 59
_space_group.IT_coordinate_system_code '2'
_symmetry_cell_setting 'orthorhombic'
loop_
_space_group_symop_operation_xyz
x,y,z
1/2-x,1/2-y,z
1/2+x,-y,-z
-x,1/2+y,-z
-x,-y,-z
1/2+x,1/2+y,-z
1/2-x,y,z
x,1/2-y,z
loop_
_atom_site_type_symbol
_atom_site_label
_atom_site_fract_x
_atom_site_fract_y
_atom_site_fract_z
Si Si1 0.150642 0.424198 0.820637
Si Si2 0.349416 0.089173 0.647924
Si Si3 0.996680 0.073151 0.083395
Si Si4 0.589463 0.076970 0.497216
Si Si5 0.348527 0.089024 0.357949
Si Si6 0.153558 0.073920 0.188593
O O1 0.250000 0.470423 0.833909
O O2 0.139354 0.250000 0.837937
O O3 0.118479 0.461562 0.732833
O O4 0.090498 0.519670 0.876196
O O5 0.250000 0.114438 0.656583
O O6 0.390389 0.250000 0.624641
O O7 0.366087 0.966297 0.583285
O O8 0.995116 0.250000 0.077115
O O9 0.082377 0.016498 0.128044
O O10 0.000000 0.000000 0.000000
O O11 0.579812 0.250000 0.499873
O O12 0.500000 0.000000 0.500000
O O13 0.640996 0.026565 0.572766
O O14 0.250000 0.120208 0.345922
O O15 0.392378 0.250000 0.377284
O O16 0.379974 0.024104 0.274823
O O17 0.250000 0.011653 0.169415
O O18 0.157478 0.250000 0.187121
#
# Coordination Sequence:
#
# PCOD8246095 Si02
#       6
#     8   8   8   8   8   8
#     4   9  20  40  64  88 118 157 197 241 299 359
#     4   9  19  38  61  83 111 150 192 235 290 350
#     4  11  23  38  60  91 122 155 197 243 294 353
#     4  12  25  36  50  78 115 153 194 238 285 336
#     4   9  18  36  60  82 108 144 186 235 291 346
#     4   8  17  36  61  86 113 150 194 237 287 350
#
# _framework density 19.785359
#
# number of rings (size 3 to 8) (size 9 to 14) (size 15 to 20)
#    0.000    2.333    0.000    4.500    2.333    4.333 
#    0.000    4.167    0.000    3.500    0.000    0.000 
#    0.000    0.000    0.000    0.000    0.000    0.000 
#
# Total GULP energy -594827.850718 kJ/mol
# GULP energy per Si atom -12392.246890 kJ/mol
# Density = 1.974033 g / cm^3
# Si number density = 19.785359 Si / 1000 Ang^3
#
#
#
# Elastic Constant Matrix: (Units=GPa)
#
#
# Indices 1 2 3 4 5 6 
#
# 1 85.1089 34.9505 61.1008 0.0000 0.0000 0.0000
# 2 34.9505 102.7676 67.6173 0.0000 0.0000 0.0000
# 3 61.1008 67.6173 167.5622 0.0000 0.0000 0.0000
# 4 0.0000 0.0000 0.0000 17.7497 0.0000 0.0000
# 5 0.0000 0.0000 0.0000 0.0000 35.6805 0.0000
# 6 0.0000 0.0000 0.0000 0.0000 0.0000 28.0324
#
#
#
# Elastic Compliance Matrix: (Units=1/GPa)
#
#
# Indices 1 2 3 4 5 6 
#
# 1 0.016280 -0.002220 -0.005040 0.000000 0.000000 0.000000
# 2 -0.002220 0.013551 -0.004659 0.000000 0.000000 0.000000
# 3 -0.005040 -0.004659 0.009686 0.000000 0.000000 0.000000
# 4 0.000000 0.000000 0.000000 0.056339 0.000000 0.000000
# 5 0.000000 0.000000 0.000000 0.000000 0.028027 0.000000
# 6 0.000000 0.000000 0.000000 0.000000 0.000000 0.035673
#
#
# Mechanical properties :
#
#
# Convention : Reuss Voigt Hill
#
# Bulk Modulus (GPa) = 63.78350 75.86399 69.82374
# Shear Modulus (GPa) = 26.50826 29.07719 27.79273
#
# Velocity S-wave (km/s) = 3.66429 3.83774 3.75201
# Velocity P-wave (km/s) = 7.08593 7.62000 7.35781
#
# Compressibility (1/GPa) = 0.01567804
#
# Stress axis : x y z
#
# Youngs Moduli (GPa) = 61.42484 73.79501 103.24301
#
# Poissons Ratio (x) = 0.16384 0.52040
# Poissons Ratio (y) = 0.13638 0.48098
# Poissons Ratio (z) = 0.30961 0.34379
#
# Static dielectric constant tensor:
#      x y z
#    x 3.677260 0.000000 0.000000 
#    y 0.000000 3.313500 0.000000 
#    z 0.000000 0.000000 3.482060 
# 
# 
# High freq. dielectric constant tensor:
#      x y z
#    x 1.770390 0.000000 0.000000 
#    y 0.000000 1.750480 0.000000 
#    z 0.000000 0.000000 1.780410 
# 
# From -- ./inp_files/25466.got.cif
#   From: 2010.03.12/outbox.cif.g09.slc.cpg/sg59_13_cif.got.tgz:25466.got - 2010.04.16 16:29:54.
