data_PCOD8246444
_publ_section_title
;
Structure prediction by ZEFSAII (Michael W. Deem and Ramdas Pophale) SiO2 
 PCOD8246444
Probable space group: P B C N
;
_chemical_formula_sum "Si O2"
_cell_formula_units_Z 64
_cell_length_a 11.052519
_cell_length_b 30.186806
_cell_length_c 9.305638
_cell_angle_alpha 90.000000
_cell_angle_beta 90.000000
_cell_angle_gamma 90.000000
_cell_volume 3104.735360
_symmetry_space_group_name_H-M "P B C N"
_symmetry_group_IT_number 60
_symmetry_cell_setting 'orthorhombic'
loop_
_space_group_symop_operation_xyz
x,y,z
1/2-x,1/2-y,1/2+z
1/2+x,1/2-y,-z
-x,y,1/2-z
-x,-y,-z
1/2+x,1/2+y,1/2-z
1/2-x,1/2+y,z
x,-y,1/2+z
loop_
_atom_site_type_symbol
_atom_site_label
_atom_site_fract_x
_atom_site_fract_y
_atom_site_fract_z
Si Si1 0.408671 0.362798 0.136939
Si Si2 0.242437 0.202756 0.073238
Si Si3 0.364839 0.730485 0.774534
Si Si4 0.081998 0.635285 0.964420
Si Si5 0.723924 0.944116 0.956976
Si Si6 0.634515 0.013564 0.750488
Si Si7 0.845790 0.607635 0.847836
Si Si8 0.923291 0.877247 0.886280
O O1 0.500000 0.386369 0.250000
O O2 0.359083 0.317307 0.201551
O O3 0.292130 0.392099 0.099460
O O4 0.481568 0.354937 0.993073
O O5 0.266823 0.238540 0.196671
O O6 0.168993 0.162660 0.147632
O O7 0.170187 0.225964 0.942293
O O8 0.371352 0.182646 0.020246
O O9 0.500000 0.749999 0.750000
O O10 0.145899 0.627604 0.811043
O O11 0.935936 0.635068 0.952551
O O12 0.123514 0.594345 0.064630
O O13 0.855118 0.919753 0.956362
O O14 0.721700 0.977349 0.822428
O O15 0.697101 0.972418 0.100941
O O16 0.500000 0.992329 0.750000
O O17 0.614836 0.056557 0.851118
O O18 0.000000 0.893279 0.750000
#
# Coordination Sequence:
#
# PCOD8246444 Si02
#       8
#     8   8   8   8   8   8   8   8
#     4  11  20  42  67  87 125 174 217 264 317 401
#     4  11  23  43  66  93 134 166 216 280 323 390
#     4  11  24  41  65  99 130 165 220 268 330 391
#     4   9  18  38  57  92 129 159 202 267 317 391
#     4  10  22  41  63  95 130 166 217 269 324 399
#     4  11  20  36  66  97 130 165 209 272 341 386
#     4  10  18  34  65  93 118 165 218 251 324 391
#     4  11  25  47  66  90 132 182 221 265 331 390
#
# _framework density 20.613672999999999
#
# number of rings (size 3 to 8) (size 9 to 14) (size 15 to 20)
#    0.000    1.500    6.250    1.875    1.750    2.000 
#    0.000    4.375    0.000    0.000    0.000    0.000 
#    0.000    0.000    0.000    0.000    0.000    0.000 
#
# Total GULP energy -793286.090699 kJ/mol
# GULP energy per Si atom -12395.095167 kJ/mol
# Density = 2.056676 g / cm^3
# Si number density = 20.613673 Si / 1000 Ang^3
#
#
#
# Elastic Constant Matrix: (Units=GPa)
#
#
# Indices 1 2 3 4 5 6 
#
# 1 131.7437 33.7600 37.8563 0.0000 0.0000 0.0000
# 2 33.7600 61.2321 35.7872 0.0000 0.0000 0.0000
# 3 37.8563 35.7872 77.3659 0.0000 0.0000 0.0000
# 4 0.0000 0.0000 0.0000 28.3388 0.0000 0.0000
# 5 0.0000 0.0000 0.0000 0.0000 33.8715 0.0000
# 6 0.0000 0.0000 0.0000 0.0000 0.0000 19.6374
#
#
#
# Elastic Compliance Matrix: (Units=1/GPa)
#
#
# Indices 1 2 3 4 5 6 
#
# 1 0.009319 -0.003389 -0.002992 0.000000 0.000000 0.000000
# 2 -0.003389 0.023615 -0.009265 0.000000 0.000000 0.000000
# 3 -0.002992 -0.009265 0.018675 0.000000 0.000000 0.000000
# 4 0.000000 0.000000 0.000000 0.035287 0.000000 0.000000
# 5 0.000000 0.000000 0.000000 0.000000 0.029523 0.000000
# 6 0.000000 0.000000 0.000000 0.000000 0.000000 0.050923
#
#
# Mechanical properties :
#
#
# Convention : Reuss Voigt Hill
#
# Bulk Modulus (GPa) = 49.22157 53.90542 51.56350
# Shear Modulus (GPa) = 24.34179 27.23209 25.78694
#
# Velocity S-wave (km/s) = 3.44009 3.63859 3.54073
# Velocity P-wave (km/s) = 6.30150 6.62266 6.46407
#
# Compressibility (1/GPa) = 0.02031630
#
# Stress axis : x y z
#
# Youngs Moduli (GPa) = 107.31053 42.34608 53.54611
#
# Poissons Ratio (x) = 0.14352 0.16022
# Poissons Ratio (y) = 0.36369 0.49612
# Poissons Ratio (z) = 0.32108 0.39235
#
# Static dielectric constant tensor:
#      x y z
#    x 3.836000 0.000000 0.000000 
#    y 0.000000 3.609860 0.000000 
#    z 0.000000 0.000000 3.772160 
# 
# 
# High freq. dielectric constant tensor:
#      x y z
#    x 1.810390 0.000000 0.000000 
#    y 0.000000 1.793870 0.000000 
#    z 0.000000 0.000000 1.786350 
# 
# From -- ./inp_files/5338.got.cif
#   From: 2010.03.12/outbox.cif.g09.slc.cpg/sg60_3_cif.got.tgz:5338.got - 2010.04.10 18:46:24.
