data_PCOD8246450
_publ_section_title
;
Structure prediction by ZEFSAII (Michael W. Deem and Ramdas Pophale) SiO2 
 PCOD8246450
Probable space group: P B C N
;
_chemical_formula_sum "Si O2"
_cell_formula_units_Z 48
_cell_length_a 9.324737
_cell_length_b 14.904273
_cell_length_c 17.110058
_cell_angle_alpha 90.000000
_cell_angle_beta 90.000000
_cell_angle_gamma 90.000000
_cell_volume 2377.928928
_symmetry_space_group_name_H-M "P B C N"
_symmetry_group_IT_number 60
_symmetry_cell_setting 'orthorhombic'
loop_
_space_group_symop_operation_xyz
x,y,z
1/2-x,1/2-y,1/2+z
1/2+x,1/2-y,-z
-x,y,1/2-z
-x,-y,-z
1/2+x,1/2+y,1/2-z
1/2-x,1/2+y,z
x,-y,1/2+z
loop_
_atom_site_type_symbol
_atom_site_label
_atom_site_fract_x
_atom_site_fract_y
_atom_site_fract_z
Si Si1 0.853263 0.375676 0.183680
Si Si2 0.614402 0.538991 0.605762
Si Si3 0.309441 0.459350 0.048020
Si Si4 0.000000 0.067402 0.250000
Si Si5 0.000000 0.543399 0.250000
Si Si6 0.748780 0.872562 0.846957
Si Si7 0.153103 0.683339 0.645088
O O1 0.720978 0.377522 0.123324
O O2 0.910340 0.478303 0.192549
O O3 0.794680 0.344327 0.268185
O O4 0.978631 0.311506 0.148895
O O5 0.693777 0.470471 0.545679
O O6 0.467676 0.577074 0.569729
O O7 0.581539 0.492900 0.687467
O O8 0.279329 0.556697 0.085075
O O9 0.191771 0.390785 0.079920
O O10 0.120668 0.130082 0.213991
O O11 0.899970 0.607588 0.302756
O O12 0.761180 0.772310 0.882032
#
# Coordination Sequence:
#
# PCOD8246450 Si02
#       7
#     8   8   8   4   4   8   8
#     4  10  18  38  58  86 108 153 203 238 286 354
#     4  10  20  35  64  79 114 157 195 242 299 355
#     4  10  21  38  56  84 118 154 192 240 308 353
#     4  10  18  35  61  86 106 154 206 233 293 346
#     4  10  18  35  59  84 112 148 198 241 283 350
#     4  11  20  37  58  86 119 153 191 247 293 351
#     4  10  21  36  59  84 119 150 194 246 290 349
#
# _framework density 20.185631999999998
#
# number of rings (size 3 to 8) (size 9 to 14) (size 15 to 20)
#    0.000    2.000    5.000    2.000    0.000    2.000 
#    0.000    6.667    0.000    0.000    0.000    0.000 
#    0.000    0.000    0.000    0.000    0.000    0.000 
#
# Total GULP energy -594912.803763 kJ/mol
# GULP energy per Si atom -12394.016745 kJ/mol
# Density = 2.013969 g / cm^3
# Si number density = 20.185632 Si / 1000 Ang^3
#
#
#
# Elastic Constant Matrix: (Units=GPa)
#
#
# Indices 1 2 3 4 5 6 
#
# 1 82.9302 28.6573 32.0001 0.0000 0.0000 0.0000
# 2 28.6573 100.8526 26.4663 0.0000 0.0000 0.0000
# 3 32.0001 26.4663 86.6927 0.0000 0.0000 0.0000
# 4 0.0000 0.0000 0.0000 -38.0912 0.0000 0.0000
# 5 0.0000 0.0000 0.0000 0.0000 29.8166 0.0000
# 6 0.0000 0.0000 0.0000 0.0000 0.0000 17.9572
#
#
#
# Elastic Compliance Matrix: (Units=1/GPa)
#
#
# Indices 1 2 3 4 5 6 
#
# 1 0.014865 -0.003026 -0.004563 0.000000 0.000000 0.000000
# 2 -0.003026 0.011395 -0.002362 0.000000 0.000000 0.000000
# 3 -0.004563 -0.002362 0.013940 0.000000 0.000000 0.000000
# 4 0.000000 0.000000 0.000000 -0.026253 0.000000 0.000000
# 5 0.000000 0.000000 0.000000 0.000000 0.033538 0.000000
# 6 0.000000 0.000000 0.000000 0.000000 0.000000 0.055688
#
#
# Mechanical properties :
#
#
# Convention : Reuss Voigt Hill
#
# Bulk Modulus (GPa) = 49.26571 49.41367 49.33969
# Shear Modulus (GPa) = 38.50828 14.15996 26.33412
#
# Velocity S-wave (km/s) = 4.37247 2.65143 3.61584
# Velocity P-wave (km/s) = 7.06758 5.82291 6.47522
#
# Compressibility (1/GPa) = 0.02029810
#
# Stress axis : x y z
#
# Youngs Moduli (GPa) = 67.27278 87.75634 71.73447
#
# Poissons Ratio (x) = 0.26559 0.32733
# Poissons Ratio (y) = 0.20360 0.16942
# Poissons Ratio (z) = 0.30697 0.20725
#
# Static dielectric constant tensor:
#      x y z
#    x 3.863450 0.000000 0.000000 
#    y 0.000000 3.366990 0.000000 
#    z 0.000000 0.000000 3.618970 
# 
# 
# High freq. dielectric constant tensor:
#      x y z
#    x 1.794780 0.000000 0.000000 
#    y 0.000000 1.757400 0.000000 
#    z 0.000000 0.000000 1.775720 
# 
# From -- ./inp_files/22090.got.cif
#   From: 2010.03.12/outbox.cif.g09.slc.cpg/sg60_12_cif.got.tgz:22090.got - 2010.04.10 18:46:24.
