data_PCOD8246998
_publ_section_title
;
Structure prediction by ZEFSAII (Michael W. Deem and Ramdas Pophale) SiO2 
 PCOD8246998
Probable space group: P B C N
;
_chemical_formula_sum "Si O2"
_cell_formula_units_Z 32
_cell_length_a 9.504855
_cell_length_b 17.664853
_cell_length_c 8.530327
_cell_angle_alpha 90.000000
_cell_angle_beta 90.000000
_cell_angle_gamma 90.000000
_cell_volume 1432.257824
_symmetry_space_group_name_H-M "P B C N"
_symmetry_group_IT_number 60
_symmetry_cell_setting 'orthorhombic'
loop_
_space_group_symop_operation_xyz
x,y,z
1/2-x,1/2-y,1/2+z
1/2+x,1/2-y,-z
-x,y,1/2-z
-x,-y,-z
1/2+x,1/2+y,1/2-z
1/2-x,1/2+y,z
x,-y,1/2+z
loop_
_atom_site_type_symbol
_atom_site_label
_atom_site_fract_x
_atom_site_fract_y
_atom_site_fract_z
Si Si1 0.872429 0.750453 0.366212
Si Si2 0.152492 0.165618 0.323545
Si Si3 0.865311 0.460129 0.641681
Si Si4 0.453229 0.883914 0.410998
O O1 0.852139 0.818526 0.489289
O O2 0.734340 0.735180 0.261192
O O3 0.899004 0.675133 0.464762
O O4 0.000000 0.769948 0.250000
O O5 0.229969 0.085257 0.294960
O O6 0.000000 0.158047 0.250000
O O7 0.835951 0.550352 0.624529
O O8 0.000000 0.443504 0.750000
O O9 0.906520 0.426675 0.471773
O O10 0.500000 0.842351 0.250000
#
# Coordination Sequence:
#
# PCOD8246998 Si02
#       4
#     8   8   8   8
#     4  12  24  45  66  94 131 173 222 264 323 400
#     4  12  25  40  64  97 135 170 209 274 332 381
#     4  10  20  42  68  95 128 168 225 264 314 386
#     4  10  20  37  74  97 117 171 226 268 305 383
#
# _framework density 22.342345000000002
#
# number of rings (size 3 to 8) (size 9 to 14) (size 15 to 20)
#    0.000    1.000    5.000    2.250    3.500    0.000 
#    0.000    1.250    0.000    1.500    0.000    0.000 
#    0.000    0.000    0.000    0.000    0.000    0.000 
#
# Total GULP energy -396658.036946 kJ/mol
# GULP energy per Si atom -12395.563655 kJ/mol
# Density = 2.229149 g / cm^3
# Si number density = 22.342345 Si / 1000 Ang^3
#
#
#
# Elastic Constant Matrix: (Units=GPa)
#
#
# Indices 1 2 3 4 5 6 
#
# 1 124.3168 23.5985 34.1469 0.0000 0.0000 0.0000
# 2 23.5985 68.6148 10.7120 0.0000 0.0000 0.0000
# 3 34.1469 10.7120 127.2069 0.0000 0.0000 0.0000
# 4 0.0000 0.0000 0.0000 34.9024 0.0000 0.0000
# 5 0.0000 0.0000 0.0000 0.0000 31.0252 0.0000
# 6 0.0000 0.0000 0.0000 0.0000 0.0000 12.2446
#
#
#
# Elastic Compliance Matrix: (Units=1/GPa)
#
#
# Indices 1 2 3 4 5 6 
#
# 1 0.009190 -0.002813 -0.002230 0.000000 0.000000 0.000000
# 2 -0.002813 0.015629 -0.000561 0.000000 0.000000 0.000000
# 3 -0.002230 -0.000561 0.008507 0.000000 0.000000 0.000000
# 4 0.000000 0.000000 0.000000 0.028651 0.000000 0.000000
# 5 0.000000 0.000000 0.000000 0.000000 0.032232 0.000000
# 6 0.000000 0.000000 0.000000 0.000000 0.000000 0.081668
#
#
# Mechanical properties :
#
#
# Convention : Reuss Voigt Hill
#
# Bulk Modulus (GPa) = 45.21054 50.78371 47.99713
# Shear Modulus (GPa) = 25.71237 32.41320 29.06279
#
# Velocity S-wave (km/s) = 3.39608 3.81301 3.61056
# Velocity P-wave (km/s) = 5.97135 6.49342 6.23785
#
# Compressibility (1/GPa) = 0.02211873
#
# Stress axis : x y z
#
# Youngs Moduli (GPa) = 108.80837 63.98329 117.54858
#
# Poissons Ratio (x) = 0.17996 0.26216
# Poissons Ratio (y) = 0.30604 0.06595
# Poissons Ratio (z) = 0.24266 0.03590
#
# Static dielectric constant tensor:
#      x y z
#    x 3.718550 0.000000 0.000000 
#    y 0.000000 4.164040 0.000000 
#    z 0.000000 0.000000 4.725290 
# 
# 
# High freq. dielectric constant tensor:
#      x y z
#    x 1.842820 0.000000 0.000000 
#    y 0.000000 1.872350 0.000000 
#    z 0.000000 0.000000 1.910430 
# 
# From -- ./inp_files/3552.got.cif
#   From: 2010.03.12/outbox.cif.g09.slc.cpg/sg60_2_cif.got.tgz:3552.got - 2010.04.10 18:46:24.
