data_PCOD8246342
_publ_section_title
;
Structure prediction by ZEFSAII (Michael W. Deem and Ramdas Pophale) SiO2 
 PCOD8246342
Probable space group: P B C N
;
_chemical_formula_sum "Si O2"
_cell_formula_units_Z 48
_cell_length_a 9.208962
_cell_length_b 13.708168
_cell_length_c 17.904305
_cell_angle_alpha 90.000000
_cell_angle_beta 90.000000
_cell_angle_gamma 90.000000
_cell_volume 2260.203622
_symmetry_space_group_name_H-M "P B C N"
_symmetry_group_IT_number 60
_symmetry_cell_setting 'orthorhombic'
loop_
_space_group_symop_operation_xyz
x,y,z
1/2-x,1/2-y,1/2+z
1/2+x,1/2-y,-z
-x,y,1/2-z
-x,-y,-z
1/2+x,1/2+y,1/2-z
1/2-x,1/2+y,z
x,-y,1/2+z
loop_
_atom_site_type_symbol
_atom_site_label
_atom_site_fract_x
_atom_site_fract_y
_atom_site_fract_z
Si Si1 0.163659 0.997195 0.530853
Si Si2 0.943238 0.197767 0.435082
Si Si3 0.740393 0.335788 0.353856
Si Si4 0.153083 0.081979 0.790763
Si Si5 0.266534 0.591511 0.387756
Si Si6 0.048066 0.756628 0.393745
O O1 0.181323 0.887178 0.562138
O O2 0.188216 0.072320 0.597389
O O3 0.266903 0.025773 0.461480
O O4 0.000000 0.000000 0.500000
O O5 0.886912 0.286594 0.384040
O O6 0.970491 0.237628 0.517645
O O7 0.094168 0.160515 0.400985
O O8 0.765902 0.371603 0.268970
O O9 0.610462 0.256292 0.355754
O O10 0.140416 0.151444 0.862993
O O11 0.000000 0.067868 0.750000
O O12 0.209855 0.976747 0.816305
O O13 0.126578 0.656766 0.370883
#
# Coordination Sequence:
#
# PCOD8246342 Si02
#       6
#     8   8   8   8   8   8
#     4  10  17  34  60  84 112 159 200 234 283 369
#     4  11  19  36  62  92 117 157 206 251 292 361
#     4  11  22  38  60  91 124 150 206 260 298 349
#     4  10  22  38  58  85 119 162 199 246 295 369
#     4  11  21  36  64  87 118 157 207 241 299 368
#     4  11  19  36  60  89 119 159 200 246 305 356
#
# _framework density 21.237024000000002
#
# number of rings (size 3 to 8) (size 9 to 14) (size 15 to 20)
#    0.000    1.333    6.667    3.000    0.000    2.667 
#    0.000    2.500    0.000    4.000    0.000    0.000 
#    0.000    0.000    0.000    0.000    0.000    0.000 
#
# Total GULP energy -595111.181335 kJ/mol
# GULP energy per Si atom -12398.149611 kJ/mol
# Density = 2.118869 g / cm^3
# Si number density = 21.237024 Si / 1000 Ang^3
#
#
#
# Elastic Constant Matrix: (Units=GPa)
#
#
# Indices 1 2 3 4 5 6 
#
# 1 30.0005 16.7876 29.5807 0.0000 0.0000 0.0000
# 2 16.7876 72.2922 37.0959 0.0000 0.0000 0.0000
# 3 29.5807 37.0959 121.4160 0.0000 0.0000 0.0000
# 4 0.0000 0.0000 0.0000 44.0986 0.0000 0.0000
# 5 0.0000 0.0000 0.0000 0.0000 21.2489 0.0000
# 6 0.0000 0.0000 0.0000 0.0000 0.0000 32.0213
#
#
#
# Elastic Compliance Matrix: (Units=1/GPa)
#
#
# Indices 1 2 3 4 5 6 
#
# 1 0.045854 -0.005830 -0.009390 0.000000 0.000000 0.000000
# 2 -0.005830 0.017146 -0.003818 0.000000 0.000000 0.000000
# 3 -0.009390 -0.003818 0.011690 0.000000 0.000000 0.000000
# 4 0.000000 0.000000 0.000000 0.022676 0.000000 0.000000
# 5 0.000000 0.000000 0.000000 0.000000 0.047061 0.000000
# 6 0.000000 0.000000 0.000000 0.000000 0.000000 0.031229
#
#
# Mechanical properties :
#
#
# Convention : Reuss Voigt Hill
#
# Bulk Modulus (GPa) = 27.31210 43.40410 35.35810
# Shear Modulus (GPa) = 22.12998 28.82339 25.47669
#
# Velocity S-wave (km/s) = 3.23158 3.68805 3.46733
# Velocity P-wave (km/s) = 5.17809 6.21433 5.71973
#
# Compressibility (1/GPa) = 0.03661381
#
# Stress axis : x y z
#
# Youngs Moduli (GPa) = 21.80847 58.32339 85.53963
#
# Poissons Ratio (x) = 0.34000 0.80324
# Poissons Ratio (y) = 0.12713 0.32661
# Poissons Ratio (z) = 0.20479 0.22269
#
# Static dielectric constant tensor:
#      x y z
#    x 3.472260 0.000000 0.000000 
#    y 0.000000 4.224450 0.000000 
#    z 0.000000 0.000000 4.011730 
# 
# 
# High freq. dielectric constant tensor:
#      x y z
#    x 1.789530 0.000000 0.000000 
#    y 0.000000 1.835710 0.000000 
#    z 0.000000 0.000000 1.837530 
# 
# From -- ./inp_files/19324.got.cif
#   From: 2010.03.12/outbox.cif.g09.slc.cpg/sg60_10_cif.got.tgz:19324.got - 2010.04.10 18:46:24.
