data_PCOD8246381
_publ_section_title
;
Structure prediction by ZEFSAII (Michael W. Deem and Ramdas Pophale) SiO2 
 PCOD8246381
Probable space group: P B C N
;
_chemical_formula_sum "Si O2"
_cell_formula_units_Z 24
_cell_length_a 13.502378
_cell_length_b 17.805207
_cell_length_c 4.983052
_cell_angle_alpha 90.000000
_cell_angle_beta 90.000000
_cell_angle_gamma 90.000000
_cell_volume 1197.988663
_symmetry_space_group_name_H-M "P B C N"
_symmetry_group_IT_number 60
_symmetry_cell_setting 'orthorhombic'
loop_
_space_group_symop_operation_xyz
x,y,z
1/2-x,1/2-y,1/2+z
1/2+x,1/2-y,-z
-x,y,1/2-z
-x,-y,-z
1/2+x,1/2+y,1/2-z
1/2-x,1/2+y,z
x,-y,1/2+z
loop_
_atom_site_type_symbol
_atom_site_label
_atom_site_fract_x
_atom_site_fract_y
_atom_site_fract_z
Si Si1 0.000000 0.077005 0.250000
Si Si2 0.793745 0.787069 0.052689
Si Si3 0.000000 0.825642 0.250000
Si Si4 0.790792 0.042042 0.397918
O O1 0.910237 0.028503 0.375227
O O2 0.042185 0.127151 0.496920
O O3 0.721925 0.766386 0.297727
O O4 0.907607 0.776360 0.144897
O O5 0.768095 0.871952 0.964145
O O6 0.744579 0.985740 0.618341
#
# Coordination Sequence:
#
# PCOD8246381 Si02
#       4
#     4   8   4   8
#     4  10  18  31  50  78 114 143 166 206 266 345
#     4  11  22  37  55  80 111 145 182 223 266 320
#     4  10  20  35  54  80 110 145 182 216 266 325
#     4  11  20  32  51  79 110 144 175 214 268 330
#
# _framework density 20.033580000000001
#
# number of rings (size 3 to 8) (size 9 to 14) (size 15 to 20)
#    0.000    1.333    0.000   11.000    0.000    1.333 
#    0.000    0.000    0.000    0.000    0.000   23.333 
#    0.000    0.000    0.000    0.000    0.000    0.000 
#
# Total GULP energy -297493.217505 kJ/mol
# GULP energy per Si atom -12395.550729 kJ/mol
# Density = 1.998798 g / cm^3
# Si number density = 20.033580 Si / 1000 Ang^3
#
#
#
# Elastic Constant Matrix: (Units=GPa)
#
#
# Indices 1 2 3 4 5 6 
#
# 1 41.7473 45.1517 33.8395 0.0000 0.0000 0.0000
# 2 45.1517 102.2980 68.6864 0.0000 0.0000 0.0000
# 3 33.8395 68.6864 180.3305 0.0000 0.0000 0.0000
# 4 0.0000 0.0000 0.0000 25.6846 0.0000 0.0000
# 5 0.0000 0.0000 0.0000 0.0000 29.8246 0.0000
# 6 0.0000 0.0000 0.0000 0.0000 0.0000 19.5445
#
#
#
# Elastic Compliance Matrix: (Units=1/GPa)
#
#
# Indices 1 2 3 4 5 6 
#
# 1 0.046028 -0.019504 -0.001208 0.000000 0.000000 0.000000
# 2 -0.019504 0.021399 -0.004491 0.000000 0.000000 0.000000
# 3 -0.001208 -0.004491 0.007483 0.000000 0.000000 0.000000
# 4 0.000000 0.000000 0.000000 0.038934 0.000000 0.000000
# 5 0.000000 0.000000 0.000000 0.000000 0.033529 0.000000
# 6 0.000000 0.000000 0.000000 0.000000 0.000000 0.051165
#
#
# Mechanical properties :
#
#
# Convention : Reuss Voigt Hill
#
# Bulk Modulus (GPa) = 40.81104 68.85902 54.83503
# Shear Modulus (GPa) = 19.44673 26.79062 23.11867
#
# Velocity S-wave (km/s) = 3.11900 3.66086 3.40074
# Velocity P-wave (km/s) = 5.77810 7.23295 6.54607
#
# Compressibility (1/GPa) = 0.02450317
#
# Stress axis : x y z
#
# Youngs Moduli (GPa) = 21.72597 46.73037 133.64319
#
# Poissons Ratio (x) = 0.91144 0.16147
# Poissons Ratio (y) = 0.42375 0.60017
# Poissons Ratio (z) = 0.02625 0.20986
#
# Static dielectric constant tensor:
#      x y z
#    x 3.188660 0.000000 0.000000 
#    y 0.000000 3.492550 0.000000 
#    z 0.000000 0.000000 4.296770 
# 
# 
# High freq. dielectric constant tensor:
#      x y z
#    x 1.715410 0.000000 0.000000 
#    y 0.000000 1.766100 0.000000 
#    z 0.000000 0.000000 1.831140 
# 
# From -- ./inp_files/557.got.cif
#   From: 2010.03.12/outbox.cif.g09.slc.cpg/sg60_1_cif.got.tgz:557.got - 2010.04.10 18:46:24.
