data_PCOD8246311
_publ_section_title
;
Structure prediction by ZEFSAII (Michael W. Deem and Ramdas Pophale) SiO2 
 PCOD8246311
Probable space group: P B C N
;
_chemical_formula_sum "Si O2"
_cell_formula_units_Z 64
_cell_length_a 25.235058
_cell_length_b 5.069313
_cell_length_c 30.161011
_cell_angle_alpha 90.000000
_cell_angle_beta 90.000000
_cell_angle_gamma 90.000000
_cell_volume 3858.329464
_symmetry_space_group_name_H-M "P B C N"
_symmetry_group_IT_number 60
_symmetry_cell_setting 'orthorhombic'
loop_
_space_group_symop_operation_xyz
x,y,z
1/2-x,1/2-y,1/2+z
1/2+x,1/2-y,-z
-x,y,1/2-z
-x,-y,-z
1/2+x,1/2+y,1/2-z
1/2-x,1/2+y,z
x,-y,1/2+z
loop_
_atom_site_type_symbol
_atom_site_label
_atom_site_fract_x
_atom_site_fract_y
_atom_site_fract_z
Si Si1 0.444355 0.533647 0.277347
Si Si2 0.110527 0.520398 0.242445
Si Si3 0.285147 0.025855 0.093097
Si Si4 0.395429 0.973490 0.060449
Si Si5 0.716164 0.030276 0.805733
Si Si6 0.560900 0.044164 0.348232
Si Si7 0.462999 0.470382 0.041939
Si Si8 0.501038 0.543416 0.363034
O O1 0.500000 0.557009 0.250000
O O2 0.408074 0.303689 0.258596
O O3 0.452363 0.478059 0.330187
O O4 0.409418 0.799008 0.276439
O O5 0.172967 0.525951 0.232560
O O6 0.083215 0.435559 0.197014
O O7 0.260428 0.312066 0.084577
O O8 0.331614 0.988981 0.055751
O O9 0.306036 0.005353 0.144138
O O10 0.397618 0.998809 0.113187
O O11 0.429267 0.203133 0.037036
O O12 0.419193 0.699260 0.043576
O O13 0.764311 0.827993 0.798434
O O14 0.548062 0.354765 0.344812
O O15 0.510670 0.856170 0.358676
O O16 0.502972 0.470020 0.084613
O O17 0.500000 0.500000 0.000000
#
# Coordination Sequence:
#
# PCOD8246311 Si02
#       8
#     8   8   8   8   8   8   8   8
#     4  12  21  29  46  71 101 130 161 199 237 287
#     4  12  20  31  47  66  99 131 174 189 242 284
#     4  10  19  30  47  71  99 130 163 199 243 288
#     4  10  19  32  50  71 100 129 169 196 240 290
#     4  10  21  34  47  66  96 135 177 208 231 277
#     4  10  17  29  44  66  93 134 158 190 227 287
#     4  10  21  35  53  71  97 133 172 198 246 301
#     4  10  20  31  45  67  99 126 159 203 233 282
#
# _framework density 16.587488
#
# number of rings (size 3 to 8) (size 9 to 14) (size 15 to 20)
#    0.000    1.500    3.750    3.000    0.000    0.000 
#    0.000    0.000    0.000    0.000    0.000    0.000 
#    0.000   20.000    0.000    0.000    0.000    0.000 
#
# Total GULP energy -792972.179912 kJ/mol
# GULP energy per Si atom -12390.190311 kJ/mol
# Density = 1.654973 g / cm^3
# Si number density = 16.587488 Si / 1000 Ang^3
#
#
#
# Elastic Constant Matrix: (Units=GPa)
#
#
# Indices 1 2 3 4 5 6 
#
# 1 67.8077 8.4523 30.2532 0.0000 0.0000 0.0000
# 2 8.4523 71.7187 3.5652 0.0000 0.0000 0.0000
# 3 30.2532 3.5652 48.6397 0.0000 0.0000 0.0000
# 4 0.0000 0.0000 0.0000 14.2556 0.0000 0.0000
# 5 0.0000 0.0000 0.0000 0.0000 19.3118 0.0000
# 6 0.0000 0.0000 0.0000 0.0000 0.0000 12.9952
#
#
#
# Elastic Compliance Matrix: (Units=1/GPa)
#
#
# Indices 1 2 3 4 5 6 
#
# 1 0.020641 -0.001801 -0.012707 0.000000 0.000000 0.000000
# 2 -0.001801 0.014151 0.000083 0.000000 0.000000 0.000000
# 3 -0.012707 0.000083 0.028457 0.000000 0.000000 0.000000
# 4 0.000000 0.000000 0.000000 0.070148 0.000000 0.000000
# 5 0.000000 0.000000 0.000000 0.000000 0.051782 0.000000
# 6 0.000000 0.000000 0.000000 0.000000 0.000000 0.076951
#
#
# Mechanical properties :
#
#
# Convention : Reuss Voigt Hill
#
# Bulk Modulus (GPa) = 29.06973 30.30082 29.68527
# Shear Modulus (GPa) = 16.53187 19.03889 17.78538
#
# Velocity S-wave (km/s) = 3.16040 3.39157 3.27802
# Velocity P-wave (km/s) = 5.55703 5.80034 5.67999
#
# Compressibility (1/GPa) = 0.03440005
#
# Stress axis : x y z
#
# Youngs Moduli (GPa) = 48.44663 70.66393 35.14126
#
# Poissons Ratio (x) = 0.12726 0.44652
# Poissons Ratio (y) = 0.08725 -0.00291
# Poissons Ratio (z) = 0.61559 -0.00586
#
# Static dielectric constant tensor:
#      x y z
#    x 3.000040 0.000000 0.000000 
#    y 0.000000 3.358390 0.000000 
#    z 0.000000 0.000000 3.091400 
# 
# 
# High freq. dielectric constant tensor:
#      x y z
#    x 1.613310 0.000000 0.000000 
#    y 0.000000 1.663530 0.000000 
#    z 0.000000 0.000000 1.599720 
# 
# From -- ./inp_files/25506.got.cif
#   From: 2010.03.12/outbox.cif.g09.slc.cpg/sg60_13_cif.got.tgz:25506.got - 2010.04.10 18:46:24.
