data_PCOD8246303
_publ_section_title
;
Structure prediction by ZEFSAII (Michael W. Deem and Ramdas Pophale) SiO2 
 PCOD8246303
Probable space group: P B C N
;
_chemical_formula_sum "Si O2"
_cell_formula_units_Z 48
_cell_length_a 7.876549
_cell_length_b 22.298104
_cell_length_c 14.599761
_cell_angle_alpha 90.000000
_cell_angle_beta 90.000000
_cell_angle_gamma 90.000000
_cell_volume 2564.186812
_symmetry_space_group_name_H-M "P B C N"
_symmetry_group_IT_number 60
_symmetry_cell_setting 'orthorhombic'
loop_
_space_group_symop_operation_xyz
x,y,z
1/2-x,1/2-y,1/2+z
1/2+x,1/2-y,-z
-x,y,1/2-z
-x,-y,-z
1/2+x,1/2+y,1/2-z
1/2-x,1/2+y,z
x,-y,1/2+z
loop_
_atom_site_type_symbol
_atom_site_label
_atom_site_fract_x
_atom_site_fract_y
_atom_site_fract_z
Si Si1 0.023539 0.934555 0.037823
Si Si2 0.987888 0.190221 0.043145
Si Si3 0.282225 0.106661 0.842762
Si Si4 0.846414 0.603805 0.867041
Si Si5 0.223548 0.234132 0.614565
Si Si6 0.824736 0.737446 0.695751
O O1 0.881684 0.925042 0.115496
O O2 0.215931 0.934300 0.073423
O O3 0.006953 0.881976 0.961942
O O4 0.000000 0.000000 0.000000
O O5 0.850848 0.209128 0.122099
O O6 0.175293 0.211381 0.068713
O O7 0.945402 0.220711 0.944175
O O8 0.288297 0.092023 0.736174
O O9 0.459824 0.083150 0.887125
O O10 0.265561 0.178236 0.858399
O O11 0.837307 0.674128 0.891274
O O12 0.188070 0.251414 0.722065
O O13 0.000000 0.724089 0.750000
#
# Coordination Sequence:
#
# PCOD8246303 Si02
#       6
#     8   8   8   8   8   8
#     4  11  24  34  48  82 112 148 186 213 256 324
#     4  10  18  31  52  77 108 138 173 222 273 326
#     4  10  16  35  60  75 103 135 180 231 276 308
#     4   9  18  35  57  80 100 133 182 234 266 321
#     4   9  17  30  52  82 105 129 175 225 286 329
#     4   9  15  31  55  82 105 132 173 229 290 327
#
# _framework density 18.719386
#
# number of rings (size 3 to 8) (size 9 to 14) (size 15 to 20)
#    0.000    2.333    5.000    1.500    0.000    0.667 
#    0.000    7.500    0.000    0.000    0.000    0.000 
#    0.000    0.000    0.000    0.000    0.000    0.000 
#
# Total GULP energy -594730.463694 kJ/mol
# GULP energy per Si atom -12390.217994 kJ/mol
# Density = 1.867678 g / cm^3
# Si number density = 18.719386 Si / 1000 Ang^3
#
#
#
# Elastic Constant Matrix: (Units=GPa)
#
#
# Indices 1 2 3 4 5 6 
#
# 1 74.0708 36.1584 28.1892 0.0000 0.0000 0.0000
# 2 36.1584 117.0725 47.8265 0.0000 0.0000 0.0000
# 3 28.1892 47.8265 70.1845 0.0000 0.0000 0.0000
# 4 0.0000 0.0000 0.0000 21.8224 0.0000 0.0000
# 5 0.0000 0.0000 0.0000 0.0000 29.9193 0.0000
# 6 0.0000 0.0000 0.0000 0.0000 0.0000 19.1743
#
#
#
# Elastic Compliance Matrix: (Units=1/GPa)
#
#
# Indices 1 2 3 4 5 6 
#
# 1 0.016850 -0.003380 -0.004464 0.000000 0.000000 0.000000
# 2 -0.003380 0.012515 -0.007171 0.000000 0.000000 0.000000
# 3 -0.004464 -0.007171 0.020927 0.000000 0.000000 0.000000
# 4 0.000000 0.000000 0.000000 0.045824 0.000000 0.000000
# 5 0.000000 0.000000 0.000000 0.000000 0.033423 0.000000
# 6 0.000000 0.000000 0.000000 0.000000 0.000000 0.052153
#
#
# Mechanical properties :
#
#
# Convention : Reuss Voigt Hill
#
# Bulk Modulus (GPa) = 49.35304 53.96398 51.65851
# Shear Modulus (GPa) = 22.88572 24.12680 23.50626
#
# Velocity S-wave (km/s) = 3.50032 3.59397 3.54745
# Velocity P-wave (km/s) = 6.53898 6.79063 6.66599
#
# Compressibility (1/GPa) = 0.02026217
#
# Stress axis : x y z
#
# Youngs Moduli (GPa) = 59.34836 79.90341 47.78423
#
# Poissons Ratio (x) = 0.27011 0.21331
# Poissons Ratio (y) = 0.20063 0.34264
# Poissons Ratio (z) = 0.26493 0.57295
#
# Static dielectric constant tensor:
#      x y z
#    x 3.582730 0.000000 0.000000 
#    y 0.000000 3.048970 0.000000 
#    z 0.000000 0.000000 4.092550 
# 
# 
# High freq. dielectric constant tensor:
#      x y z
#    x 1.728820 0.000000 0.000000 
#    y 0.000000 1.678860 0.000000 
#    z 0.000000 0.000000 1.727150 
# 
# From -- ./inp_files/15153.got.cif
#   From: 2010.03.12/outbox.cif.g09.slc.cpg/sg60_8_cif.got.tgz:15153.got - 2010.04.10 18:46:24.
