data_PCOD8246897
_publ_section_title
;
Structure prediction by ZEFSAII (Michael W. Deem and Ramdas Pophale) SiO2 
 PCOD8246897
Probable space group: P B C N
;
_chemical_formula_sum "Si O2"
_cell_formula_units_Z 28
_cell_length_a 11.316564
_cell_length_b 27.355224
_cell_length_c 4.837171
_cell_angle_alpha 90.000000
_cell_angle_beta 90.000000
_cell_angle_gamma 90.000000
_cell_volume 1497.429207
_symmetry_space_group_name_H-M "P B C N"
_symmetry_group_IT_number 60
_symmetry_cell_setting 'orthorhombic'
loop_
_space_group_symop_operation_xyz
x,y,z
1/2-x,1/2-y,1/2+z
1/2+x,1/2-y,-z
-x,y,1/2-z
-x,-y,-z
1/2+x,1/2+y,1/2-z
1/2-x,1/2+y,z
x,-y,1/2+z
loop_
_atom_site_type_symbol
_atom_site_label
_atom_site_fract_x
_atom_site_fract_y
_atom_site_fract_z
Si Si1 0.774767 0.179386 0.318492
Si Si2 0.922848 0.729797 0.004151
Si Si3 0.500000 0.535943 0.750000
Si Si4 0.372322 0.629576 0.687128
O O1 0.837063 0.231735 0.355131
O O2 0.769583 0.153126 0.618319
O O3 0.649325 0.187458 0.167651
O O4 0.848706 0.142042 0.130771
O O5 0.000000 0.707380 0.750000
O O6 0.000000 0.754585 0.250000
O O7 0.500000 0.500000 0.500000
O O8 0.383169 0.570873 0.733522
O O9 0.500000 0.654102 0.750000
#
# Coordination Sequence:
#
# PCOD8246897 Si02
#       4
#     8   8   4   8
#     4  12  21  36  50  76 104 149 195 213 277 310
#     4  12  24  35  52  75 111 150 194 244 253 311
#     4  10  20  36  54  84 114 138 166 228 292 346
#     4  10  21  32  56  76 107 144 170 222 262 361
#
# _framework density 18.698713000000001
#
# number of rings (size 3 to 8) (size 9 to 14) (size 15 to 20)
#    0.857    0.000    0.000   12.000    0.000    0.000 
#    0.000    0.000    0.000    0.000    0.000    0.000 
#    0.000   80.000    0.000    0.000    0.000    0.000 
#
# Total GULP energy -346886.967223 kJ/mol
# GULP energy per Si atom -12388.820258 kJ/mol
# Density = 1.865615 g / cm^3
# Si number density = 18.698713 Si / 1000 Ang^3
#
#
#
# Elastic Constant Matrix: (Units=GPa)
#
#
# Indices 1 2 3 4 5 6 
#
# 1 59.9233 21.3769 27.8876 0.0000 0.0000 0.0000
# 2 21.3769 92.9798 29.3399 0.0000 0.0000 0.0000
# 3 27.8876 29.3399 123.8214 0.0000 0.0000 0.0000
# 4 0.0000 0.0000 0.0000 35.0406 0.0000 0.0000
# 5 0.0000 0.0000 0.0000 0.0000 45.9900 0.0000
# 6 0.0000 0.0000 0.0000 0.0000 0.0000 14.0162
#
#
#
# Elastic Compliance Matrix: (Units=1/GPa)
#
#
# Indices 1 2 3 4 5 6 
#
# 1 0.019567 -0.003359 -0.003611 0.000000 0.000000 0.000000
# 2 -0.003359 0.012201 -0.002134 0.000000 0.000000 0.000000
# 3 -0.003611 -0.002134 0.009395 0.000000 0.000000 0.000000
# 4 0.000000 0.000000 0.000000 0.028538 0.000000 0.000000
# 5 0.000000 0.000000 0.000000 0.000000 0.021744 0.000000
# 6 0.000000 0.000000 0.000000 0.000000 0.000000 0.071346
#
#
# Mechanical properties :
#
#
# Convention : Reuss Voigt Hill
#
# Bulk Modulus (GPa) = 43.56594 48.21482 45.89038
# Shear Modulus (GPa) = 26.50392 32.21736 29.36064
#
# Velocity S-wave (km/s) = 3.76895 4.15537 3.96687
# Velocity P-wave (km/s) = 6.50303 6.99027 6.75105
#
# Compressibility (1/GPa) = 0.02295371
#
# Stress axis : x y z
#
# Youngs Moduli (GPa) = 51.10688 81.96142 106.43729
#
# Poissons Ratio (x) = 0.27532 0.38434
# Poissons Ratio (y) = 0.17168 0.22719
# Poissons Ratio (z) = 0.18455 0.17494
#
# Static dielectric constant tensor:
#      x y z
#    x 3.343560 0.000000 0.000000 
#    y 0.000000 2.906860 0.000000 
#    z 0.000000 0.000000 3.690580 
# 
# 
# High freq. dielectric constant tensor:
#      x y z
#    x 1.693730 0.000000 0.000000 
#    y 0.000000 1.684830 0.000000 
#    z 0.000000 0.000000 1.764230 
# 
# From -- ./inp_files/684.got.cif
#   From: 2010.03.12/outbox.cif.g09.slc.cpg/sg60_1_cif.got.tgz:684.got - 2010.04.10 18:46:24.
