data_PCOD8246686
_publ_section_title
;
Structure prediction by ZEFSAII (Michael W. Deem and Ramdas Pophale) SiO2 
 PCOD8246686
Probable space group: P B C N
;
_chemical_formula_sum "Si O2"
_cell_formula_units_Z 60
_cell_length_a 15.505959
_cell_length_b 21.746388
_cell_length_c 8.751433
_cell_angle_alpha 90.000000
_cell_angle_beta 90.000000
_cell_angle_gamma 90.000000
_cell_volume 2950.970962
_symmetry_space_group_name_H-M "P B C N"
_symmetry_group_IT_number 60
_symmetry_cell_setting 'orthorhombic'
loop_
_space_group_symop_operation_xyz
x,y,z
1/2-x,1/2-y,1/2+z
1/2+x,1/2-y,-z
-x,y,1/2-z
-x,-y,-z
1/2+x,1/2+y,1/2-z
1/2-x,1/2+y,z
x,-y,1/2+z
loop_
_atom_site_type_symbol
_atom_site_label
_atom_site_fract_x
_atom_site_fract_y
_atom_site_fract_z
Si Si1 0.341312 0.247138 0.893932
Si Si2 0.138233 0.590708 0.632119
Si Si3 0.586272 0.630383 0.185407
Si Si4 0.500000 0.824360 0.250000
Si Si5 0.284825 0.684777 0.674373
Si Si6 0.084712 0.087453 0.653074
Si Si7 0.810076 0.965217 0.845894
Si Si8 0.808495 0.493819 0.103898
O O1 0.343321 0.316515 0.830301
O O2 0.433406 0.214689 0.856685
O O3 0.262001 0.210635 0.822773
O O4 0.314999 0.256805 0.071015
O O5 0.053442 0.633395 0.631030
O O6 0.220668 0.634495 0.595511
O O7 0.131590 0.536148 0.506085
O O8 0.140962 0.558104 0.799806
O O9 0.500000 0.661214 0.250000
O O10 0.616112 0.584216 0.318362
O O11 0.565621 0.595854 0.026682
O O12 0.372009 0.649150 0.721851
O O13 0.000000 0.072084 0.750000
O O14 0.152221 0.033084 0.669880
O O15 0.737482 0.957864 0.716103
O O16 0.764528 0.956688 0.008930
#
# Coordination Sequence:
#
# PCOD8246686 Si02
#       8
#     8   8   8   4   8   8   8   8
#     4  10  22  42  64  87 120 163 215 254 306 362
#     4  10  21  39  66  92 126 160 203 255 312 375
#     4  11  23  35  54  86 120 157 203 252 296 373
#     4  10  22  42  64  90 124 168 208 262 308 356
#     4  10  21  42  63  87 122 166 206 256 307 370
#     4  11  23  37  55  87 126 158 195 250 311 375
#     4  11  20  36  57  87 123 161 200 243 309 366
#     4  10  19  36  61  89 121 161 198 247 306 378
#
# _framework density 20.332291000000001
#
# number of rings (size 3 to 8) (size 9 to 14) (size 15 to 20)
#    0.000    1.600    4.667    1.200    1.867    4.800 
#    2.400    0.000    0.000    6.400    0.000    0.000 
#    0.000    0.000    0.000    0.000    0.000    0.000 
#
# Total GULP energy -743566.661728 kJ/mol
# GULP energy per Si atom -12392.777695 kJ/mol
# Density = 2.028601 g / cm^3
# Si number density = 20.332291 Si / 1000 Ang^3
#
#
#
# Elastic Constant Matrix: (Units=GPa)
#
#
# Indices 1 2 3 4 5 6 
#
# 1 70.6012 23.8598 27.6118 0.0000 0.0000 0.0000
# 2 23.8598 75.0717 36.0994 0.0000 0.0000 0.0000
# 3 27.6118 36.0994 66.9873 0.0000 0.0000 0.0000
# 4 0.0000 0.0000 0.0000 36.9085 0.0000 0.0000
# 5 0.0000 0.0000 0.0000 0.0000 23.7466 0.0000
# 6 0.0000 0.0000 0.0000 0.0000 0.0000 29.9251
#
#
#
# Elastic Compliance Matrix: (Units=1/GPa)
#
#
# Indices 1 2 3 4 5 6 
#
# 1 0.017310 -0.002795 -0.005629 0.000000 0.000000 0.000000
# 2 -0.002795 0.018431 -0.008780 0.000000 0.000000 0.000000
# 3 -0.005629 -0.008780 0.021980 0.000000 0.000000 0.000000
# 4 0.000000 0.000000 0.000000 0.027094 0.000000 0.000000
# 5 0.000000 0.000000 0.000000 0.000000 0.042111 0.000000
# 6 0.000000 0.000000 0.000000 0.000000 0.000000 0.033417
#
#
# Mechanical properties :
#
#
# Convention : Reuss Voigt Hill
#
# Bulk Modulus (GPa) = 42.89489 43.08913 42.99201
# Shear Modulus (GPa) = 24.68856 26.45533 25.57195
#
# Velocity S-wave (km/s) = 3.48839 3.61106 3.55026
# Velocity P-wave (km/s) = 6.11293 6.21488 6.16412
#
# Compressibility (1/GPa) = 0.02331280
#
# Stress axis : x y z
#
# Youngs Moduli (GPa) = 57.76993 54.25613 45.49542
#
# Poissons Ratio (x) = 0.15164 0.25609
# Poissons Ratio (y) = 0.16146 0.39947
# Poissons Ratio (z) = 0.32519 0.47640
#
# Static dielectric constant tensor:
#      x y z
#    x 3.654090 0.000000 0.000000 
#    y 0.000000 3.726850 0.000000 
#    z 0.000000 0.000000 3.683680 
# 
# 
# High freq. dielectric constant tensor:
#      x y z
#    x 1.786040 0.000000 0.000000 
#    y 0.000000 1.798260 0.000000 
#    z 0.000000 0.000000 1.781570 
# 
# From -- ./inp_files/6269.got.cif
#   From: 2010.03.12/outbox.cif.g09.slc.cpg/sg60_4_cif.got.tgz:6269.got - 2010.04.10 18:46:24.
