data_PCOD8246521
_publ_section_title
;
Structure prediction by ZEFSAII (Michael W. Deem and Ramdas Pophale) SiO2 
 PCOD8246521
Probable space group: P B C N
;
_chemical_formula_sum "Si O2"
_cell_formula_units_Z 48
_cell_length_a 13.239946
_cell_length_b 19.618712
_cell_length_c 9.548918
_cell_angle_alpha 90.000000
_cell_angle_beta 90.000000
_cell_angle_gamma 90.000000
_cell_volume 2480.338015
_symmetry_space_group_name_H-M "P B C N"
_symmetry_group_IT_number 60
_symmetry_cell_setting 'orthorhombic'
loop_
_space_group_symop_operation_xyz
x,y,z
1/2-x,1/2-y,1/2+z
1/2+x,1/2-y,-z
-x,y,1/2-z
-x,-y,-z
1/2+x,1/2+y,1/2-z
1/2-x,1/2+y,z
x,-y,1/2+z
loop_
_atom_site_type_symbol
_atom_site_label
_atom_site_fract_x
_atom_site_fract_y
_atom_site_fract_z
Si Si1 0.500000 0.762891 0.250000
Si Si2 0.688597 0.173776 0.407140
Si Si3 0.500000 0.023752 0.750000
Si Si4 0.296099 0.282862 0.864757
Si Si5 0.989116 0.629897 0.973662
Si Si6 0.727519 0.918589 0.533935
Si Si7 0.210017 0.529380 0.178229
O O1 0.590610 0.716058 0.194725
O O2 0.548146 0.809253 0.372314
O O3 0.715153 0.212480 0.262035
O O4 0.726820 0.215386 0.543271
O O5 0.567845 0.162187 0.416228
O O6 0.738700 0.098351 0.406417
O O7 0.542206 0.071556 0.623291
O O8 0.411652 0.976757 0.688187
O O9 0.289294 0.348300 0.966995
O O10 0.891748 0.598555 0.049925
O O11 0.757426 0.964874 0.667304
O O12 0.754281 0.961852 0.395742
#
# Coordination Sequence:
#
# PCOD8246521 Si02
#       7
#     4   8   4   8   8   8   8
#     4   9  18  34  52  70  96 137 178 212 248 289
#     4  10  20  33  50  75 103 133 166 205 247 298
#     4   9  16  28  48  78 112 139 154 184 246 327
#     4  10  21  35  52  72  99 134 173 210 247 290
#     4   9  17  30  51  77 106 134 162 197 250 311
#     4  10  20  33  51  77 105 133 164 202 248 304
#     4  10  19  30  48  75 107 135 161 194 245 305
#
# _framework density 19.352201000000001
#
# number of rings (size 3 to 8) (size 9 to 14) (size 15 to 20)
#    0.000    2.333    0.000    3.000    0.000    8.667 
#    0.000    0.000    0.000    4.000    0.000    2.333 
#    0.000    0.000    0.000    0.000    0.000    0.000 
#
# Total GULP energy -594925.536389 kJ/mol
# GULP energy per Si atom -12394.282008 kJ/mol
# Density = 1.930815 g / cm^3
# Si number density = 19.352201 Si / 1000 Ang^3
#
#
#
# Elastic Constant Matrix: (Units=GPa)
#
#
# Indices 1 2 3 4 5 6 
#
# 1 33.4427 39.0425 33.9503 0.0000 0.0000 0.0000
# 2 39.0425 111.5385 61.4947 0.0000 0.0000 0.0000
# 3 33.9503 61.4947 93.3236 0.0000 0.0000 0.0000
# 4 0.0000 0.0000 0.0000 39.8830 0.0000 0.0000
# 5 0.0000 0.0000 0.0000 0.0000 26.8681 0.0000
# 6 0.0000 0.0000 0.0000 0.0000 0.0000 30.3875
#
#
#
# Elastic Compliance Matrix: (Units=1/GPa)
#
#
# Indices 1 2 3 4 5 6 
#
# 1 0.058213 -0.013665 -0.012173 0.000000 0.000000 0.000000
# 2 -0.013665 0.017289 -0.006421 0.000000 0.000000 0.000000
# 3 -0.012173 -0.006421 0.019375 0.000000 0.000000 0.000000
# 4 0.000000 0.000000 0.000000 0.025073 0.000000 0.000000
# 5 0.000000 0.000000 0.000000 0.000000 0.037219 0.000000
# 6 0.000000 0.000000 0.000000 0.000000 0.000000 0.032908
#
#
# Mechanical properties :
#
#
# Convention : Reuss Voigt Hill
#
# Bulk Modulus (GPa) = 32.93976 56.36441 44.65209
# Shear Modulus (GPa) = 18.88822 26.34887 22.61855
#
# Velocity S-wave (km/s) = 3.12753 3.69391 3.42246
# Velocity P-wave (km/s) = 5.48635 6.88347 6.22423
#
# Compressibility (1/GPa) = 0.03035845
#
# Stress axis : x y z
#
# Youngs Moduli (GPa) = 17.17831 57.83997 51.61343
#
# Poissons Ratio (x) = 0.79041 0.62827
# Poissons Ratio (y) = 0.23475 0.33141
# Poissons Ratio (z) = 0.20910 0.37140
#
# Static dielectric constant tensor:
#      x y z
#    x 3.033780 0.000000 0.000000 
#    y 0.000000 3.739090 0.000000 
#    z 0.000000 0.000000 3.713270 
# 
# 
# High freq. dielectric constant tensor:
#      x y z
#    x 1.688150 0.000000 0.000000 
#    y 0.000000 1.761920 0.000000 
#    z 0.000000 0.000000 1.766730 
# 
# From -- ./inp_files/5949.got.cif
#   From: 2010.03.12/outbox.cif.g09.slc.cpg/sg60_3_cif.got.tgz:5949.got - 2010.04.10 18:46:24.
