data_PCOD8246172
_publ_section_title
;
Structure prediction by ZEFSAII (Michael W. Deem and Ramdas Pophale) SiO2 
 PCOD8246172
Probable space group: P M M N
;
_chemical_formula_sum "Si O2"
_cell_formula_units_Z 48
_cell_length_a 9.322424
_cell_length_b 21.733161
_cell_length_c 15.182592
_cell_angle_alpha 90.000000
_cell_angle_beta 90.000000
_cell_angle_gamma 90.000000
_cell_volume 3076.080313
_symmetry_space_group_name_H-M "P M M N"
_symmetry_group_IT_number 59
_space_group.IT_coordinate_system_code '2'
_symmetry_cell_setting 'orthorhombic'
loop_
_space_group_symop_operation_xyz
x,y,z
1/2-x,1/2-y,z
1/2+x,-y,-z
-x,1/2+y,-z
-x,-y,-z
1/2+x,1/2+y,-z
1/2-x,y,z
x,1/2-y,z
loop_
_atom_site_type_symbol
_atom_site_label
_atom_site_fract_x
_atom_site_fract_y
_atom_site_fract_z
Si Si1 0.082162 0.060717 0.470368
Si Si2 0.584401 0.452492 0.110904
Si Si3 0.917533 0.912744 0.048472
Si Si4 0.078970 0.318710 0.805184
Si Si5 0.418239 0.957262 0.690814
Si Si6 0.915992 0.594184 0.343399
O O1 0.250000 0.047357 0.454445
O O2 0.062041 0.108617 0.552102
O O3 0.007386 0.084314 0.379882
O O4 0.000000 0.000000 0.500000
O O5 0.750000 0.442552 0.088840
O O6 0.542258 0.523867 0.097736
O O7 0.549903 0.432887 0.211123
O O8 0.495261 0.408765 0.045858
O O9 0.750000 0.907934 0.030244
O O10 0.971650 0.856634 0.109076
O O11 0.250000 0.315877 0.801858
O O12 0.014112 0.250000 0.809711
O O13 0.016048 0.352167 0.717231
O O14 0.250000 0.953295 0.667786
O O15 0.477670 0.027118 0.682403
O O16 0.750000 0.590987 0.318288
#
# Coordination Sequence:
#
# PCOD8246172 Si02
#       6
#     8   8   8   8   8   8
#     4   9  16  24  37  56  81 109 134 162 199 239
#     4   9  16  26  41  58  82 113 136 162 209 257
#     4   9  16  26  40  60  83 106 136 173 205 242
#     4   9  15  24  41  62  82 108 140 169 202 245
#     4   9  15  25  40  57  81 109 134 162 200 246
#     4   8  13  23  36  53  80 108 130 160 198 237
#
# _framework density 15.604274
#
# number of rings (size 3 to 8) (size 9 to 14) (size 15 to 20)
#    0.000    3.167    1.667    1.500    0.000    0.667 
#    0.000    0.000    0.000    0.500    0.000    1.167 
#    0.000    6.667    0.000    0.000    0.000    0.000 
#
# Total GULP energy -594716.319615 kJ/mol
# GULP energy per Si atom -12389.923325 kJ/mol
# Density = 1.556876 g / cm^3
# Si number density = 15.604274 Si / 1000 Ang^3
#
#
#
# Elastic Constant Matrix: (Units=GPa)
#
#
# Indices 1 2 3 4 5 6 
#
# 1 44.7750 17.6570 50.8816 0.0000 0.0000 0.0000
# 2 17.6570 62.9521 50.6307 0.0000 0.0000 0.0000
# 3 50.8816 50.6307 152.1621 0.0000 0.0000 0.0000
# 4 0.0000 0.0000 0.0000 17.6406 0.0000 0.0000
# 5 0.0000 0.0000 0.0000 0.0000 29.6938 0.0000
# 6 0.0000 0.0000 0.0000 0.0000 0.0000 8.8891
#
#
#
# Elastic Compliance Matrix: (Units=1/GPa)
#
#
# Indices 1 2 3 4 5 6 
#
# 1 0.036037 -0.000568 -0.011862 0.000000 0.000000 0.000000
# 2 -0.000568 0.021698 -0.007030 0.000000 0.000000 0.000000
# 3 -0.011862 -0.007030 0.012878 0.000000 0.000000 0.000000
# 4 0.000000 0.000000 0.000000 0.056687 0.000000 0.000000
# 5 0.000000 0.000000 0.000000 0.000000 0.033677 0.000000
# 6 0.000000 0.000000 0.000000 0.000000 0.000000 0.112497
#
#
# Mechanical properties :
#
#
# Convention : Reuss Voigt Hill
#
# Bulk Modulus (GPa) = 31.55160 55.35863 43.45511
# Shear Modulus (GPa) = 15.48188 20.62602 18.05395
#
# Velocity S-wave (km/s) = 3.15327 3.63963 3.40514
# Velocity P-wave (km/s) = 5.78975 7.29494 6.58549
#
# Compressibility (1/GPa) = 0.03169411
#
# Stress axis : x y z
#
# Youngs Moduli (GPa) = 27.74918 46.08614 77.65465
#
# Poissons Ratio (x) = 0.02617 0.92110
# Poissons Ratio (y) = 0.01576 0.54592
# Poissons Ratio (z) = 0.32915 0.32399
#
# Static dielectric constant tensor:
#      x y z
#    x 2.799930 0.000000 0.000000 
#    y 0.000000 2.732190 0.000000 
#    z 0.000000 0.000000 3.476800 
# 
# 
# High freq. dielectric constant tensor:
#      x y z
#    x 1.570320 0.000000 0.000000 
#    y 0.000000 1.537880 0.000000 
#    z 0.000000 0.000000 1.618210 
# 
# From -- ./inp_files/20764.got.cif
#   From: 2010.03.12/outbox.cif.g09.slc.cpg/sg59_11_cif.got.tgz:20764.got - 2010.04.16 16:29:54.
