data_PCOD8246293
_publ_section_title
;
Structure prediction by ZEFSAII (Michael W. Deem and Ramdas Pophale) SiO2 
 PCOD8246293
Probable space group: P B C N
;
_chemical_formula_sum "Si O2"
_cell_formula_units_Z 56
_cell_length_a 19.675281
_cell_length_b 8.750629
_cell_length_c 15.103968
_cell_angle_alpha 90.000000
_cell_angle_beta 90.000000
_cell_angle_gamma 90.000000
_cell_volume 2600.466551
_symmetry_space_group_name_H-M "P B C N"
_symmetry_group_IT_number 60
_symmetry_cell_setting 'orthorhombic'
loop_
_space_group_symop_operation_xyz
x,y,z
1/2-x,1/2-y,1/2+z
1/2+x,1/2-y,-z
-x,y,1/2-z
-x,-y,-z
1/2+x,1/2+y,1/2-z
1/2-x,1/2+y,z
x,-y,1/2+z
loop_
_atom_site_type_symbol
_atom_site_label
_atom_site_fract_x
_atom_site_fract_y
_atom_site_fract_z
Si Si1 0.658877 0.995027 0.551046
Si Si2 0.110022 0.076007 0.807743
Si Si3 0.452371 0.889988 0.824601
Si Si4 0.133533 0.995293 0.620667
Si Si5 0.432166 0.200999 0.044231
Si Si6 0.494260 0.396177 0.912831
Si Si7 0.793950 0.846515 0.034413
O O1 0.610313 0.989951 0.637972
O O2 0.693429 0.833929 0.527680
O O3 0.615366 0.051951 0.466156
O O4 0.717519 0.121019 0.567192
O O5 0.081175 0.241225 0.779168
O O6 0.153630 0.011805 0.724397
O O7 0.046148 0.970079 0.831400
O O8 0.155779 0.079341 0.894865
O O9 0.500000 0.973074 0.750000
O O10 0.499272 0.837020 0.904825
O O11 0.194497 0.927529 0.561275
O O12 0.071718 0.872711 0.618327
O O13 0.110580 0.161424 0.586339
O O14 0.457436 0.241114 0.943895
O O15 0.500000 0.500000 0.000000
#
# Coordination Sequence:
#
# PCOD8246293 Si02
#       7
#     8   8   8   8   8   8   8
#     4  11  26  44  68  88 134 182 226 278 340 402
#     4  11  19  36  67 102 132 176 217 264 334 399
#     4  11  20  39  67 102 132 169 219 278 345 396
#     4  11  20  37  69 100 132 171 219 270 327 408
#     4  11  20  38  68  94 130 174 216 272 334 391
#     4  10  16  31  62  96 129 163 212 264 318 383
#     4  11  24  45  64  93 132 184 226 268 338 403
#
# _framework density 21.534597000000002
#
# number of rings (size 3 to 8) (size 9 to 14) (size 15 to 20)
#    0.000    1.143    7.143    2.571    0.000    0.000 
#    2.571    4.286    0.000    0.000    0.000    0.000 
#    0.000    0.000    0.000    0.000    0.000    0.000 
#
# Total GULP energy -694072.267274 kJ/mol
# GULP energy per Si atom -12394.147630 kJ/mol
# Density = 2.148558 g / cm^3
# Si number density = 21.534597 Si / 1000 Ang^3
#
#
#
# Elastic Constant Matrix: (Units=GPa)
#
#
# Indices 1 2 3 4 5 6 
#
# 1 93.2768 41.8051 29.2000 0.0000 0.0000 0.0000
# 2 41.8051 81.5083 34.0754 0.0000 0.0000 0.0000
# 3 29.2000 34.0754 102.5928 0.0000 0.0000 0.0000
# 4 0.0000 0.0000 0.0000 16.9258 0.0000 0.0000
# 5 0.0000 0.0000 0.0000 0.0000 27.2582 0.0000
# 6 0.0000 0.0000 0.0000 0.0000 0.0000 36.9236
#
#
#
# Elastic Compliance Matrix: (Units=1/GPa)
#
#
# Indices 1 2 3 4 5 6 
#
# 1 0.014229 -0.006509 -0.001888 0.000000 0.000000 0.000000
# 2 -0.006509 0.017224 -0.003868 0.000000 0.000000 0.000000
# 3 -0.001888 -0.003868 0.011569 0.000000 0.000000 0.000000
# 4 0.000000 0.000000 0.000000 0.059081 0.000000 0.000000
# 5 0.000000 0.000000 0.000000 0.000000 0.036686 0.000000
# 6 0.000000 0.000000 0.000000 0.000000 0.000000 0.027083
#
#
# Mechanical properties :
#
#
# Convention : Reuss Voigt Hill
#
# Bulk Modulus (GPa) = 54.07610 54.17100 54.12355
# Shear Modulus (GPa) = 25.43659 27.70801 26.57230
#
# Velocity S-wave (km/s) = 3.44058 3.59092 3.51655
# Velocity P-wave (km/s) = 6.39916 6.51175 6.45570
#
# Compressibility (1/GPa) = 0.01849246
#
# Stress axis : x y z
#
# Youngs Moduli (GPa) = 70.27973 58.05819 86.43420
#
# Poissons Ratio (x) = 0.37788 0.16319
# Poissons Ratio (y) = 0.45742 0.33436
# Poissons Ratio (z) = 0.13269 0.22459
#
# Static dielectric constant tensor:
#      x y z
#    x 3.976660 0.000000 0.000000 
#    y 0.000000 3.894150 0.000000 
#    z 0.000000 0.000000 3.868140 
# 
# 
# High freq. dielectric constant tensor:
#      x y z
#    x 1.839210 0.000000 0.000000 
#    y 0.000000 1.825240 0.000000 
#    z 0.000000 0.000000 1.837140 
# 
# From -- ./inp_files/17739.got.cif
#   From: 2010.03.12/outbox.cif.g09.slc.cpg/sg60_9_cif.got.tgz:17739.got - 2010.04.10 18:46:24.
