data_PCOD8246314
_publ_section_title
;
Structure prediction by ZEFSAII (Michael W. Deem and Ramdas Pophale) SiO2 
 PCOD8246314
Probable space group: P B C N
;
_chemical_formula_sum "Si O2"
_cell_formula_units_Z 60
_cell_length_a 26.904330
_cell_length_b 31.338666
_cell_length_c 5.411094
_cell_angle_alpha 90.000000
_cell_angle_beta 90.000000
_cell_angle_gamma 90.000000
_cell_volume 4562.341243
_symmetry_space_group_name_H-M "P B C N"
_symmetry_group_IT_number 60
_symmetry_cell_setting 'orthorhombic'
loop_
_space_group_symop_operation_xyz
x,y,z
1/2-x,1/2-y,1/2+z
1/2+x,1/2-y,-z
-x,y,1/2-z
-x,-y,-z
1/2+x,1/2+y,1/2-z
1/2-x,1/2+y,z
x,-y,1/2+z
loop_
_atom_site_type_symbol
_atom_site_label
_atom_site_fract_x
_atom_site_fract_y
_atom_site_fract_z
Si Si1 0.000000 0.679615 0.250000
Si Si2 0.406669 0.769325 0.656586
Si Si3 0.181830 0.337873 0.693344
Si Si4 0.046047 0.390416 0.084646
Si Si5 0.735634 0.273240 0.821220
Si Si6 0.628217 0.751105 0.340625
Si Si7 0.146130 0.352006 0.196094
Si Si8 0.055658 0.517086 0.466944
O O1 0.959693 0.708311 0.390940
O O2 0.031937 0.650823 0.430746
O O3 0.361069 0.802211 0.673123
O O4 0.399672 0.738959 0.415845
O O5 0.406225 0.743021 0.916200
O O6 0.236770 0.318096 0.721122
O O7 0.179133 0.364648 0.436563
O O8 0.171247 0.367184 0.936349
O O9 0.093665 0.375593 0.241420
O O10 0.000000 0.404880 0.250000
O O11 0.058205 0.431956 0.919980
O O12 0.741043 0.246631 0.568924
O O13 0.676925 0.278512 0.867712
O O14 0.642272 0.800976 0.325349
O O15 0.082334 0.504710 0.728347
O O16 0.000000 0.500000 0.500000
#
# Coordination Sequence:
#
# PCOD8246314 Si02
#       8
#     4   8   8   8   8   8   8   8
#     4  12  22  28  40  56  68 102 108 132 182 220
#     4  10  19  28  36  47  76  82 111 137 153 194
#     4  10  17  30  36  54  73  84 107 137 150 197
#     4  12  22  29  46  54  67  94 113 132 187 215
#     4  12  16  24  44  50  64  96 106 125 171 181
#     4  10  17  30  36  54  69  85 110 140 150 194
#     4  10  19  28  37  53  74  81 103 138 155 202
#     4  10  20  36  44  54  68  79 109 154 162 204
#
# _framework density 13.151144
#
# number of rings (size 3 to 8) (size 9 to 14) (size 15 to 20)
#    0.000    1.333    9.333    2.400    0.000    0.000 
#    0.000    0.000    0.000    0.000    0.000    0.000 
#    0.000    0.000    0.000    0.000    0.000    0.000 
#
# Total GULP energy -743298.918562 kJ/mol
# GULP energy per Si atom -12388.315309 kJ/mol
# Density = 1.312121 g / cm^3
# Si number density = 13.151144 Si / 1000 Ang^3
#
#
#
# Elastic Constant Matrix: (Units=GPa)
#
#
# Indices 1 2 3 4 5 6 
#
# 1 53.0469 31.8179 18.4244 0.0000 0.0000 0.0000
# 2 31.8179 20.3515 11.0711 0.0000 0.0000 0.0000
# 3 18.4244 11.0711 129.7675 0.0000 0.0000 0.0000
# 4 0.0000 0.0000 0.0000 6.9675 0.0000 0.0000
# 5 0.0000 0.0000 0.0000 0.0000 15.2159 0.0000
# 6 0.0000 0.0000 0.0000 0.0000 0.0000 2.4606
#
#
#
# Elastic Compliance Matrix: (Units=1/GPa)
#
#
# Indices 1 2 3 4 5 6 
#
# 1 0.303760 -0.473415 -0.002738 0.000000 0.000000 0.000000
# 2 -0.473415 0.789353 -0.000128 0.000000 0.000000 0.000000
# 3 -0.002738 -0.000128 0.008106 0.000000 0.000000 0.000000
# 4 0.000000 0.000000 0.000000 0.143523 0.000000 0.000000
# 5 0.000000 0.000000 0.000000 0.000000 0.065721 0.000000
# 6 0.000000 0.000000 0.000000 0.000000 0.000000 0.406410
#
#
# Mechanical properties :
#
#
# Convention : Reuss Voigt Hill
#
# Bulk Modulus (GPa) = 6.72696 36.19920 21.46308
# Shear Modulus (GPa) = 1.83892 14.38563 8.11227
#
# Velocity S-wave (km/s) = 1.18378 3.31096 2.48634
# Velocity P-wave (km/s) = 2.64474 6.49630 4.95966
#
# Compressibility (1/GPa) = 0.14865558
#
# Stress axis : x y z
#
# Youngs Moduli (GPa) = 3.29207 1.26686 123.36796
#
# Poissons Ratio (x) = 0.59975 0.33784
# Poissons Ratio (y) = 1.55852 0.01582
# Poissons Ratio (z) = 0.00902 0.00016
#
# Static dielectric constant tensor:
#      x y z
#    x 2.426110 0.000000 0.000000 
#    y 0.000000 2.220050 0.000000 
#    z 0.000000 0.000000 5.906070 
# 
# 
# High freq. dielectric constant tensor:
#      x y z
#    x 1.469950 0.000000 0.000000 
#    y 0.000000 1.422860 0.000000 
#    z 0.000000 0.000000 1.537960 
# 
# From -- ./inp_files/2500.got.cif
#   From: 2010.03.12/outbox.cif.g09.slc.cpg/sg60_2_cif.got.tgz:2500.got - 2010.04.10 18:46:24.
