data_PCOD8246275
_publ_section_title
;
Structure prediction by ZEFSAII (Michael W. Deem and Ramdas Pophale) SiO2 
 PCOD8246275
Probable space group: P B C N
;
_chemical_formula_sum "Si O2"
_cell_formula_units_Z 48
_cell_length_a 5.303443
_cell_length_b 12.345758
_cell_length_c 31.637606
_cell_angle_alpha 90.000000
_cell_angle_beta 90.000000
_cell_angle_gamma 90.000000
_cell_volume 2071.473007
_symmetry_space_group_name_H-M "P B C N"
_symmetry_group_IT_number 60
_symmetry_cell_setting 'orthorhombic'
loop_
_space_group_symop_operation_xyz
x,y,z
1/2-x,1/2-y,1/2+z
1/2+x,1/2-y,-z
-x,y,1/2-z
-x,-y,-z
1/2+x,1/2+y,1/2-z
1/2-x,1/2+y,z
x,-y,1/2+z
loop_
_atom_site_type_symbol
_atom_site_label
_atom_site_fract_x
_atom_site_fract_y
_atom_site_fract_z
Si Si1 0.358747 0.910876 0.400599
Si Si2 0.852274 0.056987 0.862131
Si Si3 0.366415 0.672253 0.386830
Si Si4 0.744290 0.942933 0.776179
Si Si5 0.809691 0.739205 0.526780
Si Si6 0.627668 0.807741 0.847399
O O1 0.618987 0.974619 0.392687
O O2 0.377753 0.800068 0.373302
O O3 0.323101 0.878481 0.450077
O O4 0.118963 0.985004 0.384194
O O5 0.885475 0.186561 0.863346
O O6 0.802417 0.027822 0.813429
O O7 0.339577 0.665204 0.437946
O O8 0.633595 0.624895 0.368827
O O9 0.120854 0.627143 0.362466
O O10 0.500000 0.984731 0.750000
O O11 0.664440 0.826668 0.797093
O O12 0.000000 0.927811 0.750000
O O13 0.534856 0.751306 0.506470
#
# Coordination Sequence:
#
# PCOD8246275 Si02
#       6
#     8   8   8   8   8   8
#     4   8  17  30  52  78 109 144 183 208 265 333
#     4  10  19  38  56  75 111 144 185 221 265 339
#     4   8  17  30  52  78 109 144 183 208 265 333
#     4  12  26  38  56  86 106 138 190 234 286 316
#     4  10  16  26  50  90 118 132 180 236 256 310
#     4  10  19  38  56  75 111 144 185 221 265 339
#
# _framework density 23.171917000000001
#
# number of rings (size 3 to 8) (size 9 to 14) (size 15 to 20)
#    1.000    1.333    0.000    4.000    0.000    1.333 
#    0.000    0.000    0.000    0.000    0.000   23.333 
#    0.000    0.000    0.000    0.000    0.000    0.000 
#
# Total GULP energy -594769.632577 kJ/mol
# GULP energy per Si atom -12391.034012 kJ/mol
# Density = 2.311918 g / cm^3
# Si number density = 23.171917 Si / 1000 Ang^3
#
#
#
# Elastic Constant Matrix: (Units=GPa)
#
#
# Indices 1 2 3 4 5 6 
#
# 1 176.3091 12.2406 50.2805 0.0000 0.0000 0.0000
# 2 12.2406 28.5811 -2.7291 0.0000 0.0000 0.0000
# 3 50.2805 -2.7291 120.0760 0.0000 0.0000 0.0000
# 4 0.0000 0.0000 0.0000 29.4820 0.0000 0.0000
# 5 0.0000 0.0000 0.0000 0.0000 57.5607 0.0000
# 6 0.0000 0.0000 0.0000 0.0000 0.0000 35.7464
#
#
#
# Elastic Compliance Matrix: (Units=1/GPa)
#
#
# Indices 1 2 3 4 5 6 
#
# 1 0.006713 -0.003150 -0.002882 0.000000 0.000000 0.000000
# 2 -0.003150 0.036542 0.002150 0.000000 0.000000 0.000000
# 3 -0.002882 0.002150 0.009584 0.000000 0.000000 0.000000
# 4 0.000000 0.000000 0.000000 0.033919 0.000000 0.000000
# 5 0.000000 0.000000 0.000000 0.000000 0.017373 0.000000
# 6 0.000000 0.000000 0.000000 0.000000 0.000000 0.027975
#
#
# Mechanical properties :
#
#
# Convention : Reuss Voigt Hill
#
# Bulk Modulus (GPa) = 22.18614 49.39447 35.79030
# Shear Modulus (GPa) = 32.27975 42.23611 37.25793
#
# Velocity S-wave (km/s) = 3.73641 4.27397 4.01420
# Velocity P-wave (km/s) = 5.31129 6.76155 6.07982
#
# Compressibility (1/GPa) = 0.04507319
#
# Stress axis : x y z
#
# Youngs Moduli (GPa) = 148.97420 27.36541 104.34172
#
# Poissons Ratio (x) = 0.08620 0.30076
# Poissons Ratio (y) = 0.46928 -0.22429
# Poissons Ratio (z) = 0.42940 -0.05882
#
# Static dielectric constant tensor:
#      x y z
#    x 4.810200 0.000000 0.000000 
#    y 0.000000 4.263040 0.000000 
#    z 0.000000 0.000000 3.871650 
# 
# 
# High freq. dielectric constant tensor:
#      x y z
#    x 1.957620 0.000000 0.000000 
#    y 0.000000 1.935060 0.000000 
#    z 0.000000 0.000000 1.888530 
# 
# From -- ./inp_files/24926.got.cif
#   From: 2010.03.12/outbox.cif.g09.slc.cpg/sg60_13_cif.got.tgz:24926.got - 2010.04.10 18:46:24.
