data_PCOD8246708
_publ_section_title
;
Structure prediction by ZEFSAII (Michael W. Deem and Ramdas Pophale) SiO2 
 PCOD8246708
Probable space group: P B C N
;
_chemical_formula_sum "Si O2"
_cell_formula_units_Z 48
_cell_length_a 9.211345
_cell_length_b 22.547535
_cell_length_c 11.808418
_cell_angle_alpha 90.000000
_cell_angle_beta 90.000000
_cell_angle_gamma 90.000000
_cell_volume 2452.527221
_symmetry_space_group_name_H-M "P B C N"
_symmetry_group_IT_number 60
_symmetry_cell_setting 'orthorhombic'
loop_
_space_group_symop_operation_xyz
x,y,z
1/2-x,1/2-y,1/2+z
1/2+x,1/2-y,-z
-x,y,1/2-z
-x,-y,-z
1/2+x,1/2+y,1/2-z
1/2-x,1/2+y,z
x,-y,1/2+z
loop_
_atom_site_type_symbol
_atom_site_label
_atom_site_fract_x
_atom_site_fract_y
_atom_site_fract_z
Si Si1 0.824755 0.621838 0.492362
Si Si2 0.830265 0.446744 0.219989
Si Si3 0.171876 0.580724 0.250262
Si Si4 0.131059 0.202257 0.879569
Si Si5 0.822824 0.153530 0.846942
Si Si6 0.864275 0.333580 0.559506
O O1 0.797696 0.575402 0.593237
O O2 0.764574 0.597083 0.373171
O O3 0.738248 0.682384 0.519724
O O4 0.995705 0.632284 0.485154
O O5 0.777655 0.514614 0.220336
O O6 0.731973 0.412442 0.312970
O O7 0.000000 0.439760 0.250000
O O8 0.222707 0.627846 0.345920
O O9 0.000000 0.585349 0.250000
O O10 0.214487 0.196316 0.759335
O O11 0.084568 0.270314 0.891786
O O12 0.993985 0.157269 0.875365
O O13 0.741482 0.178136 0.955767
#
# Coordination Sequence:
#
# PCOD8246708 Si02
#       6
#     8   8   8   8   8   8
#     4  10  21  38  59  87 114 155 195 241 294 348
#     4  10  19  37  60  87 114 150 203 246 290 348
#     4   9  22  33  60  89 115 149 194 256 289 333
#     4  10  23  37  59  84 122 153 186 240 300 357
#     4  10  22  38  59  84 117 155 190 240 298 346
#     4  11  21  36  63  86 113 151 199 242 289 347
#
# _framework density 19.571648
#
# number of rings (size 3 to 8) (size 9 to 14) (size 15 to 20)
#    0.000    2.000    1.667    1.000   11.667    2.000 
#    0.000    1.667    7.333    0.000    0.000    0.000 
#    0.000    0.000    0.000    0.000    0.000    0.000 
#
# Total GULP energy -595095.498194 kJ/mol
# GULP energy per Si atom -12397.822879 kJ/mol
# Density = 1.952710 g / cm^3
# Si number density = 19.571648 Si / 1000 Ang^3
#
#
#
# Elastic Constant Matrix: (Units=GPa)
#
#
# Indices 1 2 3 4 5 6 
#
# 1 47.1275 28.5218 39.0814 0.0000 0.0000 0.0000
# 2 28.5218 122.6231 57.3919 0.0000 0.0000 0.0000
# 3 39.0814 57.3919 133.4693 0.0000 0.0000 0.0000
# 4 0.0000 0.0000 0.0000 25.8402 0.0000 0.0000
# 5 0.0000 0.0000 0.0000 0.0000 18.0070 0.0000
# 6 0.0000 0.0000 0.0000 0.0000 0.0000 17.3213
#
#
#
# Elastic Compliance Matrix: (Units=1/GPa)
#
#
# Indices 1 2 3 4 5 6 
#
# 1 0.029170 -0.003489 -0.007041 0.000000 0.000000 0.000000
# 2 -0.003489 0.010627 -0.003548 0.000000 0.000000 0.000000
# 3 -0.007041 -0.003548 0.011080 0.000000 0.000000 0.000000
# 4 0.000000 0.000000 0.000000 0.038699 0.000000 0.000000
# 5 0.000000 0.000000 0.000000 0.000000 0.055534 0.000000
# 6 0.000000 0.000000 0.000000 0.000000 0.000000 0.057733
#
#
# Mechanical properties :
#
#
# Convention : Reuss Voigt Hill
#
# Bulk Modulus (GPa) = 44.01387 61.46777 52.74082
# Shear Modulus (GPa) = 20.95803 24.11534 22.53669
#
# Velocity S-wave (km/s) = 3.27591 3.51402 3.39705
# Velocity P-wave (km/s) = 6.07011 6.92381 6.51097
#
# Compressibility (1/GPa) = 0.02272011
#
# Stress axis : x y z
#
# Youngs Moduli (GPa) = 34.28234 94.09735 90.25590
#
# Poissons Ratio (x) = 0.32835 0.63547
# Poissons Ratio (y) = 0.11963 0.32023
# Poissons Ratio (z) = 0.24137 0.33386
#
# Static dielectric constant tensor:
#      x y z
#    x 3.256230 0.000000 0.000000 
#    y 0.000000 3.585110 0.000000 
#    z 0.000000 0.000000 3.876100 
# 
# 
# High freq. dielectric constant tensor:
#      x y z
#    x 1.730130 0.000000 0.000000 
#    y 0.000000 1.760300 0.000000 
#    z 0.000000 0.000000 1.780060 
# 
# From -- ./inp_files/10082.got.cif
#   From: 2010.03.12/outbox.cif.g09.slc.cpg/sg60_6_cif.got.tgz:10082.got - 2010.04.10 18:46:24.
