data_PCOD8246036
_publ_section_title
;
Structure prediction by ZEFSAII (Michael W. Deem and Ramdas Pophale) SiO2 
 PCOD8246036
Probable space group: P M M N
;
_chemical_formula_sum "Si O2"
_cell_formula_units_Z 48
_cell_length_a 14.598116
_cell_length_b 8.616945
_cell_length_c 19.501549
_cell_angle_alpha 90.000000
_cell_angle_beta 90.000000
_cell_angle_gamma 90.000000
_cell_volume 2453.122523
_symmetry_space_group_name_H-M "P M M N"
_symmetry_group_IT_number 59
_space_group.IT_coordinate_system_code '2'
_symmetry_cell_setting 'orthorhombic'
loop_
_space_group_symop_operation_xyz
x,y,z
1/2-x,1/2-y,z
1/2+x,-y,-z
-x,1/2+y,-z
-x,-y,-z
1/2+x,1/2+y,-z
1/2-x,y,z
x,1/2-y,z
loop_
_atom_site_type_symbol
_atom_site_label
_atom_site_fract_x
_atom_site_fract_y
_atom_site_fract_z
Si Si1 0.356610 0.571181 0.903581
Si Si2 0.428293 0.069792 0.315752
Si Si3 0.750000 0.430300 0.623295
Si Si4 0.250000 0.067750 0.526203
Si Si5 0.851207 0.434331 0.943481
Si Si6 0.440556 0.931212 0.560946
Si Si7 0.013637 0.931638 0.174003
O O1 0.250000 0.550725 0.887797
O O2 0.386187 0.750000 0.895113
O O3 0.410017 0.466012 0.848810
O O4 0.379688 0.509577 0.980352
O O5 0.401674 0.250000 0.320424
O O6 0.509828 0.028951 0.367982
O O7 0.339081 0.969008 0.332266
O O8 0.463452 0.028620 0.240938
O O9 0.750000 0.250000 0.604142
O O10 0.750000 0.527824 0.553844
O O11 0.250000 0.250000 0.534151
O O12 0.339532 0.002607 0.563728
O O13 0.750000 0.498243 0.925077
O O14 0.848751 0.250000 0.944356
O O15 0.921331 0.495991 0.886735
O O16 0.431238 0.750000 0.547902
O O17 0.500000 0.000000 0.500000
O O18 0.027721 0.750000 0.188361
#
# Coordination Sequence:
#
# PCOD8246036 Si02
#       7
#     8   8   4   4   8   8   8
#     4   9  18  36  60  81 109 154 201 245 297 355
#     4  11  25  43  62  88 125 162 200 244 297 358
#     4  12  24  40  66  94 124 159 198 241 296 356
#     4  12  24  40  66  96 126 157 198 251 304 360
#     4   8  16  32  55  84 115 150 195 241 292 354
#     4  11  23  41  66  92 122 160 206 253 300 355
#     4  11  22  35  57  87 119 155 195 244 301 355
#
# _framework density 19.566897999999998
#
# number of rings (size 3 to 8) (size 9 to 14) (size 15 to 20)
#    0.000    1.667    1.667    4.500    1.167    2.333 
#    1.500    0.833    0.000    2.000    0.000    0.000 
#    0.000    0.000    0.000    0.000    0.000    0.000 
#
# Total GULP energy -595362.377851 kJ/mol
# GULP energy per Si atom -12403.382872 kJ/mol
# Density = 1.952236 g / cm^3
# Si number density = 19.566898 Si / 1000 Ang^3
#
#
#
# Elastic Constant Matrix: (Units=GPa)
#
#
# Indices 1 2 3 4 5 6 
#
# 1 136.1337 45.6936 59.8925 0.0000 0.0000 0.0000
# 2 45.6936 73.7500 29.1277 0.0000 0.0000 0.0000
# 3 59.8925 29.1277 102.0794 0.0000 0.0000 0.0000
# 4 0.0000 0.0000 0.0000 27.5895 0.0000 0.0000
# 5 0.0000 0.0000 0.0000 0.0000 21.7604 0.0000
# 6 0.0000 0.0000 0.0000 0.0000 0.0000 33.8500
#
#
#
# Elastic Compliance Matrix: (Units=1/GPa)
#
#
# Indices 1 2 3 4 5 6 
#
# 1 0.011301 -0.004940 -0.005221 0.000000 0.000000 0.000000
# 2 -0.004940 0.017441 -0.002078 0.000000 0.000000 0.000000
# 3 -0.005221 -0.002078 0.013453 0.000000 0.000000 0.000000
# 4 0.000000 0.000000 0.000000 0.036246 0.000000 0.000000
# 5 0.000000 0.000000 0.000000 0.000000 0.045955 0.000000
# 6 0.000000 0.000000 0.000000 0.000000 0.000000 0.029542
#
#
# Mechanical properties :
#
#
# Convention : Reuss Voigt Hill
#
# Bulk Modulus (GPa) = 56.44581 64.59899 60.52240
# Shear Modulus (GPa) = 27.12676 28.45659 27.79168
#
# Velocity S-wave (km/s) = 3.72742 3.81770 3.77283
# Velocity P-wave (km/s) = 6.88732 7.24701 7.06945
#
# Compressibility (1/GPa) = 0.01771611
#
# Stress axis : x y z
#
# Youngs Moduli (GPa) = 88.49042 57.33734 74.33517
#
# Poissons Ratio (x) = 0.28322 0.38810
# Poissons Ratio (y) = 0.43711 0.15450
# Poissons Ratio (z) = 0.46200 0.11917
#
# Static dielectric constant tensor:
#      x y z
#    x 4.602880 0.000000 0.000000 
#    y 0.000000 3.452850 0.000000 
#    z 0.000000 0.000000 3.567360 
# 
# 
# High freq. dielectric constant tensor:
#      x y z
#    x 1.774860 0.000000 0.000000 
#    y 0.000000 1.755130 0.000000 
#    z 0.000000 0.000000 1.759420 
# 
# From -- ./inp_files/27457.got.cif
#   From: 2010.03.12/outbox.cif.g09.slc.cpg/sg59_14_cif.got.tgz:27457.got - 2010.04.16 16:29:54.
