data_PCOD8246364
_publ_section_title
;
Structure prediction by ZEFSAII (Michael W. Deem and Ramdas Pophale) SiO2 
 PCOD8246364
Probable space group: P B C N
;
_chemical_formula_sum "Si O2"
_cell_formula_units_Z 64
_cell_length_a 21.720991
_cell_length_b 18.349236
_cell_length_c 8.844911
_cell_angle_alpha 90.000000
_cell_angle_beta 90.000000
_cell_angle_gamma 90.000000
_cell_volume 3525.259482
_symmetry_space_group_name_H-M "P B C N"
_symmetry_group_IT_number 60
_symmetry_cell_setting 'orthorhombic'
loop_
_space_group_symop_operation_xyz
x,y,z
1/2-x,1/2-y,1/2+z
1/2+x,1/2-y,-z
-x,y,1/2-z
-x,-y,-z
1/2+x,1/2+y,1/2-z
1/2-x,1/2+y,z
x,-y,1/2+z
loop_
_atom_site_type_symbol
_atom_site_label
_atom_site_fract_x
_atom_site_fract_y
_atom_site_fract_z
Si Si1 0.278363 0.306634 0.116589
Si Si2 0.433854 0.817513 0.783928
Si Si3 0.282150 0.596249 0.043982
Si Si4 0.323951 0.261999 0.435824
Si Si5 0.768778 0.960273 0.280743
Si Si6 0.867324 0.565200 0.726317
Si Si7 0.344050 0.825591 0.516734
Si Si8 0.937296 0.541795 0.020587
O O1 0.280001 0.277315 0.290214
O O2 0.295128 0.392418 0.119609
O O3 0.210236 0.296874 0.043182
O O4 0.328034 0.261056 0.017081
O O5 0.500000 0.778980 0.750000
O O6 0.391030 0.765020 0.885473
O O7 0.400799 0.840066 0.628395
O O8 0.449491 0.890442 0.872330
O O9 0.298787 0.537618 0.172799
O O10 0.331431 0.662167 0.029766
O O11 0.283402 0.548542 0.893566
O O12 0.215771 0.631761 0.079015
O O13 0.695321 0.962066 0.303524
O O14 0.859852 0.645740 0.651215
O O15 0.885672 0.510150 0.592425
O O16 0.918071 0.570097 0.855676
O O17 0.000000 0.500000 0.000000
#
# Coordination Sequence:
#
# PCOD8246364 Si02
#       8
#     8   8   8   8   8   8   8   8
#     4   9  18  32  49  72  98 124 158 201 252 294
#     4  11  21  34  50  70  97 135 172 202 240 287
#     4   9  18  31  47  72  98 121 156 198 245 292
#     4   9  19  33  50  71  98 128 161 202 243 291
#     4  10  18  29  47  71  96 123 152 194 249 299
#     4  11  20  32  48  68  96 133 168 201 243 289
#     4   9  19  34  50  69  99 132 163 205 246 288
#     4  12  23  33  46  67  98 134 174 209 232 270
#
# _framework density 18.154693000000002
#
# number of rings (size 3 to 8) (size 9 to 14) (size 15 to 20)
#    0.000    2.000    0.000    6.375    0.000    3.000 
#    0.000    0.000    0.000    0.000    0.000    7.875 
#    0.000    0.000    0.000    0.000    0.000    0.000 
#
# Total GULP energy -793341.841733 kJ/mol
# GULP energy per Si atom -12395.966277 kJ/mol
# Density = 1.811337 g / cm^3
# Si number density = 18.154693 Si / 1000 Ang^3
#
#
#
# Elastic Constant Matrix: (Units=GPa)
#
#
# Indices 1 2 3 4 5 6 
#
# 1 77.7053 43.0348 31.4783 0.0000 0.0000 0.0000
# 2 43.0348 74.0128 21.6594 0.0000 0.0000 0.0000
# 3 31.4783 21.6594 52.3527 0.0000 0.0000 0.0000
# 4 0.0000 0.0000 0.0000 32.2432 0.0000 0.0000
# 5 0.0000 0.0000 0.0000 0.0000 25.1567 0.0000
# 6 0.0000 0.0000 0.0000 0.0000 0.0000 22.1673
#
#
#
# Elastic Compliance Matrix: (Units=1/GPa)
#
#
# Indices 1 2 3 4 5 6 
#
# 1 0.022256 -0.010268 -0.009134 0.000000 0.000000 0.000000
# 2 -0.010268 0.020109 -0.002146 0.000000 0.000000 0.000000
# 3 -0.009134 -0.002146 0.025481 0.000000 0.000000 0.000000
# 4 0.000000 0.000000 0.000000 0.031014 0.000000 0.000000
# 5 0.000000 0.000000 0.000000 0.000000 0.039751 0.000000
# 6 0.000000 0.000000 0.000000 0.000000 0.000000 0.045111
#
#
# Mechanical properties :
#
#
# Convention : Reuss Voigt Hill
#
# Bulk Modulus (GPa) = 40.40226 44.04620 42.22423
# Shear Modulus (GPa) = 21.27047 23.10666 22.18856
#
# Velocity S-wave (km/s) = 3.42661 3.57145 3.49978
# Velocity P-wave (km/s) = 6.16103 6.42817 6.29602
#
# Compressibility (1/GPa) = 0.02475109
#
# Stress axis : x y z
#
# Youngs Moduli (GPa) = 44.93240 49.72827 39.24500
#
# Poissons Ratio (x) = 0.51059 0.35846
# Poissons Ratio (y) = 0.46135 0.08422
# Poissons Ratio (z) = 0.41040 0.10672
#
# Static dielectric constant tensor:
#      x y z
#    x 3.116770 0.000000 0.000000 
#    y 0.000000 3.577160 0.000000 
#    z 0.000000 0.000000 3.491380 
# 
# 
# High freq. dielectric constant tensor:
#      x y z
#    x 1.659270 0.000000 0.000000 
#    y 0.000000 1.700290 0.000000 
#    z 0.000000 0.000000 1.712690 
# 
# From -- ./inp_files/7562.got.cif
#   From: 2010.03.12/outbox.cif.g09.slc.cpg/sg60_4_cif.got.tgz:7562.got - 2010.04.10 18:46:24.
