data_PCOD8246672
_publ_section_title
;
Structure prediction by ZEFSAII (Michael W. Deem and Ramdas Pophale) SiO2 
 PCOD8246672
Probable space group: P B C N
;
_chemical_formula_sum "Si O2"
_cell_formula_units_Z 40
_cell_length_a 9.132665
_cell_length_b 21.945452
_cell_length_c 10.556774
_cell_angle_alpha 90.000000
_cell_angle_beta 90.000000
_cell_angle_gamma 90.000000
_cell_volume 2115.793516
_symmetry_space_group_name_H-M "P B C N"
_symmetry_group_IT_number 60
_symmetry_cell_setting 'orthorhombic'
loop_
_space_group_symop_operation_xyz
x,y,z
1/2-x,1/2-y,1/2+z
1/2+x,1/2-y,-z
-x,y,1/2-z
-x,-y,-z
1/2+x,1/2+y,1/2-z
1/2-x,1/2+y,z
x,-y,1/2+z
loop_
_atom_site_type_symbol
_atom_site_label
_atom_site_fract_x
_atom_site_fract_y
_atom_site_fract_z
Si Si1 0.608029 0.451062 0.136628
Si Si2 0.159902 0.925914 0.978320
Si Si3 0.663959 0.708220 0.108022
Si Si4 0.156334 0.258689 0.130721
Si Si5 0.345144 0.896231 0.209990
O O1 0.500000 0.465383 0.250000
O O2 0.511029 0.424950 0.021363
O O3 0.731411 0.401114 0.172374
O O4 0.688594 0.514804 0.106395
O O5 0.273275 0.932730 0.094074
O O6 0.188795 0.864085 0.901739
O O7 0.730376 0.727342 0.245064
O O8 0.493718 0.724698 0.098715
O O9 0.740674 0.744359 0.992360
O O10 0.124509 0.327589 0.169458
O O11 0.500000 0.926053 0.250000
#
# Coordination Sequence:
#
# PCOD8246672 Si02
#       5
#     8   8   8   8   8
#     4   9  19  35  57  81 108 147 186 234 280 334
#     4   9  20  35  56  83 107 145 194 233 277 333
#     4  10  21  37  58  84 116 146 191 235 286 337
#     4  10  22  37  57  87 113 152 186 236 285 338
#     4  10  19  36  55  78 117 146 183 230 291 343
#
# _framework density 18.905438
#
# number of rings (size 3 to 8) (size 9 to 14) (size 15 to 20)
#    0.000    2.400    2.000    0.000    5.600    1.600 
#    0.000    0.000    8.800    0.000    0.000    0.000 
#    0.000    0.000    0.000    0.000    0.000    0.000 
#
# Total GULP energy -495812.764727 kJ/mol
# GULP energy per Si atom -12395.319118 kJ/mol
# Density = 1.886241 g / cm^3
# Si number density = 18.905438 Si / 1000 Ang^3
#
#
#
# Elastic Constant Matrix: (Units=GPa)
#
#
# Indices 1 2 3 4 5 6 
#
# 1 89.5719 17.7347 40.4236 0.0000 0.0000 0.0000
# 2 17.7347 53.1503 18.7276 0.0000 0.0000 0.0000
# 3 40.4236 18.7276 101.9541 0.0000 0.0000 0.0000
# 4 0.0000 0.0000 0.0000 32.0644 0.0000 0.0000
# 5 0.0000 0.0000 0.0000 0.0000 30.8527 0.0000
# 6 0.0000 0.0000 0.0000 0.0000 0.0000 17.7601
#
#
#
# Elastic Compliance Matrix: (Units=1/GPa)
#
#
# Indices 1 2 3 4 5 6 
#
# 1 0.014004 -0.002904 -0.005019 0.000000 0.000000 0.000000
# 2 -0.002904 0.020719 -0.002654 0.000000 0.000000 0.000000
# 3 -0.005019 -0.002654 0.012286 0.000000 0.000000 0.000000
# 4 0.000000 0.000000 0.000000 0.031187 0.000000 0.000000
# 5 0.000000 0.000000 0.000000 0.000000 0.032412 0.000000
# 6 0.000000 0.000000 0.000000 0.000000 0.000000 0.056306
#
#
# Mechanical properties :
#
#
# Convention : Reuss Voigt Hill
#
# Bulk Modulus (GPa) = 38.67907 44.27203 41.47555
# Shear Modulus (GPa) = 25.42101 27.32147 26.37124
#
# Velocity S-wave (km/s) = 3.67091 3.80566 3.73889
# Velocity P-wave (km/s) = 6.20251 6.54058 6.37378
#
# Compressibility (1/GPa) = 0.02585378
#
# Stress axis : x y z
#
# Youngs Moduli (GPa) = 71.40637 48.26514 81.39429
#
# Poissons Ratio (x) = 0.14018 0.40852
# Poissons Ratio (y) = 0.20739 0.21604
# Poissons Ratio (z) = 0.35839 0.12811
#
# Static dielectric constant tensor:
#      x y z
#    x 3.551090 0.000000 0.000000 
#    y 0.000000 3.339670 0.000000 
#    z 0.000000 0.000000 3.720880 
# 
# 
# High freq. dielectric constant tensor:
#      x y z
#    x 1.721860 0.000000 0.000000 
#    y 0.000000 1.727970 0.000000 
#    z 0.000000 0.000000 1.739500 
# 
# From -- ./inp_files/9933.got.cif
#   From: 2010.03.12/outbox.cif.g09.slc.cpg/sg60_5_cif.got.tgz:9933.got - 2010.04.10 18:46:24.
