data_PCOD8246346
_publ_section_title
;
Structure prediction by ZEFSAII (Michael W. Deem and Ramdas Pophale) SiO2 
 PCOD8246346
Probable space group: P B C N
;
_chemical_formula_sum "Si O2"
_cell_formula_units_Z 48
_cell_length_a 9.959856
_cell_length_b 15.252414
_cell_length_c 14.464858
_cell_angle_alpha 90.000000
_cell_angle_beta 90.000000
_cell_angle_gamma 90.000000
_cell_volume 2197.383297
_symmetry_space_group_name_H-M "P B C N"
_symmetry_group_IT_number 60
_symmetry_cell_setting 'orthorhombic'
loop_
_space_group_symop_operation_xyz
x,y,z
1/2-x,1/2-y,1/2+z
1/2+x,1/2-y,-z
-x,y,1/2-z
-x,-y,-z
1/2+x,1/2+y,1/2-z
1/2-x,1/2+y,z
x,-y,1/2+z
loop_
_atom_site_type_symbol
_atom_site_label
_atom_site_fract_x
_atom_site_fract_y
_atom_site_fract_z
Si Si1 0.479267 0.414156 0.851961
Si Si2 0.713181 0.446313 0.091849
Si Si3 0.543826 0.300268 0.011828
Si Si4 0.715612 0.236577 0.393915
Si Si5 0.738748 0.036956 0.388892
Si Si6 0.650106 0.878569 0.267937
O O1 0.500000 0.376675 0.750000
O O2 0.339866 0.465808 0.859714
O O3 0.601747 0.480985 0.877649
O O4 0.470683 0.330080 0.917753
O O5 0.585830 0.385733 0.068783
O O6 0.804408 0.396385 0.164190
O O7 0.797221 0.469214 0.998465
O O8 0.437952 0.246411 0.072163
O O9 0.679362 0.248484 0.979558
O O10 0.719077 0.137551 0.354185
O O11 0.754806 0.304646 0.313364
O O12 0.652529 0.967023 0.330936
O O13 0.500000 0.844922 0.250000
#
# Coordination Sequence:
#
# PCOD8246346 Si02
#       6
#     8   8   8   8   8   8
#     4  10  17  35  68  94 124 165 230 282 334 419
#     4  10  21  40  69  95 132 175 233 285 350 418
#     4  10  23  42  65  99 133 188 230 288 352 419
#     4  10  24  45  68  97 142 180 239 287 351 423
#     4  10  23  45  62 102 134 177 230 283 355 416
#     4  12  26  44  69 104 141 185 236 295 351 415
#
# _framework density 21.844163000000002
#
# number of rings (size 3 to 8) (size 9 to 14) (size 15 to 20)
#    0.000    2.000    1.667    4.000    4.667    3.333 
#    6.000    0.000    0.000    0.000    0.000    0.000 
#    0.000    0.000    0.000    0.000    0.000    0.000 
#
# Total GULP energy -594898.463056 kJ/mol
# GULP energy per Si atom -12393.717980 kJ/mol
# Density = 2.179445 g / cm^3
# Si number density = 21.844163 Si / 1000 Ang^3
#
#
#
# Elastic Constant Matrix: (Units=GPa)
#
#
# Indices 1 2 3 4 5 6 
#
# 1 53.2049 2.0611 7.6397 0.0000 0.0000 0.0000
# 2 2.0611 79.1928 30.4859 0.0000 0.0000 0.0000
# 3 7.6397 30.4859 124.9238 0.0000 0.0000 0.0000
# 4 0.0000 0.0000 0.0000 13.4619 0.0000 0.0000
# 5 0.0000 0.0000 0.0000 0.0000 32.7532 0.0000
# 6 0.0000 0.0000 0.0000 0.0000 0.0000 25.0755
#
#
#
# Elastic Compliance Matrix: (Units=1/GPa)
#
#
# Indices 1 2 3 4 5 6 
#
# 1 0.018962 -0.000052 -0.001147 0.000000 0.000000 0.000000
# 2 -0.000052 0.013937 -0.003398 0.000000 0.000000 0.000000
# 3 -0.001147 -0.003398 0.008904 0.000000 0.000000 0.000000
# 4 0.000000 0.000000 0.000000 0.074284 0.000000 0.000000
# 5 0.000000 0.000000 0.000000 0.000000 0.030531 0.000000
# 6 0.000000 0.000000 0.000000 0.000000 0.000000 0.039880
#
#
# Mechanical properties :
#
#
# Convention : Reuss Voigt Hill
#
# Bulk Modulus (GPa) = 30.66604 37.52165 34.09385
# Shear Modulus (GPa) = 24.20590 28.73378 26.46984
#
# Velocity S-wave (km/s) = 3.33245 3.63078 3.48481
# Velocity P-wave (km/s) = 5.37364 5.89839 5.64212
#
# Compressibility (1/GPa) = 0.03260936
#
# Stress axis : x y z
#
# Youngs Moduli (GPa) = 52.73719 71.75240 112.30622
#
# Poissons Ratio (x) = 0.00373 0.12881
# Poissons Ratio (y) = 0.00274 0.38161
# Poissons Ratio (z) = 0.06049 0.24381
#
# Static dielectric constant tensor:
#      x y z
#    x 3.746750 0.000000 0.000000 
#    y 0.000000 3.718970 0.000000 
#    z 0.000000 0.000000 4.071790 
# 
# 
# High freq. dielectric constant tensor:
#      x y z
#    x 1.841580 0.000000 0.000000 
#    y 0.000000 1.844350 0.000000 
#    z 0.000000 0.000000 1.864780 
# 
# From -- ./inp_files/16255.got.cif
#   From: 2010.03.12/outbox.cif.g09.slc.cpg/sg60_9_cif.got.tgz:16255.got - 2010.04.10 18:46:24.
