data_PCOD8246338
_publ_section_title
;
Structure prediction by ZEFSAII (Michael W. Deem and Ramdas Pophale) SiO2 
 PCOD8246338
Probable space group: P B C N
;
_chemical_formula_sum "Si O2"
_cell_formula_units_Z 64
_cell_length_a 18.530044
_cell_length_b 9.121379
_cell_length_c 19.841304
_cell_angle_alpha 90.000000
_cell_angle_beta 90.000000
_cell_angle_gamma 90.000000
_cell_volume 3353.568357
_symmetry_space_group_name_H-M "P B C N"
_symmetry_group_IT_number 60
_symmetry_cell_setting 'orthorhombic'
loop_
_space_group_symop_operation_xyz
x,y,z
1/2-x,1/2-y,1/2+z
1/2+x,1/2-y,-z
-x,y,1/2-z
-x,-y,-z
1/2+x,1/2+y,1/2-z
1/2-x,1/2+y,z
x,-y,1/2+z
loop_
_atom_site_type_symbol
_atom_site_label
_atom_site_fract_x
_atom_site_fract_y
_atom_site_fract_z
Si Si1 0.855282 0.363266 0.078319
Si Si2 0.801865 0.424375 0.475020
Si Si3 0.870716 0.157784 0.543357
Si Si4 0.112934 0.373142 0.626225
Si Si5 0.674674 0.847804 0.731015
Si Si6 0.233486 0.087814 0.835580
Si Si7 0.639263 0.620776 0.970591
Si Si8 0.448624 0.893998 0.872861
O O1 0.807731 0.325915 0.144115
O O2 0.929727 0.450032 0.092159
O O3 0.801454 0.478886 0.042143
O O4 0.869935 0.219293 0.036715
O O5 0.823776 0.259683 0.493869
O O6 0.856970 0.501675 0.423186
O O7 0.720683 0.417410 0.448321
O O8 0.822242 0.080506 0.601314
O O9 0.934200 0.256610 0.576338
O O10 0.901287 0.029925 0.493041
O O11 0.165180 0.379971 0.690415
O O12 0.108249 0.210836 0.592697
O O13 0.031498 0.407063 0.647986
O O14 0.694732 0.677411 0.723858
O O15 0.599398 0.878893 0.693697
O O16 0.741499 0.933949 0.696459
#
# Coordination Sequence:
#
# PCOD8246338 Si02
#       8
#     8   8   8   8   8   8   8   8
#     4   9  17  32  60  82 108 138 188 232 273 327
#     4  10  19  33  55  83 116 143 175 230 283 336
#     4  10  18  33  60  84 110 138 187 238 278 320
#     4  11  24  37  52  79 122 154 177 215 280 354
#     4  10  22  36  59  79 111 147 191 233 260 326
#     4  10  17  34  57  84 101 138 192 239 267 304
#     4  11  19  32  56  86 115 139 175 236 289 323
#     4   9  21  39  57  79 107 156 192 221 265 327
#
# _framework density 19.084149
#
# number of rings (size 3 to 8) (size 9 to 14) (size 15 to 20)
#    0.000    2.000    2.500    2.625    1.750    5.000 
#    0.000    0.000    0.000    0.000    0.000    8.750 
#    0.000    0.000    0.000    0.000    0.000    0.000 
#
# Total GULP energy -792923.708578 kJ/mol
# GULP energy per Si atom -12389.432947 kJ/mol
# Density = 1.904071 g / cm^3
# Si number density = 19.084149 Si / 1000 Ang^3
#
#
#
# Elastic Constant Matrix: (Units=GPa)
#
#
# Indices 1 2 3 4 5 6 
#
# 1 68.8086 19.4611 18.0670 0.0000 0.0000 0.0000
# 2 19.4611 88.1702 29.3317 0.0000 0.0000 0.0000
# 3 18.0670 29.3317 77.0399 0.0000 0.0000 0.0000
# 4 0.0000 0.0000 0.0000 19.6993 0.0000 0.0000
# 5 0.0000 0.0000 0.0000 0.0000 21.0013 0.0000
# 6 0.0000 0.0000 0.0000 0.0000 0.0000 15.6245
#
#
#
# Elastic Compliance Matrix: (Units=1/GPa)
#
#
# Indices 1 2 3 4 5 6 
#
# 1 0.015996 -0.002614 -0.002756 0.000000 0.000000 0.000000
# 2 -0.002614 0.013414 -0.004494 0.000000 0.000000 0.000000
# 3 -0.002756 -0.004494 0.015338 0.000000 0.000000 0.000000
# 4 0.000000 0.000000 0.000000 0.050763 0.000000 0.000000
# 5 0.000000 0.000000 0.000000 0.000000 0.047616 0.000000
# 6 0.000000 0.000000 0.000000 0.000000 0.000000 0.064002
#
#
# Mechanical properties :
#
#
# Convention : Reuss Voigt Hill
#
# Bulk Modulus (GPa) = 39.96903 40.85980 40.41442
# Shear Modulus (GPa) = 21.25883 22.40895 21.83389
#
# Velocity S-wave (km/s) = 3.34121 3.43040 3.38610
# Velocity P-wave (km/s) = 5.98949 6.09484 6.04239
#
# Compressibility (1/GPa) = 0.02501937
#
# Stress axis : x y z
#
# Youngs Moduli (GPa) = 62.51567 74.55079 65.19888
#
# Poissons Ratio (x) = 0.19486 0.17970
# Poissons Ratio (y) = 0.16340 0.29301
# Poissons Ratio (z) = 0.17230 0.33504
#
# Static dielectric constant tensor:
#      x y z
#    x 3.216740 0.000000 0.000000 
#    y 0.000000 3.581570 0.000000 
#    z 0.000000 0.000000 3.344930 
# 
# 
# High freq. dielectric constant tensor:
#      x y z
#    x 1.722130 0.000000 0.000000 
#    y 0.000000 1.744630 0.000000 
#    z 0.000000 0.000000 1.723080 
# 
# From -- ./inp_files/23086.got.cif
#   From: 2010.03.12/outbox.cif.g09.slc.cpg/sg60_12_cif.got.tgz:23086.got - 2010.04.10 18:46:24.
