data_PCOD8246354
_publ_section_title
;
Structure prediction by ZEFSAII (Michael W. Deem and Ramdas Pophale) SiO2 
 PCOD8246354
Probable space group: P B C N
;
_chemical_formula_sum "Si O2"
_cell_formula_units_Z 40
_cell_length_a 9.962806
_cell_length_b 10.495562
_cell_length_c 17.051690
_cell_angle_alpha 90.000000
_cell_angle_beta 90.000000
_cell_angle_gamma 90.000000
_cell_volume 1783.014195
_symmetry_space_group_name_H-M "P B C N"
_symmetry_group_IT_number 60
_symmetry_cell_setting 'orthorhombic'
loop_
_space_group_symop_operation_xyz
x,y,z
1/2-x,1/2-y,1/2+z
1/2+x,1/2-y,-z
-x,y,1/2-z
-x,-y,-z
1/2+x,1/2+y,1/2-z
1/2-x,1/2+y,z
x,-y,1/2+z
loop_
_atom_site_type_symbol
_atom_site_label
_atom_site_fract_x
_atom_site_fract_y
_atom_site_fract_z
Si Si1 0.206317 0.331325 0.219904
Si Si2 0.000000 0.915875 0.250000
Si Si3 0.500000 0.048750 0.250000
Si Si4 0.903116 0.413332 0.594841
Si Si5 0.546425 0.821130 0.432303
Si Si6 0.118895 0.874376 0.845825
O O1 0.366476 0.333375 0.232246
O O2 0.172649 0.314674 0.127499
O O3 0.146942 0.213085 0.269059
O O4 0.134166 0.460915 0.249046
O O5 0.974288 0.006378 0.175448
O O6 0.514300 0.137256 0.172171
O O7 0.909986 0.313031 0.523357
O O8 0.750090 0.433492 0.616329
O O9 0.963036 0.550146 0.575842
O O10 0.451028 0.703432 0.414974
#
# Coordination Sequence:
#
# PCOD8246354 Si02
#       6
#     8   4   4   8   8   8
#     4  11  21  41  66  93 126 168 216 261 322 384
#     4  12  23  39  68  98 124 170 219 267 316 388
#     4  10  17  41  64  80 120 176 199 255 322 372
#     4  10  22  39  67  90 126 171 215 260 326 389
#     4  10  21  45  63  91 133 172 208 275 331 380
#     4  12  20  42  65  91 133 166 213 270 320 389
#
# _framework density 22.433921999999999
#
# number of rings (size 3 to 8) (size 9 to 14) (size 15 to 20)
#    0.000    1.200    8.000    0.000    0.000    0.800 
#   18.000    1.000    0.000    0.000    0.000    0.000 
#    0.000    0.000    0.000    0.000    0.000    0.000 
#
# Total GULP energy -495795.059553 kJ/mol
# GULP energy per Si atom -12394.876489 kJ/mol
# Density = 2.238286 g / cm^3
# Si number density = 22.433922 Si / 1000 Ang^3
#
#
#
# Elastic Constant Matrix: (Units=GPa)
#
#
# Indices 1 2 3 4 5 6 
#
# 1 118.9132 8.3829 22.6842 0.0000 0.0000 0.0000
# 2 8.3829 17.1006 2.1762 0.0000 0.0000 0.0000
# 3 22.6842 2.1762 135.9352 0.0000 0.0000 0.0000
# 4 0.0000 0.0000 0.0000 17.2962 0.0000 0.0000
# 5 0.0000 0.0000 0.0000 0.0000 26.9690 0.0000
# 6 0.0000 0.0000 0.0000 0.0000 0.0000 24.7354
#
#
#
# Elastic Compliance Matrix: (Units=1/GPa)
#
#
# Indices 1 2 3 4 5 6 
#
# 1 0.008980 -0.004220 -0.001431 0.000000 0.000000 0.000000
# 2 -0.004220 0.060580 -0.000266 0.000000 0.000000 0.000000
# 3 -0.001431 -0.000266 0.007599 0.000000 0.000000 0.000000
# 4 0.000000 0.000000 0.000000 0.057816 0.000000 0.000000
# 5 0.000000 0.000000 0.000000 0.000000 0.037080 0.000000
# 6 0.000000 0.000000 0.000000 0.000000 0.000000 0.040428
#
#
# Mechanical properties :
#
#
# Convention : Reuss Voigt Hill
#
# Bulk Modulus (GPa) = 15.30781 37.60398 26.45590
# Shear Modulus (GPa) = 20.31764 29.71382 25.01573
#
# Velocity S-wave (km/s) = 3.01269 3.64332 3.34291
# Velocity P-wave (km/s) = 4.35202 5.87341 5.16899
#
# Compressibility (1/GPa) = 0.06532613
#
# Stress axis : x y z
#
# Youngs Moduli (GPa) = 111.35899 16.50714 131.58767
#
# Poissons Ratio (x) = 0.06966 0.18830
# Poissons Ratio (y) = 0.46993 0.03495
# Poissons Ratio (z) = 0.15935 0.00438
#
# Static dielectric constant tensor:
#      x y z
#    x 4.077900 0.000000 0.000000 
#    y 0.000000 3.767080 0.000000 
#    z 0.000000 0.000000 4.698210 
# 
# 
# High freq. dielectric constant tensor:
#      x y z
#    x 1.888650 0.000000 0.000000 
#    y 0.000000 1.867190 0.000000 
#    z 0.000000 0.000000 1.885130 
# 
# From -- ./inp_files/19048.got.cif
#   From: 2010.03.12/outbox.cif.g09.slc.cpg/sg60_10_cif.got.tgz:19048.got - 2010.04.10 18:46:24.
