data_PCOD8246179
_publ_section_title
;
Structure prediction by ZEFSAII (Michael W. Deem and Ramdas Pophale) SiO2 
 PCOD8246179
Probable space group: P M M N
;
_chemical_formula_sum "Si O2"
_cell_formula_units_Z 48
_cell_length_a 19.546188
_cell_length_b 9.319049
_cell_length_c 15.624008
_cell_angle_alpha 90.000000
_cell_angle_beta 90.000000
_cell_angle_gamma 90.000000
_cell_volume 2845.942489
_symmetry_space_group_name_H-M "P M M N"
_symmetry_group_IT_number 59
_space_group.IT_coordinate_system_code '2'
_symmetry_cell_setting 'orthorhombic'
loop_
_space_group_symop_operation_xyz
x,y,z
1/2-x,1/2-y,z
1/2+x,-y,-z
-x,1/2+y,-z
-x,-y,-z
1/2+x,1/2+y,-z
1/2-x,y,z
x,1/2-y,z
loop_
_atom_site_type_symbol
_atom_site_label
_atom_site_fract_x
_atom_site_fract_y
_atom_site_fract_z
Si Si1 0.929296 0.582151 0.991692
Si Si2 0.081908 0.579817 0.168585
Si Si3 0.926879 0.584211 0.179830
Si Si4 0.326492 0.421567 0.678396
Si Si5 0.671514 0.417482 0.670588
Si Si6 0.331384 0.409127 0.490595
O O1 0.940417 0.750000 0.970802
O O2 0.888002 0.504085 0.914892
O O3 0.893660 0.563702 0.084961
O O4 0.000000 0.500000 0.000000
O O5 0.085146 0.750000 0.151098
O O6 0.127968 0.532135 0.248143
O O7 0.004418 0.524177 0.185277
O O8 0.932087 0.750000 0.203341
O O9 0.877333 0.511030 0.250167
O O10 0.250000 0.481846 0.695376
O O11 0.324127 0.250000 0.682331
O O12 0.353693 0.468658 0.584126
O O13 0.750000 0.462269 0.687092
O O14 0.664052 0.250000 0.655484
O O15 0.640860 0.490861 0.585481
O O16 0.250000 0.404549 0.489310
O O17 0.361304 0.250000 0.475607
#
# Coordination Sequence:
#
# PCOD8246179 Si02
#       6
#     8   8   8   8   8   8
#     4   9  16  27  44  64  85 112 143 171 204 247
#     4   9  17  29  44  61  82 110 143 176 209 248
#     4   8  14  25  41  60  81 106 135 166 201 243
#     4   8  13  23  41  63  84 106 133 165 202 246
#     4   9  17  29  44  60  80 110 144 174 208 251
#     4   8  14  25  42  62  81 104 135 168 203 245
#
# _framework density 16.866118
#
# number of rings (size 3 to 8) (size 9 to 14) (size 15 to 20)
#    0.000    3.500    0.000    2.500    0.000    0.667 
#    0.000    1.667    0.000    6.000    0.000    0.000 
#    0.000    0.000    0.000    0.000    0.000    0.000 
#
# Total GULP energy -594667.511848 kJ/mol
# GULP energy per Si atom -12388.906497 kJ/mol
# Density = 1.682773 g / cm^3
# Si number density = 16.866118 Si / 1000 Ang^3
#
#
#
# Elastic Constant Matrix: (Units=GPa)
#
#
# Indices 1 2 3 4 5 6 
#
# 1 53.4800 17.9015 61.7420 0.0000 0.0000 0.0000
# 2 17.9015 41.2952 51.1761 0.0000 0.0000 0.0000
# 3 61.7420 51.1761 183.3824 0.0000 0.0000 0.0000
# 4 0.0000 0.0000 0.0000 26.2041 0.0000 0.0000
# 5 0.0000 0.0000 0.0000 0.0000 31.0103 0.0000
# 6 0.0000 0.0000 0.0000 0.0000 0.0000 10.7876
#
#
#
# Elastic Compliance Matrix: (Units=1/GPa)
#
#
# Indices 1 2 3 4 5 6 
#
# 1 0.030604 -0.000761 -0.010092 0.000000 0.000000 0.000000
# 2 -0.000761 0.037037 -0.010080 0.000000 0.000000 0.000000
# 3 -0.010092 -0.010080 0.011664 0.000000 0.000000 0.000000
# 4 0.000000 0.000000 0.000000 0.038162 0.000000 0.000000
# 5 0.000000 0.000000 0.000000 0.000000 0.032247 0.000000
# 6 0.000000 0.000000 0.000000 0.000000 0.000000 0.092699
#
#
# Mechanical properties :
#
#
# Convention : Reuss Voigt Hill
#
# Bulk Modulus (GPa) = 26.70881 59.97743 43.34312
# Shear Modulus (GPa) = 16.84877 23.42293 20.13585
#
# Velocity S-wave (km/s) = 3.16408 3.73065 3.45898
# Velocity P-wave (km/s) = 5.40543 7.36173 6.45809
#
# Compressibility (1/GPa) = 0.03744083
#
# Stress axis : x y z
#
# Youngs Moduli (GPa) = 32.67575 26.99981 85.73599
#
# Poissons Ratio (x) = 0.02053 0.86521
# Poissons Ratio (y) = 0.02485 0.86421
# Poissons Ratio (z) = 0.32975 0.27215
#
# Static dielectric constant tensor:
#      x y z
#    x 3.016960 0.000000 0.000000 
#    y 0.000000 2.993360 0.000000 
#    z 0.000000 0.000000 3.834320 
# 
# 
# High freq. dielectric constant tensor:
#      x y z
#    x 1.607590 0.000000 0.000000 
#    y 0.000000 1.616730 0.000000 
#    z 0.000000 0.000000 1.670720 
# 
# From -- ./inp_files/18233.got.cif
#   From: 2010.03.12/outbox.cif.g09.slc.cpg/sg59_10_cif.got.tgz:18233.got - 2010.04.16 16:29:54.
