data_PCOD8246705
_publ_section_title
;
Structure prediction by ZEFSAII (Michael W. Deem and Ramdas Pophale) SiO2 
 PCOD8246705
Probable space group: P B C N
;
_chemical_formula_sum "Si O2"
_cell_formula_units_Z 64
_cell_length_a 23.343196
_cell_length_b 9.489055
_cell_length_c 13.089703
_cell_angle_alpha 90.000000
_cell_angle_beta 90.000000
_cell_angle_gamma 90.000000
_cell_volume 2899.432971
_symmetry_space_group_name_H-M "P B C N"
_symmetry_group_IT_number 60
_symmetry_cell_setting 'orthorhombic'
loop_
_space_group_symop_operation_xyz
x,y,z
1/2-x,1/2-y,1/2+z
1/2+x,1/2-y,-z
-x,y,1/2-z
-x,-y,-z
1/2+x,1/2+y,1/2-z
1/2-x,1/2+y,z
x,-y,1/2+z
loop_
_atom_site_type_symbol
_atom_site_label
_atom_site_fract_x
_atom_site_fract_y
_atom_site_fract_z
Si Si1 0.885021 0.895452 0.688373
Si Si2 0.039104 0.115521 0.901095
Si Si3 0.194593 0.307295 0.032637
Si Si4 0.078226 0.996509 0.094683
Si Si5 0.160882 0.388725 0.261941
Si Si6 0.368507 0.177066 0.335418
Si Si7 0.300565 0.518148 0.554174
Si Si8 0.713166 0.417799 0.216645
O O1 0.876929 0.728346 0.678859
O O2 0.939404 0.956628 0.628197
O O3 0.895601 0.929968 0.807028
O O4 0.826490 0.975818 0.648679
O O5 0.071420 0.236019 0.836288
O O6 0.970795 0.119717 0.878648
O O7 0.051733 0.120741 0.022720
O O8 0.147274 0.360449 0.952077
O O9 0.171978 0.343033 0.145350
O O10 0.254526 0.380058 0.001281
O O11 0.203613 0.141157 0.011923
O O12 0.133778 0.923698 0.039720
O O13 0.125058 0.534116 0.269824
O O14 0.221533 0.404426 0.322227
O O15 0.318120 0.266235 0.280919
O O16 0.282850 0.513630 0.672415
#
# Coordination Sequence:
#
# PCOD8246705 Si02
#       8
#     8   8   8   8   8   8   8   8
#     4  10  19  37  58  85 115 157 206 243 304 366
#     4  10  21  37  64  86 113 154 212 254 294 364
#     4  11  23  40  57  92 132 164 199 251 312 372
#     4  10  19  39  62  84 113 157 202 255 294 348
#     4  11  21  36  58  84 129 162 194 256 320 364
#     4  11  23  37  58  94 129 160 206 256 307 366
#     4  10  21  39  61  87 122 161 203 246 309 369
#     4   9  20  35  57  84 119 165 199 249 305 370
#
# _framework density 22.073281999999999
#
# number of rings (size 3 to 8) (size 9 to 14) (size 15 to 20)
#    0.000    1.750    3.750    1.125    7.000    1.000 
#    0.000    0.000    0.000   13.500    0.000    0.000 
#    0.000    0.000    0.000    0.000    0.000    0.000 
#
# Total GULP energy -793243.645801 kJ/mol
# GULP energy per Si atom -12394.431966 kJ/mol
# Density = 2.202304 g / cm^3
# Si number density = 22.073282 Si / 1000 Ang^3
#
#
#
# Elastic Constant Matrix: (Units=GPa)
#
#
# Indices 1 2 3 4 5 6 
#
# 1 138.5679 56.4907 16.0017 0.0000 0.0000 0.0000
# 2 56.4907 131.5402 15.5683 0.0000 0.0000 0.0000
# 3 16.0017 15.5683 27.2721 0.0000 0.0000 0.0000
# 4 0.0000 0.0000 0.0000 26.5844 0.0000 0.0000
# 5 0.0000 0.0000 0.0000 0.0000 24.1858 0.0000
# 6 0.0000 0.0000 0.0000 0.0000 0.0000 22.0989
#
#
#
# Elastic Compliance Matrix: (Units=1/GPa)
#
#
# Indices 1 2 3 4 5 6 
#
# 1 0.009018 -0.003482 -0.003303 0.000000 0.000000 0.000000
# 2 -0.003482 0.009497 -0.003379 0.000000 0.000000 0.000000
# 3 -0.003303 -0.003379 0.040535 0.000000 0.000000 0.000000
# 4 0.000000 0.000000 0.000000 0.037616 0.000000 0.000000
# 5 0.000000 0.000000 0.000000 0.000000 0.041347 0.000000
# 6 0.000000 0.000000 0.000000 0.000000 0.000000 0.045251
#
#
# Mechanical properties :
#
#
# Convention : Reuss Voigt Hill
#
# Bulk Modulus (GPa) = 25.82525 52.61126 39.21825
# Shear Modulus (GPa) = 23.09489 28.52847 25.81168
#
# Velocity S-wave (km/s) = 3.23814 3.59896 3.42330
# Velocity P-wave (km/s) = 5.07010 6.41534 5.78197
#
# Compressibility (1/GPa) = 0.03872179
#
# Stress axis : x y z
#
# Youngs Moduli (GPa) = 110.89488 105.29261 24.67028
#
# Poissons Ratio (x) = 0.36659 0.08150
# Poissons Ratio (y) = 0.38610 0.08335
# Poissons Ratio (z) = 0.36634 0.35575
#
# Static dielectric constant tensor:
#      x y z
#    x 4.201770 0.000000 0.000000 
#    y 0.000000 3.817480 0.000000 
#    z 0.000000 0.000000 4.080560 
# 
# 
# High freq. dielectric constant tensor:
#      x y z
#    x 1.860980 0.000000 0.000000 
#    y 0.000000 1.831270 0.000000 
#    z 0.000000 0.000000 1.883850 
# 
# From -- ./inp_files/17930.got.cif
#   From: 2010.03.12/outbox.cif.g09.slc.cpg/sg60_9_cif.got.tgz:17930.got - 2010.04.10 18:46:24.
