data_PCOD8246917
_publ_section_title
;
Structure prediction by ZEFSAII (Michael W. Deem and Ramdas Pophale) SiO2 
 PCOD8246917
Probable space group: P B C N
;
_chemical_formula_sum "Si O2"
_cell_formula_units_Z 48
_cell_length_a 15.501540
_cell_length_b 8.921481
_cell_length_c 17.302169
_cell_angle_alpha 90.000000
_cell_angle_beta 90.000000
_cell_angle_gamma 90.000000
_cell_volume 2392.832782
_symmetry_space_group_name_H-M "P B C N"
_symmetry_group_IT_number 60
_symmetry_cell_setting 'orthorhombic'
loop_
_space_group_symop_operation_xyz
x,y,z
1/2-x,1/2-y,1/2+z
1/2+x,1/2-y,-z
-x,y,1/2-z
-x,-y,-z
1/2+x,1/2+y,1/2-z
1/2-x,1/2+y,z
x,-y,1/2+z
loop_
_atom_site_type_symbol
_atom_site_label
_atom_site_fract_x
_atom_site_fract_y
_atom_site_fract_z
Si Si1 0.479275 0.600430 0.125318
Si Si2 0.637137 0.399908 0.726511
Si Si3 0.946622 0.424434 0.678234
Si Si4 0.456847 0.866504 0.454858
Si Si5 0.588105 0.718990 0.901185
Si Si6 0.696217 0.725595 0.754001
O O1 0.425640 0.621223 0.202142
O O2 0.581581 0.601830 0.147569
O O3 0.470158 0.742333 0.067661
O O4 0.445132 0.450216 0.084281
O O5 0.686446 0.556720 0.726651
O O6 0.705546 0.266440 0.735704
O O7 0.916020 0.561751 0.623034
O O8 0.862817 0.337636 0.705695
O O9 0.000000 0.495029 0.750000
O O10 0.007784 0.305074 0.636334
O O11 0.388555 0.789389 0.514511
O O12 0.500000 0.000000 0.500000
O O13 0.671474 0.732859 0.845561
#
# Coordination Sequence:
#
# PCOD8246917 Si02
#       6
#     8   8   8   8   8   8
#     4  10  20  38  60  88 115 155 201 240 296 352
#     4  10  22  35  63  89 115 149 201 249 291 348
#     4   9  18  33  56  86 116 150 193 247 287 346
#     4  10  21  33  59  89 115 153 200 237 290 350
#     4   9  18  38  59  81 116 159 190 240 296 357
#     4  10  20  36  59  85 119 151 196 247 301 339
#
# _framework density 20.059905000000001
#
# number of rings (size 3 to 8) (size 9 to 14) (size 15 to 20)
#    0.000    2.333    1.667    0.500    4.667    2.667 
#    0.000    0.000   18.333    0.000    0.000    0.000 
#    0.000    0.000    0.000    0.000    0.000    0.000 
#
# Total GULP energy -594800.220599 kJ/mol
# GULP energy per Si atom -12391.671262 kJ/mol
# Density = 2.001425 g / cm^3
# Si number density = 20.059905 Si / 1000 Ang^3
#
#
#
# Elastic Constant Matrix: (Units=GPa)
#
#
# Indices 1 2 3 4 5 6 
#
# 1 76.5673 33.0798 12.3561 0.0000 0.0000 0.0000
# 2 33.0798 116.3946 57.1555 0.0000 0.0000 0.0000
# 3 12.3561 57.1555 88.5386 0.0000 0.0000 0.0000
# 4 0.0000 0.0000 0.0000 18.4632 0.0000 0.0000
# 5 0.0000 0.0000 0.0000 0.0000 9.0095 0.0000
# 6 0.0000 0.0000 0.0000 0.0000 0.0000 17.6999
#
#
#
# Elastic Compliance Matrix: (Units=1/GPa)
#
#
# Indices 1 2 3 4 5 6 
#
# 1 0.014944 -0.004719 0.000961 0.000000 0.000000 0.000000
# 2 -0.004719 0.014069 -0.008424 0.000000 0.000000 0.000000
# 3 0.000961 -0.008424 0.016598 0.000000 0.000000 0.000000
# 4 0.000000 0.000000 0.000000 0.054162 0.000000 0.000000
# 5 0.000000 0.000000 0.000000 0.000000 0.110994 0.000000
# 6 0.000000 0.000000 0.000000 0.000000 0.000000 0.056497
#
#
# Mechanical properties :
#
#
# Convention : Reuss Voigt Hill
#
# Bulk Modulus (GPa) = 47.06378 54.07591 50.56985
# Shear Modulus (GPa) = 16.73860 20.96181 18.85020
#
# Velocity S-wave (km/s) = 2.89178 3.23609 3.06877
# Velocity P-wave (km/s) = 5.88748 6.40147 6.14985
#
# Compressibility (1/GPa) = 0.02124776
#
# Stress axis : x y z
#
# Youngs Moduli (GPa) = 66.91590 71.07825 60.24748
#
# Poissons Ratio (x) = 0.33542 -0.05788
# Poissons Ratio (y) = 0.31577 0.50750
# Poissons Ratio (z) = -0.06429 0.59873
#
# Static dielectric constant tensor:
#      x y z
#    x 3.295840 0.000000 0.000000 
#    y 0.000000 3.975440 0.000000 
#    z 0.000000 0.000000 4.132440 
# 
# 
# High freq. dielectric constant tensor:
#      x y z
#    x 1.738340 0.000000 0.000000 
#    y 0.000000 1.806260 0.000000 
#    z 0.000000 0.000000 1.785470 
# 
# From -- ./inp_files/20791.got.cif
#   From: 2010.03.12/outbox.cif.g09.slc.cpg/sg60_11_cif.got.tgz:20791.got - 2010.04.10 18:46:24.
