data_PCOD8246064
_publ_section_title
;
Structure prediction by ZEFSAII (Michael W. Deem and Ramdas Pophale) SiO2 
 PCOD8246064
Probable space group: P M M N
;
_chemical_formula_sum "Si O2"
_cell_formula_units_Z 32
_cell_length_a 7.510846
_cell_length_b 17.974149
_cell_length_c 12.258551
_cell_angle_alpha 90.000000
_cell_angle_beta 90.000000
_cell_angle_gamma 90.000000
_cell_volume 1654.917442
_symmetry_space_group_name_H-M "P M M N"
_symmetry_group_IT_number 59
_space_group.IT_coordinate_system_code '2'
_symmetry_cell_setting 'orthorhombic'
loop_
_space_group_symop_operation_xyz
x,y,z
1/2-x,1/2-y,z
1/2+x,-y,-z
-x,1/2+y,-z
-x,-y,-z
1/2+x,1/2+y,-z
1/2-x,y,z
x,1/2-y,z
loop_
_atom_site_type_symbol
_atom_site_label
_atom_site_fract_x
_atom_site_fract_y
_atom_site_fract_z
Si Si1 0.039315 0.332274 0.223444
Si Si2 0.750000 0.338393 0.866294
Si Si3 0.250000 0.661411 0.381196
Si Si4 0.947428 0.838731 0.537994
Si Si5 0.541575 0.913899 0.991187
O O1 0.250000 0.326096 0.226107
O O2 0.958738 0.250000 0.200292
O O3 0.978061 0.362730 0.342212
O O4 0.976505 0.387754 0.128447
O O5 0.750000 0.250000 0.873558
O O6 0.750000 0.367704 0.742044
O O7 0.570077 0.369077 0.919660
O O8 0.250000 0.750000 0.384020
O O9 0.423730 0.630150 0.443837
O O10 0.750000 0.871425 0.516365
O O11 0.940295 0.750000 0.536257
O O12 0.750000 0.897092 0.010550
O O13 0.500000 0.000000 0.000000
#
# Coordination Sequence:
#
# PCOD8246064 Si02
#       5
#     8   4   4   8   8
#     4   8  15  29  53  84 110 136 184 242 287 335
#     4  11  24  39  59  89 118 151 199 238 275 348
#     4   9  18  31  49  79 115 145 179 228 280 334
#     4   8  14  27  48  76 108 138 173 228 290 332
#     4  11  22  39  59  83 116 160 192 236 298 350
#
# _framework density 19.336312
#
# number of rings (size 3 to 8) (size 9 to 14) (size 15 to 20)
#    0.000    2.750    1.250    2.250    0.000    3.500 
#    0.000    5.000    0.000    1.500    0.000    0.000 
#    0.000    0.000    0.000    0.000    0.000    0.000 
#
# Total GULP energy -396632.977463 kJ/mol
# GULP energy per Si atom -12394.780546 kJ/mol
# Density = 1.929230 g / cm^3
# Si number density = 19.336312 Si / 1000 Ang^3
#
#
#
# Elastic Constant Matrix: (Units=GPa)
#
#
# Indices 1 2 3 4 5 6 
#
# 1 117.5668 26.4141 80.7883 0.0000 0.0000 0.0000
# 2 26.4141 67.3352 47.8650 0.0000 0.0000 0.0000
# 3 80.7883 47.8650 189.7679 0.0000 0.0000 0.0000
# 4 0.0000 0.0000 0.0000 2.7595 0.0000 0.0000
# 5 0.0000 0.0000 0.0000 0.0000 34.1419 0.0000
# 6 0.0000 0.0000 0.0000 0.0000 0.0000 19.4890
#
#
#
# Elastic Compliance Matrix: (Units=1/GPa)
#
#
# Indices 1 2 3 4 5 6 
#
# 1 0.012119 -0.001324 -0.004825 0.000000 0.000000 0.000000
# 2 -0.001324 0.018240 -0.004037 0.000000 0.000000 0.000000
# 3 -0.004825 -0.004037 0.008342 0.000000 0.000000 0.000000
# 4 0.000000 0.000000 0.000000 0.362390 0.000000 0.000000
# 5 0.000000 0.000000 0.000000 0.000000 0.029290 0.000000
# 6 0.000000 0.000000 0.000000 0.000000 0.000000 0.051311
#
#
# Mechanical properties :
#
#
# Convention : Reuss Voigt Hill
#
# Bulk Modulus (GPa) = 54.55960 76.08940 65.32450
# Shear Modulus (GPa) = 9.83915 25.91824 17.87870
#
# Velocity S-wave (km/s) = 2.25820 3.66511 3.04405
# Velocity P-wave (km/s) = 5.92256 7.57276 6.79792
#
# Compressibility (1/GPa) = 0.01832858
#
# Stress axis : x y z
#
# Youngs Moduli (GPa) = 82.51396 54.82411 119.87287
#
# Poissons Ratio (x) = 0.07258 0.57844
# Poissons Ratio (y) = 0.10924 0.48394
# Poissons Ratio (z) = 0.39817 0.22133
#
# Static dielectric constant tensor:
#      x y z
#    x 3.623990 0.000000 0.000000 
#    y 0.000000 2.952610 0.000000 
#    z 0.000000 0.000000 3.927590 
# 
# 
# High freq. dielectric constant tensor:
#      x y z
#    x 1.755600 0.000000 0.000000 
#    y 0.000000 1.704880 0.000000 
#    z 0.000000 0.000000 1.762190 
# 
# From -- ./inp_files/13773.got.cif
#   From: 2010.03.12/outbox.cif.g09.slc.cpg/sg59_7_cif.got.tgz:13773.got - 2010.04.16 16:29:54.
