data_PCOD8246019
_publ_section_title
;
Structure prediction by ZEFSAII (Michael W. Deem and Ramdas Pophale) SiO2 
 PCOD8246019
Probable space group: P M M N
;
_chemical_formula_sum "Si O2"
_cell_formula_units_Z 64
_cell_length_a 9.054812
_cell_length_b 19.248729
_cell_length_c 21.536684
_cell_angle_alpha 90.000000
_cell_angle_beta 90.000000
_cell_angle_gamma 90.000000
_cell_volume 3753.706667
_symmetry_space_group_name_H-M "P M M N"
_symmetry_group_IT_number 59
_space_group.IT_coordinate_system_code '2'
_symmetry_cell_setting 'orthorhombic'
loop_
_space_group_symop_operation_xyz
x,y,z
1/2-x,1/2-y,z
1/2+x,-y,-z
-x,1/2+y,-z
-x,-y,-z
1/2+x,1/2+y,-z
1/2-x,y,z
x,1/2-y,z
loop_
_atom_site_type_symbol
_atom_site_label
_atom_site_fract_x
_atom_site_fract_y
_atom_site_fract_z
Si Si1 0.915754 0.394656 0.986109
Si Si2 0.582572 0.171261 0.621069
Si Si3 0.084436 0.462953 0.088940
Si Si4 0.574886 0.538065 0.557911
Si Si5 0.578576 0.543548 0.334943
Si Si6 0.922028 0.672564 0.121793
Si Si7 0.581176 0.328533 0.475165
Si Si8 0.421190 0.037079 0.807699
O O1 0.750000 0.369419 0.999464
O O2 0.917169 0.467655 0.951237
O O3 0.995413 0.337754 0.943513
O O4 0.998784 0.402380 0.051990
O O5 0.750000 0.152434 0.640585
O O6 0.545406 0.250000 0.639295
O O7 0.465893 0.123821 0.656826
O O8 0.563960 0.159387 0.548111
O O9 0.250000 0.437000 0.101505
O O10 0.007789 0.477906 0.154825
O O11 0.500000 0.500000 0.500000
O O12 0.750000 0.531327 0.551562
O O13 0.522958 0.503955 0.621896
O O14 0.527076 0.618673 0.560057
O O15 0.750000 0.534117 0.352460
O O16 0.546453 0.523425 0.264199
O O17 0.750000 0.664425 0.107499
O O18 0.958959 0.750000 0.147281
O O19 0.972924 0.615106 0.172503
O O20 0.750000 0.342736 0.455038
O O21 0.535389 0.250000 0.457309
O O22 0.250000 0.028363 0.823620
#
# Coordination Sequence:
#
# PCOD8246019 Si02
#       8
#     8   8   8   8   8   8   8   8
#     4   9  16  26  43  67  93 120 153 195 238 278
#     4   9  18  32  49  69  96 130 165 205 253 303
#     4   9  16  27  45  67  90 118 154 195 240 283
#     4  12  23  35  53  76 103 132 167 213 264 313
#     4  11  22  34  50  73 100 134 175 215 258 309
#     4   9  17  30  47  67  96 133 169 204 240 279
#     4   9  18  34  55  77 101 127 157 199 254 311
#     4   9  19  33  47  66  95 130 168 206 244 291
#
# _framework density 17.049814999999999
#
# number of rings (size 3 to 8) (size 9 to 14) (size 15 to 20)
#    0.000    2.375    1.250    3.000    0.000    5.250 
#    0.000    2.500    0.000    0.000    0.000    0.875 
#    0.000    1.000    0.000    0.000    0.000    0.000 
#
# Total GULP energy -793553.654546 kJ/mol
# GULP energy per Si atom -12399.275852 kJ/mol
# Density = 1.701101 g / cm^3
# Si number density = 17.049815 Si / 1000 Ang^3
#
#
#
# Elastic Constant Matrix: (Units=GPa)
#
#
# Indices 1 2 3 4 5 6 
#
# 1 103.3101 37.3498 52.6535 0.0000 0.0000 0.0000
# 2 37.3498 53.7611 32.1628 0.0000 0.0000 0.0000
# 3 52.6535 32.1628 85.4706 0.0000 0.0000 0.0000
# 4 0.0000 0.0000 0.0000 19.5582 0.0000 0.0000
# 5 0.0000 0.0000 0.0000 0.0000 26.2328 0.0000
# 6 0.0000 0.0000 0.0000 0.0000 0.0000 27.4555
#
#
#
# Elastic Compliance Matrix: (Units=1/GPa)
#
#
# Indices 1 2 3 4 5 6 
#
# 1 0.015750 -0.006630 -0.007208 0.000000 0.000000 0.000000
# 2 -0.006630 0.026796 -0.005999 0.000000 0.000000 0.000000
# 3 -0.007208 -0.005999 0.018398 0.000000 0.000000 0.000000
# 4 0.000000 0.000000 0.000000 0.051129 0.000000 0.000000
# 5 0.000000 0.000000 0.000000 0.000000 0.038120 0.000000
# 6 0.000000 0.000000 0.000000 0.000000 0.000000 0.036423
#
#
# Mechanical properties :
#
#
# Convention : Reuss Voigt Hill
#
# Bulk Modulus (GPa) = 47.01464 54.09710 50.55587
# Shear Modulus (GPa) = 21.42431 22.67434 22.04933
#
# Velocity S-wave (km/s) = 3.54866 3.65072 3.60005
# Velocity P-wave (km/s) = 6.66524 7.04046 6.85542
#
# Compressibility (1/GPa) = 0.02126997
#
# Stress axis : x y z
#
# Youngs Moduli (GPa) = 63.49138 37.31918 54.35467
#
# Poissons Ratio (x) = 0.24743 0.39178
# Poissons Ratio (y) = 0.42095 0.32607
# Poissons Ratio (z) = 0.45764 0.22388
#
# Static dielectric constant tensor:
#      x y z
#    x 3.273840 0.000000 0.000000 
#    y 0.000000 3.136390 0.000000 
#    z 0.000000 0.000000 3.012150 
# 
# 
# High freq. dielectric constant tensor:
#      x y z
#    x 1.665180 0.000000 0.000000 
#    y 0.000000 1.636250 0.000000 
#    z 0.000000 0.000000 1.634350 
# 
# From -- ./inp_files/29705.got.cif
#   From: 2010.03.12/outbox.cif.g09.slc.cpg/sg59_15_cif.got.tgz:29705.got - 2010.04.16 16:29:54.
