data_PCOD8246406
_publ_section_title
;
Structure prediction by ZEFSAII (Michael W. Deem and Ramdas Pophale) SiO2 
 PCOD8246406
Probable space group: P B C N
;
_chemical_formula_sum "Si O2"
_cell_formula_units_Z 64
_cell_length_a 20.735700
_cell_length_b 18.113824
_cell_length_c 8.497058
_cell_angle_alpha 90.000000
_cell_angle_beta 90.000000
_cell_angle_gamma 90.000000
_cell_volume 3191.518949
_symmetry_space_group_name_H-M "P B C N"
_symmetry_group_IT_number 60
_symmetry_cell_setting 'orthorhombic'
loop_
_space_group_symop_operation_xyz
x,y,z
1/2-x,1/2-y,1/2+z
1/2+x,1/2-y,-z
-x,y,1/2-z
-x,-y,-z
1/2+x,1/2+y,1/2-z
1/2-x,1/2+y,z
x,-y,1/2+z
loop_
_atom_site_type_symbol
_atom_site_label
_atom_site_fract_x
_atom_site_fract_y
_atom_site_fract_z
Si Si1 0.496663 0.920009 0.932535
Si Si2 0.364456 0.910117 0.548467
Si Si3 0.003888 0.082309 0.935982
Si Si4 0.752918 0.828255 0.439832
Si Si5 0.745147 0.670177 0.570284
Si Si6 0.364593 0.570637 0.067179
Si Si7 0.627019 0.591528 0.064849
Si Si8 0.642554 0.074456 0.079961
O O1 0.500000 0.931543 0.750000
O O2 0.562494 0.877786 0.983352
O O3 0.425883 0.886870 0.974886
O O4 0.500000 0.000000 0.000000
O O5 0.318569 0.850148 0.469239
O O6 0.347634 0.917255 0.733125
O O7 0.355921 0.988315 0.462600
O O8 0.000000 0.085767 0.750000
O O9 0.073737 0.112551 0.989398
O O10 0.942817 0.124914 0.012365
O O11 0.000000 0.000000 0.000000
O O12 0.728228 0.749198 0.497573
O O13 0.765711 0.827953 0.255312
O O14 0.819709 0.847806 0.524693
O O15 0.699137 0.887563 0.484054
O O16 0.699754 0.609337 0.491932
O O17 0.372075 0.575367 0.252271
O O18 0.359178 0.484340 0.027080
#
# Coordination Sequence:
#
# PCOD8246406 Si02
#       8
#     8   8   8   8   8   8   8   8
#     4   8  16  30  53  82 113 142 177 221 269 319
#     4  10  19  35  58  86 114 146 184 227 274 327
#     4  10  18  32  55  86 117 146 181 229 279 329
#     4  12  25  41  57  79 110 148 189 234 283 336
#     4  12  25  41  57  79 110 148 189 234 283 336
#     4  11  21  37  60  87 115 148 187 231 278 332
#     4  11  21  37  60  87 115 148 187 231 278 332
#     4  10  19  35  58  86 114 146 184 227 274 327
#
# _framework density 20.053146999999999
#
# number of rings (size 3 to 8) (size 9 to 14) (size 15 to 20)
#    0.000    1.500    0.000    8.625    0.000    1.000 
#    0.000    1.250    0.000    1.500    0.000    0.000 
#    0.000    0.000    0.000    0.000    0.000    0.000 
#
# Total GULP energy -793256.759896 kJ/mol
# GULP energy per Si atom -12394.636873 kJ/mol
# Density = 2.000751 g / cm^3
# Si number density = 20.053147 Si / 1000 Ang^3
#
#
#
# Elastic Constant Matrix: (Units=GPa)
#
#
# Indices 1 2 3 4 5 6 
#
# 1 120.2023 8.6204 19.8778 0.0000 0.0000 0.0000
# 2 8.6204 38.7423 6.4083 0.0000 0.0000 0.0000
# 3 19.8778 6.4083 123.4342 0.0000 0.0000 0.0000
# 4 0.0000 0.0000 0.0000 36.6456 0.0000 0.0000
# 5 0.0000 0.0000 0.0000 0.0000 18.9626 0.0000
# 6 0.0000 0.0000 0.0000 0.0000 0.0000 8.7424
#
#
#
# Elastic Compliance Matrix: (Units=1/GPa)
#
#
# Indices 1 2 3 4 5 6 
#
# 1 0.008658 -0.001711 -0.001305 0.000000 0.000000 0.000000
# 2 -0.001711 0.026373 -0.001094 0.000000 0.000000 0.000000
# 3 -0.001305 -0.001094 0.008368 0.000000 0.000000 0.000000
# 4 0.000000 0.000000 0.000000 0.027288 0.000000 0.000000
# 5 0.000000 0.000000 0.000000 0.000000 0.052735 0.000000
# 6 0.000000 0.000000 0.000000 0.000000 0.000000 0.114385
#
#
# Mechanical properties :
#
#
# Convention : Reuss Voigt Hill
#
# Bulk Modulus (GPa) = 28.42518 39.13243 33.77880
# Shear Modulus (GPa) = 19.39832 29.36828 24.38330
#
# Velocity S-wave (km/s) = 3.11359 3.83106 3.49081
# Velocity P-wave (km/s) = 5.20880 6.25508 5.75577
#
# Compressibility (1/GPa) = 0.03518007
#
# Stress axis : x y z
#
# Youngs Moduli (GPa) = 115.50199 37.91741 119.49581
#
# Poissons Ratio (x) = 0.06486 0.15600
# Poissons Ratio (y) = 0.19757 0.13070
# Poissons Ratio (z) = 0.15078 0.04147
#
# Static dielectric constant tensor:
#      x y z
#    x 4.639900 0.000000 0.000000 
#    y 0.000000 3.008610 0.000000 
#    z 0.000000 0.000000 3.788230 
# 
# 
# High freq. dielectric constant tensor:
#      x y z
#    x 1.814080 0.000000 0.000000 
#    y 0.000000 1.733250 0.000000 
#    z 0.000000 0.000000 1.801040 
# 
# From -- ./inp_files/7560.got.cif
#   From: 2010.03.12/outbox.cif.g09.slc.cpg/sg60_4_cif.got.tgz:7560.got - 2010.04.10 18:46:24.
