data_PCOD8246548
_publ_section_title
;
Structure prediction by ZEFSAII (Michael W. Deem and Ramdas Pophale) SiO2 
 PCOD8246548
Probable space group: P B C N
;
_chemical_formula_sum "Si O2"
_cell_formula_units_Z 48
_cell_length_a 12.893276
_cell_length_b 27.489539
_cell_length_c 7.879072
_cell_angle_alpha 90.000000
_cell_angle_beta 90.000000
_cell_angle_gamma 90.000000
_cell_volume 2792.581171
_symmetry_space_group_name_H-M "P B C N"
_symmetry_group_IT_number 60
_symmetry_cell_setting 'orthorhombic'
loop_
_space_group_symop_operation_xyz
x,y,z
1/2-x,1/2-y,1/2+z
1/2+x,1/2-y,-z
-x,y,1/2-z
-x,-y,-z
1/2+x,1/2+y,1/2-z
1/2-x,1/2+y,z
x,-y,1/2+z
loop_
_atom_site_type_symbol
_atom_site_label
_atom_site_fract_x
_atom_site_fract_y
_atom_site_fract_z
Si Si1 0.247505 0.141316 0.066159
Si Si2 0.617919 0.946726 0.449178
Si Si3 0.747505 0.358684 0.566160
Si Si4 0.377935 0.211904 0.250000
Si Si5 0.617919 0.053273 0.550823
Si Si6 0.878064 0.824349 0.250000
O O1 0.189257 0.137120 0.250000
O O2 0.330000 0.186184 0.081083
O O3 0.309650 0.091852 0.040052
O O4 0.166303 0.150079 0.917308
O O5 0.690349 0.908148 0.540054
O O6 0.500000 0.939993 0.514290
O O7 0.625032 0.938600 0.250000
O O8 0.658616 1.000000 0.500001
O O9 0.829999 0.313815 0.581083
O O10 0.666303 0.349922 0.417309
O O11 0.500000 0.204816 0.250000
O O12 0.346606 0.268148 0.249999
O O13 0.000000 0.832318 0.250000
#
# Coordination Sequence:
#
# PCOD8246548 Si02
#       6
#     8   8   8   8   8   8
#     4  10  21  35  58  81 112 146 186 227 282 332
#     4  10  19  32  54  86 120 147 176 220 284 351
#     4  10  21  35  58  81 112 146 186 227 282 332
#     4   9  20  36  58  83 115 145 182 234 284 339
#     4  10  19  32  54  86 120 147 176 220 284 351
#     4  11  22  40  56  77 111 153 198 238 270 315
#
# _framework density 17.188400000000001
#
# number of rings (size 3 to 8) (size 9 to 14) (size 15 to 20)
#    1.000    1.000    1.667    3.000    0.000    2.000 
#    0.000    0.000    0.000    1.000    0.000    0.000 
#    0.000    0.000    0.000    0.000    0.000    0.000 
#
# Total GULP energy -594929.158230 kJ/mol
# GULP energy per Si atom -12394.357463 kJ/mol
# Density = 1.714928 g / cm^3
# Si number density = 17.188400 Si / 1000 Ang^3
#
#
#
# Elastic Constant Matrix: (Units=GPa)
#
#
# Indices 1 2 3 4 5 6 
#
# 1 74.5050 57.3114 49.2084 0.0000 0.0000 0.0000
# 2 57.3114 126.9506 50.5516 0.0000 0.0000 0.0000
# 3 49.2084 50.5516 125.9531 0.0000 0.0000 0.0000
# 4 0.0000 0.0000 0.0000 28.4904 0.0000 0.0000
# 5 0.0000 0.0000 0.0000 0.0000 15.6031 0.0000
# 6 0.0000 0.0000 0.0000 0.0000 0.0000 24.7209
#
#
#
# Elastic Compliance Matrix: (Units=1/GPa)
#
#
# Indices 1 2 3 4 5 6 
#
# 1 0.023780 -0.008374 -0.005930 0.000000 0.000000 0.000000
# 2 -0.008374 0.012324 -0.001675 0.000000 0.000000 0.000000
# 3 -0.005930 -0.001675 0.010928 0.000000 0.000000 0.000000
# 4 0.000000 0.000000 0.000000 0.035100 0.000000 0.000000
# 5 0.000000 0.000000 0.000000 0.000000 0.064090 0.000000
# 6 0.000000 0.000000 0.000000 0.000000 0.000000 0.040452
#
#
# Mechanical properties :
#
#
# Convention : Reuss Voigt Hill
#
# Bulk Modulus (GPa) = 66.33226 71.28349 68.80788
# Shear Modulus (GPa) = 22.35578 25.11870 23.73724
#
# Velocity S-wave (km/s) = 3.61034 3.82694 3.72022
# Velocity P-wave (km/s) = 7.48695 7.81596 7.65322
#
# Compressibility (1/GPa) = 0.01507562
#
# Stress axis : x y z
#
# Youngs Moduli (GPa) = 42.05235 81.13933 91.50623
#
# Poissons Ratio (x) = 0.67948 0.54259
# Poissons Ratio (y) = 0.35216 0.15325
# Poissons Ratio (z) = 0.24935 0.13589
#
# Static dielectric constant tensor:
#      x y z
#    x 2.896320 0.000000 0.000000 
#    y 0.000000 3.283340 0.000000 
#    z 0.000000 0.000000 3.255990 
# 
# 
# High freq. dielectric constant tensor:
#      x y z
#    x 1.633010 0.000000 0.000000 
#    y 0.000000 1.673670 0.000000 
#    z 0.000000 0.000000 1.671280 
# 
# From -- ./inp_files/5080.got.cif
#   From: 2010.03.12/outbox.cif.g09.slc.cpg/sg60_3_cif.got.tgz:5080.got - 2010.04.10 18:46:24.
