data_PCOD8246387
_publ_section_title
;
Structure prediction by ZEFSAII (Michael W. Deem and Ramdas Pophale) SiO2 
 PCOD8246387
Probable space group: P B C N
;
_chemical_formula_sum "Si O2"
_cell_formula_units_Z 56
_cell_length_a 10.345835
_cell_length_b 12.843914
_cell_length_c 22.867143
_cell_angle_alpha 90.000000
_cell_angle_beta 90.000000
_cell_angle_gamma 90.000000
_cell_volume 3038.609172
_symmetry_space_group_name_H-M "P B C N"
_symmetry_group_IT_number 60
_symmetry_cell_setting 'orthorhombic'
loop_
_space_group_symop_operation_xyz
x,y,z
1/2-x,1/2-y,1/2+z
1/2+x,1/2-y,-z
-x,y,1/2-z
-x,-y,-z
1/2+x,1/2+y,1/2-z
1/2-x,1/2+y,z
x,-y,1/2+z
loop_
_atom_site_type_symbol
_atom_site_label
_atom_site_fract_x
_atom_site_fract_y
_atom_site_fract_z
Si Si1 0.561356 0.384279 0.460079
Si Si2 0.144169 0.966589 0.922819
Si Si3 0.693818 0.185622 0.439712
Si Si4 0.259180 0.504278 0.625024
Si Si5 0.911807 0.690211 0.882452
Si Si6 0.483586 0.390722 0.681696
Si Si7 0.897659 0.440344 0.041173
O O1 0.421127 0.422610 0.439548
O O2 0.585106 0.383603 0.530343
O O3 0.577774 0.268728 0.433938
O O4 0.670002 0.463180 0.435152
O O5 0.105484 0.929216 0.857463
O O6 0.299930 0.978776 0.926565
O O7 0.831120 0.244247 0.430914
O O8 0.692575 0.135990 0.503662
O O9 0.669909 0.095463 0.391331
O O10 0.176584 0.601598 0.648910
O O11 0.363512 0.468090 0.671911
O O12 0.957401 0.769885 0.832878
O O13 0.030602 0.630530 0.911565
O O14 0.500000 0.399780 0.750000
O O15 0.000000 0.500000 0.000000
#
# Coordination Sequence:
#
# PCOD8246387 Si02
#       7
#     8   8   8   8   8   8   8
#     4   9  17  32  55  81 115 150 180 225 289 348
#     4  10  20  35  53  83 117 150 191 236 286 347
#     4  10  18  31  53  81 118 152 179 220 281 361
#     4   9  17  36  58  83 112 145 189 233 288 344
#     4  10  21  36  56  87 114 152 189 235 290 346
#     4  10  22  41  62  79 106 156 208 244 286 337
#     4  12  21  32  53  89 128 149 179 227 300 368
#
# _framework density 18.429483999999999
#
# number of rings (size 3 to 8) (size 9 to 14) (size 15 to 20)
#    0.000    2.000    2.857    1.714    4.000    0.000 
#    2.571    0.000    0.000    0.000    0.000    0.000 
#    0.000    0.000    0.000    0.000    0.000    0.000 
#
# Total GULP energy -694013.629298 kJ/mol
# GULP energy per Si atom -12393.100523 kJ/mol
# Density = 1.838754 g / cm^3
# Si number density = 18.429484 Si / 1000 Ang^3
#
#
#
# Elastic Constant Matrix: (Units=GPa)
#
#
# Indices 1 2 3 4 5 6 
#
# 1 95.0089 52.2910 47.2089 0.0000 0.0000 0.0000
# 2 52.2910 114.8141 48.0877 0.0000 0.0000 0.0000
# 3 47.2089 48.0877 123.2855 0.0000 0.0000 0.0000
# 4 0.0000 0.0000 0.0000 18.3928 0.0000 0.0000
# 5 0.0000 0.0000 0.0000 0.0000 17.7649 0.0000
# 6 0.0000 0.0000 0.0000 0.0000 0.0000 30.3519
#
#
#
# Elastic Compliance Matrix: (Units=1/GPa)
#
#
# Indices 1 2 3 4 5 6 
#
# 1 0.015388 -0.005427 -0.003776 0.000000 0.000000 0.000000
# 2 -0.005427 0.012324 -0.002729 0.000000 0.000000 0.000000
# 3 -0.003776 -0.002729 0.010622 0.000000 0.000000 0.000000
# 4 0.000000 0.000000 0.000000 0.054369 0.000000 0.000000
# 5 0.000000 0.000000 0.000000 0.000000 0.056291 0.000000
# 6 0.000000 0.000000 0.000000 0.000000 0.000000 0.032947
#
#
# Mechanical properties :
#
#
# Convention : Reuss Voigt Hill
#
# Bulk Modulus (GPa) = 69.10520 69.80931 69.45726
# Shear Modulus (GPa) = 23.73851 25.66999 24.70425
#
# Velocity S-wave (km/s) = 3.59287 3.73617 3.66522
# Velocity P-wave (km/s) = 7.40203 7.52153 7.46202
#
# Compressibility (1/GPa) = 0.01447069
#
# Stress axis : x y z
#
# Youngs Moduli (GPa) = 64.98390 81.13956 94.14846
#
# Poissons Ratio (x) = 0.44035 0.35548
# Poissons Ratio (y) = 0.35268 0.25693
# Poissons Ratio (z) = 0.24536 0.22143
#
# Static dielectric constant tensor:
#      x y z
#    x 3.441960 0.000000 0.000000 
#    y 0.000000 3.686240 0.000000 
#    z 0.000000 0.000000 2.921620 
# 
# 
# High freq. dielectric constant tensor:
#      x y z
#    x 1.709740 0.000000 0.000000 
#    y 0.000000 1.731310 0.000000 
#    z 0.000000 0.000000 1.661840 
# 
# From -- ./inp_files/24280.got.cif
#   From: 2010.03.12/outbox.cif.g09.slc.cpg/sg60_13_cif.got.tgz:24280.got - 2010.04.10 18:46:24.
