data_PCOD8246933
_publ_section_title
;
Structure prediction by ZEFSAII (Michael W. Deem and Ramdas Pophale) SiO2 
 PCOD8246933
Probable space group: P B C N
;
_chemical_formula_sum "Si O2"
_cell_formula_units_Z 56
_cell_length_a 13.006800
_cell_length_b 17.488496
_cell_length_c 12.932284
_cell_angle_alpha 90.000000
_cell_angle_beta 90.000000
_cell_angle_gamma 90.000000
_cell_volume 2941.698491
_symmetry_space_group_name_H-M "P B C N"
_symmetry_group_IT_number 60
_symmetry_cell_setting 'orthorhombic'
loop_
_space_group_symop_operation_xyz
x,y,z
1/2-x,1/2-y,1/2+z
1/2+x,1/2-y,-z
-x,y,1/2-z
-x,-y,-z
1/2+x,1/2+y,1/2-z
1/2-x,1/2+y,z
x,-y,1/2+z
loop_
_atom_site_type_symbol
_atom_site_label
_atom_site_fract_x
_atom_site_fract_y
_atom_site_fract_z
Si Si1 0.384197 0.473321 0.483771
Si Si2 0.245051 0.733108 0.315813
Si Si3 0.612697 0.801788 0.493975
Si Si4 0.798650 0.841600 0.892112
Si Si5 0.380575 0.773348 0.493566
Si Si6 0.203711 0.114110 0.566838
Si Si7 0.882329 0.119662 0.727614
O O1 0.500000 0.500000 0.500000
O O2 0.348671 0.423387 0.582902
O O3 0.314480 0.549867 0.478979
O O4 0.367644 0.426869 0.377817
O O5 0.169680 0.690349 0.395763
O O6 0.285304 0.673292 0.230145
O O7 0.345361 0.766827 0.374203
O O8 0.180037 0.801396 0.267649
O O9 0.624126 0.718879 0.443564
O O10 0.491646 0.812983 0.502670
O O11 0.674755 0.864040 0.424743
O O12 0.688407 0.834962 0.946664
O O13 0.367320 0.689232 0.544497
O O14 0.165428 0.074981 0.674096
O O15 0.000000 0.138555 0.750000
#
# Coordination Sequence:
#
# PCOD8246933 Si02
#       7
#     8   8   8   8   8   8   8
#     4  12  23  39  59  91 126 164 198 259 325 379
#     4  10  20  36  62  90 117 155 214 260 302 374
#     4  10  20  37  58  85 118 157 207 262 302 365
#     4  10  21  36  60  90 121 157 211 254 309 375
#     4  10  20  39  61  88 120 161 208 263 307 366
#     4  10  22  37  57  89 123 154 211 253 306 385
#     4  12  20  37  63  86 118 168 201 247 327 379
#
# _framework density 19.036621
#
# number of rings (size 3 to 8) (size 9 to 14) (size 15 to 20)
#    0.000    1.714    7.143    1.714    0.000    2.857 
#    0.000    0.714    0.000    0.000    0.000    0.000 
#    0.000    0.000    0.000    0.000    0.000    0.000 
#
# Total GULP energy -693956.269900 kJ/mol
# GULP energy per Si atom -12392.076248 kJ/mol
# Density = 1.899329 g / cm^3
# Si number density = 19.036621 Si / 1000 Ang^3
#
#
#
# Elastic Constant Matrix: (Units=GPa)
#
#
# Indices 1 2 3 4 5 6 
#
# 1 123.1278 35.0279 42.0650 0.0000 0.0000 0.0000
# 2 35.0279 83.0851 27.0393 0.0000 0.0000 0.0000
# 3 42.0650 27.0393 117.9703 0.0000 0.0000 0.0000
# 4 0.0000 0.0000 0.0000 26.8372 0.0000 0.0000
# 5 0.0000 0.0000 0.0000 0.0000 22.8501 0.0000
# 6 0.0000 0.0000 0.0000 0.0000 0.0000 17.7713
#
#
#
# Elastic Compliance Matrix: (Units=1/GPa)
#
#
# Indices 1 2 3 4 5 6 
#
# 1 0.010025 -0.003310 -0.002816 0.000000 0.000000 0.000000
# 2 -0.003310 0.014099 -0.002051 0.000000 0.000000 0.000000
# 3 -0.002816 -0.002051 0.009951 0.000000 0.000000 0.000000
# 4 0.000000 0.000000 0.000000 0.037262 0.000000 0.000000
# 5 0.000000 0.000000 0.000000 0.000000 0.043764 0.000000
# 6 0.000000 0.000000 0.000000 0.000000 0.000000 0.056270
#
#
# Mechanical properties :
#
#
# Convention : Reuss Voigt Hill
#
# Bulk Modulus (GPa) = 56.43210 59.16086 57.79648
# Shear Modulus (GPa) = 25.82207 28.16178 26.99193
#
# Velocity S-wave (km/s) = 3.68699 3.85040 3.76958
# Velocity P-wave (km/s) = 6.91618 7.13529 7.02658
#
# Compressibility (1/GPa) = 0.01772041
#
# Stress axis : x y z
#
# Youngs Moduli (GPa) = 99.74654 70.92734 100.49242
#
# Poissons Ratio (x) = 0.23478 0.28300
# Poissons Ratio (y) = 0.33018 0.20613
# Poissons Ratio (z) = 0.28090 0.14549
#
# Static dielectric constant tensor:
#      x y z
#    x 3.482420 0.000000 0.000000 
#    y 0.000000 3.351960 0.000000 
#    z 0.000000 0.000000 3.792060 
# 
# 
# High freq. dielectric constant tensor:
#      x y z
#    x 1.734760 0.000000 0.000000 
#    y 0.000000 1.713330 0.000000 
#    z 0.000000 0.000000 1.750990 
# 
# From -- ./inp_files/11201.got.cif
#   From: 2010.03.12/outbox.cif.g09.slc.cpg/sg60_6_cif.got.tgz:11201.got - 2010.04.10 18:46:24.
