data_PCOD8246584
_publ_section_title
;
Structure prediction by ZEFSAII (Michael W. Deem and Ramdas Pophale) SiO2 
 PCOD8246584
Probable space group: P B C N
;
_chemical_formula_sum "Si O2"
_cell_formula_units_Z 52
_cell_length_a 18.383179
_cell_length_b 8.937441
_cell_length_c 16.294152
_cell_angle_alpha 90.000000
_cell_angle_beta 90.000000
_cell_angle_gamma 90.000000
_cell_volume 2677.105999
_symmetry_space_group_name_H-M "P B C N"
_symmetry_group_IT_number 60
_symmetry_cell_setting 'orthorhombic'
loop_
_space_group_symop_operation_xyz
x,y,z
1/2-x,1/2-y,1/2+z
1/2+x,1/2-y,-z
-x,y,1/2-z
-x,-y,-z
1/2+x,1/2+y,1/2-z
1/2-x,1/2+y,z
x,-y,1/2+z
loop_
_atom_site_type_symbol
_atom_site_label
_atom_site_fract_x
_atom_site_fract_y
_atom_site_fract_z
Si Si1 0.203201 0.079753 0.457329
Si Si2 0.262777 0.835402 0.566050
Si Si3 0.500000 0.262720 0.250000
Si Si4 0.717278 0.224153 0.183232
Si Si5 0.623063 0.055538 0.307328
Si Si6 0.108960 0.017076 0.819985
Si Si7 0.149278 0.228203 0.204461
O O1 0.196784 0.181960 0.538984
O O2 0.267319 0.158022 0.405759
O O3 0.234395 0.920298 0.485420
O O4 0.124942 0.066198 0.407926
O O5 0.326059 0.923612 0.613383
O O6 0.190387 0.811371 0.620420
O O7 0.550958 0.158727 0.307194
O O8 0.458327 0.367809 0.316503
O O9 0.668152 0.100687 0.227388
O O10 0.682734 0.388191 0.186902
O O11 0.792781 0.257025 0.225765
O O12 0.601430 0.879571 0.305423
O O13 0.099699 0.907135 0.740765
#
# Coordination Sequence:
#
# PCOD8246584 Si02
#       7
#     8   8   4   8   8   8   8
#     4  11  20  33  58  92 122 143 179 247 310 344
#     4  11  21  33  59  94 122 141 181 247 314 345
#     4  10  24  42  58  74 116 166 216 224 268 348
#     4   9  18  33  55  87 115 144 187 240 303 342
#     4  10  21  37  57  79 114 158 193 238 278 351
#     4  10  21  37  58  83 116 159 197 236 277 358
#     4  10  19  33  59  87 114 144 196 246 297 336
#
# _framework density 19.423960999999998
#
# number of rings (size 3 to 8) (size 9 to 14) (size 15 to 20)
#    0.000    1.846    3.077    2.769    6.462    0.615 
#    0.000    0.769    0.000    4.615    0.000    0.000 
#    0.000    0.000    0.000    0.000    0.000    0.000 
#
# Total GULP energy -644264.774413 kJ/mol
# GULP energy per Si atom -12389.707200 kJ/mol
# Density = 1.937975 g / cm^3
# Si number density = 19.423961 Si / 1000 Ang^3
#
#
#
# Elastic Constant Matrix: (Units=GPa)
#
#
# Indices 1 2 3 4 5 6 
#
# 1 67.9912 39.9213 20.2790 0.0000 0.0000 0.0000
# 2 39.9213 126.4399 38.9646 0.0000 0.0000 0.0000
# 3 20.2790 38.9646 80.5204 0.0000 0.0000 0.0000
# 4 0.0000 0.0000 0.0000 17.9723 0.0000 0.0000
# 5 0.0000 0.0000 0.0000 0.0000 17.2391 0.0000
# 6 0.0000 0.0000 0.0000 0.0000 0.0000 25.9607
#
#
#
# Elastic Compliance Matrix: (Units=1/GPa)
#
#
# Indices 1 2 3 4 5 6 
#
# 1 0.018363 -0.005139 -0.002138 0.000000 0.000000 0.000000
# 2 -0.005139 0.010733 -0.003900 0.000000 0.000000 0.000000
# 3 -0.002138 -0.003900 0.014845 0.000000 0.000000 0.000000
# 4 0.000000 0.000000 0.000000 0.055641 0.000000 0.000000
# 5 0.000000 0.000000 0.000000 0.000000 0.058008 0.000000
# 6 0.000000 0.000000 0.000000 0.000000 0.000000 0.038520
#
#
# Mechanical properties :
#
#
# Convention : Reuss Voigt Hill
#
# Bulk Modulus (GPa) = 46.32257 52.58681 49.45469
# Shear Modulus (GPa) = 22.15741 23.95352 23.05546
#
# Velocity S-wave (km/s) = 3.38113 3.51550 3.44897
# Velocity P-wave (km/s) = 6.25641 6.60380 6.43245
#
# Compressibility (1/GPa) = 0.02158775
#
# Stress axis : x y z
#
# Youngs Moduli (GPa) = 54.45804 93.16921 67.36405
#
# Poissons Ratio (x) = 0.47879 0.14402
# Poissons Ratio (y) = 0.27985 0.26270
# Poissons Ratio (z) = 0.11643 0.36333
#
# Static dielectric constant tensor:
#      x y z
#    x 3.234630 0.000000 0.000000 
#    y 0.000000 4.221060 0.000000 
#    z 0.000000 0.000000 3.563080 
# 
# 
# High freq. dielectric constant tensor:
#      x y z
#    x 1.711450 0.000000 0.000000 
#    y 0.000000 1.782410 0.000000 
#    z 0.000000 0.000000 1.747890 
# 
# From -- ./inp_files/17666.got.cif
#   From: 2010.03.12/outbox.cif.g09.slc.cpg/sg60_9_cif.got.tgz:17666.got - 2010.04.10 18:46:24.
