data_PCOD8246759
_publ_section_title
;
Structure prediction by ZEFSAII (Michael W. Deem and Ramdas Pophale) SiO2 
 PCOD8246759
Probable space group: P B C N
;
_chemical_formula_sum "Si O2"
_cell_formula_units_Z 48
_cell_length_a 9.035041
_cell_length_b 13.832785
_cell_length_c 17.392935
_cell_angle_alpha 90.000000
_cell_angle_beta 90.000000
_cell_angle_gamma 90.000000
_cell_volume 2173.765183
_symmetry_space_group_name_H-M "P B C N"
_symmetry_group_IT_number 60
_symmetry_cell_setting 'orthorhombic'
loop_
_space_group_symop_operation_xyz
x,y,z
1/2-x,1/2-y,1/2+z
1/2+x,1/2-y,-z
-x,y,1/2-z
-x,-y,-z
1/2+x,1/2+y,1/2-z
1/2-x,1/2+y,z
x,-y,1/2+z
loop_
_atom_site_type_symbol
_atom_site_label
_atom_site_fract_x
_atom_site_fract_y
_atom_site_fract_z
Si Si1 0.273191 0.117890 0.491946
Si Si2 0.318224 0.515963 0.635639
Si Si3 0.644254 0.558748 0.583561
Si Si4 0.334065 0.333209 0.264294
Si Si5 0.964870 0.212977 0.474850
Si Si6 0.375086 0.320447 0.691691
O O1 0.290328 0.061211 0.572481
O O2 0.416159 0.187189 0.481172
O O3 0.134619 0.191998 0.495930
O O4 0.253713 0.034151 0.427062
O O5 0.485821 0.513617 0.603950
O O6 0.303451 0.574996 0.712921
O O7 0.274205 0.407970 0.660431
O O8 0.698669 0.632944 0.648696
O O9 0.631864 0.620827 0.504724
O O10 0.500000 0.294565 0.250000
O O11 0.222965 0.249166 0.243059
O O12 0.943332 0.231003 0.383866
O O13 0.500000 0.360059 0.750000
#
# Coordination Sequence:
#
# PCOD8246759 Si02
#       6
#     8   8   8   8   8   8
#     4  11  21  41  65  94 126 165 217 259 319 373
#     4  10  19  39  65  87 120 169 212 254 309 382
#     4  10  20  38  64  92 123 167 220 248 310 394
#     4  10  23  40  63  93 125 165 212 264 316 376
#     4  11  23  38  66  95 124 168 209 268 309 379
#     4  12  23  39  66  93 124 162 217 262 314 373
#
# _framework density 22.081500999999999
#
# number of rings (size 3 to 8) (size 9 to 14) (size 15 to 20)
#    0.000    1.333    5.000    2.500    2.333    0.000 
#    0.000    1.667    3.667    0.000    0.000    0.000 
#    0.000    0.000    0.000    0.000    0.000    0.000 
#
# Total GULP energy -595036.752636 kJ/mol
# GULP energy per Si atom -12396.599013 kJ/mol
# Density = 2.203124 g / cm^3
# Si number density = 22.081501 Si / 1000 Ang^3
#
#
#
# Elastic Constant Matrix: (Units=GPa)
#
#
# Indices 1 2 3 4 5 6 
#
# 1 35.5447 36.9877 29.1823 0.0000 0.0000 0.0000
# 2 36.9877 110.2276 52.1564 0.0000 0.0000 0.0000
# 3 29.1823 52.1564 113.5233 0.0000 0.0000 0.0000
# 4 0.0000 0.0000 0.0000 30.6788 0.0000 0.0000
# 5 0.0000 0.0000 0.0000 0.0000 10.4861 0.0000
# 6 0.0000 0.0000 0.0000 0.0000 0.0000 25.7142
#
#
#
# Elastic Compliance Matrix: (Units=1/GPa)
#
#
# Indices 1 2 3 4 5 6 
#
# 1 0.046302 -0.012656 -0.006088 0.000000 0.000000 0.000000
# 2 -0.012656 0.015052 -0.003662 0.000000 0.000000 0.000000
# 3 -0.006088 -0.003662 0.012056 0.000000 0.000000 0.000000
# 4 0.000000 0.000000 0.000000 0.032596 0.000000 0.000000
# 5 0.000000 0.000000 0.000000 0.000000 0.095364 0.000000
# 6 0.000000 0.000000 0.000000 0.000000 0.000000 0.038889
#
#
# Mechanical properties :
#
#
# Convention : Reuss Voigt Hill
#
# Bulk Modulus (GPa) = 34.96759 55.10537 45.03648
# Shear Modulus (GPa) = 16.97200 22.77377 19.87289
#
# Velocity S-wave (km/s) = 2.77538 3.21495 3.00322
# Velocity P-wave (km/s) = 5.11277 6.22823 5.69786
#
# Compressibility (1/GPa) = 0.02859791
#
# Stress axis : x y z
#
# Youngs Moduli (GPa) = 21.59745 66.43740 82.94638
#
# Poissons Ratio (x) = 0.84086 0.50494
# Poissons Ratio (y) = 0.27335 0.30373
# Poissons Ratio (z) = 0.13148 0.24328
#
# Static dielectric constant tensor:
#      x y z
#    x 3.579790 0.000000 0.000000 
#    y 0.000000 4.035480 0.000000 
#    z 0.000000 0.000000 4.218620 
# 
# 
# High freq. dielectric constant tensor:
#      x y z
#    x 1.812070 0.000000 0.000000 
#    y 0.000000 1.880420 0.000000 
#    z 0.000000 0.000000 1.883520 
# 
# From -- ./inp_files/20002.got.cif
#   From: 2010.03.12/outbox.cif.g09.slc.cpg/sg60_11_cif.got.tgz:20002.got - 2010.04.10 18:46:24.
