data_PCOD8246210
_publ_section_title
;
Structure prediction by ZEFSAII (Michael W. Deem and Ramdas Pophale) SiO2 
 PCOD8246210
Probable space group: P M M N
;
_chemical_formula_sum "Si O2"
_cell_formula_units_Z 56
_cell_length_a 9.301910
_cell_length_b 19.099264
_cell_length_c 18.167552
_cell_angle_alpha 90.000000
_cell_angle_beta 90.000000
_cell_angle_gamma 90.000000
_cell_volume 3227.640653
_symmetry_space_group_name_H-M "P M M N"
_symmetry_group_IT_number 59
_space_group.IT_coordinate_system_code '2'
_symmetry_cell_setting 'orthorhombic'
loop_
_space_group_symop_operation_xyz
x,y,z
1/2-x,1/2-y,z
1/2+x,-y,-z
-x,1/2+y,-z
-x,-y,-z
1/2+x,1/2+y,-z
1/2-x,y,z
x,1/2-y,z
loop_
_atom_site_type_symbol
_atom_site_label
_atom_site_fract_x
_atom_site_fract_y
_atom_site_fract_z
Si Si1 0.419754 0.072886 0.492159
Si Si2 0.083129 0.169412 0.071431
Si Si3 0.418013 0.830821 0.072972
Si Si4 0.408832 0.418181 0.651946
Si Si5 0.081888 0.418581 0.212184
Si Si6 0.413856 0.915025 0.645699
Si Si7 0.082872 0.580784 0.210102
O O1 0.250000 0.061362 0.475862
O O2 0.441181 0.113550 0.570342
O O3 0.495954 0.114282 0.424758
O O4 0.500000 0.000000 0.500000
O O5 0.250000 0.157780 0.054737
O O6 0.047871 0.250000 0.089147
O O7 0.032602 0.123840 0.140606
O O8 0.996908 0.142987 0.000388
O O9 0.250000 0.843974 0.061151
O O10 0.453056 0.750000 0.089203
O O11 0.478657 0.875852 0.141141
O O12 0.250000 0.396094 0.677323
O O13 0.419715 0.501541 0.645158
O O14 0.516097 0.389758 0.713993
O O15 0.250000 0.408070 0.229516
O O16 0.045145 0.499681 0.197745
O O17 0.990995 0.387827 0.280287
O O18 0.250000 0.887265 0.642426
O O19 0.250000 0.594427 0.217862
#
# Coordination Sequence:
#
# PCOD8246210 Si02
#       7
#     8   8   8   8   8   8   8
#     4   9  15  23  36  56  84 117 149 179 214 255
#     4   9  18  32  48  65  85 111 143 176 212 256
#     4   9  18  32  47  63  85 112 142 176 213 254
#     4   8  15  25  37  57  85 114 142 174 211 249
#     4   9  17  29  44  63  88 114 141 176 215 255
#     4   9  16  25  38  59  86 115 146 177 213 257
#     4   9  17  28  43  63  86 113 143 174 212 255
#
# _framework density 17.350134000000001
#
# number of rings (size 3 to 8) (size 9 to 14) (size 15 to 20)
#    0.000    3.143    0.000    1.714    0.000    5.714 
#    0.000    0.000    0.000    0.000    0.000    1.000 
#    0.000    1.143    0.000    0.000    0.000    0.000 
#
# Total GULP energy -694101.921438 kJ/mol
# GULP energy per Si atom -12394.677169 kJ/mol
# Density = 1.731064 g / cm^3
# Si number density = 17.350134 Si / 1000 Ang^3
#
#
#
# Elastic Constant Matrix: (Units=GPa)
#
#
# Indices 1 2 3 4 5 6 
#
# 1 84.1893 25.0682 82.2239 0.0000 0.0000 0.0000
# 2 25.0682 29.2353 46.9447 0.0000 0.0000 0.0000
# 3 82.2239 46.9447 193.1249 0.0000 0.0000 0.0000
# 4 0.0000 0.0000 0.0000 2.4448 0.0000 0.0000
# 5 0.0000 0.0000 0.0000 0.0000 39.4288 0.0000
# 6 0.0000 0.0000 0.0000 0.0000 0.0000 11.7544
#
#
#
# Elastic Compliance Matrix: (Units=1/GPa)
#
#
# Indices 1 2 3 4 5 6 
#
# 1 0.020950 -0.005972 -0.007468 0.000000 0.000000 0.000000
# 2 -0.005972 0.057807 -0.011509 0.000000 0.000000 0.000000
# 3 -0.007468 -0.011509 0.011155 0.000000 0.000000 0.000000
# 4 0.000000 0.000000 0.000000 0.409029 0.000000 0.000000
# 5 0.000000 0.000000 0.000000 0.000000 0.025362 0.000000
# 6 0.000000 0.000000 0.000000 0.000000 0.000000 0.085075
#
#
# Mechanical properties :
#
#
# Convention : Reuss Voigt Hill
#
# Bulk Modulus (GPa) = 24.99157 68.33591 46.66374
# Shear Modulus (GPa) = 7.43370 20.87979 14.15674
#
# Velocity S-wave (km/s) = 2.07215 3.47282 2.85957
# Velocity P-wave (km/s) = 4.49006 7.45336 6.15277
#
# Compressibility (1/GPa) = 0.04001349
#
# Stress axis : x y z
#
# Youngs Moduli (GPa) = 47.73349 17.29908 89.64632
#
# Poissons Ratio (x) = 0.10332 0.66945
# Poissons Ratio (y) = 0.28508 1.03172
# Poissons Ratio (z) = 0.35646 0.19909
#
# Static dielectric constant tensor:
#      x y z
#    x 3.277510 0.000000 0.000000 
#    y 0.000000 2.760870 0.000000 
#    z 0.000000 0.000000 3.766130 
# 
# 
# High freq. dielectric constant tensor:
#      x y z
#    x 1.672420 0.000000 0.000000 
#    y 0.000000 1.607480 0.000000 
#    z 0.000000 0.000000 1.689850 
# 
# From -- ./inp_files/26038.got.cif
#   From: 2010.03.12/outbox.cif.g09.slc.cpg/sg59_14_cif.got.tgz:26038.got - 2010.04.16 16:29:54.
