data_PCOD8246039
_publ_section_title
;
Structure prediction by ZEFSAII (Michael W. Deem and Ramdas Pophale) SiO2 
 PCOD8246039
Probable space group: P M M N
;
_chemical_formula_sum "Si O2"
_cell_formula_units_Z 48
_cell_length_a 14.226566
_cell_length_b 8.792441
_cell_length_c 21.340248
_cell_angle_alpha 90.000000
_cell_angle_beta 90.000000
_cell_angle_gamma 90.000000
_cell_volume 2669.371430
_symmetry_space_group_name_H-M "P M M N"
_symmetry_group_IT_number 59
_space_group.IT_coordinate_system_code '2'
_symmetry_cell_setting 'orthorhombic'
loop_
_space_group_symop_operation_xyz
x,y,z
1/2-x,1/2-y,z
1/2+x,-y,-z
-x,1/2+y,-z
-x,-y,-z
1/2+x,1/2+y,-z
1/2-x,y,z
x,1/2-y,z
loop_
_atom_site_type_symbol
_atom_site_label
_atom_site_fract_x
_atom_site_fract_y
_atom_site_fract_z
Si Si1 0.142314 0.069969 0.661485
Si Si2 0.510094 0.069790 0.903321
Si Si3 0.642298 0.428746 0.659860
Si Si4 0.001608 0.570122 0.568162
Si Si5 0.643649 0.929303 0.998288
Si Si6 0.499774 0.928355 0.235730
O O1 0.250000 0.019554 0.666052
O O2 0.130635 0.250000 0.652134
O O3 0.090649 0.015294 0.725188
O O4 0.095398 0.987979 0.602484
O O5 0.519458 0.250000 0.901536
O O6 0.502200 0.998091 0.833492
O O7 0.603664 0.004741 0.935354
O O8 0.417707 0.018416 0.941847
O O9 0.750000 0.480078 0.663056
O O10 0.631118 0.250000 0.646406
O O11 0.592249 0.518533 0.604096
O O12 0.594483 0.471835 0.726184
O O13 0.004013 0.750000 0.563551
O O14 0.000000 0.500000 0.500000
O O15 0.750000 0.985519 0.009126
O O16 0.638804 0.750000 0.989458
O O17 0.507434 0.750000 0.226537
#
# Coordination Sequence:
#
# PCOD8246039 Si02
#       6
#     8   8   8   8   8   8
#     4   9  18  34  55  77 101 128 160 200 246 296
#     4   9  17  30  49  71  95 125 163 203 242 289
#     4   9  18  34  54  75 101 130 161 201 248 295
#     4  11  22  36  54  75 102 133 166 203 241 286
#     4   9  18  31  45  65  96 130 163 202 246 288
#     4   8  15  29  50  76 100 123 157 201 246 290
#
# _framework density 17.981762
#
# number of rings (size 3 to 8) (size 9 to 14) (size 15 to 20)
#    0.000    2.833    0.000    2.500    0.000    3.000 
#    0.000    8.333    0.000    0.000    0.000    7.000 
#    0.000    0.000    0.000    0.000    0.000    0.000 
#
# Total GULP energy -595127.167340 kJ/mol
# GULP energy per Si atom -12398.482653 kJ/mol
# Density = 1.794083 g / cm^3
# Si number density = 17.981762 Si / 1000 Ang^3
#
#
#
# Elastic Constant Matrix: (Units=GPa)
#
#
# Indices 1 2 3 4 5 6 
#
# 1 165.0328 38.5355 75.5655 0.0000 0.0000 0.0000
# 2 38.5355 46.6213 41.0916 0.0000 0.0000 0.0000
# 3 75.5655 41.0916 173.0326 0.0000 0.0000 0.0000
# 4 0.0000 0.0000 0.0000 24.1052 0.0000 0.0000
# 5 0.0000 0.0000 0.0000 0.0000 10.4412 0.0000
# 6 0.0000 0.0000 0.0000 0.0000 0.0000 24.5427
#
#
#
# Elastic Compliance Matrix: (Units=1/GPa)
#
#
# Indices 1 2 3 4 5 6 
#
# 1 0.008297 -0.004634 -0.002523 0.000000 0.000000 0.000000
# 2 -0.004634 0.029716 -0.005033 0.000000 0.000000 0.000000
# 3 -0.002523 -0.005033 0.008076 0.000000 0.000000 0.000000
# 4 0.000000 0.000000 0.000000 0.041485 0.000000 0.000000
# 5 0.000000 0.000000 0.000000 0.000000 0.095774 0.000000
# 6 0.000000 0.000000 0.000000 0.000000 0.000000 0.040745
#
#
# Mechanical properties :
#
#
# Convention : Reuss Voigt Hill
#
# Bulk Modulus (GPa) = 46.06429 77.23021 61.64725
# Shear Modulus (GPa) = 19.55344 27.11743 23.33544
#
# Velocity S-wave (km/s) = 3.30116 3.88758 3.60631
# Velocity P-wave (km/s) = 6.34059 7.94943 7.19015
#
# Compressibility (1/GPa) = 0.02170879
#
# Stress axis : x y z
#
# Youngs Moduli (GPa) = 120.53138 33.65191 123.82041
#
# Poissons Ratio (x) = 0.15595 0.31236
# Poissons Ratio (y) = 0.55856 0.62320
# Poissons Ratio (z) = 0.30406 0.16937
#
# Static dielectric constant tensor:
#      x y z
#    x 3.211600 0.000000 0.000000 
#    y 0.000000 3.088970 0.000000 
#    z 0.000000 0.000000 3.846990 
# 
# 
# High freq. dielectric constant tensor:
#      x y z
#    x 1.700180 0.000000 0.000000 
#    y 0.000000 1.671410 0.000000 
#    z 0.000000 0.000000 1.701940 
# 
# From -- ./inp_files/28836.got.cif
#   From: 2010.03.12/outbox.cif.g09.slc.cpg/sg59_15_cif.got.tgz:28836.got - 2010.04.16 16:29:54.
