data_PCOD8246972
_publ_section_title
;
Structure prediction by ZEFSAII (Michael W. Deem and Ramdas Pophale) SiO2 
 PCOD8246972
Probable space group: P B C N
;
_chemical_formula_sum "Si O2"
_cell_formula_units_Z 48
_cell_length_a 19.510418
_cell_length_b 4.950702
_cell_length_c 22.062387
_cell_angle_alpha 90.000000
_cell_angle_beta 90.000000
_cell_angle_gamma 90.000000
_cell_volume 2131.011816
_symmetry_space_group_name_H-M "P B C N"
_symmetry_group_IT_number 60
_symmetry_cell_setting 'orthorhombic'
loop_
_space_group_symop_operation_xyz
x,y,z
1/2-x,1/2-y,1/2+z
1/2+x,1/2-y,-z
-x,y,1/2-z
-x,-y,-z
1/2+x,1/2+y,1/2-z
1/2-x,1/2+y,z
x,-y,1/2+z
loop_
_atom_site_type_symbol
_atom_site_label
_atom_site_fract_x
_atom_site_fract_y
_atom_site_fract_z
Si Si1 0.117124 0.213081 0.874053
Si Si2 0.204354 0.190488 0.623849
Si Si3 0.456486 0.208913 0.921371
Si Si4 0.794103 0.828816 0.014888
Si Si5 0.705252 0.641649 0.736552
Si Si6 0.404155 0.983029 0.546934
O O1 0.089028 0.513698 0.880207
O O2 0.137596 0.177323 0.804137
O O3 0.057399 0.009095 0.896328
O O4 0.186057 0.181438 0.914342
O O5 0.267596 0.392565 0.606782
O O6 0.183811 0.193959 0.694177
O O7 0.135751 0.271714 0.589054
O O8 0.535890 0.128206 0.914875
O O9 0.433953 0.193426 0.991619
O O10 0.727678 0.638450 0.000163
O O11 0.641195 0.233506 0.976277
O O12 0.733304 0.345888 0.721648
#
# Coordination Sequence:
#
# PCOD8246972 Si02
#       6
#     8   8   8   8   8   8
#     4  11  21  38  57  85 117 149 198 239 289 354
#     4  10  22  38  61  88 115 152 191 240 299 349
#     4  10  24  37  59  84 116 164 194 237 291 341
#     4  11  21  32  54  84 112 146 184 238 295 338
#     4  10  20  37  61  86 115 149 190 246 303 351
#     4  10  22  40  57  84 123 154 199 240 287 359
#
# _framework density 22.524509999999999
#
# number of rings (size 3 to 8) (size 9 to 14) (size 15 to 20)
#    0.000    1.667    0.000    5.000    0.000   11.333 
#    0.000    0.833    0.000    2.000    0.000    0.000 
#    0.000    0.000    0.000    0.000    0.000    0.000 
#
# Total GULP energy -595465.294748 kJ/mol
# GULP energy per Si atom -12405.526974 kJ/mol
# Density = 2.247324 g / cm^3
# Si number density = 22.524510 Si / 1000 Ang^3
#
#
#
# Elastic Constant Matrix: (Units=GPa)
#
#
# Indices 1 2 3 4 5 6 
#
# 1 92.5320 6.8698 37.5898 0.0000 0.0000 0.0000
# 2 6.8698 81.2591 21.5965 0.0000 0.0000 0.0000
# 3 37.5898 21.5965 76.3676 0.0000 0.0000 0.0000
# 4 0.0000 0.0000 0.0000 29.8884 0.0000 0.0000
# 5 0.0000 0.0000 0.0000 0.0000 29.1867 0.0000
# 6 0.0000 0.0000 0.0000 0.0000 0.0000 29.6064
#
#
#
# Elastic Compliance Matrix: (Units=1/GPa)
#
#
# Indices 1 2 3 4 5 6 
#
# 1 0.013543 0.000678 -0.006858 0.000000 0.000000 0.000000
# 2 0.000678 0.013340 -0.004106 0.000000 0.000000 0.000000
# 3 -0.006858 -0.004106 0.017631 0.000000 0.000000 0.000000
# 4 0.000000 0.000000 0.000000 0.033458 0.000000 0.000000
# 5 0.000000 0.000000 0.000000 0.000000 0.034262 0.000000
# 6 0.000000 0.000000 0.000000 0.000000 0.000000 0.033777
#
#
# Mechanical properties :
#
#
# Convention : Reuss Voigt Hill
#
# Bulk Modulus (GPa) = 41.76773 42.47455 42.12114
# Shear Modulus (GPa) = 28.64290 30.00981 29.32636
#
# Velocity S-wave (km/s) = 3.56986 3.65405 3.61220
# Velocity P-wave (km/s) = 5.96451 6.05812 6.01150
#
# Compressibility (1/GPa) = 0.02394193
#
# Stress axis : x y z
#
# Youngs Moduli (GPa) = 73.84139 74.96064 56.71763
#
# Poissons Ratio (x) = -0.05080 0.38894
# Poissons Ratio (y) = -0.05004 0.23289
# Poissons Ratio (z) = 0.50637 0.30780
#
# Static dielectric constant tensor:
#      x y z
#    x 3.943960 0.000000 0.000000 
#    y 0.000000 4.112770 0.000000 
#    z 0.000000 0.000000 4.135980 
# 
# 
# High freq. dielectric constant tensor:
#      x y z
#    x 1.872940 0.000000 0.000000 
#    y 0.000000 1.904720 0.000000 
#    z 0.000000 0.000000 1.883540 
# 
# From -- ./inp_files/24505.got.cif
#   From: 2010.03.12/outbox.cif.g09.slc.cpg/sg60_13_cif.got.tgz:24505.got - 2010.04.10 18:46:24.
