data_PCOD8246661
_publ_section_title
;
Structure prediction by ZEFSAII (Michael W. Deem and Ramdas Pophale) SiO2 
 PCOD8246661
Probable space group: P B C N
;
_chemical_formula_sum "Si O2"
_cell_formula_units_Z 56
_cell_length_a 29.046843
_cell_length_b 5.385722
_cell_length_c 15.041415
_cell_angle_alpha 90.000000
_cell_angle_beta 90.000000
_cell_angle_gamma 90.000000
_cell_volume 2353.052210
_symmetry_space_group_name_H-M "P B C N"
_symmetry_group_IT_number 60
_symmetry_cell_setting 'orthorhombic'
loop_
_space_group_symop_operation_xyz
x,y,z
1/2-x,1/2-y,1/2+z
1/2+x,1/2-y,-z
-x,y,1/2-z
-x,-y,-z
1/2+x,1/2+y,1/2-z
1/2-x,1/2+y,z
x,-y,1/2+z
loop_
_atom_site_type_symbol
_atom_site_label
_atom_site_fract_x
_atom_site_fract_y
_atom_site_fract_z
Si Si1 0.437617 0.443403 0.423715
Si Si2 0.771354 0.767867 0.031131
Si Si3 0.133337 0.587632 0.490094
Si Si4 0.588748 0.951904 0.331142
Si Si5 0.265254 0.313135 0.773681
Si Si6 0.135775 0.250301 0.331765
Si Si7 0.541607 0.434147 0.383742
O O1 0.416176 0.180270 0.453254
O O2 0.403619 0.551201 0.350023
O O3 0.486637 0.422261 0.376915
O O4 0.442229 0.608241 0.513835
O O5 0.751821 0.512693 0.987547
O O6 0.826200 0.794176 0.012868
O O7 0.762342 0.759050 0.136401
O O8 0.126537 0.506094 0.591650
O O9 0.150739 0.368402 0.425926
O O10 0.615312 0.947906 0.237811
O O11 0.560043 0.696583 0.346058
O O12 0.557522 0.197646 0.326632
O O13 0.242213 0.548454 0.721743
O O14 0.318933 0.373515 0.789691
#
# Coordination Sequence:
#
# PCOD8246661 Si02
#       7
#     8   8   8   8   8   8   8
#     4  10  23  41  73  93 125 187 218 275 340 397
#     4  10  19  35  62  91 123 164 211 267 318 387
#     4  11  23  42  69  94 132 173 224 265 338 393
#     4  11  27  44  64 101 136 172 218 287 319 405
#     4  10  20  36  61  91 126 165 214 269 316 393
#     4  12  24  41  69  97 132 180 222 267 345 395
#     4  10  24  47  65  95 139 164 230 279 331 391
#
# _framework density 23.798878999999999
#
# number of rings (size 3 to 8) (size 9 to 14) (size 15 to 20)
#    0.000    1.429    4.286    1.714    4.000    2.286 
#    0.000    1.429    0.000    0.000    0.000    0.000 
#    0.000    0.000    0.000    0.000    0.000    0.000 
#
# Total GULP energy -694155.087965 kJ/mol
# GULP energy per Si atom -12395.626571 kJ/mol
# Density = 2.374471 g / cm^3
# Si number density = 23.798879 Si / 1000 Ang^3
#
#
#
# Elastic Constant Matrix: (Units=GPa)
#
#
# Indices 1 2 3 4 5 6 
#
# 1 128.0154 32.8732 8.9430 0.0000 0.0000 0.0000
# 2 32.8732 150.6203 12.2438 0.0000 0.0000 0.0000
# 3 8.9430 12.2438 53.0837 0.0000 0.0000 0.0000
# 4 0.0000 0.0000 0.0000 18.3169 0.0000 0.0000
# 5 0.0000 0.0000 0.0000 0.0000 13.7950 0.0000
# 6 0.0000 0.0000 0.0000 0.0000 0.0000 37.4608
#
#
#
# Elastic Compliance Matrix: (Units=1/GPa)
#
#
# Indices 1 2 3 4 5 6 
#
# 1 0.008327 -0.001736 -0.001003 0.000000 0.000000 0.000000
# 2 -0.001736 0.007128 -0.001352 0.000000 0.000000 0.000000
# 3 -0.001003 -0.001352 0.019319 0.000000 0.000000 0.000000
# 4 0.000000 0.000000 0.000000 0.054594 0.000000 0.000000
# 5 0.000000 0.000000 0.000000 0.000000 0.072490 0.000000
# 6 0.000000 0.000000 0.000000 0.000000 0.000000 0.026695
#
#
# Mechanical properties :
#
#
# Convention : Reuss Voigt Hill
#
# Bulk Modulus (GPa) = 37.60252 48.87106 43.23679
# Shear Modulus (GPa) = 24.31927 32.42515 28.37221
#
# Velocity S-wave (km/s) = 3.20013 3.69516 3.45652
# Velocity P-wave (km/s) = 5.43037 6.22778 5.84269
#
# Compressibility (1/GPa) = 0.02659396
#
# Stress axis : x y z
#
# Youngs Moduli (GPa) = 120.08587 140.29256 51.76300
#
# Poissons Ratio (x) = 0.24354 0.05189
# Poissons Ratio (y) = 0.20847 0.06996
# Poissons Ratio (z) = 0.12039 0.18962
#
# Static dielectric constant tensor:
#      x y z
#    x 4.334300 0.000000 0.000000 
#    y 0.000000 4.617330 0.000000 
#    z 0.000000 0.000000 4.003380 
# 
# 
# High freq. dielectric constant tensor:
#      x y z
#    x 1.952290 0.000000 0.000000 
#    y 0.000000 1.942690 0.000000 
#    z 0.000000 0.000000 1.912960 
# 
# From -- ./inp_files/18167.got.cif
#   From: 2010.03.12/outbox.cif.g09.slc.cpg/sg60_10_cif.got.tgz:18167.got - 2010.04.10 18:46:24.
