data_PCOD8246602
_publ_section_title
;
Structure prediction by ZEFSAII (Michael W. Deem and Ramdas Pophale) SiO2 
 PCOD8246602
Probable space group: P B C N
;
_chemical_formula_sum "Si O2"
_cell_formula_units_Z 64
_cell_length_a 27.119264
_cell_length_b 25.151382
_cell_length_c 5.195243
_cell_angle_alpha 90.000000
_cell_angle_beta 90.000000
_cell_angle_gamma 90.000000
_cell_volume 3543.607548
_symmetry_space_group_name_H-M "P B C N"
_symmetry_group_IT_number 60
_symmetry_cell_setting 'orthorhombic'
loop_
_space_group_symop_operation_xyz
x,y,z
1/2-x,1/2-y,1/2+z
1/2+x,1/2-y,-z
-x,y,1/2-z
-x,-y,-z
1/2+x,1/2+y,1/2-z
1/2-x,1/2+y,z
x,-y,1/2+z
loop_
_atom_site_type_symbol
_atom_site_label
_atom_site_fract_x
_atom_site_fract_y
_atom_site_fract_z
Si Si1 0.232851 0.973682 0.226620
Si Si2 0.444897 0.737383 0.275652
Si Si3 0.554842 0.806223 0.724713
Si Si4 0.345521 0.686351 0.216787
Si Si5 0.658534 0.979899 0.772060
Si Si6 0.796838 0.146914 0.784163
Si Si7 0.805334 0.695874 0.804968
Si Si8 0.153134 0.642595 0.195170
O O1 0.227049 0.910788 0.239300
O O2 0.207355 0.001472 0.473141
O O3 0.290823 0.986421 0.221231
O O4 0.500000 0.713203 0.250000
O O5 0.437067 0.760931 0.560537
O O6 0.404788 0.691270 0.235498
O O7 0.436664 0.782555 0.059553
O O8 0.500000 0.830640 0.750000
O O9 0.594160 0.853018 0.768288
O O10 0.326559 0.650396 0.450519
O O11 0.319836 0.743454 0.235298
O O12 0.333768 0.657281 0.950462
O O13 0.669704 0.917712 0.765884
O O14 0.628272 0.000796 0.523583
O O15 0.753335 0.190456 0.772105
O O16 0.832933 0.660879 0.590604
O O17 0.819389 0.678134 0.093053
#
# Coordination Sequence:
#
# PCOD8246602 Si02
#       8
#     8   8   8   8   8   8   8   8
#     4  10  19  36  52  71  99 138 189 229 259 307
#     4  10  20  37  58  78 109 146 181 222 265 316
#     4  10  19  34  55  81 105 139 184 232 273 316
#     4  12  22  37  52  81 118 144 180 215 269 333
#     4  10  20  33  51  74  97 131 184 238 270 303
#     4  12  24  35  53  78 114 153 180 223 271 317
#     4  12  22  35  52  78 115 154 182 209 261 332
#     4  12  20  35  58  79 105 145 193 232 264 324
#
# _framework density 18.060692
#
# number of rings (size 3 to 8) (size 9 to 14) (size 15 to 20)
#    0.000    1.000    2.500    7.500    0.000    0.000 
#    0.000    0.000    0.000    0.750    0.000    0.000 
#    0.000   10.000    0.000    0.000    0.000    0.000 
#
# Total GULP energy -793609.788056 kJ/mol
# GULP energy per Si atom -12400.152938 kJ/mol
# Density = 1.801958 g / cm^3
# Si number density = 18.060692 Si / 1000 Ang^3
#
#
#
# Elastic Constant Matrix: (Units=GPa)
#
#
# Indices 1 2 3 4 5 6 
#
# 1 87.4788 27.8934 10.8826 0.0000 0.0000 0.0000
# 2 27.8934 61.2512 16.6034 0.0000 0.0000 0.0000
# 3 10.8826 16.6034 120.6122 0.0000 0.0000 0.0000
# 4 0.0000 0.0000 0.0000 26.3915 0.0000 0.0000
# 5 0.0000 0.0000 0.0000 0.0000 19.0800 0.0000
# 6 0.0000 0.0000 0.0000 0.0000 0.0000 12.1901
#
#
#
# Elastic Compliance Matrix: (Units=1/GPa)
#
#
# Indices 1 2 3 4 5 6 
#
# 1 0.013390 -0.005994 -0.000383 0.000000 0.000000 0.000000
# 2 -0.005994 0.019642 -0.002163 0.000000 0.000000 0.000000
# 3 -0.000383 -0.002163 0.008623 0.000000 0.000000 0.000000
# 4 0.000000 0.000000 0.000000 0.037891 0.000000 0.000000
# 5 0.000000 0.000000 0.000000 0.000000 0.052411 0.000000
# 6 0.000000 0.000000 0.000000 0.000000 0.000000 0.082034
#
#
# Mechanical properties :
#
#
# Convention : Reuss Voigt Hill
#
# Bulk Modulus (GPa) = 40.69092 42.23343 41.46217
# Shear Modulus (GPa) = 20.89746 25.79652 23.34699
#
# Velocity S-wave (km/s) = 3.40526 3.78342 3.59931
# Velocity P-wave (km/s) = 6.16766 6.52078 6.34668
#
# Compressibility (1/GPa) = 0.02457551
#
# Stress axis : x y z
#
# Youngs Moduli (GPa) = 74.68136 50.91084 115.96398
#
# Poissons Ratio (x) = 0.30516 0.04442
# Poissons Ratio (y) = 0.44764 0.25084
# Poissons Ratio (z) = 0.02861 0.11013
#
# Static dielectric constant tensor:
#      x y z
#    x 3.342610 0.000000 0.000000 
#    y 0.000000 3.094310 0.000000 
#    z 0.000000 0.000000 6.002370 
# 
# 
# High freq. dielectric constant tensor:
#      x y z
#    x 1.669800 0.000000 0.000000 
#    y 0.000000 1.670960 0.000000 
#    z 0.000000 0.000000 1.738810 
# 
# From -- ./inp_files/2648.got.cif
#   From: 2010.03.12/outbox.cif.g09.slc.cpg/sg60_2_cif.got.tgz:2648.got - 2010.04.10 18:46:24.
