data_PCOD8246524
_publ_section_title
;
Structure prediction by ZEFSAII (Michael W. Deem and Ramdas Pophale) SiO2 
 PCOD8246524
Probable space group: P B C N
;
_chemical_formula_sum "Si O2"
_cell_formula_units_Z 64
_cell_length_a 8.116339
_cell_length_b 24.609083
_cell_length_c 14.368135
_cell_angle_alpha 90.000000
_cell_angle_beta 90.000000
_cell_angle_gamma 90.000000
_cell_volume 2869.828929
_symmetry_space_group_name_H-M "P B C N"
_symmetry_group_IT_number 60
_symmetry_cell_setting 'orthorhombic'
loop_
_space_group_symop_operation_xyz
x,y,z
1/2-x,1/2-y,1/2+z
1/2+x,1/2-y,-z
-x,y,1/2-z
-x,-y,-z
1/2+x,1/2+y,1/2-z
1/2-x,1/2+y,z
x,-y,1/2+z
loop_
_atom_site_type_symbol
_atom_site_label
_atom_site_fract_x
_atom_site_fract_y
_atom_site_fract_z
Si Si1 0.775861 0.547771 0.358755
Si Si2 0.188956 0.670626 0.781632
Si Si3 0.683160 0.351940 0.759205
Si Si4 0.760741 0.747905 0.369219
Si Si5 0.313743 0.948539 0.269873
Si Si6 0.600584 0.112551 0.090742
Si Si7 0.185967 0.496235 0.964240
Si Si8 0.049306 0.293566 0.465765
O O1 0.656113 0.589775 0.308015
O O2 0.757236 0.490258 0.307977
O O3 0.709493 0.531601 0.461255
O O4 0.958732 0.576025 0.357659
O O5 0.298347 0.710117 0.715135
O O6 0.271760 0.610933 0.768666
O O7 0.191389 0.688475 0.891297
O O8 0.000000 0.672639 0.750000
O O9 0.500000 0.326924 0.750000
O O10 0.780667 0.312713 0.828794
O O11 0.789117 0.354489 0.664631
O O12 0.885657 0.748555 0.456125
O O13 0.581229 0.758826 0.409250
O O14 0.500000 0.934502 0.250000
O O15 0.280617 0.975834 0.367601
O O16 0.723514 0.068516 0.041765
O O17 0.528139 0.152266 0.012331
O O18 0.000000 0.500000 0.000000
#
# Coordination Sequence:
#
# PCOD8246524 Si02
#       8
#     8   8   8   8   8   8   8   8
#     4  11  21  38  63 103 126 165 211 270 327 383
#     4   9  21  38  59  94 129 170 206 270 332 378
#     4  12  25  43  64  91 134 176 220 274 327 386
#     4  11  26  43  66  92 132 170 224 276 328 392
#     4  11  17  31  58  91 131 154 198 261 316 381
#     4  11  22  40  68 100 126 165 224 270 324 397
#     4  10  19  30  60  98 127 150 206 262 316 381
#     4  11  24  43  68  97 129 172 224 272 337 395
#
# _framework density 22.300981
#
# number of rings (size 3 to 8) (size 9 to 14) (size 15 to 20)
#    0.000    1.250    5.000    3.000    7.000    0.000 
#    0.000    0.625    0.000    1.500    0.000    0.000 
#    0.000    0.000    0.000    0.000    0.000    0.000 
#
# Total GULP energy -792969.056433 kJ/mol
# GULP energy per Si atom -12390.141507 kJ/mol
# Density = 2.225022 g / cm^3
# Si number density = 22.300981 Si / 1000 Ang^3
#
#
#
# Elastic Constant Matrix: (Units=GPa)
#
#
# Indices 1 2 3 4 5 6 
#
# 1 22.3799 11.9754 22.3292 0.0000 0.0000 0.0000
# 2 11.9754 141.4548 55.8693 0.0000 0.0000 0.0000
# 3 22.3292 55.8693 143.0784 0.0000 0.0000 0.0000
# 4 0.0000 0.0000 0.0000 47.3442 0.0000 0.0000
# 5 0.0000 0.0000 0.0000 0.0000 29.0451 0.0000
# 6 0.0000 0.0000 0.0000 0.0000 0.0000 32.1641
#
#
#
# Elastic Compliance Matrix: (Units=1/GPa)
#
#
# Indices 1 2 3 4 5 6 
#
# 1 0.053173 -0.001447 -0.007733 0.000000 0.000000 0.000000
# 2 -0.001447 0.008398 -0.003053 0.000000 0.000000 0.000000
# 3 -0.007733 -0.003053 0.009388 0.000000 0.000000 0.000000
# 4 0.000000 0.000000 0.000000 0.021122 0.000000 0.000000
# 5 0.000000 0.000000 0.000000 0.000000 0.034429 0.000000
# 6 0.000000 0.000000 0.000000 0.000000 0.000000 0.031091
#
#
# Mechanical properties :
#
#
# Convention : Reuss Voigt Hill
#
# Bulk Modulus (GPa) = 21.50921 54.14011 37.82466
# Shear Modulus (GPa) = 25.30799 36.15993 30.73396
#
# Velocity S-wave (km/s) = 3.37239 4.03109 3.71636
# Velocity P-wave (km/s) = 4.98296 6.78203 5.95088
#
# Compressibility (1/GPa) = 0.04649171
#
# Stress axis : x y z
#
# Youngs Moduli (GPa) = 18.80648 119.07774 106.51541
#
# Poissons Ratio (x) = 0.17234 0.82371
# Poissons Ratio (y) = 0.02722 0.32523
# Poissons Ratio (z) = 0.14543 0.36359
#
# Static dielectric constant tensor:
#      x y z
#    x 3.400320 0.000000 0.000000 
#    y 0.000000 4.646200 0.000000 
#    z 0.000000 0.000000 4.771120 
# 
# 
# High freq. dielectric constant tensor:
#      x y z
#    x 1.808330 0.000000 0.000000 
#    y 0.000000 1.897960 0.000000 
#    z 0.000000 0.000000 1.900630 
# 
# From -- ./inp_files/15398.got.cif
#   From: 2010.03.12/outbox.cif.g09.slc.cpg/sg60_8_cif.got.tgz:15398.got - 2010.04.10 18:46:24.
