data_PCOD8246834
_publ_section_title
;
Structure prediction by ZEFSAII (Michael W. Deem and Ramdas Pophale) SiO2 
 PCOD8246834
Probable space group: P B C N
;
_chemical_formula_sum "Si O2"
_cell_formula_units_Z 36
_cell_length_a 11.542627
_cell_length_b 17.336742
_cell_length_c 9.075791
_cell_angle_alpha 90.000000
_cell_angle_beta 90.000000
_cell_angle_gamma 90.000000
_cell_volume 1816.170571
_symmetry_space_group_name_H-M "P B C N"
_symmetry_group_IT_number 60
_symmetry_cell_setting 'orthorhombic'
loop_
_space_group_symop_operation_xyz
x,y,z
1/2-x,1/2-y,1/2+z
1/2+x,1/2-y,-z
-x,y,1/2-z
-x,-y,-z
1/2+x,1/2+y,1/2-z
1/2-x,1/2+y,z
x,-y,1/2+z
loop_
_atom_site_type_symbol
_atom_site_label
_atom_site_fract_x
_atom_site_fract_y
_atom_site_fract_z
Si Si1 0.134443 0.189938 0.274957
Si Si2 0.124616 0.976417 0.684676
Si Si3 0.500000 0.720684 0.750000
Si Si4 0.325300 0.599594 0.887916
Si Si5 0.312479 0.780612 0.547912
O O1 0.170021 0.101186 0.260431
O O2 0.175757 0.210207 0.436804
O O3 0.202719 0.238580 0.151492
O O4 0.000000 0.205584 0.250000
O O5 0.123454 0.961496 0.508942
O O6 0.000000 0.999264 0.750000
O O7 0.203588 0.049166 0.740545
O O8 0.417947 0.666998 0.851993
O O9 0.427805 0.779879 0.647591
O O10 0.209320 0.639607 0.956129
#
# Coordination Sequence:
#
# PCOD8246834 Si02
#       5
#     8   8   4   8   8
#     4  10  22  37  59  92 124 155 204 247 307 360
#     4  10  20  34  56  91 124 149 191 250 315 359
#     4  12  22  38  64  88 130 156 210 246 300 374
#     4  11  23  36  61  93 120 160 193 253 312 362
#     4  11  22  39  58  90 121 169 198 248 304 358
#
# _framework density 19.821926999999999
#
# number of rings (size 3 to 8) (size 9 to 14) (size 15 to 20)
#    0.000    1.333    3.333    4.667    3.111    0.000 
#    0.000    0.000    0.000    5.333    5.778    0.000 
#    0.000    0.000    0.000    0.000    0.000    0.000 
#
# Total GULP energy -446046.876838 kJ/mol
# GULP energy per Si atom -12390.191023 kJ/mol
# Density = 1.977681 g / cm^3
# Si number density = 19.821927 Si / 1000 Ang^3
#
#
#
# Elastic Constant Matrix: (Units=GPa)
#
#
# Indices 1 2 3 4 5 6 
#
# 1 82.0661 52.7692 44.2149 0.0000 0.0000 0.0000
# 2 52.7692 69.6822 47.9059 0.0000 0.0000 0.0000
# 3 44.2149 47.9059 102.2941 0.0000 0.0000 0.0000
# 4 0.0000 0.0000 0.0000 35.7719 0.0000 0.0000
# 5 0.0000 0.0000 0.0000 0.0000 40.2385 0.0000
# 6 0.0000 0.0000 0.0000 0.0000 0.0000 14.8527
#
#
#
# Elastic Compliance Matrix: (Units=1/GPa)
#
#
# Indices 1 2 3 4 5 6 
#
# 1 0.024274 -0.016473 -0.002778 0.000000 0.000000 0.000000
# 2 -0.016473 0.032344 -0.008027 0.000000 0.000000 0.000000
# 3 -0.002778 -0.008027 0.014736 0.000000 0.000000 0.000000
# 4 0.000000 0.000000 0.000000 0.027955 0.000000 0.000000
# 5 0.000000 0.000000 0.000000 0.000000 0.024852 0.000000
# 6 0.000000 0.000000 0.000000 0.000000 0.000000 0.067328
#
#
# Mechanical properties :
#
#
# Convention : Reuss Voigt Hill
#
# Bulk Modulus (GPa) = 59.52877 60.42470 59.97673
# Shear Modulus (GPa) = 19.86950 25.44945 22.65948
#
# Velocity S-wave (km/s) = 3.16951 3.58705 3.38472
# Velocity P-wave (km/s) = 6.59480 6.90694 6.75267
#
# Compressibility (1/GPa) = 0.01679860
#
# Stress axis : x y z
#
# Youngs Moduli (GPa) = 41.19663 30.91772 67.86324
#
# Poissons Ratio (x) = 0.50930 0.18849
# Poissons Ratio (y) = 0.67862 0.54475
# Poissons Ratio (z) = 0.11443 0.24818
#
# Static dielectric constant tensor:
#      x y z
#    x 3.516750 0.000000 0.000000 
#    y 0.000000 3.654830 0.000000 
#    z 0.000000 0.000000 3.993300 
# 
# 
# High freq. dielectric constant tensor:
#      x y z
#    x 1.732280 0.000000 0.000000 
#    y 0.000000 1.759530 0.000000 
#    z 0.000000 0.000000 1.801860 
# 
# From -- ./inp_files/4870.got.cif
#   From: 2010.03.12/outbox.cif.g09.slc.cpg/sg60_3_cif.got.tgz:4870.got - 2010.04.10 18:46:24.
