data_PCOD8246261
_publ_section_title
;
Structure prediction by ZEFSAII (Michael W. Deem and Ramdas Pophale) SiO2 
 PCOD8246261
Probable space group: P M M N
;
_chemical_formula_sum "Si O2"
_cell_formula_units_Z 40
_cell_length_a 9.000000
_cell_length_b 15.000000
_cell_length_c 15.000000
_cell_angle_alpha 90.000000
_cell_angle_beta 90.000000
_cell_angle_gamma 90.000000
_cell_volume 2025.000000
_symmetry_space_group_name_H-M "P M M N"
_symmetry_group_IT_number 59
_space_group.IT_coordinate_system_code '2'
_symmetry_cell_setting 'orthorhombic'
loop_
_space_group_symop_operation_xyz
x,y,z
1/2-x,1/2-y,z
1/2+x,-y,-z
-x,1/2+y,-z
-x,-y,-z
1/2+x,1/2+y,-z
1/2-x,y,z
x,1/2-y,z
loop_
_atom_site_type_symbol
_atom_site_label
_atom_site_fract_x
_atom_site_fract_y
_atom_site_fract_z
Si Si1 0.582072 0.644463 0.095650
Si Si2 0.074117 0.589308 0.276790
Si Si3 0.572453 0.406119 0.279925
Si Si4 0.076481 0.750000 0.410033
Si Si5 0.918944 0.355207 0.081137
Si Si6 0.929121 0.750000 0.604563
O O1 0.750000 0.607136 0.107281
O O2 0.582496 0.750000 0.091961
O O3 0.481946 0.614810 0.178334
O O4 0.516683 0.607692 0.001603
O O5 0.250000 0.572433 0.271410
O O6 0.035740 0.664634 0.349548
O O7 0.987313 0.502089 0.310586
O O8 0.750000 0.397607 0.291897
O O9 0.526192 0.394117 0.175968
O O10 0.492317 0.335657 0.343931
O O11 0.250000 0.750000 0.435605
O O12 0.982233 0.750000 0.501349
O O13 0.750000 0.384266 0.062683
O O14 0.933340 0.250000 0.088730
O O15 0.750000 0.750000 0.606933
#
# Coordination Sequence:
#
# PCOD8246261 Si02
#       6
#     8   8   8   4   8   4
#     4  10  20  34  57  90 126 165 208 255 307 364
#     4  11  23  41  65  94 125 164 210 258 310 370
#     4  11  23  42  66  94 128 166 206 256 311 368
#     4  10  24  46  69  90 121 162 205 256 316 372
#     4   9  18  35  59  86 120 165 210 249 299 362
#     4  12  26  44  69  96 123 158 203 256 314 376
#
# _framework density 19.753086
#
# number of rings (size 3 to 8) (size 9 to 14) (size 15 to 20)
#    0.000    1.600    2.000    2.700    0.000    5.600 
#    0.000    0.000    0.000    0.000    0.000    0.000 
#    0.000    0.000    0.000    0.000    0.000    0.000 
#
# Total GULP energy -496011.812724 kJ/mol
# GULP energy per Si atom -12400.295318 kJ/mol
# Density = 1.970813 g / cm^3
# Si number density = 19.753086 Si / 1000 Ang^3
#
#
#
# Elastic Constant Matrix: (Units=GPa)
#
#
# Indices 1 2 3 4 5 6 
#
# 1 140.7906 48.8862 79.1677 0.0000 0.0000 0.0000
# 2 48.8862 106.2364 66.1761 0.0000 0.0000 0.0000
# 3 79.1677 66.1761 173.0441 0.0000 0.0000 0.0000
# 4 0.0000 0.0000 0.0000 11.7489 0.0000 0.0000
# 5 0.0000 0.0000 0.0000 0.0000 40.9309 0.0000
# 6 0.0000 0.0000 0.0000 0.0000 0.0000 32.5541
#
#
#
# Elastic Compliance Matrix: (Units=1/GPa)
#
#
# Indices 1 2 3 4 5 6 
#
# 1 0.009971 -0.002293 -0.003685 0.000000 0.000000 0.000000
# 2 -0.002293 0.012884 -0.003878 0.000000 0.000000 0.000000
# 3 -0.003685 -0.003878 0.008948 0.000000 0.000000 0.000000
# 4 0.000000 0.000000 0.000000 0.085115 0.000000 0.000000
# 5 0.000000 0.000000 0.000000 0.000000 0.024431 0.000000
# 6 0.000000 0.000000 0.000000 0.000000 0.000000 0.030718
#
#
# Mechanical properties :
#
#
# Convention : Reuss Voigt Hill
#
# Bulk Modulus (GPa) = 82.70727 89.83679 86.27203
# Shear Modulus (GPa) = 25.53516 32.10284 28.81900
#
# Velocity S-wave (km/s) = 3.59934 4.03576 3.82378
# Velocity P-wave (km/s) = 7.69643 8.20336 7.95394
#
# Compressibility (1/GPa) = 0.01209084
#
# Stress axis : x y z
#
# Youngs Moduli (GPa) = 100.29160 77.61693 111.76003
#
# Poissons Ratio (x) = 0.17797 0.41182
# Poissons Ratio (y) = 0.22996 0.43341
# Poissons Ratio (z) = 0.36956 0.30100
#
# Static dielectric constant tensor:
#      x y z
#    x 3.870570 0.000000 0.000000 
#    y 0.000000 3.724240 0.000000 
#    z 0.000000 0.000000 3.850370 
# 
# 
# High freq. dielectric constant tensor:
#      x y z
#    x 1.786100 0.000000 0.000000 
#    y 0.000000 1.781700 0.000000 
#    z 0.000000 0.000000 1.788980 
# 
# From -- ./inp_files/19904.got.cif
#   From: 2010.03.12/outbox.ucp.g09.slc.cvg/sg59_10_cif.got.tgz:19904.got - 2010.05.04 19:30:51.
