data_PCOD8246223
_publ_section_title
;
Structure prediction by ZEFSAII (Michael W. Deem and Ramdas Pophale) SiO2 
 PCOD8246223
Probable space group: P M M N
;
_chemical_formula_sum "Si O2"
_cell_formula_units_Z 64
_cell_length_a 9.352379
_cell_length_b 19.370886
_cell_length_c 21.141058
_cell_angle_alpha 90.000000
_cell_angle_beta 90.000000
_cell_angle_gamma 90.000000
_cell_volume 3829.995829
_symmetry_space_group_name_H-M "P M M N"
_symmetry_group_IT_number 59
_space_group.IT_coordinate_system_code '2'
_symmetry_cell_setting 'orthorhombic'
loop_
_space_group_symop_operation_xyz
x,y,z
1/2-x,1/2-y,z
1/2+x,-y,-z
-x,1/2+y,-z
-x,-y,-z
1/2+x,1/2+y,-z
1/2-x,y,z
x,1/2-y,z
loop_
_atom_site_type_symbol
_atom_site_label
_atom_site_fract_x
_atom_site_fract_y
_atom_site_fract_z
Si Si1 0.413958 0.675007 0.114004
Si Si2 0.911226 0.908514 0.356376
Si Si3 0.081708 0.941199 0.696629
Si Si4 0.086279 0.531433 0.057119
Si Si5 0.081669 0.828340 0.458665
Si Si6 0.080158 0.826509 0.600461
Si Si7 0.415942 0.488747 0.193293
Si Si8 0.084970 0.125991 0.779100
O O1 0.250000 0.660327 0.134836
O O2 0.424804 0.750000 0.078835
O O3 0.466379 0.610492 0.071096
O O4 0.514222 0.683765 0.176301
O O5 0.750000 0.908433 0.382400
O O6 0.923867 0.857016 0.295725
O O7 0.012074 0.882966 0.411821
O O8 0.954956 0.985838 0.335981
O O9 0.250000 0.934514 0.710115
O O10 0.021463 0.881610 0.650710
O O11 0.999242 0.932182 0.763965
O O12 0.250000 0.533974 0.036099
O O13 0.065754 0.480351 0.117504
O O14 0.000000 0.500000 0.000000
O O15 0.250000 0.837516 0.453359
O O16 0.037449 0.750000 0.440966
O O17 0.027990 0.845374 0.529713
O O18 0.250000 0.827442 0.600675
O O19 0.024941 0.750000 0.619235
O O20 0.250000 0.488553 0.212381
O O21 0.487380 0.560425 0.209563
O O22 0.250000 0.112407 0.798355
#
# Coordination Sequence:
#
# PCOD8246223 Si02
#       8
#     8   8   8   8   8   8   8   8
#     4   9  18  32  48  68  96 127 159 196 234 271
#     4   9  18  29  41  63  94 121 146 184 232 275
#     4   9  17  30  49  71  92 116 149 191 235 277
#     4   9  18  31  49  72  96 125 157 188 224 267
#     4   9  18  31  45  61  83 116 157 194 228 275
#     4   8  15  30  50  68  87 114 151 195 239 281
#     4   9  17  30  47  69  95 119 146 182 226 272
#     4   9  17  29  44  64  91 121 153 188 226 270
#
# _framework density 16.710201000000001
#
# number of rings (size 3 to 8) (size 9 to 14) (size 15 to 20)
#    0.000    3.125    0.000    3.000    0.000    6.500 
#    0.000    3.125    0.000    1.875    0.000    5.250 
#    0.000    0.000    0.000    0.000    0.000    0.000 
#
# Total GULP energy -792884.170281 kJ/mol
# GULP energy per Si atom -12388.815161 kJ/mol
# Density = 1.667217 g / cm^3
# Si number density = 16.710201 Si / 1000 Ang^3
#
#
#
# Elastic Constant Matrix: (Units=GPa)
#
#
# Indices 1 2 3 4 5 6 
#
# 1 63.0071 33.3280 52.5963 0.0000 0.0000 0.0000
# 2 33.3280 84.3291 62.4296 0.0000 0.0000 0.0000
# 3 52.5963 62.4296 109.6550 0.0000 0.0000 0.0000
# 4 0.0000 0.0000 0.0000 21.5181 0.0000 0.0000
# 5 0.0000 0.0000 0.0000 0.0000 30.3403 0.0000
# 6 0.0000 0.0000 0.0000 0.0000 0.0000 18.0897
#
#
#
# Elastic Compliance Matrix: (Units=1/GPa)
#
#
# Indices 1 2 3 4 5 6 
#
# 1 0.026635 -0.001847 -0.011724 0.000000 0.000000 0.000000
# 2 -0.001847 0.020626 -0.010857 0.000000 0.000000 0.000000
# 3 -0.011724 -0.010857 0.020924 0.000000 0.000000 0.000000
# 4 0.000000 0.000000 0.000000 0.046473 0.000000 0.000000
# 5 0.000000 0.000000 0.000000 0.000000 0.032960 0.000000
# 6 0.000000 0.000000 0.000000 0.000000 0.000000 0.055280
#
#
# Mechanical properties :
#
#
# Convention : Reuss Voigt Hill
#
# Bulk Modulus (GPa) = 51.73586 61.52211 56.62899
# Shear Modulus (GPa) = 19.36517 21.23209 20.29863
#
# Velocity S-wave (km/s) = 3.40793 3.56842 3.48910
# Velocity P-wave (km/s) = 6.82006 7.33997 7.08479
#
# Compressibility (1/GPa) = 0.01932895
#
# Stress axis : x y z
#
# Youngs Moduli (GPa) = 37.54452 48.48321 47.79219
#
# Poissons Ratio (x) = 0.08956 0.56031
# Poissons Ratio (y) = 0.06935 0.51887
# Poissons Ratio (z) = 0.44017 0.52637
#
# Static dielectric constant tensor:
#      x y z
#    x 3.190090 0.000000 0.000000 
#    y 0.000000 3.260990 0.000000 
#    z 0.000000 0.000000 3.366030 
# 
# 
# High freq. dielectric constant tensor:
#      x y z
#    x 1.636190 0.000000 0.000000 
#    y 0.000000 1.623290 0.000000 
#    z 0.000000 0.000000 1.633520 
# 
# From -- ./inp_files/29731.got.cif
#   From: 2010.03.12/outbox.cif.g09.slc.cpg/sg59_15_cif.got.tgz:29731.got - 2010.04.16 16:29:54.
