data_PCOD8246294
_publ_section_title
;
Structure prediction by ZEFSAII (Michael W. Deem and Ramdas Pophale) SiO2 
 PCOD8246294
Probable space group: P B C N
;
_chemical_formula_sum "Si O2"
_cell_formula_units_Z 40
_cell_length_a 12.747506
_cell_length_b 29.493437
_cell_length_c 5.096686
_cell_angle_alpha 90.000000
_cell_angle_beta 90.000000
_cell_angle_gamma 90.000000
_cell_volume 1916.189645
_symmetry_space_group_name_H-M "P B C N"
_symmetry_group_IT_number 60
_symmetry_cell_setting 'orthorhombic'
loop_
_space_group_symop_operation_xyz
x,y,z
1/2-x,1/2-y,1/2+z
1/2+x,1/2-y,-z
-x,y,1/2-z
-x,-y,-z
1/2+x,1/2+y,1/2-z
1/2-x,1/2+y,z
x,-y,1/2+z
loop_
_atom_site_type_symbol
_atom_site_label
_atom_site_fract_x
_atom_site_fract_y
_atom_site_fract_z
Si Si1 0.786333 0.970574 0.508695
Si Si2 0.046972 0.449563 0.998613
Si Si3 0.671396 0.701946 0.846866
Si Si4 0.934290 0.111015 0.992050
Si Si5 0.613086 0.243159 0.838807
O O1 0.670730 0.950174 0.519151
O O2 0.860956 0.929494 0.587275
O O3 0.805837 0.010185 0.718815
O O4 0.000000 0.423355 0.250000
O O5 0.000000 0.422755 0.750000
O O6 0.000000 0.500000 0.000000
O O7 0.798424 0.703808 0.818366
O O8 0.613012 0.732210 0.623802
O O9 0.631867 0.650638 0.847890
O O10 0.642536 0.718477 0.134086
O O11 0.000000 0.127132 0.250000
O O12 0.000000 0.090944 0.750000
O O13 0.500000 0.222810 0.750000
#
# Coordination Sequence:
#
# PCOD8246294 Si02
#       5
#     8   8   8   8   8
#     4  12  23  38  61  86 114 153 208 253 292 355
#     4  10  16  32  58  83 103 135 181 238 282 358
#     4  10  21  37  60  90 118 158 195 230 291 359
#     4  12  26  42  59  83 121 159 202 250 300 354
#     4  10  19  35  64  92 120 151 192 239 284 351
#
# _framework density 20.874762
#
# number of rings (size 3 to 8) (size 9 to 14) (size 15 to 20)
#    0.000    1.200    4.000    4.800    0.000    2.400 
#    0.000    1.000    0.000    4.800    0.000    0.000 
#    0.000    0.000    0.000    0.000    0.000    0.000 
#
# Total GULP energy -495715.019330 kJ/mol
# GULP energy per Si atom -12392.875483 kJ/mol
# Density = 2.082725 g / cm^3
# Si number density = 20.874762 Si / 1000 Ang^3
#
#
#
# Elastic Constant Matrix: (Units=GPa)
#
#
# Indices 1 2 3 4 5 6 
#
# 1 150.0221 49.3412 35.5931 0.0000 0.0000 0.0000
# 2 49.3412 57.8499 21.1985 0.0000 0.0000 0.0000
# 3 35.5931 21.1985 142.3075 0.0000 0.0000 0.0000
# 4 0.0000 0.0000 0.0000 53.8751 0.0000 0.0000
# 5 0.0000 0.0000 0.0000 0.0000 35.9454 0.0000
# 6 0.0000 0.0000 0.0000 0.0000 0.0000 23.8521
#
#
#
# Elastic Compliance Matrix: (Units=1/GPa)
#
#
# Indices 1 2 3 4 5 6 
#
# 1 0.009464 -0.007621 -0.001232 0.000000 0.000000 0.000000
# 2 -0.007621 0.024421 -0.001732 0.000000 0.000000 0.000000
# 3 -0.001232 -0.001732 0.007593 0.000000 0.000000 0.000000
# 4 0.000000 0.000000 0.000000 0.018561 0.000000 0.000000
# 5 0.000000 0.000000 0.000000 0.000000 0.027820 0.000000
# 6 0.000000 0.000000 0.000000 0.000000 0.000000 0.041925
#
#
# Mechanical properties :
#
#
# Convention : Reuss Voigt Hill
#
# Bulk Modulus (GPa) = 49.23890 62.49388 55.86639
# Shear Modulus (GPa) = 31.70104 39.00430 35.35267
#
# Velocity S-wave (km/s) = 3.90119 4.32729 4.11975
# Velocity P-wave (km/s) = 6.62807 7.41416 7.03211
#
# Compressibility (1/GPa) = 0.02030915
#
# Stress axis : x y z
#
# Youngs Moduli (GPa) = 105.65862 40.94884 131.69816
#
# Poissons Ratio (x) = 0.31207 0.16225
# Poissons Ratio (y) = 0.80522 0.22806
# Poissons Ratio (z) = 0.13017 0.07091
#
# Static dielectric constant tensor:
#      x y z
#    x 3.968610 0.000000 0.000000 
#    y 0.000000 3.189090 0.000000 
#    z 0.000000 0.000000 3.869380 
# 
# 
# High freq. dielectric constant tensor:
#      x y z
#    x 1.831710 0.000000 0.000000 
#    y 0.000000 1.760180 0.000000 
#    z 0.000000 0.000000 1.849680 
# 
# From -- ./inp_files/936.got.cif
#   From: 2010.03.12/outbox.cif.g09.slc.cpg/sg60_1_cif.got.tgz:936.got - 2010.04.10 18:46:24.
