data_PCOD8246461
_publ_section_title
;
Structure prediction by ZEFSAII (Michael W. Deem and Ramdas Pophale) SiO2 
 PCOD8246461
Probable space group: P B C N
;
_chemical_formula_sum "Si O2"
_cell_formula_units_Z 52
_cell_length_a 9.056284
_cell_length_b 16.346529
_cell_length_c 18.917864
_cell_angle_alpha 90.000000
_cell_angle_beta 90.000000
_cell_angle_gamma 90.000000
_cell_volume 2800.578056
_symmetry_space_group_name_H-M "P B C N"
_symmetry_group_IT_number 60
_symmetry_cell_setting 'orthorhombic'
loop_
_space_group_symop_operation_xyz
x,y,z
1/2-x,1/2-y,1/2+z
1/2+x,1/2-y,-z
-x,y,1/2-z
-x,-y,-z
1/2+x,1/2+y,1/2-z
1/2-x,1/2+y,z
x,-y,1/2+z
loop_
_atom_site_type_symbol
_atom_site_label
_atom_site_fract_x
_atom_site_fract_y
_atom_site_fract_z
Si Si1 0.735543 0.504153 0.823125
Si Si2 0.252445 0.163537 0.236659
Si Si3 0.845177 0.425197 0.185391
Si Si4 0.464341 0.193315 0.357348
Si Si5 0.000000 0.285909 0.250000
Si Si6 0.522221 0.629391 0.669963
Si Si7 0.016091 0.464985 0.577353
O O1 0.676977 0.424588 0.779854
O O2 0.849049 0.547794 0.768414
O O3 0.603778 0.563692 0.847521
O O4 0.817289 0.479905 0.895553
O O5 0.309049 0.175413 0.317174
O O6 0.395563 0.169282 0.188840
O O7 0.131209 0.231467 0.217454
O O8 0.677339 0.414551 0.160448
O O9 0.935365 0.339883 0.184841
O O10 0.907812 0.491692 0.132480
O O11 0.479888 0.289085 0.379290
O O12 0.473354 0.131829 0.424503
O O13 0.500000 0.662606 0.750000
O O14 0.000000 0.500000 0.500000
#
# Coordination Sequence:
#
# PCOD8246461 Si02
#       7
#     8   8   8   8   4   8   8
#     4  10  20  36  60  85 112 147 184 231 283 339
#     4  10  19  30  53  87 112 139 176 226 277 333
#     4  11  20  34  57  85 113 142 185 235 282 333
#     4  10  18  36  52  78 114 146 181 220 286 329
#     4  12  20  30  56  94 112 134 184 236 280 332
#     4  10  19  33  58  88 113 143 180 235 289 337
#     4  11  23  38  57  78 111 157 196 232 278 334
#
# _framework density 18.567596000000002
#
# number of rings (size 3 to 8) (size 9 to 14) (size 15 to 20)
#    0.000    1.538    6.154    0.923    3.231    0.000 
#    0.000    2.308    0.000    0.000    0.000    0.000 
#    0.000    0.000    0.000    0.000    0.000    0.000 
#
# Total GULP energy -644478.737935 kJ/mol
# GULP energy per Si atom -12393.821883 kJ/mol
# Density = 1.852534 g / cm^3
# Si number density = 18.567596 Si / 1000 Ang^3
#
#
#
# Elastic Constant Matrix: (Units=GPa)
#
#
# Indices 1 2 3 4 5 6 
#
# 1 85.4959 45.5528 24.0750 0.0000 0.0000 0.0000
# 2 45.5528 132.2073 14.8986 0.0000 0.0000 0.0000
# 3 24.0750 14.8986 40.1007 0.0000 0.0000 0.0000
# 4 0.0000 0.0000 0.0000 14.9959 0.0000 0.0000
# 5 0.0000 0.0000 0.0000 0.0000 9.6856 0.0000
# 6 0.0000 0.0000 0.0000 0.0000 0.0000 31.6615
#
#
#
# Elastic Compliance Matrix: (Units=1/GPa)
#
#
# Indices 1 2 3 4 5 6 
#
# 1 0.016539 -0.004780 -0.008154 0.000000 0.000000 0.000000
# 2 -0.004780 0.009276 -0.000577 0.000000 0.000000 0.000000
# 3 -0.008154 -0.000577 0.030047 0.000000 0.000000 0.000000
# 4 0.000000 0.000000 0.000000 0.066685 0.000000 0.000000
# 5 0.000000 0.000000 0.000000 0.000000 0.103247 0.000000
# 6 0.000000 0.000000 0.000000 0.000000 0.000000 0.031584
#
#
# Mechanical properties :
#
#
# Convention : Reuss Voigt Hill
#
# Bulk Modulus (GPa) = 34.67239 47.42852 41.05046
# Shear Modulus (GPa) = 17.00615 22.82042 19.91328
#
# Velocity S-wave (km/s) = 3.02967 3.50958 3.27842
# Velocity P-wave (km/s) = 5.56352 6.48244 6.04048
#
# Compressibility (1/GPa) = 0.02884139
#
# Stress axis : x y z
#
# Youngs Moduli (GPa) = 60.46230 107.80768 33.28156
#
# Poissons Ratio (x) = 0.51530 0.27137
# Poissons Ratio (y) = 0.28900 0.01919
# Poissons Ratio (z) = 0.49299 0.06216
#
# Static dielectric constant tensor:
#      x y z
#    x 3.485780 0.000000 0.000000 
#    y 0.000000 3.841400 0.000000 
#    z 0.000000 0.000000 2.877620 
# 
# 
# High freq. dielectric constant tensor:
#      x y z
#    x 1.731010 0.000000 0.000000 
#    y 0.000000 1.747960 0.000000 
#    z 0.000000 0.000000 1.640940 
# 
# From -- ./inp_files/22151.got.cif
#   From: 2010.03.12/outbox.cif.g09.slc.cpg/sg60_12_cif.got.tgz:22151.got - 2010.04.10 18:46:24.
