data_PCOD8246072
_publ_section_title
;
Structure prediction by ZEFSAII (Michael W. Deem and Ramdas Pophale) SiO2 
 PCOD8246072
Probable space group: P M M N
;
_chemical_formula_sum "Si O2"
_cell_formula_units_Z 56
_cell_length_a 18.273851
_cell_length_b 9.306548
_cell_length_c 20.080494
_cell_angle_alpha 90.000000
_cell_angle_beta 90.000000
_cell_angle_gamma 90.000000
_cell_volume 3415.018760
_symmetry_space_group_name_H-M "P M M N"
_symmetry_group_IT_number 59
_space_group.IT_coordinate_system_code '2'
_symmetry_cell_setting 'orthorhombic'
loop_
_space_group_symop_operation_xyz
x,y,z
1/2-x,1/2-y,z
1/2+x,-y,-z
-x,1/2+y,-z
-x,-y,-z
1/2+x,1/2+y,-z
1/2-x,y,z
x,1/2-y,z
loop_
_atom_site_type_symbol
_atom_site_label
_atom_site_fract_x
_atom_site_fract_y
_atom_site_fract_z
Si Si1 0.608859 0.412908 0.124450
Si Si2 0.333726 0.583307 0.021982
Si Si3 0.536698 0.915689 0.940337
Si Si4 0.457999 0.084735 0.443465
Si Si5 0.834040 0.581209 0.248501
Si Si6 0.665798 0.416953 0.507128
Si Si7 0.596050 0.086872 0.366387
O O1 0.629888 0.250000 0.144261
O O2 0.645947 0.452840 0.054167
O O3 0.520041 0.427997 0.121342
O O4 0.640320 0.520971 0.178093
O O5 0.250000 0.540845 0.035514
O O6 0.348371 0.750000 0.036799
O O7 0.384355 0.489933 0.072613
O O8 0.548499 0.750000 0.960114
O O9 0.500000 0.000000 0.000000
O O10 0.447742 0.250000 0.464524
O O11 0.508039 0.073649 0.377238
O O12 0.500000 0.000000 0.500000
O O13 0.378567 0.009163 0.437280
O O14 0.750000 0.539429 0.261141
O O15 0.846021 0.750000 0.247247
O O16 0.882873 0.517365 0.307105
O O17 0.750000 0.457674 0.515278
O O18 0.650530 0.250000 0.520608
O O19 0.639881 0.458508 0.432852
O O20 0.616829 0.250000 0.346978
#
# Coordination Sequence:
#
# PCOD8246072 Si02
#       7
#     8   8   8   8   8   8   8
#     4   9  18  32  47  62  86 122 156 182 213 260
#     4   9  17  29  46  69  94 119 148 182 222 267
#     4   9  17  29  45  65  88 116 150 185 223 266
#     4   9  17  29  45  65  88 116 150 185 223 266
#     4  11  23  33  43  65  92 117 150 189 223 256
#     4   9  17  29  46  69  94 119 148 182 222 267
#     4   9  18  32  47  62  86 122 156 182 213 260
#
# _framework density 16.398153000000001
#
# number of rings (size 3 to 8) (size 9 to 14) (size 15 to 20)
#    0.000    2.714    0.000    3.857    0.000    8.571 
#    0.000    0.000    0.000    0.000    0.000    1.000 
#    0.000    8.000    0.000    0.000    0.000    0.000 
#
# Total GULP energy -694098.344326 kJ/mol
# GULP energy per Si atom -12394.613292 kJ/mol
# Density = 1.636083 g / cm^3
# Si number density = 16.398153 Si / 1000 Ang^3
#
#
#
# Elastic Constant Matrix: (Units=GPa)
#
#
# Indices 1 2 3 4 5 6 
#
# 1 75.4782 40.6241 0.6998 0.0000 0.0000 0.0000
# 2 40.6241 83.5943 21.0486 0.0000 0.0000 0.0000
# 3 0.6998 21.0486 21.1812 0.0000 0.0000 0.0000
# 4 0.0000 0.0000 0.0000 24.6111 0.0000 0.0000
# 5 0.0000 0.0000 0.0000 0.0000 20.5913 0.0000
# 6 0.0000 0.0000 0.0000 0.0000 0.0000 33.4026
#
#
#
# Elastic Compliance Matrix: (Units=1/GPa)
#
#
# Indices 1 2 3 4 5 6 
#
# 1 0.019993 -0.012736 0.011996 0.000000 0.000000 0.000000
# 2 -0.012736 0.024068 -0.023497 0.000000 0.000000 0.000000
# 3 0.011996 -0.023497 0.070165 0.000000 0.000000 0.000000
# 4 0.000000 0.000000 0.000000 0.040632 0.000000 0.000000
# 5 0.000000 0.000000 0.000000 0.000000 0.048564 0.000000
# 6 0.000000 0.000000 0.000000 0.000000 0.000000 0.029938
#
#
# Mechanical properties :
#
#
# Convention : Reuss Voigt Hill
#
# Bulk Modulus (GPa) = 15.20870 33.88873 24.54872
# Shear Modulus (GPa) = 16.46083 23.57977 20.02030
#
# Velocity S-wave (km/s) = 3.17175 3.79615 3.49791
# Velocity P-wave (km/s) = 4.76530 6.31865 5.59614
#
# Compressibility (1/GPa) = 0.06575182
#
# Stress axis : x y z
#
# Youngs Moduli (GPa) = 50.01843 41.54834 14.25211
#
# Poissons Ratio (x) = 0.52917 -0.17097
# Poissons Ratio (y) = 0.63705 0.33488
# Poissons Ratio (z) = -0.60002 0.97626
#
# Static dielectric constant tensor:
#      x y z
#    x 3.772630 0.000000 0.000000 
#    y 0.000000 3.261190 0.000000 
#    z 0.000000 0.000000 2.768860 
# 
# 
# High freq. dielectric constant tensor:
#      x y z
#    x 1.641070 0.000000 0.000000 
#    y 0.000000 1.641700 0.000000 
#    z 0.000000 0.000000 1.578120 
# 
# From -- ./inp_files/30564.got.cif
#   From: 2010.03.12/outbox.cif.g09.slc.cpg/sg59_16_cif.got.tgz:30564.got - 2010.04.16 16:29:54.
