data_PCOD8246468
_publ_section_title
;
Structure prediction by ZEFSAII (Michael W. Deem and Ramdas Pophale) SiO2 
 PCOD8246468
Probable space group: P B C N
;
_chemical_formula_sum "Si O2"
_cell_formula_units_Z 64
_cell_length_a 10.200035
_cell_length_b 18.923199
_cell_length_c 16.276427
_cell_angle_alpha 90.000000
_cell_angle_beta 90.000000
_cell_angle_gamma 90.000000
_cell_volume 3141.631865
_symmetry_space_group_name_H-M "P B C N"
_symmetry_group_IT_number 60
_symmetry_cell_setting 'orthorhombic'
loop_
_space_group_symop_operation_xyz
x,y,z
1/2-x,1/2-y,1/2+z
1/2+x,1/2-y,-z
-x,y,1/2-z
-x,-y,-z
1/2+x,1/2+y,1/2-z
1/2-x,1/2+y,z
x,-y,1/2+z
loop_
_atom_site_type_symbol
_atom_site_label
_atom_site_fract_x
_atom_site_fract_y
_atom_site_fract_z
Si Si1 0.315279 0.182904 0.105345
Si Si2 0.056794 0.831278 0.122710
Si Si3 0.952020 0.079555 0.164762
Si Si4 0.384366 0.602786 0.011438
Si Si5 0.773575 0.193641 0.212726
Si Si6 0.796277 0.847135 0.221280
Si Si7 0.271449 0.977973 0.383080
Si Si8 0.545900 0.904810 0.658658
O O1 0.384116 0.257988 0.090188
O O2 0.206730 0.170360 0.033985
O O3 0.240692 0.174808 0.191469
O O4 0.426858 0.122636 0.102254
O O5 0.168149 0.865504 0.183072
O O6 0.927787 0.821893 0.176311
O O7 0.011393 0.878534 0.044890
O O8 0.908141 0.161404 0.175917
O O9 0.000000 0.047319 0.250000
O O10 0.058969 0.067999 0.093966
O O11 0.823761 0.035502 0.152228
O O12 0.285533 0.546653 0.970512
O O13 0.792490 0.277912 0.208609
O O14 0.650096 0.160089 0.163760
O O15 0.720802 0.911803 0.179351
O O16 0.406835 0.022191 0.386101
O O17 0.500000 0.925272 0.750000
#
# Coordination Sequence:
#
# PCOD8246468 Si02
#       8
#     8   8   8   8   8   8   8   8
#     4  10  18  36  60  85 117 154 199 244 288 349
#     4   9  19  34  58  85 116 147 196 242 288 345
#     4  11  22  38  58  84 118 154 196 245 290 351
#     4  11  23  36  56  90 122 155 191 247 304 355
#     4   9  17  35  64  86 104 151 206 242 278 347
#     4   9  17  36  62  86 109 154 195 236 291 350
#     4  10  23  37  58  88 119 154 191 242 300 353
#     4   9  18  36  61  86 109 155 208 234 283 355
#
# _framework density 20.371576999999998
#
# number of rings (size 3 to 8) (size 9 to 14) (size 15 to 20)
#    0.000    2.250    2.500    0.375    3.500    2.500 
#    0.000    0.625    5.500    0.000    0.000    0.000 
#    0.000    0.000    0.000    0.000    0.000    0.000 
#
# Total GULP energy -792890.764337 kJ/mol
# GULP energy per Si atom -12388.918193 kJ/mol
# Density = 2.032521 g / cm^3
# Si number density = 20.371577 Si / 1000 Ang^3
#
#
#
# Elastic Constant Matrix: (Units=GPa)
#
#
# Indices 1 2 3 4 5 6 
#
# 1 42.3530 21.7858 21.6889 0.0000 0.0000 0.0000
# 2 21.7858 93.6585 32.4785 0.0000 0.0000 0.0000
# 3 21.6889 32.4785 92.3907 0.0000 0.0000 0.0000
# 4 0.0000 0.0000 0.0000 49.0206 0.0000 0.0000
# 5 0.0000 0.0000 0.0000 0.0000 25.8645 0.0000
# 6 0.0000 0.0000 0.0000 0.0000 0.0000 13.6247
#
#
#
# Elastic Compliance Matrix: (Units=1/GPa)
#
#
# Indices 1 2 3 4 5 6 
#
# 1 0.028717 -0.004945 -0.005003 0.000000 0.000000 0.000000
# 2 -0.004945 0.013011 -0.003413 0.000000 0.000000 0.000000
# 3 -0.005003 -0.003413 0.013198 0.000000 0.000000 0.000000
# 4 0.000000 0.000000 0.000000 0.020400 0.000000 0.000000
# 5 0.000000 0.000000 0.000000 0.000000 0.038663 0.000000
# 6 0.000000 0.000000 0.000000 0.000000 0.000000 0.073396
#
#
# Mechanical properties :
#
#
# Convention : Reuss Voigt Hill
#
# Bulk Modulus (GPa) = 35.45630 42.25653 38.85642
# Shear Modulus (GPa) = 22.37070 27.86524 25.11797
#
# Velocity S-wave (km/s) = 3.31740 3.70246 3.51521
# Velocity P-wave (km/s) = 5.66711 6.25024 5.96580
#
# Compressibility (1/GPa) = 0.02820373
#
# Stress axis : x y z
#
# Youngs Moduli (GPa) = 34.82302 76.85902 75.77000
#
# Poissons Ratio (x) = 0.38006 0.37908
# Poissons Ratio (y) = 0.17219 0.25860
# Poissons Ratio (z) = 0.17422 0.26232
#
# Static dielectric constant tensor:
#      x y z
#    x 3.686570 0.000000 0.000000 
#    y 0.000000 3.665000 0.000000 
#    z 0.000000 0.000000 3.755460 
# 
# 
# High freq. dielectric constant tensor:
#      x y z
#    x 1.780690 0.000000 0.000000 
#    y 0.000000 1.787990 0.000000 
#    z 0.000000 0.000000 1.785070 
# 
# From -- ./inp_files/16387.got.cif
#   From: 2010.03.12/outbox.cif.g09.slc.cpg/sg60_9_cif.got.tgz:16387.got - 2010.04.10 18:46:24.
