data_PCOD8246600
_publ_section_title
;
Structure prediction by ZEFSAII (Michael W. Deem and Ramdas Pophale) SiO2 
 PCOD8246600
Probable space group: P B C N
;
_chemical_formula_sum "Si O2"
_cell_formula_units_Z 48
_cell_length_a 18.075794
_cell_length_b 9.045938
_cell_length_c 15.973176
_cell_angle_alpha 90.000000
_cell_angle_beta 90.000000
_cell_angle_gamma 90.000000
_cell_volume 2611.814130
_symmetry_space_group_name_H-M "P B C N"
_symmetry_group_IT_number 60
_symmetry_cell_setting 'orthorhombic'
loop_
_space_group_symop_operation_xyz
x,y,z
1/2-x,1/2-y,1/2+z
1/2+x,1/2-y,-z
-x,y,1/2-z
-x,-y,-z
1/2+x,1/2+y,1/2-z
1/2-x,1/2+y,z
x,-y,1/2+z
loop_
_atom_site_type_symbol
_atom_site_label
_atom_site_fract_x
_atom_site_fract_y
_atom_site_fract_z
Si Si1 0.677420 0.906442 0.265608
Si Si2 0.046460 0.071990 0.668845
Si Si3 0.670308 0.754508 0.745943
Si Si4 0.428150 0.769439 0.911644
Si Si5 0.960852 0.568951 0.664287
Si Si6 0.914324 0.237032 0.398528
O O1 0.755890 0.840099 0.242892
O O2 0.621359 0.875131 0.188268
O O3 0.647210 0.831796 0.350182
O O4 0.686703 0.081315 0.279066
O O5 0.110025 0.187841 0.691563
O O6 0.000000 0.021503 0.750000
O O7 0.991804 0.147680 0.602261
O O8 0.087709 0.932908 0.628547
O O9 0.639718 0.750948 0.651815
O O10 0.461821 0.932873 0.899806
O O11 0.395715 0.750554 0.004005
O O12 0.000000 0.513528 0.750000
O O13 0.003355 0.703616 0.621109
#
# Coordination Sequence:
#
# PCOD8246600 Si02
#       6
#     8   8   8   8   8   8
#     4  10  20  36  55  76 103 142 180 211 259 322
#     4  10  19  34  55  77 106 142 176 212 260 318
#     4  10  21  38  57  74 104 145 179 211 260 323
#     4  10  20  35  54  81 109 136 175 224 263 302
#     4   9  18  34  55  76 104 143 178 209 259 320
#     4  11  20  33  55  84 109 134 175 225 263 303
#
# _framework density 18.378029000000002
#
# number of rings (size 3 to 8) (size 9 to 14) (size 15 to 20)
#    0.000    2.000    0.000    7.000    0.000    1.333 
#    0.000    8.333    0.000    0.000    0.000    0.000 
#    0.000    0.000    0.000    0.000    0.000    0.000 
#
# Total GULP energy -595351.763731 kJ/mol
# GULP energy per Si atom -12403.161744 kJ/mol
# Density = 1.833620 g / cm^3
# Si number density = 18.378029 Si / 1000 Ang^3
#
#
#
# Elastic Constant Matrix: (Units=GPa)
#
#
# Indices 1 2 3 4 5 6 
#
# 1 99.1609 49.8262 31.6688 0.0000 0.0000 0.0000
# 2 49.8262 128.1258 55.3887 0.0000 0.0000 0.0000
# 3 31.6688 55.3887 104.1477 0.0000 0.0000 0.0000
# 4 0.0000 0.0000 0.0000 16.8827 0.0000 0.0000
# 5 0.0000 0.0000 0.0000 0.0000 14.8921 0.0000
# 6 0.0000 0.0000 0.0000 0.0000 0.0000 34.3092
#
#
#
# Elastic Compliance Matrix: (Units=1/GPa)
#
#
# Indices 1 2 3 4 5 6 
#
# 1 0.012738 -0.004258 -0.001609 0.000000 0.000000 0.000000
# 2 -0.004258 0.011558 -0.004852 0.000000 0.000000 0.000000
# 3 -0.001609 -0.004852 0.012671 0.000000 0.000000 0.000000
# 4 0.000000 0.000000 0.000000 0.059232 0.000000 0.000000
# 5 0.000000 0.000000 0.000000 0.000000 0.067150 0.000000
# 6 0.000000 0.000000 0.000000 0.000000 0.000000 0.029147
#
#
# Mechanical properties :
#
#
# Convention : Reuss Voigt Hill
#
# Bulk Modulus (GPa) = 64.39316 67.24465 65.81890
# Shear Modulus (GPa) = 22.81943 26.18685 24.50314
#
# Velocity S-wave (km/s) = 3.52756 3.77888 3.65538
# Velocity P-wave (km/s) = 7.19067 7.46385 7.32853
#
# Compressibility (1/GPa) = 0.01552960
#
# Stress axis : x y z
#
# Youngs Moduli (GPa) = 78.50507 86.51709 78.91730
#
# Poissons Ratio (x) = 0.36841 0.12695
# Poissons Ratio (y) = 0.33429 0.38293
# Poissons Ratio (z) = 0.12629 0.41981
#
# Static dielectric constant tensor:
#      x y z
#    x 3.407140 0.000000 0.000000 
#    y 0.000000 3.447300 0.000000 
#    z 0.000000 0.000000 3.208160 
# 
# 
# High freq. dielectric constant tensor:
#      x y z
#    x 1.707850 0.000000 0.000000 
#    y 0.000000 1.726110 0.000000 
#    z 0.000000 0.000000 1.696690 
# 
# From -- ./inp_files/17311.got.cif
#   From: 2010.03.12/outbox.cif.g09.slc.cpg/sg60_9_cif.got.tgz:17311.got - 2010.04.10 18:46:24.
