data_PCOD8246221
_publ_section_title
;
Structure prediction by ZEFSAII (Michael W. Deem and Ramdas Pophale) SiO2 
 PCOD8246221
Probable space group: P M M N
;
_chemical_formula_sum "Si O2"
_cell_formula_units_Z 48
_cell_length_a 9.545623
_cell_length_b 12.510650
_cell_length_c 22.394448
_cell_angle_alpha 90.000000
_cell_angle_beta 90.000000
_cell_angle_gamma 90.000000
_cell_volume 2674.388613
_symmetry_space_group_name_H-M "P M M N"
_symmetry_group_IT_number 59
_space_group.IT_coordinate_system_code '2'
_symmetry_cell_setting 'orthorhombic'
loop_
_space_group_symop_operation_xyz
x,y,z
1/2-x,1/2-y,z
1/2+x,-y,-z
-x,1/2+y,-z
-x,-y,-z
1/2+x,1/2+y,-z
1/2-x,y,z
x,1/2-y,z
loop_
_atom_site_type_symbol
_atom_site_label
_atom_site_fract_x
_atom_site_fract_y
_atom_site_fract_z
Si Si1 0.917074 0.518838 0.180880
Si Si2 0.583234 0.131318 0.285172
Si Si3 0.907761 0.132416 0.075936
Si Si4 0.592961 0.371334 0.538130
Si Si5 0.084602 0.250000 0.851514
Si Si6 0.913467 0.046249 0.410952
Si Si7 0.583852 0.750000 0.010521
O O1 0.750000 0.518161 0.182101
O O2 0.976897 0.456705 0.238787
O O3 0.966981 0.455787 0.121634
O O4 0.974591 0.641319 0.179401
O O5 0.750000 0.130324 0.283457
O O6 0.527983 0.250000 0.268596
O O7 0.529662 0.103844 0.351658
O O8 0.750000 0.101670 0.054380
O O9 0.902668 0.250000 0.107958
O O10 0.013871 0.143387 0.019300
O O11 0.750000 0.416269 0.546302
O O12 0.582731 0.250000 0.558011
O O13 0.549937 0.381385 0.468436
O O14 0.489947 0.433262 0.582021
O O15 0.250000 0.250000 0.845133
O O16 0.042334 0.250000 0.920569
O O17 0.750000 0.022676 0.404963
O O18 0.750000 0.750000 0.000032
#
# Coordination Sequence:
#
# PCOD8246221 Si02
#       7
#     8   8   8   8   4   8   4
#     4   9  16  28  45  66  95 126 153 188 234 283
#     4   9  16  27  47  72  94 120 155 198 242 278
#     4   8  15  28  47  70  91 114 151 192 226 271
#     4   9  17  30  47  66  96 136 163 186 232 294
#     4   9  18  29  41  63  97 131 154 179 230 288
#     4   9  17  29  46  73  99 118 155 207 244 271
#     4   9  17  29  45  69  97 123 150 187 234 276
#
# _framework density 17.948027
#
# number of rings (size 3 to 8) (size 9 to 14) (size 15 to 20)
#    0.500    2.667    0.000    1.000    0.000    5.000 
#    1.500    0.000    0.000    2.500    0.000    0.000 
#    0.000    0.000    0.000    0.000    0.000    0.000 
#
# Total GULP energy -594751.114875 kJ/mol
# GULP energy per Si atom -12390.648227 kJ/mol
# Density = 1.790718 g / cm^3
# Si number density = 17.948027 Si / 1000 Ang^3
#
#
#
# Elastic Constant Matrix: (Units=GPa)
#
#
# Indices 1 2 3 4 5 6 
#
# 1 30.6802 20.0069 22.9645 0.0000 0.0000 0.0000
# 2 20.0069 132.9522 64.5099 0.0000 0.0000 0.0000
# 3 22.9645 64.5099 102.1678 0.0000 0.0000 0.0000
# 4 0.0000 0.0000 0.0000 29.4274 0.0000 0.0000
# 5 0.0000 0.0000 0.0000 0.0000 18.6344 0.0000
# 6 0.0000 0.0000 0.0000 0.0000 0.0000 17.0988
#
#
#
# Elastic Compliance Matrix: (Units=1/GPa)
#
#
# Indices 1 2 3 4 5 6 
#
# 1 0.039699 -0.002371 -0.007426 0.000000 0.000000 0.000000
# 2 -0.002371 0.010985 -0.006403 0.000000 0.000000 0.000000
# 3 -0.007426 -0.006403 0.015500 0.000000 0.000000 0.000000
# 4 0.000000 0.000000 0.000000 0.033982 0.000000 0.000000
# 5 0.000000 0.000000 0.000000 0.000000 0.053664 0.000000
# 6 0.000000 0.000000 0.000000 0.000000 0.000000 0.058484
#
#
# Mechanical properties :
#
#
# Convention : Reuss Voigt Hill
#
# Bulk Modulus (GPa) = 29.60005 53.41808 41.50907
# Shear Modulus (GPa) = 19.53307 23.58671 21.55989
#
# Velocity S-wave (km/s) = 3.30254 3.62908 3.46965
# Velocity P-wave (km/s) = 5.57407 6.88386 6.26330
#
# Compressibility (1/GPa) = 0.03378373
#
# Stress axis : x y z
#
# Youngs Moduli (GPa) = 25.18952 91.03152 64.51523
#
# Poissons Ratio (x) = 0.21580 0.47912
# Poissons Ratio (y) = 0.05971 0.41311
# Poissons Ratio (z) = 0.18707 0.58291
#
# Static dielectric constant tensor:
#      x y z
#    x 2.879330 0.000000 0.000000 
#    y 0.000000 3.510720 0.000000 
#    z 0.000000 0.000000 3.295730 
# 
# 
# High freq. dielectric constant tensor:
#      x y z
#    x 1.640860 0.000000 0.000000 
#    y 0.000000 1.698390 0.000000 
#    z 0.000000 0.000000 1.684710 
# 
# From -- ./inp_files/31892.got.cif
#   From: 2010.03.12/outbox.cif.g09.slc.cpg/sg59_16_cif.got.tgz:31892.got - 2010.04.16 16:29:54.
