data_PCOD8246835
_publ_section_title
;
Structure prediction by ZEFSAII (Michael W. Deem and Ramdas Pophale) SiO2 
 PCOD8246835
Probable space group: P B C N
;
_chemical_formula_sum "Si O2"
_cell_formula_units_Z 60
_cell_length_a 13.954253
_cell_length_b 13.327437
_cell_length_c 16.430524
_cell_angle_alpha 90.000000
_cell_angle_beta 90.000000
_cell_angle_gamma 90.000000
_cell_volume 3055.657298
_symmetry_space_group_name_H-M "P B C N"
_symmetry_group_IT_number 60
_symmetry_cell_setting 'orthorhombic'
loop_
_space_group_symop_operation_xyz
x,y,z
1/2-x,1/2-y,1/2+z
1/2+x,1/2-y,-z
-x,y,1/2-z
-x,-y,-z
1/2+x,1/2+y,1/2-z
1/2-x,1/2+y,z
x,-y,1/2+z
loop_
_atom_site_type_symbol
_atom_site_label
_atom_site_fract_x
_atom_site_fract_y
_atom_site_fract_z
Si Si1 0.774918 0.091571 0.146550
Si Si2 0.500000 0.614127 0.750000
Si Si3 0.176801 0.771291 0.288132
Si Si4 0.149250 0.024830 0.181344
Si Si5 0.621322 0.303040 0.945112
Si Si6 0.261550 0.111697 0.924930
Si Si7 0.398937 0.274701 0.969074
Si Si8 0.223450 0.836966 0.114116
O O1 0.685042 0.160171 0.173753
O O2 0.822463 0.043662 0.225836
O O3 0.856364 0.156949 0.102906
O O4 0.733195 0.008713 0.083824
O O5 0.429888 0.686928 0.800541
O O6 0.445033 0.545403 0.684260
O O7 0.249722 0.844826 0.334396
O O8 0.206219 0.768923 0.193748
O O9 0.127257 0.126384 0.134124
O O10 0.229909 0.955973 0.136125
O O11 0.513115 0.273313 0.964527
O O12 0.678272 0.199485 0.928030
O O13 0.668783 0.359468 0.021227
O O14 0.358239 0.160198 0.962419
O O15 0.366703 0.320016 0.054923
#
# Coordination Sequence:
#
# PCOD8246835 Si02
#       8
#     8   4   8   8   8   8   8   8
#     4  11  20  40  60  89 124 160 199 250 305 357
#     4  10  20  34  56  92 116 152 202 248 294 350
#     4  10  21  37  60  84 121 161 198 252 299 356
#     4  11  21  35  64  90 118 158 203 248 299 358
#     4  11  23  39  63  93 119 158 202 254 296 364
#     4  10  22  40  60  88 127 155 198 252 306 354
#     4  10  24  38  62  93 123 159 201 249 306 360
#     4  10  21  40  58  89 126 156 197 252 308 352
#
# _framework density 19.635708999999999
#
# number of rings (size 3 to 8) (size 9 to 14) (size 15 to 20)
#    0.000    1.600    4.000    1.600    3.733    1.067 
#    0.000    1.333    0.000    8.800    0.000    0.000 
#    0.000    0.000    0.000    0.000    0.000    0.000 
#
# Total GULP energy -743833.310571 kJ/mol
# GULP energy per Si atom -12397.221843 kJ/mol
# Density = 1.959102 g / cm^3
# Si number density = 19.635709 Si / 1000 Ang^3
#
#
#
# Elastic Constant Matrix: (Units=GPa)
#
#
# Indices 1 2 3 4 5 6 
#
# 1 106.1252 50.7507 24.7441 0.0000 0.0000 0.0000
# 2 50.7507 67.1997 2.9597 0.0000 0.0000 0.0000
# 3 24.7441 2.9597 79.9618 0.0000 0.0000 0.0000
# 4 0.0000 0.0000 0.0000 33.7756 0.0000 0.0000
# 5 0.0000 0.0000 0.0000 0.0000 23.7603 0.0000
# 6 0.0000 0.0000 0.0000 0.0000 0.0000 27.7807
#
#
#
# Elastic Compliance Matrix: (Units=1/GPa)
#
#
# Indices 1 2 3 4 5 6 
#
# 1 0.016273 -0.012088 -0.004588 0.000000 0.000000 0.000000
# 2 -0.012088 0.023884 0.002857 0.000000 0.000000 0.000000
# 3 -0.004588 0.002857 0.013820 0.000000 0.000000 0.000000
# 4 0.000000 0.000000 0.000000 0.029607 0.000000 0.000000
# 5 0.000000 0.000000 0.000000 0.000000 0.042087 0.000000
# 6 0.000000 0.000000 0.000000 0.000000 0.000000 0.035996
#
#
# Mechanical properties :
#
#
# Convention : Reuss Voigt Hill
#
# Bulk Modulus (GPa) = 37.96755 45.57728 41.77241
# Shear Modulus (GPa) = 25.24150 28.71880 26.98015
#
# Velocity S-wave (km/s) = 3.58926 3.82852 3.71082
# Velocity P-wave (km/s) = 6.04607 6.54257 6.29922
#
# Compressibility (1/GPa) = 0.02633828
#
# Stress axis : x y z
#
# Youngs Moduli (GPa) = 61.45072 41.86875 72.35842
#
# Poissons Ratio (x) = 0.50610 0.33200
# Poissons Ratio (y) = 0.74280 -0.20669
# Poissons Ratio (z) = 0.28195 -0.11960
#
# Static dielectric constant tensor:
#      x y z
#    x 3.390470 0.000000 0.000000 
#    y 0.000000 3.784270 0.000000 
#    z 0.000000 0.000000 3.725730 
# 
# 
# High freq. dielectric constant tensor:
#      x y z
#    x 1.737190 0.000000 0.000000 
#    y 0.000000 1.766470 0.000000 
#    z 0.000000 0.000000 1.783510 
# 
# From -- ./inp_files/20627.got.cif
#   From: 2010.03.12/outbox.cif.g09.slc.cpg/sg60_11_cif.got.tgz:20627.got - 2010.04.10 18:46:24.
