data_PCOD8246693
_publ_section_title
;
Structure prediction by ZEFSAII (Michael W. Deem and Ramdas Pophale) SiO2 
 PCOD8246693
Probable space group: P B C N
;
_chemical_formula_sum "Si O2"
_cell_formula_units_Z 64
_cell_length_a 23.859650
_cell_length_b 7.854551
_cell_length_c 15.856386
_cell_angle_alpha 90.000000
_cell_angle_beta 90.000000
_cell_angle_gamma 90.000000
_cell_volume 2971.595159
_symmetry_space_group_name_H-M "P B C N"
_symmetry_group_IT_number 60
_symmetry_cell_setting 'orthorhombic'
loop_
_space_group_symop_operation_xyz
x,y,z
1/2-x,1/2-y,1/2+z
1/2+x,1/2-y,-z
-x,y,1/2-z
-x,-y,-z
1/2+x,1/2+y,1/2-z
1/2-x,1/2+y,z
x,-y,1/2+z
loop_
_atom_site_type_symbol
_atom_site_label
_atom_site_fract_x
_atom_site_fract_y
_atom_site_fract_z
Si Si1 0.247795 0.907608 0.906472
Si Si2 0.433661 0.516470 0.429514
Si Si3 0.931673 0.585886 0.586481
Si Si4 0.828124 0.160770 0.517632
Si Si5 0.823374 0.362903 0.177880
Si Si6 0.047175 0.929298 0.123640
Si Si7 0.947236 0.544394 0.393042
Si Si8 0.120884 0.228916 0.161946
O O1 0.305025 0.835892 0.945874
O O2 0.196791 0.782289 0.886844
O O3 0.223799 0.030582 0.978915
O O4 0.270345 0.006103 0.821513
O O5 0.432976 0.711725 0.402871
O O6 0.376532 0.409603 0.419082
O O7 0.445927 0.501503 0.528811
O O8 0.479565 0.430329 0.366903
O O9 0.877734 0.535549 0.641808
O O10 0.927237 0.526398 0.489718
O O11 0.987173 0.494455 0.621784
O O12 0.845706 0.185058 0.421809
O O13 0.834128 0.265918 0.265378
O O14 0.067953 0.735526 0.138958
O O15 0.080444 0.065228 0.182876
O O16 0.914289 0.402868 0.341409
#
# Coordination Sequence:
#
# PCOD8246693 Si02
#       8
#     8   8   8   8   8   8   8   8
#     4  10  23  43  63  88 118 165 227 262 312 386
#     4   9  16  33  60  89 120 159 202 254 303 363
#     4  10  19  36  63  90 128 167 201 258 303 374
#     4  10  21  39  66  91 114 162 220 264 309 372
#     4  11  24  42  62  90 129 167 204 274 334 369
#     4   9  19  34  58  93 126 157 205 249 305 383
#     4  10  21  36  63  99 125 166 217 242 301 396
#     4  11  23  41  62  95 130 162 199 268 328 376
#
# _framework density 21.537254999999998
#
# number of rings (size 3 to 8) (size 9 to 14) (size 15 to 20)
#    0.000    2.000    2.500    0.750    7.000    1.500 
#    4.500    0.000    2.750    0.000    0.000    0.000 
#    0.000    0.000    0.000    0.000    0.000    0.000 
#
# Total GULP energy -792875.880397 kJ/mol
# GULP energy per Si atom -12388.685631 kJ/mol
# Density = 2.148824 g / cm^3
# Si number density = 21.537255 Si / 1000 Ang^3
#
#
#
# Elastic Constant Matrix: (Units=GPa)
#
#
# Indices 1 2 3 4 5 6 
#
# 1 113.4094 51.3425 40.8592 0.0000 0.0000 0.0000
# 2 51.3425 101.9937 25.6321 0.0000 0.0000 0.0000
# 3 40.8592 25.6321 44.0849 0.0000 0.0000 0.0000
# 4 0.0000 0.0000 0.0000 19.6609 0.0000 0.0000
# 5 0.0000 0.0000 0.0000 0.0000 31.4690 0.0000
# 6 0.0000 0.0000 0.0000 0.0000 0.0000 24.5837
#
#
#
# Elastic Compliance Matrix: (Units=1/GPa)
#
#
# Indices 1 2 3 4 5 6 
#
# 1 0.014970 -0.004742 -0.011117 0.000000 0.000000 0.000000
# 2 -0.004742 0.012984 -0.003155 0.000000 0.000000 0.000000
# 3 -0.011117 -0.003155 0.034822 0.000000 0.000000 0.000000
# 4 0.000000 0.000000 0.000000 0.050862 0.000000 0.000000
# 5 0.000000 0.000000 0.000000 0.000000 0.031777 0.000000
# 6 0.000000 0.000000 0.000000 0.000000 0.000000 0.040677
#
#
# Mechanical properties :
#
#
# Convention : Reuss Voigt Hill
#
# Bulk Modulus (GPa) = 40.40716 55.01727 47.71222
# Shear Modulus (GPa) = 21.51749 24.58634 23.05191
#
# Velocity S-wave (km/s) = 3.16426 3.38238 3.27513
# Velocity P-wave (km/s) = 5.67030 6.39176 6.04181
#
# Compressibility (1/GPa) = 0.02474809
#
# Stress axis : x y z
#
# Youngs Moduli (GPa) = 66.80205 77.01660 28.71778
#
# Poissons Ratio (x) = 0.36518 0.31927
# Poissons Ratio (y) = 0.31675 0.09060
# Poissons Ratio (z) = 0.74266 0.24296
#
# Static dielectric constant tensor:
#      x y z
#    x 4.138580 0.000000 0.000000 
#    y 0.000000 4.115350 0.000000 
#    z 0.000000 0.000000 3.407290 
# 
# 
# High freq. dielectric constant tensor:
#      x y z
#    x 1.853960 0.000000 0.000000 
#    y 0.000000 1.860930 0.000000 
#    z 0.000000 0.000000 1.796670 
# 
# From -- ./inp_files/17962.got.cif
#   From: 2010.03.12/outbox.cif.g09.slc.cpg/sg60_9_cif.got.tgz:17962.got - 2010.04.10 18:46:24.
