data_PCOD8246302
_publ_section_title
;
Structure prediction by ZEFSAII (Michael W. Deem and Ramdas Pophale) SiO2 
 PCOD8246302
Probable space group: P B C N
;
_chemical_formula_sum "Si O2"
_cell_formula_units_Z 32
_cell_length_a 8.622470
_cell_length_b 31.568152
_cell_length_c 5.222718
_cell_angle_alpha 90.000000
_cell_angle_beta 90.000000
_cell_angle_gamma 90.000000
_cell_volume 1421.600043
_symmetry_space_group_name_H-M "P B C N"
_symmetry_group_IT_number 60
_symmetry_cell_setting 'orthorhombic'
loop_
_space_group_symop_operation_xyz
x,y,z
1/2-x,1/2-y,1/2+z
1/2+x,1/2-y,-z
-x,y,1/2-z
-x,-y,-z
1/2+x,1/2+y,1/2-z
1/2-x,1/2+y,z
x,-y,1/2+z
loop_
_atom_site_type_symbol
_atom_site_label
_atom_site_fract_x
_atom_site_fract_y
_atom_site_fract_z
Si Si1 0.601912 0.385684 0.504943
Si Si2 0.899069 0.773325 0.996552
Si Si3 0.671522 0.817304 0.312524
Si Si4 0.173420 0.018337 0.485295
O O1 0.500000 0.385736 0.250000
O O2 0.741255 0.352561 0.477133
O O3 0.676556 0.431468 0.548988
O O4 0.500000 0.372647 0.750000
O O5 0.755942 0.805837 0.041513
O O6 0.000000 0.778797 0.250000
O O7 0.833545 0.725817 0.979774
O O8 0.000000 0.786444 0.750000
O O9 0.500000 0.834155 0.250000
O O10 0.260364 0.003448 0.744090
O O11 0.000000 0.000000 0.500000
#
# Coordination Sequence:
#
# PCOD8246302 Si02
#       4
#     8   8   8   8
#     4  12  24  39  64 101 128 166 224 277 320 395
#     4  11  25  47  71  92 125 186 239 272 326 398
#     4  11  26  44  67  97 138 176 219 284 342 393
#     4  10  16  34  62  90 121 162 210 273 317 371
#
# _framework density 22.509847000000001
#
# number of rings (size 3 to 8) (size 9 to 14) (size 15 to 20)
#    0.000    1.000    5.000    3.750    0.000   13.000 
#    0.000    0.000    0.000    1.500    0.000    0.000 
#    0.000    0.000    0.000    0.000    0.000    0.000 
#
# Total GULP energy -396733.948105 kJ/mol
# GULP energy per Si atom -12397.935878 kJ/mol
# Density = 2.245861 g / cm^3
# Si number density = 22.509847 Si / 1000 Ang^3
#
#
#
# Elastic Constant Matrix: (Units=GPa)
#
#
# Indices 1 2 3 4 5 6 
#
# 1 118.5026 68.4127 67.0552 0.0000 0.0000 0.0000
# 2 68.4127 158.3656 42.4163 0.0000 0.0000 0.0000
# 3 67.0552 42.4163 190.7433 0.0000 0.0000 0.0000
# 4 0.0000 0.0000 0.0000 -31.6370 0.0000 0.0000
# 5 0.0000 0.0000 0.0000 0.0000 15.8661 0.0000
# 6 0.0000 0.0000 0.0000 0.0000 0.0000 25.7861
#
#
#
# Elastic Compliance Matrix: (Units=1/GPa)
#
#
# Indices 1 2 3 4 5 6 
#
# 1 0.013208 -0.004745 -0.003588 0.000000 0.000000 0.000000
# 2 -0.004745 0.008419 -0.000204 0.000000 0.000000 0.000000
# 3 -0.003588 -0.000204 0.006549 0.000000 0.000000 0.000000
# 4 0.000000 0.000000 0.000000 -0.031609 0.000000 0.000000
# 5 0.000000 0.000000 0.000000 0.000000 0.063027 0.000000
# 6 0.000000 0.000000 0.000000 0.000000 0.000000 0.038781
#
#
# Mechanical properties :
#
#
# Convention : Reuss Voigt Hill
#
# Bulk Modulus (GPa) = 90.07098 91.48666 90.77882
# Shear Modulus (GPa) = 41.96351 21.31818 31.64085
#
# Velocity S-wave (km/s) = 4.32236 3.08077 3.75326
# Velocity P-wave (km/s) = 8.06296 7.30658 7.69407
#
# Compressibility (1/GPa) = 0.01110235
#
# Stress axis : x y z
#
# Youngs Moduli (GPa) = 75.71027 118.78044 152.68436
#
# Poissons Ratio (x) = 0.56359 0.54786
# Poissons Ratio (y) = 0.35923 0.03117
# Poissons Ratio (z) = 0.27166 0.02425
#
# Static dielectric constant tensor:
#      x y z
#    x 3.810680 0.000000 0.000000 
#    y 0.000000 4.264650 0.000000 
#    z 0.000000 0.000000 19.058340 
# 
# 
# High freq. dielectric constant tensor:
#      x y z
#    x 1.847010 0.000000 0.000000 
#    y 0.000000 1.890300 0.000000 
#    z 0.000000 0.000000 1.912990 
# 
# From -- ./inp_files/435.got.cif
#   From: 2010.03.12/outbox.cif.g09.slc.cpg/sg60_1_cif.got.tgz:435.got - 2010.04.10 18:46:24.
