data_PCOD8246740
_publ_section_title
;
Structure prediction by ZEFSAII (Michael W. Deem and Ramdas Pophale) SiO2 
 PCOD8246740
Probable space group: P B C N
;
_chemical_formula_sum "Si O2"
_cell_formula_units_Z 64
_cell_length_a 23.748665
_cell_length_b 15.382071
_cell_length_c 8.796676
_cell_angle_alpha 90.000000
_cell_angle_beta 90.000000
_cell_angle_gamma 90.000000
_cell_volume 3213.457861
_symmetry_space_group_name_H-M "P B C N"
_symmetry_group_IT_number 60
_symmetry_cell_setting 'orthorhombic'
loop_
_space_group_symop_operation_xyz
x,y,z
1/2-x,1/2-y,1/2+z
1/2+x,1/2-y,-z
-x,y,1/2-z
-x,-y,-z
1/2+x,1/2+y,1/2-z
1/2-x,1/2+y,z
x,-y,1/2+z
loop_
_atom_site_type_symbol
_atom_site_label
_atom_site_fract_x
_atom_site_fract_y
_atom_site_fract_z
Si Si1 0.121137 0.095700 0.429537
Si Si2 0.608052 0.086203 0.929687
Si Si3 0.117618 0.592340 0.929476
Si Si4 0.302830 0.247807 0.906500
Si Si5 0.000142 0.163667 0.072642
Si Si6 0.615422 0.583222 0.425395
Si Si7 0.682276 0.250447 0.950213
Si Si8 0.998510 0.346429 0.929638
O O1 0.163378 0.171770 0.481315
O O2 0.058283 0.121692 0.478977
O O3 0.125948 0.081117 0.252092
O O4 0.138873 0.006593 0.509388
O O5 0.605924 0.082313 0.748584
O O6 0.644498 0.166963 0.990249
O O7 0.544637 0.091278 0.993103
O O8 0.635894 0.998757 0.996186
O O9 0.168871 0.658259 0.961634
O O10 0.062452 0.629687 0.008740
O O11 0.304176 0.253492 0.726330
O O12 0.238759 0.253523 0.954530
O O13 0.000000 0.191799 0.250000
O O14 0.049059 0.093837 0.039599
O O15 0.013026 0.247813 0.972637
O O16 0.648792 0.663295 0.500745
O O17 0.000000 0.359804 0.750000
#
# Coordination Sequence:
#
# PCOD8246740 Si02
#       8
#     8   8   8   8   8   8   8   8
#     4  10  21  38  61  89 120 158 195 239 297 353
#     4  11  23  42  64  89 123 161 200 247 302 360
#     4  11  23  42  64  89 123 161 200 247 302 360
#     4  10  23  42  63  85 118 160 202 250 301 349
#     4  10  19  38  62  85 124 161 192 239 300 361
#     4  10  21  38  61  89 120 158 195 239 297 353
#     4  10  23  42  63  85 118 160 202 250 301 349
#     4  12  23  36  61  95 124 157 199 245 300 363
#
# _framework density 19.916239999999998
#
# number of rings (size 3 to 8) (size 9 to 14) (size 15 to 20)
#    0.000    1.500    2.500    2.625    0.000    5.000 
#    0.000    5.000    0.000    0.000    0.000    0.000 
#    0.000    0.000    0.000    0.000    0.000    0.000 
#
# Total GULP energy -793898.645716 kJ/mol
# GULP energy per Si atom -12404.666339 kJ/mol
# Density = 1.987091 g / cm^3
# Si number density = 19.916240 Si / 1000 Ang^3
#
#
#
# Elastic Constant Matrix: (Units=GPa)
#
#
# Indices 1 2 3 4 5 6 
#
# 1 92.6700 18.4725 21.7634 0.0000 0.0000 0.0000
# 2 18.4725 123.6125 29.0946 0.0000 0.0000 0.0000
# 3 21.7634 29.0946 58.2486 0.0000 0.0000 0.0000
# 4 0.0000 0.0000 0.0000 50.9820 0.0000 0.0000
# 5 0.0000 0.0000 0.0000 0.0000 30.1445 0.0000
# 6 0.0000 0.0000 0.0000 0.0000 0.0000 19.0414
#
#
#
# Elastic Compliance Matrix: (Units=1/GPa)
#
#
# Indices 1 2 3 4 5 6 
#
# 1 0.011904 -0.000830 -0.004033 0.000000 0.000000 0.000000
# 2 -0.000830 0.009225 -0.004298 0.000000 0.000000 0.000000
# 3 -0.004033 -0.004298 0.020822 0.000000 0.000000 0.000000
# 4 0.000000 0.000000 0.000000 0.019615 0.000000 0.000000
# 5 0.000000 0.000000 0.000000 0.000000 0.033174 0.000000
# 6 0.000000 0.000000 0.000000 0.000000 0.000000 0.052517
#
#
# Mechanical properties :
#
#
# Convention : Reuss Voigt Hill
#
# Bulk Modulus (GPa) = 42.32099 45.91023 44.11561
# Shear Modulus (GPa) = 28.82615 33.71363 31.26989
#
# Velocity S-wave (km/s) = 3.80856 4.11879 3.96671
# Velocity P-wave (km/s) = 6.37462 6.76173 6.57103
#
# Compressibility (1/GPa) = 0.02362894
#
# Stress axis : x y z
#
# Youngs Moduli (GPa) = 84.00882 108.39646 48.02720
#
# Poissons Ratio (x) = 0.08992 0.19370
# Poissons Ratio (y) = 0.06969 0.20642
# Poissons Ratio (z) = 0.33882 0.46589
#
# Static dielectric constant tensor:
#      x y z
#    x 3.647310 0.000000 0.000000 
#    y 0.000000 3.922720 0.000000 
#    z 0.000000 0.000000 3.499030 
# 
# 
# High freq. dielectric constant tensor:
#      x y z
#    x 1.775210 0.000000 0.000000 
#    y 0.000000 1.791900 0.000000 
#    z 0.000000 0.000000 1.768820 
# 
# From -- ./inp_files/7986.got.cif
#   From: 2010.03.12/outbox.cif.g09.slc.cpg/sg60_4_cif.got.tgz:7986.got - 2010.04.10 18:46:24.
