data_PCOD8246800
_publ_section_title
;
Structure prediction by ZEFSAII (Michael W. Deem and Ramdas Pophale) SiO2 
 PCOD8246800
Probable space group: P B C N
;
_chemical_formula_sum "Si O2"
_cell_formula_units_Z 60
_cell_length_a 12.505501
_cell_length_b 20.264808
_cell_length_c 11.632076
_cell_angle_alpha 90.000000
_cell_angle_beta 90.000000
_cell_angle_gamma 90.000000
_cell_volume 2947.819040
_symmetry_space_group_name_H-M "P B C N"
_symmetry_group_IT_number 60
_symmetry_cell_setting 'orthorhombic'
loop_
_space_group_symop_operation_xyz
x,y,z
1/2-x,1/2-y,1/2+z
1/2+x,1/2-y,-z
-x,y,1/2-z
-x,-y,-z
1/2+x,1/2+y,1/2-z
1/2-x,1/2+y,z
x,-y,1/2+z
loop_
_atom_site_type_symbol
_atom_site_label
_atom_site_fract_x
_atom_site_fract_y
_atom_site_fract_z
Si Si1 0.438168 0.061854 0.144219
Si Si2 0.500000 0.661827 0.750000
Si Si3 0.782967 0.793524 0.659536
Si Si4 0.570116 0.255678 0.466957
Si Si5 0.747046 0.155186 0.395004
Si Si6 0.611072 0.912870 0.289256
Si Si7 0.902984 0.354771 0.516226
Si Si8 0.710512 0.356140 0.146744
O O1 0.500000 0.096697 0.250000
O O2 0.320721 0.090140 0.128795
O O3 0.520043 0.081334 0.041418
O O4 0.418494 0.985928 0.169899
O O5 0.478308 0.703212 0.636194
O O6 0.394505 0.620108 0.782599
O O7 0.885642 0.798353 0.575027
O O8 0.817074 0.825182 0.782956
O O9 0.684830 0.837932 0.612206
O O10 0.745138 0.718247 0.678628
O O11 0.670355 0.216365 0.418420
O O12 0.476598 0.208159 0.509978
O O13 0.815630 0.140147 0.510025
O O14 0.500000 0.879060 0.250000
O O15 0.658179 0.872556 0.397944
O O16 0.695857 0.907178 0.184524
#
# Coordination Sequence:
#
# PCOD8246800 Si02
#       8
#     8   4   8   8   8   8   8   8
#     4  10  20  36  61  89 123 167 198 258 323 377
#     4  12  20  40  58  84 126 162 214 242 308 390
#     4  11  20  35  60  89 122 162 209 250 327 381
#     4  10  20  32  57  84 119 162 197 252 309 369
#     4  10  20  38  56  86 122 159 204 256 315 373
#     4  11  23  39  57  94 131 159 215 256 319 379
#     4  11  20  35  57  87 125 164 197 258 312 380
#     4  11  24  37  61  87 127 169 203 269 313 374
#
# _framework density 20.354032
#
# number of rings (size 3 to 8) (size 9 to 14) (size 15 to 20)
#    0.000    1.333    4.000    3.600    3.733    1.067 
#    0.000    0.667    0.000    0.800    0.000    0.000 
#    0.000    0.000    0.000    0.000    0.000    0.000 
#
# Total GULP energy -743476.983990 kJ/mol
# GULP energy per Si atom -12391.283067 kJ/mol
# Density = 2.030770 g / cm^3
# Si number density = 20.354032 Si / 1000 Ang^3
#
#
#
# Elastic Constant Matrix: (Units=GPa)
#
#
# Indices 1 2 3 4 5 6 
#
# 1 86.9379 27.5436 48.3071 0.0000 0.0000 0.0000
# 2 27.5436 54.7341 39.7235 0.0000 0.0000 0.0000
# 3 48.3071 39.7235 145.1804 0.0000 0.0000 0.0000
# 4 0.0000 0.0000 0.0000 15.5720 0.0000 0.0000
# 5 0.0000 0.0000 0.0000 0.0000 44.3297 0.0000
# 6 0.0000 0.0000 0.0000 0.0000 0.0000 8.4742
#
#
#
# Elastic Compliance Matrix: (Units=1/GPa)
#
#
# Indices 1 2 3 4 5 6 
#
# 1 0.015109 -0.004935 -0.003677 0.000000 0.000000 0.000000
# 2 -0.004935 0.024409 -0.005037 0.000000 0.000000 0.000000
# 3 -0.003677 -0.005037 0.009490 0.000000 0.000000 0.000000
# 4 0.000000 0.000000 0.000000 0.064218 0.000000 0.000000
# 5 0.000000 0.000000 0.000000 0.000000 0.022558 0.000000
# 6 0.000000 0.000000 0.000000 0.000000 0.000000 0.118005
#
#
# Mechanical properties :
#
#
# Convention : Reuss Voigt Hill
#
# Bulk Modulus (GPa) = 46.06042 57.55563 51.80802
# Shear Modulus (GPa) = 17.34174 25.09374 21.21774
#
# Velocity S-wave (km/s) = 2.92208 3.51502 3.23218
# Velocity P-wave (km/s) = 5.83639 6.69421 6.27997
#
# Compressibility (1/GPa) = 0.02171061
#
# Stress axis : x y z
#
# Youngs Moduli (GPa) = 66.18549 40.96897 105.37802
#
# Poissons Ratio (x) = 0.20216 0.38750
# Poissons Ratio (y) = 0.32659 0.53076
# Poissons Ratio (z) = 0.24338 0.20635
#
# Static dielectric constant tensor:
#      x y z
#    x 3.770860 0.000000 0.000000 
#    y 0.000000 3.292330 0.000000 
#    z 0.000000 0.000000 4.233790 
# 
# 
# High freq. dielectric constant tensor:
#      x y z
#    x 1.774620 0.000000 0.000000 
#    y 0.000000 1.752060 0.000000 
#    z 0.000000 0.000000 1.820960 
# 
# From -- ./inp_files/11250.got.cif
#   From: 2010.03.12/outbox.cif.g09.slc.cpg/sg60_6_cif.got.tgz:11250.got - 2010.04.10 18:46:24.
