data_PCOD8246733
_publ_section_title
;
Structure prediction by ZEFSAII (Michael W. Deem and Ramdas Pophale) SiO2 
 PCOD8246733
Probable space group: P B C N
;
_chemical_formula_sum "Si O2"
_cell_formula_units_Z 64
_cell_length_a 10.196301
_cell_length_b 17.841545
_cell_length_c 17.989849
_cell_angle_alpha 90.000000
_cell_angle_beta 90.000000
_cell_angle_gamma 90.000000
_cell_volume 3272.673089
_symmetry_space_group_name_H-M "P B C N"
_symmetry_group_IT_number 60
_symmetry_cell_setting 'orthorhombic'
loop_
_space_group_symop_operation_xyz
x,y,z
1/2-x,1/2-y,1/2+z
1/2+x,1/2-y,-z
-x,y,1/2-z
-x,-y,-z
1/2+x,1/2+y,1/2-z
1/2-x,1/2+y,z
x,-y,1/2+z
loop_
_atom_site_type_symbol
_atom_site_label
_atom_site_fract_x
_atom_site_fract_y
_atom_site_fract_z
Si Si1 0.699406 0.198808 0.850717
Si Si2 0.629731 0.062369 0.432611
Si Si3 0.110994 0.277615 0.561304
Si Si4 0.498365 0.085267 0.906703
Si Si5 0.923045 0.934817 0.959158
Si Si6 0.503118 0.327607 0.833429
Si Si7 0.685108 0.811251 0.180124
Si Si8 0.848355 0.204401 0.548301
O O1 0.845762 0.210998 0.882730
O O2 0.625364 0.139133 0.903142
O O3 0.633432 0.281387 0.855312
O O4 0.707324 0.171716 0.766260
O O5 0.619921 0.143462 0.393326
O O6 0.571720 0.083510 0.513839
O O7 0.780494 0.034451 0.433725
O O8 0.544536 0.000047 0.389750
O O9 0.211904 0.274237 0.491708
O O10 0.962190 0.265542 0.533519
O O11 0.396747 0.115926 0.846083
O O12 0.005739 0.897815 0.890469
O O13 0.903691 0.873840 0.021983
O O14 0.000000 0.000000 0.000000
O O15 0.500000 0.361382 0.750000
O O16 0.386700 0.267137 0.836709
O O17 0.821710 0.804637 0.136384
#
# Coordination Sequence:
#
# PCOD8246733 Si02
#       8
#     8   8   8   8   8   8   8   8
#     4  10  20  36  69  88 121 161 211 252 319 378
#     4  10  21  36  61  84 129 154 210 259 312 376
#     4  11  21  38  62  95 120 166 200 269 313 376
#     4  10  19  38  58  92 117 166 201 256 310 380
#     4  11  22  37  56  89 122 160 206 260 311 373
#     4   9  18  38  64  86 117 161 208 252 309 382
#     4  10  20  39  63  93 118 161 207 262 311 387
#     4  11  22  38  63  92 128 153 213 261 315 371
#
# _framework density 19.555879999999998
#
# number of rings (size 3 to 8) (size 9 to 14) (size 15 to 20)
#    0.000    1.750    5.000    2.625    1.750    0.500 
#    4.500    1.250    5.500    0.000    0.000    0.000 
#    0.000    0.000    0.000    0.000    0.000    0.000 
#
# Total GULP energy -793009.374828 kJ/mol
# GULP energy per Si atom -12390.771482 kJ/mol
# Density = 1.951137 g / cm^3
# Si number density = 19.555880 Si / 1000 Ang^3
#
#
#
# Elastic Constant Matrix: (Units=GPa)
#
#
# Indices 1 2 3 4 5 6 
#
# 1 94.4438 46.0242 25.0287 0.0000 0.0000 0.0000
# 2 46.0242 94.3730 45.0436 0.0000 0.0000 0.0000
# 3 25.0287 45.0436 91.7902 0.0000 0.0000 0.0000
# 4 0.0000 0.0000 0.0000 28.9166 0.0000 0.0000
# 5 0.0000 0.0000 0.0000 0.0000 23.9336 0.0000
# 6 0.0000 0.0000 0.0000 0.0000 0.0000 23.7585
#
#
#
# Elastic Compliance Matrix: (Units=1/GPa)
#
#
# Indices 1 2 3 4 5 6 
#
# 1 0.013915 -0.006497 -0.000606 0.000000 0.000000 0.000000
# 2 -0.006497 0.016871 -0.006507 0.000000 0.000000 0.000000
# 3 -0.000606 -0.006507 0.014253 0.000000 0.000000 0.000000
# 4 0.000000 0.000000 0.000000 0.034582 0.000000 0.000000
# 5 0.000000 0.000000 0.000000 0.000000 0.041782 0.000000
# 6 0.000000 0.000000 0.000000 0.000000 0.000000 0.042090
#
#
# Mechanical properties :
#
#
# Convention : Reuss Voigt Hill
#
# Bulk Modulus (GPa) = 56.12274 56.97776 56.55025
# Shear Modulus (GPa) = 25.42552 26.28910 25.85731
#
# Velocity S-wave (km/s) = 3.60967 3.67046 3.64019
# Velocity P-wave (km/s) = 6.79219 6.86747 6.82993
#
# Compressibility (1/GPa) = 0.01781809
#
# Stress axis : x y z
#
# Youngs Moduli (GPa) = 71.86513 59.27497 70.16095
#
# Poissons Ratio (x) = 0.38510 0.04252
# Poissons Ratio (y) = 0.46690 0.45656
# Poissons Ratio (z) = 0.04356 0.38572
#
# Static dielectric constant tensor:
#      x y z
#    x 3.717570 0.000000 0.000000 
#    y 0.000000 3.596820 0.000000 
#    z 0.000000 0.000000 3.533270 
# 
# 
# High freq. dielectric constant tensor:
#      x y z
#    x 1.756780 0.000000 0.000000 
#    y 0.000000 1.752210 0.000000 
#    z 0.000000 0.000000 1.747350 
# 
# From -- ./inp_files/20227.got.cif
#   From: 2010.03.12/outbox.cif.g09.slc.cpg/sg60_11_cif.got.tgz:20227.got - 2010.04.10 18:46:24.
