data_PCOD8246129
_publ_section_title
;
Structure prediction by ZEFSAII (Michael W. Deem and Ramdas Pophale) SiO2 
 PCOD8246129
Probable space group: P M M N
;
_chemical_formula_sum "Si O2"
_cell_formula_units_Z 48
_cell_length_a 8.820122
_cell_length_b 30.805885
_cell_length_c 9.561242
_cell_angle_alpha 90.000000
_cell_angle_beta 90.000000
_cell_angle_gamma 90.000000
_cell_volume 2597.900974
_symmetry_space_group_name_H-M "P M M N"
_symmetry_group_IT_number 59
_space_group.IT_coordinate_system_code '2'
_symmetry_cell_setting 'orthorhombic'
loop_
_space_group_symop_operation_xyz
x,y,z
1/2-x,1/2-y,z
1/2+x,-y,-z
-x,1/2+y,-z
-x,-y,-z
1/2+x,1/2+y,-z
1/2-x,y,z
x,1/2-y,z
loop_
_atom_site_type_symbol
_atom_site_label
_atom_site_fract_x
_atom_site_fract_y
_atom_site_fract_z
Si Si1 0.072259 0.486448 0.145766
Si Si2 0.422199 0.436692 0.720478
Si Si3 0.571799 0.869103 0.514358
Si Si4 0.075412 0.138425 0.940135
Si Si5 0.930315 0.701493 0.296687
Si Si6 0.927387 0.104866 0.205422
O O1 0.250000 0.483893 0.124793
O O2 0.031329 0.521940 0.263838
O O3 0.015583 0.440206 0.197635
O O4 0.000000 0.500000 0.000000
O O5 0.250000 0.453420 0.712307
O O6 0.465340 0.411216 0.579639
O O7 0.442100 0.406015 0.854624
O O8 0.750000 0.867303 0.549661
O O9 0.518099 0.826017 0.431579
O O10 0.473378 0.870513 0.653624
O O11 0.250000 0.145508 0.983722
O O12 0.014273 0.178362 0.845962
O O13 0.972601 0.136134 0.077504
O O14 0.750000 0.701949 0.293602
O O15 0.998462 0.750000 0.305435
O O16 0.750000 0.095649 0.202068
#
# Coordination Sequence:
#
# PCOD8246129 Si02
#       6
#     8   8   8   8   8   8
#     4  12  23  35  54  79 108 144 186 231 273 319
#     4   9  18  34  55  78 105 142 186 227 269 317
#     4   9  19  36  57  81 111 146 180 225 277 324
#     4   9  17  32  56  81 108 139 174 224 273 320
#     4   8  15  32  61  91 110 132 175 225 273 328
#     4  12  24  36  52  77 110 149 187 227 270 322
#
# _framework density 18.476454
#
# number of rings (size 3 to 8) (size 9 to 14) (size 15 to 20)
#    0.000    2.167    1.667    5.000    0.000    1.333 
#    0.000    3.333    0.000    7.000    0.000    0.000 
#    0.000    0.000    0.000    0.000    0.000    0.000 
#
# Total GULP energy -595243.504514 kJ/mol
# GULP energy per Si atom -12400.906344 kJ/mol
# Density = 1.843440 g / cm^3
# Si number density = 18.476454 Si / 1000 Ang^3
#
#
#
# Elastic Constant Matrix: (Units=GPa)
#
#
# Indices 1 2 3 4 5 6 
#
# 1 97.8907 40.4017 46.7732 0.0000 0.0000 0.0000
# 2 40.4017 127.7240 53.0891 0.0000 0.0000 0.0000
# 3 46.7732 53.0891 124.1520 0.0000 0.0000 0.0000
# 4 0.0000 0.0000 0.0000 20.0672 0.0000 0.0000
# 5 0.0000 0.0000 0.0000 0.0000 23.7118 0.0000
# 6 0.0000 0.0000 0.0000 0.0000 0.0000 18.3567
#
#
#
# Elastic Compliance Matrix: (Units=1/GPa)
#
#
# Indices 1 2 3 4 5 6 
#
# 1 0.013105 -0.002546 -0.003849 0.000000 0.000000 0.000000
# 2 -0.002546 0.010016 -0.003324 0.000000 0.000000 0.000000
# 3 -0.003849 -0.003324 0.010926 0.000000 0.000000 0.000000
# 4 0.000000 0.000000 0.000000 0.049833 0.000000 0.000000
# 5 0.000000 0.000000 0.000000 0.000000 0.042173 0.000000
# 6 0.000000 0.000000 0.000000 0.000000 0.000000 0.054476
#
#
# Mechanical properties :
#
#
# Convention : Reuss Voigt Hill
#
# Bulk Modulus (GPa) = 68.44348 70.03275 69.23812
# Shear Modulus (GPa) = 24.40976 26.39397 25.40187
#
# Velocity S-wave (km/s) = 3.63868 3.78368 3.71188
# Velocity P-wave (km/s) = 7.40117 7.55476 7.47836
#
# Compressibility (1/GPa) = 0.01461060
#
# Stress axis : x y z
#
# Youngs Moduli (GPa) = 76.30633 99.83741 91.52485
#
# Poissons Ratio (x) = 0.25415 0.35225
# Poissons Ratio (y) = 0.19425 0.30423
# Poissons Ratio (z) = 0.29368 0.33186
#
# Static dielectric constant tensor:
#      x y z
#    x 3.179180 0.000000 0.000000 
#    y 0.000000 3.597160 0.000000 
#    z 0.000000 0.000000 3.412540 
# 
# 
# High freq. dielectric constant tensor:
#      x y z
#    x 1.695320 0.000000 0.000000 
#    y 0.000000 1.707150 0.000000 
#    z 0.000000 0.000000 1.717880 
# 
# From -- ./inp_files/6292.got.cif
#   From: 2010.03.12/outbox.cif.g09.slc.cpg/sg59_4_cif.got.tgz:6292.got - 2010.04.16 16:29:54.
