data_PCOD8246118
_publ_section_title
;
Structure prediction by ZEFSAII (Michael W. Deem and Ramdas Pophale) SiO2 
 PCOD8246118
Probable space group: P M M N
;
_chemical_formula_sum "Si O2"
_cell_formula_units_Z 56
_cell_length_a 15.374454
_cell_length_b 14.045506
_cell_length_c 12.201466
_cell_angle_alpha 90.000000
_cell_angle_beta 90.000000
_cell_angle_gamma 90.000000
_cell_volume 2634.808799
_symmetry_space_group_name_H-M "P M M N"
_symmetry_group_IT_number 59
_space_group.IT_coordinate_system_code '2'
_symmetry_cell_setting 'orthorhombic'
loop_
_space_group_symop_operation_xyz
x,y,z
1/2-x,1/2-y,z
1/2+x,-y,-z
-x,1/2+y,-z
-x,-y,-z
1/2+x,1/2+y,-z
1/2-x,y,z
x,1/2-y,z
loop_
_atom_site_type_symbol
_atom_site_label
_atom_site_fract_x
_atom_site_fract_y
_atom_site_fract_z
Si Si1 0.406074 0.358621 0.817429
Si Si2 0.657288 0.137112 0.955212
Si Si3 0.649870 0.972729 0.578331
Si Si4 0.097508 0.857295 0.277715
Si Si5 0.980665 0.862349 0.957683
Si Si6 0.653615 0.484289 0.331403
Si Si7 0.014112 0.361948 0.284869
O O1 0.371201 0.250000 0.810528
O O2 0.497421 0.367981 0.755170
O O3 0.341620 0.430441 0.757066
O O4 0.414475 0.391436 0.945362
O O5 0.750000 0.099132 0.002048
O O6 0.651869 0.250000 0.967617
O O7 0.654130 0.111514 0.826747
O O8 0.576024 0.090327 0.019516
O O9 0.750000 0.949750 0.607846
O O10 0.587465 0.893194 0.630130
O O11 0.621892 0.076463 0.620726
O O12 0.633698 0.969633 0.449112
O O13 0.118608 0.750000 0.315020
O O14 0.992262 0.750000 0.964540
O O15 0.950878 0.893504 0.836295
O O16 0.750000 0.436227 0.331904
O O17 0.580391 0.406969 0.304467
O O18 0.001144 0.250000 0.293874
#
# Coordination Sequence:
#
# PCOD8246118 Si02
#       7
#     8   8   8   8   8   8   8
#     4   9  18  37  65  92 120 154 198 252 310 366
#     4   8  13  24  46  80 118 151 188 236 293 357
#     4  11  24  42  62  89 125 160 205 260 308 362
#     4   9  17  32  59  90 119 153 195 249 313 367
#     4   8  17  34  58  87 118 158 199 245 300 361
#     4  11  25  43  62  90 126 163 208 257 306 365
#     4  11  24  43  65  88 125 170 208 250 305 365
#
# _framework density 21.253914000000002
#
# number of rings (size 3 to 8) (size 9 to 14) (size 15 to 20)
#    0.000    2.429    1.429    2.571    0.000    4.000 
#    0.000    5.000    0.000    2.571    0.000    0.000 
#    0.000    0.000    0.000    0.000    0.000    0.000 
#
# Total GULP energy -694092.468829 kJ/mol
# GULP energy per Si atom -12394.508372 kJ/mol
# Density = 2.120554 g / cm^3
# Si number density = 21.253914 Si / 1000 Ang^3
#
#
#
# Elastic Constant Matrix: (Units=GPa)
#
#
# Indices 1 2 3 4 5 6 
#
# 1 76.3365 38.6403 49.4533 0.0000 0.0000 0.0000
# 2 38.6403 84.7889 45.8858 0.0000 0.0000 0.0000
# 3 49.4533 45.8858 136.2686 0.0000 0.0000 0.0000
# 4 0.0000 0.0000 0.0000 27.8698 0.0000 0.0000
# 5 0.0000 0.0000 0.0000 0.0000 16.5525 0.0000
# 6 0.0000 0.0000 0.0000 0.0000 0.0000 13.9049
#
#
#
# Elastic Compliance Matrix: (Units=1/GPa)
#
#
# Indices 1 2 3 4 5 6 
#
# 1 0.019449 -0.006168 -0.004981 0.000000 0.000000 0.000000
# 2 -0.006168 0.016378 -0.003277 0.000000 0.000000 0.000000
# 3 -0.004981 -0.003277 0.010250 0.000000 0.000000 0.000000
# 4 0.000000 0.000000 0.000000 0.035881 0.000000 0.000000
# 5 0.000000 0.000000 0.000000 0.000000 0.060414 0.000000
# 6 0.000000 0.000000 0.000000 0.000000 0.000000 0.071917
#
#
# Mechanical properties :
#
#
# Convention : Reuss Voigt Hill
#
# Bulk Modulus (GPa) = 58.05441 62.81700 60.43571
# Shear Modulus (GPa) = 20.08987 22.55974 21.32481
#
# Velocity S-wave (km/s) = 3.07780 3.26151 3.17098
# Velocity P-wave (km/s) = 6.32491 6.61838 6.47330
#
# Compressibility (1/GPa) = 0.01722522
#
# Stress axis : x y z
#
# Youngs Moduli (GPa) = 51.41670 61.05772 97.56449
#
# Poissons Ratio (x) = 0.37657 0.48601
# Poissons Ratio (y) = 0.31711 0.31969
# Poissons Ratio (z) = 0.25613 0.20007
#
# Static dielectric constant tensor:
#      x y z
#    x 3.857800 0.000000 0.000000 
#    y 0.000000 3.655030 0.000000 
#    z 0.000000 0.000000 4.055380 
# 
# 
# High freq. dielectric constant tensor:
#      x y z
#    x 1.825420 0.000000 0.000000 
#    y 0.000000 1.819240 0.000000 
#    z 0.000000 0.000000 1.834710 
# 
# From -- ./inp_files/16990.got.cif
#   From: 2010.03.12/outbox.cif.g09.slc.cpg/sg59_9_cif.got.tgz:16990.got - 2010.04.16 16:29:54.
