data_PCOD8246323
_publ_section_title
;
Structure prediction by ZEFSAII (Michael W. Deem and Ramdas Pophale) SiO2 
 PCOD8246323
Probable space group: P B C N
;
_chemical_formula_sum "Si O2"
_cell_formula_units_Z 64
_cell_length_a 13.162349
_cell_length_b 17.721132
_cell_length_c 13.143382
_cell_angle_alpha 90.000000
_cell_angle_beta 90.000000
_cell_angle_gamma 90.000000
_cell_volume 3065.716511
_symmetry_space_group_name_H-M "P B C N"
_symmetry_group_IT_number 60
_symmetry_cell_setting 'orthorhombic'
loop_
_space_group_symop_operation_xyz
x,y,z
1/2-x,1/2-y,1/2+z
1/2+x,1/2-y,-z
-x,y,1/2-z
-x,-y,-z
1/2+x,1/2+y,1/2-z
1/2-x,1/2+y,z
x,-y,1/2+z
loop_
_atom_site_type_symbol
_atom_site_label
_atom_site_fract_x
_atom_site_fract_y
_atom_site_fract_z
Si Si1 0.510029 0.488811 0.635013
Si Si2 0.190379 0.651162 0.478275
Si Si3 0.401397 0.181288 0.695075
Si Si4 0.407300 0.630883 0.564177
Si Si5 0.771618 0.051261 0.176064
Si Si6 0.380375 0.690661 0.947381
Si Si7 0.789577 0.888764 0.233379
Si Si8 0.631439 0.650660 0.339438
O O1 0.500000 0.524386 0.750000
O O2 0.459137 0.546531 0.552297
O O3 0.626828 0.467953 0.611153
O O4 0.457658 0.407731 0.637620
O O5 0.124423 0.644626 0.582809
O O6 0.312534 0.652328 0.493199
O O7 0.181132 0.578886 0.400976
O O8 0.155437 0.725421 0.416566
O O9 0.500000 0.144512 0.750000
O O10 0.306616 0.165788 0.767661
O O11 0.417766 0.270732 0.695360
O O12 0.496454 0.691553 0.542345
O O13 0.365282 0.633521 0.677648
O O14 0.787990 0.117425 0.259669
O O15 0.745717 0.974449 0.237287
O O16 0.353222 0.625480 0.868182
O O17 0.319175 0.669313 0.050728
#
# Coordination Sequence:
#
# PCOD8246323 Si02
#       8
#     8   8   8   8   8   8   8   8
#     4  10  17  31  58  92 121 155 189 255 333 372
#     4  10  25  37  59  90 121 169 210 258 325 380
#     4  10  22  43  62  83 120 168 210 261 315 392
#     4  11  20  39  58  92 129 156 205 261 325 383
#     4  11  20  36  56  92 125 155 208 261 317 384
#     4  11  22  36  55  91 128 168 205 250 317 387
#     4  11  22  36  64  89 122 162 205 262 327 374
#     4  10  21  34  59  90 126 159 202 250 325 388
#
# _framework density 20.876033
#
# number of rings (size 3 to 8) (size 9 to 14) (size 15 to 20)
#    0.000    1.500    3.750    3.000    1.750    4.000 
#    0.000    0.625    0.000    6.000    0.000    0.000 
#    0.000    0.000    0.000    0.000    0.000    0.000 
#
# Total GULP energy -792939.084365 kJ/mol
# GULP energy per Si atom -12389.673193 kJ/mol
# Density = 2.082852 g / cm^3
# Si number density = 20.876033 Si / 1000 Ang^3
#
#
#
# Elastic Constant Matrix: (Units=GPa)
#
#
# Indices 1 2 3 4 5 6 
#
# 1 86.8057 41.5972 24.7678 0.0000 0.0000 0.0000
# 2 41.5972 83.2639 27.6166 0.0000 0.0000 0.0000
# 3 24.7678 27.6166 69.1500 0.0000 0.0000 0.0000
# 4 0.0000 0.0000 0.0000 27.9967 0.0000 0.0000
# 5 0.0000 0.0000 0.0000 0.0000 31.2817 0.0000
# 6 0.0000 0.0000 0.0000 0.0000 0.0000 11.0635
#
#
#
# Elastic Compliance Matrix: (Units=1/GPa)
#
#
# Indices 1 2 3 4 5 6 
#
# 1 0.015621 -0.006856 -0.002857 0.000000 0.000000 0.000000
# 2 -0.006856 0.016853 -0.004275 0.000000 0.000000 0.000000
# 3 -0.002857 -0.004275 0.017192 0.000000 0.000000 0.000000
# 4 0.000000 0.000000 0.000000 0.035718 0.000000 0.000000
# 5 0.000000 0.000000 0.000000 0.000000 0.031968 0.000000
# 6 0.000000 0.000000 0.000000 0.000000 0.000000 0.090388
#
#
# Mechanical properties :
#
#
# Convention : Reuss Voigt Hill
#
# Bulk Modulus (GPa) = 46.10473 47.46473 46.78473
# Shear Modulus (GPa) = 20.58080 23.75092 22.16586
#
# Velocity S-wave (km/s) = 3.14324 3.37666 3.26204
# Velocity P-wave (km/s) = 5.94191 6.16346 6.05370
#
# Compressibility (1/GPa) = 0.02168975
#
# Stress axis : x y z
#
# Youngs Moduli (GPa) = 64.01804 59.33596 58.16724
#
# Poissons Ratio (x) = 0.40682 0.16617
# Poissons Ratio (y) = 0.43893 0.24866
# Poissons Ratio (z) = 0.18288 0.25366
#
# Static dielectric constant tensor:
#      x y z
#    x 3.595750 0.000000 0.000000 
#    y 0.000000 3.833320 0.000000 
#    z 0.000000 0.000000 4.238730 
# 
# 
# High freq. dielectric constant tensor:
#      x y z
#    x 1.779770 0.000000 0.000000 
#    y 0.000000 1.814130 0.000000 
#    z 0.000000 0.000000 1.836890 
# 
# From -- ./inp_files/17066.got.cif
#   From: 2010.03.12/outbox.cif.g09.slc.cpg/sg60_9_cif.got.tgz:17066.got - 2010.04.10 18:46:24.
