data_PCOD8246680
_publ_section_title
;
Structure prediction by ZEFSAII (Michael W. Deem and Ramdas Pophale) SiO2 
 PCOD8246680
Probable space group: P B C N
;
_chemical_formula_sum "Si O2"
_cell_formula_units_Z 48
_cell_length_a 8.673493
_cell_length_b 14.169912
_cell_length_c 19.097919
_cell_angle_alpha 90.000000
_cell_angle_beta 90.000000
_cell_angle_gamma 90.000000
_cell_volume 2347.184521
_symmetry_space_group_name_H-M "P B C N"
_symmetry_group_IT_number 60
_symmetry_cell_setting 'orthorhombic'
loop_
_space_group_symop_operation_xyz
x,y,z
1/2-x,1/2-y,1/2+z
1/2+x,1/2-y,-z
-x,y,1/2-z
-x,-y,-z
1/2+x,1/2+y,1/2-z
1/2-x,1/2+y,z
x,-y,1/2+z
loop_
_atom_site_type_symbol
_atom_site_label
_atom_site_fract_x
_atom_site_fract_y
_atom_site_fract_z
Si Si1 0.822681 0.179091 0.235451
Si Si2 0.338860 0.829064 0.368640
Si Si3 0.401197 0.557271 0.576029
Si Si4 0.187565 0.282304 0.129052
Si Si5 0.374826 0.474681 0.304055
Si Si6 0.668002 0.372482 0.990353
O O1 0.774013 0.229864 0.162624
O O2 0.743545 0.224246 0.304440
O O3 0.794133 0.068294 0.226986
O O4 0.000000 0.198505 0.250000
O O5 0.522207 0.831629 0.361865
O O6 0.285805 0.846851 0.447737
O O7 0.268599 0.906466 0.316173
O O8 0.302063 0.631035 0.619074
O O9 0.531139 0.506423 0.624181
O O10 0.291919 0.474739 0.544167
O O11 0.491343 0.617145 0.516589
O O12 0.179688 0.211909 0.063979
O O13 0.500000 0.432415 0.250000
#
# Coordination Sequence:
#
# PCOD8246680 Si02
#       6
#     8   8   8   8   8   8
#     4   9  19  35  58  80 107 148 186 226 281 340
#     4  10  21  35  57  86 113 145 190 240 284 328
#     4  10  21  36  57  82 112 152 195 229 280 352
#     4  11  21  37  59  86 116 147 190 244 290 329
#     4  10  19  36  59  79 108 150 191 227 278 348
#     4  10  21  37  57  82 114 157 193 229 284 352
#
# _framework density 20.450032
#
# number of rings (size 3 to 8) (size 9 to 14) (size 15 to 20)
#    0.000    2.000    0.000    5.000    0.000    3.333 
#    0.000    3.333    0.000   15.000    0.000    0.000 
#    0.000    0.000    0.000    0.000    0.000    0.000 
#
# Total GULP energy -594877.955076 kJ/mol
# GULP energy per Si atom -12393.290731 kJ/mol
# Density = 2.040349 g / cm^3
# Si number density = 20.450032 Si / 1000 Ang^3
#
#
#
# Elastic Constant Matrix: (Units=GPa)
#
#
# Indices 1 2 3 4 5 6 
#
# 1 45.0967 51.3780 11.9683 0.0000 0.0000 0.0000
# 2 51.3780 126.3818 46.6661 0.0000 0.0000 0.0000
# 3 11.9683 46.6661 77.2514 0.0000 0.0000 0.0000
# 4 0.0000 0.0000 0.0000 32.9463 0.0000 0.0000
# 5 0.0000 0.0000 0.0000 0.0000 22.2936 0.0000
# 6 0.0000 0.0000 0.0000 0.0000 0.0000 28.8054
#
#
#
# Elastic Compliance Matrix: (Units=1/GPa)
#
#
# Indices 1 2 3 4 5 6 
#
# 1 0.042748 -0.019220 0.004988 0.000000 0.000000 0.000000
# 2 -0.019220 0.018826 -0.008395 0.000000 0.000000 0.000000
# 3 0.004988 -0.008395 0.017243 0.000000 0.000000 0.000000
# 4 0.000000 0.000000 0.000000 0.030352 0.000000 0.000000
# 5 0.000000 0.000000 0.000000 0.000000 0.044856 0.000000
# 6 0.000000 0.000000 0.000000 0.000000 0.000000 0.034716
#
#
# Mechanical properties :
#
#
# Convention : Reuss Voigt Hill
#
# Bulk Modulus (GPa) = 29.79488 52.08384 40.93936
# Shear Modulus (GPa) = 20.39303 26.05690 23.22496
#
# Velocity S-wave (km/s) = 3.16129 3.57343 3.37366
# Velocity P-wave (km/s) = 5.28453 6.52304 5.93617
#
# Compressibility (1/GPa) = 0.03356281
#
# Stress axis : x y z
#
# Youngs Moduli (GPa) = 23.39301 53.11900 57.99447
#
# Poissons Ratio (x) = 1.02094 -0.28925
# Poissons Ratio (y) = 0.44961 0.48684
# Poissons Ratio (z) = -0.11668 0.44591
#
# Static dielectric constant tensor:
#      x y z
#    x 3.390340 0.000000 0.000000 
#    y 0.000000 3.801400 0.000000 
#    z 0.000000 0.000000 4.133260 
# 
# 
# High freq. dielectric constant tensor:
#      x y z
#    x 1.762510 0.000000 0.000000 
#    y 0.000000 1.804440 0.000000 
#    z 0.000000 0.000000 1.822220 
# 
# From -- ./inp_files/22067.got.cif
#   From: 2010.03.12/outbox.cif.g09.slc.cpg/sg60_12_cif.got.tgz:22067.got - 2010.04.10 18:46:24.
