data_PCOD8246163
_publ_section_title
;
Structure prediction by ZEFSAII (Michael W. Deem and Ramdas Pophale) SiO2 
 PCOD8246163
Probable space group: P M M N
;
_chemical_formula_sum "Si O2"
_cell_formula_units_Z 64
_cell_length_a 18.626037
_cell_length_b 17.831318
_cell_length_c 11.548883
_cell_angle_alpha 90.000000
_cell_angle_beta 90.000000
_cell_angle_gamma 90.000000
_cell_volume 3835.693425
_symmetry_space_group_name_H-M "P M M N"
_symmetry_group_IT_number 59
_space_group.IT_coordinate_system_code '2'
_symmetry_cell_setting 'orthorhombic'
loop_
_space_group_symop_operation_xyz
x,y,z
1/2-x,1/2-y,z
1/2+x,-y,-z
-x,1/2+y,-z
-x,-y,-z
1/2+x,1/2+y,-z
1/2-x,y,z
x,1/2-y,z
loop_
_atom_site_type_symbol
_atom_site_label
_atom_site_fract_x
_atom_site_fract_y
_atom_site_fract_z
Si Si1 0.165982 0.018278 0.250721
Si Si2 0.829707 0.951306 0.236623
Si Si3 0.415102 0.935346 0.446299
Si Si4 0.335241 0.980149 0.998685
Si Si5 0.835527 0.168454 0.112166
Si Si6 0.670885 0.113014 0.349566
Si Si7 0.572630 0.593224 0.427624
Si Si8 0.832289 0.834745 0.613348
O O1 0.250000 0.000572 0.256164
O O2 0.149915 0.104166 0.287560
O O3 0.128321 0.955983 0.330557
O O4 0.134393 0.009287 0.120972
O O5 0.750000 0.913763 0.235121
O O6 0.887742 0.900380 0.303378
O O7 0.858253 0.964380 0.105586
O O8 0.823545 0.028039 0.306579
O O9 0.373408 0.878579 0.531564
O O10 0.487982 0.891382 0.411620
O O11 0.424964 0.011216 0.517544
O O12 0.250000 0.977455 0.002984
O O13 0.365742 0.896312 0.972508
O O14 0.750000 0.159976 0.120401
O O15 0.858582 0.250000 0.063584
O O16 0.865274 0.159593 0.243880
O O17 0.750000 0.144019 0.378133
O O18 0.612386 0.653563 0.508526
O O19 0.750000 0.846838 0.569959
O O20 0.842125 0.750000 0.662028
#
# Coordination Sequence:
#
# PCOD8246163 Si02
#       8
#     8   8   8   8   8   8   8   8
#     4   9  16  27  44  65  89 117 149 182 215 259
#     4   8  13  23  40  60  80 103 135 177 218 250
#     4   9  16  25  39  61  85 108 136 170 213 261
#     4   8  14  24  40  62  85 112 147 182 215 253
#     4   8  13  22  38  59  81 106 139 180 218 249
#     4   8  13  22  37  57  80 105 134 169 208 249
#     4   9  16  26  41  61  84 107 134 174 219 261
#     4   9  17  29  46  66  86 111 144 183 227 270
#
# _framework density 16.685379000000001
#
# number of rings (size 3 to 8) (size 9 to 14) (size 15 to 20)
#    0.000    3.500    0.000    2.250    0.000    3.000 
#    0.000    1.250    0.000    2.250    0.000    7.000 
#    0.000    0.000    0.000    0.000    0.000    0.000 
#
# Total GULP energy -792841.949465 kJ/mol
# GULP energy per Si atom -12388.155460 kJ/mol
# Density = 1.664740 g / cm^3
# Si number density = 16.685379 Si / 1000 Ang^3
#
#
#
# Elastic Constant Matrix: (Units=GPa)
#
#
# Indices 1 2 3 4 5 6 
#
# 1 64.7765 23.2517 45.1582 0.0000 0.0000 0.0000
# 2 23.2517 63.8275 43.6864 0.0000 0.0000 0.0000
# 3 45.1582 43.6864 138.8089 0.0000 0.0000 0.0000
# 4 0.0000 0.0000 0.0000 13.2577 0.0000 0.0000
# 5 0.0000 0.0000 0.0000 0.0000 7.4568 0.0000
# 6 0.0000 0.0000 0.0000 0.0000 0.0000 9.8876
#
#
#
# Elastic Compliance Matrix: (Units=1/GPa)
#
#
# Indices 1 2 3 4 5 6 
#
# 1 0.020638 -0.003725 -0.005542 0.000000 0.000000 0.000000
# 2 -0.003725 0.020641 -0.005284 0.000000 0.000000 0.000000
# 3 -0.005542 -0.005284 0.010670 0.000000 0.000000 0.000000
# 4 0.000000 0.000000 0.000000 0.075428 0.000000 0.000000
# 5 0.000000 0.000000 0.000000 0.000000 0.134106 0.000000
# 6 0.000000 0.000000 0.000000 0.000000 0.000000 0.101137
#
#
# Mechanical properties :
#
#
# Convention : Reuss Voigt Hill
#
# Bulk Modulus (GPa) = 43.76974 54.62284 49.19629
# Shear Modulus (GPa) = 12.52070 16.47485 14.49778
#
# Velocity S-wave (km/s) = 2.74231 3.14567 2.95089
# Velocity P-wave (km/s) = 6.02631 6.78246 6.41553
#
# Compressibility (1/GPa) = 0.02284683
#
# Stress axis : x y z
#
# Youngs Moduli (GPa) = 48.45375 48.44698 93.71963
#
# Poissons Ratio (x) = 0.18048 0.51937
# Poissons Ratio (y) = 0.18050 0.49524
# Poissons Ratio (z) = 0.26852 0.25601
#
# Static dielectric constant tensor:
#      x y z
#    x 3.142710 0.000000 0.000000 
#    y 0.000000 2.879750 0.000000 
#    z 0.000000 0.000000 3.308850 
# 
# 
# High freq. dielectric constant tensor:
#      x y z
#    x 1.615250 0.000000 0.000000 
#    y 0.000000 1.604110 0.000000 
#    z 0.000000 0.000000 1.634330 
# 
# From -- ./inp_files/17981.got.cif
#   From: 2010.03.12/outbox.cif.g09.slc.cpg/sg59_9_cif.got.tgz:17981.got - 2010.04.16 16:29:54.
