data_PCOD8246651
_publ_section_title
;
Structure prediction by ZEFSAII (Michael W. Deem and Ramdas Pophale) SiO2 
 PCOD8246651
Probable space group: P B C N
;
_chemical_formula_sum "Si O2"
_cell_formula_units_Z 32
_cell_length_a 19.016973
_cell_length_b 17.754412
_cell_length_c 5.026134
_cell_angle_alpha 90.000000
_cell_angle_beta 90.000000
_cell_angle_gamma 90.000000
_cell_volume 1696.999626
_symmetry_space_group_name_H-M "P B C N"
_symmetry_group_IT_number 60
_symmetry_cell_setting 'orthorhombic'
loop_
_space_group_symop_operation_xyz
x,y,z
1/2-x,1/2-y,1/2+z
1/2+x,1/2-y,-z
-x,y,1/2-z
-x,-y,-z
1/2+x,1/2+y,1/2-z
1/2-x,1/2+y,z
x,-y,1/2+z
loop_
_atom_site_type_symbol
_atom_site_label
_atom_site_fract_x
_atom_site_fract_y
_atom_site_fract_z
Si Si1 0.779867 0.210133 0.295952
Si Si2 0.077787 0.379138 0.786101
Si Si3 0.922115 0.278991 0.214197
Si Si4 0.280580 0.046868 0.218137
O O1 0.756552 0.231937 0.592513
O O2 0.864353 0.215054 0.270671
O O3 0.757754 0.125563 0.229609
O O4 0.088275 0.309346 0.584338
O O5 0.135038 0.443177 0.730543
O O6 0.000000 0.414641 0.750000
O O7 0.088336 0.348859 0.084725
O O8 0.000000 0.243509 0.250000
O O9 0.256948 0.986572 0.437384
#
# Coordination Sequence:
#
# PCOD8246651 Si02
#       4
#     8   8   8   8
#     4  12  21  38  62  83 108 152 194 235 274 329
#     4  10  20  35  55  81 114 150 184 220 277 341
#     4  10  19  35  59  85 108 140 191 240 275 321
#     4  12  24  36  54  83 120 150 185 229 284 333
#
# _framework density 18.856809999999999
#
# number of rings (size 3 to 8) (size 9 to 14) (size 15 to 20)
#    0.000    1.000    5.000    3.000    0.000    1.000 
#    0.000    0.000    0.000    1.500    0.000    0.000 
#    0.000    0.000    0.000    0.000    0.000    0.000 
#
# Total GULP energy -396947.264741 kJ/mol
# GULP energy per Si atom -12404.602023 kJ/mol
# Density = 1.881389 g / cm^3
# Si number density = 18.856810 Si / 1000 Ang^3
#
#
#
# Elastic Constant Matrix: (Units=GPa)
#
#
# Indices 1 2 3 4 5 6 
#
# 1 91.9324 31.9173 18.9898 0.0000 0.0000 0.0000
# 2 31.9173 70.3048 9.6856 0.0000 0.0000 0.0000
# 3 18.9898 9.6856 78.6117 0.0000 0.0000 0.0000
# 4 0.0000 0.0000 0.0000 28.3784 0.0000 0.0000
# 5 0.0000 0.0000 0.0000 0.0000 22.0987 0.0000
# 6 0.0000 0.0000 0.0000 0.0000 0.0000 28.0492
#
#
#
# Elastic Compliance Matrix: (Units=1/GPa)
#
#
# Indices 1 2 3 4 5 6 
#
# 1 0.013389 -0.005730 -0.002528 0.000000 0.000000 0.000000
# 2 -0.005730 0.016922 -0.000701 0.000000 0.000000 0.000000
# 3 -0.002528 -0.000701 0.013418 0.000000 0.000000 0.000000
# 4 0.000000 0.000000 0.000000 0.035238 0.000000 0.000000
# 5 0.000000 0.000000 0.000000 0.000000 0.045252 0.000000
# 6 0.000000 0.000000 0.000000 0.000000 0.000000 0.035652
#
#
# Mechanical properties :
#
#
# Convention : Reuss Voigt Hill
#
# Bulk Modulus (GPa) = 38.74414 40.22602 39.48508
# Shear Modulus (GPa) = 26.82520 27.72234 27.27377
#
# Velocity S-wave (km/s) = 3.77579 3.83841 3.80723
# Velocity P-wave (km/s) = 6.29285 6.40494 6.34914
#
# Compressibility (1/GPa) = 0.02581036
#
# Stress axis : x y z
#
# Youngs Moduli (GPa) = 74.68688 59.09567 74.52758
#
# Poissons Ratio (x) = 0.33863 0.18843
# Poissons Ratio (y) = 0.42797 0.05222
# Poissons Ratio (z) = 0.18884 0.04141
#
# Static dielectric constant tensor:
#      x y z
#    x 3.727510 0.000000 0.000000 
#    y 0.000000 3.006140 0.000000 
#    z 0.000000 0.000000 3.687620 
# 
# 
# High freq. dielectric constant tensor:
#      x y z
#    x 1.731590 0.000000 0.000000 
#    y 0.000000 1.689790 0.000000 
#    z 0.000000 0.000000 1.759090 
# 
# From -- ./inp_files/1562.got.cif
#   From: 2010.03.12/outbox.cif.g09.slc.cpg/sg60_1_cif.got.tgz:1562.got - 2010.04.10 18:46:24.
