data_PCOD8246152
_publ_section_title
;
Structure prediction by ZEFSAII (Michael W. Deem and Ramdas Pophale) SiO2 
 PCOD8246152
Probable space group: P M M N
;
_chemical_formula_sum "Si O2"
_cell_formula_units_Z 64
_cell_length_a 20.207001
_cell_length_b 9.241883
_cell_length_c 21.302827
_cell_angle_alpha 90.000000
_cell_angle_beta 90.000000
_cell_angle_gamma 90.000000
_cell_volume 3978.318686
_symmetry_space_group_name_H-M "P M M N"
_symmetry_group_IT_number 59
_space_group.IT_coordinate_system_code '2'
_symmetry_cell_setting 'orthorhombic'
loop_
_space_group_symop_operation_xyz
x,y,z
1/2-x,1/2-y,z
1/2+x,-y,-z
-x,1/2+y,-z
-x,-y,-z
1/2+x,1/2+y,-z
1/2-x,y,z
x,1/2-y,z
loop_
_atom_site_type_symbol
_atom_site_label
_atom_site_fract_x
_atom_site_fract_y
_atom_site_fract_z
Si Si1 0.120572 0.912414 0.842632
Si Si2 0.503109 0.090674 0.692108
Si Si3 0.462333 0.421510 0.555221
Si Si4 0.591098 0.586275 0.040294
Si Si5 0.321553 0.078424 0.594165
Si Si6 0.438250 0.586193 0.077174
Si Si7 0.646975 0.590090 0.270773
Si Si8 0.032448 0.087405 0.194677
O O1 0.146574 0.750000 0.853705
O O2 0.044106 0.909668 0.823568
O O3 0.131942 0.003961 0.905806
O O4 0.163712 0.985470 0.787320
O O5 0.536727 0.250000 0.693304
O O6 0.497794 0.034101 0.620470
O O7 0.431115 0.105250 0.721567
O O8 0.544248 0.980343 0.735833
O O9 0.500000 0.500000 0.500000
O O10 0.465430 0.250000 0.545132
O O11 0.385385 0.477662 0.555320
O O12 0.617691 0.750000 0.033585
O O13 0.514520 0.588021 0.058229
O O14 0.602678 0.502045 0.975081
O O15 0.250000 0.033605 0.563829
O O16 0.328885 0.250000 0.598625
O O17 0.322732 0.020597 0.665807
O O18 0.411063 0.750000 0.081611
O O19 0.427799 0.508009 0.144006
O O20 0.676616 0.750000 0.257292
O O21 0.061159 0.250000 0.195163
#
# Coordination Sequence:
#
# PCOD8246152 Si02
#       8
#     8   8   8   8   8   8   8   8
#     4   9  15  21  29  42  61  84 111 145 186 228
#     4   8  14  24  35  48  67  91 119 151 189 231
#     4   9  17  28  43  62  83 107 135 169 208 251
#     4   9  15  21  28  38  54  78 111 149 184 220
#     4   8  14  26  44  63  81 104 137 173 206 244
#     4   9  15  21  28  38  55  80 109 144 186 227
#     4   8  13  22  36  51  66  87 118 155 191 226
#     4   9  15  21  30  44  60  81 112 149 186 223
#
# _framework density 16.087198999999998
#
# number of rings (size 3 to 8) (size 9 to 14) (size 15 to 20)
#    0.000    3.375    0.000    3.000    0.000    6.500 
#    0.000    1.875    0.000    1.500    0.000    0.000 
#    0.000    0.000    0.000    0.000    0.000    1.250 
#
# Total GULP energy -792996.308335 kJ/mol
# GULP energy per Si atom -12390.567318 kJ/mol
# Density = 1.605058 g / cm^3
# Si number density = 16.087199 Si / 1000 Ang^3
#
#
#
# Elastic Constant Matrix: (Units=GPa)
#
#
# Indices 1 2 3 4 5 6 
#
# 1 36.9418 20.3686 36.5341 0.0000 0.0000 0.0000
# 2 20.3686 113.2853 64.8681 0.0000 0.0000 0.0000
# 3 36.5341 64.8681 127.2882 0.0000 0.0000 0.0000
# 4 0.0000 0.0000 0.0000 31.1079 0.0000 0.0000
# 5 0.0000 0.0000 0.0000 0.0000 7.9180 0.0000
# 6 0.0000 0.0000 0.0000 0.0000 0.0000 3.5862
#
#
#
# Elastic Compliance Matrix: (Units=1/GPa)
#
#
# Indices 1 2 3 4 5 6 
#
# 1 0.037853 -0.000826 -0.010444 0.000000 0.000000 0.000000
# 2 -0.000826 0.012483 -0.006124 0.000000 0.000000 0.000000
# 3 -0.010444 -0.006124 0.013975 0.000000 0.000000 0.000000
# 4 0.000000 0.000000 0.000000 0.032146 0.000000 0.000000
# 5 0.000000 0.000000 0.000000 0.000000 0.126294 0.000000
# 6 0.000000 0.000000 0.000000 0.000000 0.000000 0.278845
#
#
# Mechanical properties :
#
#
# Convention : Reuss Voigt Hill
#
# Bulk Modulus (GPa) = 33.87188 57.89522 45.88355
# Shear Modulus (GPa) = 9.15375 18.90541 14.02958
#
# Velocity S-wave (km/s) = 2.38798 3.43181 2.95633
# Velocity P-wave (km/s) = 5.35762 7.19511 6.34325
#
# Compressibility (1/GPa) = 0.02952301
#
# Stress axis : x y z
#
# Youngs Moduli (GPa) = 26.41767 80.11164 71.55735
#
# Poissons Ratio (x) = 0.06615 0.74733
# Poissons Ratio (y) = 0.02182 0.43824
# Poissons Ratio (z) = 0.27590 0.49063
#
# Static dielectric constant tensor:
#      x y z
#    x 2.509510 0.000000 0.000000 
#    y 0.000000 3.223080 0.000000 
#    z 0.000000 0.000000 3.102330 
# 
# 
# High freq. dielectric constant tensor:
#      x y z
#    x 1.538170 0.000000 0.000000 
#    y 0.000000 1.617780 0.000000 
#    z 0.000000 0.000000 1.614150 
# 
# From -- ./inp_files/31046.got.cif
#   From: 2010.03.12/outbox.cif.g09.slc.cpg/sg59_16_cif.got.tgz:31046.got - 2010.04.16 16:29:54.
