data_PCOD8246351
_publ_section_title
;
Structure prediction by ZEFSAII (Michael W. Deem and Ramdas Pophale) SiO2 
 PCOD8246351
Probable space group: P B C N
;
_chemical_formula_sum "Si O2"
_cell_formula_units_Z 52
_cell_length_a 13.738482
_cell_length_b 10.886916
_cell_length_c 17.523785
_cell_angle_alpha 90.000000
_cell_angle_beta 90.000000
_cell_angle_gamma 90.000000
_cell_volume 2621.027257
_symmetry_space_group_name_H-M "P B C N"
_symmetry_group_IT_number 60
_symmetry_cell_setting 'orthorhombic'
loop_
_space_group_symop_operation_xyz
x,y,z
1/2-x,1/2-y,1/2+z
1/2+x,1/2-y,-z
-x,y,1/2-z
-x,-y,-z
1/2+x,1/2+y,1/2-z
1/2-x,1/2+y,z
x,-y,1/2+z
loop_
_atom_site_type_symbol
_atom_site_label
_atom_site_fract_x
_atom_site_fract_y
_atom_site_fract_z
Si Si1 0.151470 0.854528 0.261746
Si Si2 0.107596 0.653812 0.378449
Si Si3 0.849356 0.606271 0.674971
Si Si4 0.500000 0.729602 0.250000
Si Si5 0.077296 0.816949 0.095434
Si Si6 0.039696 0.967605 0.862661
Si Si7 0.192956 0.191498 0.445128
O O1 0.149681 0.725737 0.305857
O O2 0.251815 0.926316 0.278405
O O3 0.136035 0.820825 0.174139
O O4 0.067347 0.942699 0.292810
O O5 0.091473 0.514204 0.351061
O O6 0.191534 0.660094 0.443983
O O7 0.005779 0.710827 0.407452
O O8 0.827145 0.682189 0.598620
O O9 0.907709 0.685526 0.736591
O O10 0.519012 0.646650 0.325737
O O11 0.156895 0.789600 0.031231
O O12 0.028272 0.951275 0.081323
O O13 0.134813 0.922173 0.907550
#
# Coordination Sequence:
#
# PCOD8246351 Si02
#       7
#     8   8   8   4   8   8   8
#     4  10  20  38  66  89 116 160 218 254 297 374
#     4  10  21  40  64  85 126 172 199 252 320 375
#     4  10  22  39  61  84 128 167 202 252 322 375
#     4  10  20  34  60  92 118 154 208 254 308 370
#     4  11  22  37  65  95 118 157 218 261 301 369
#     4  10  17  38  63  87 115 157 203 256 303 369
#     4  10  22  39  59  89 125 163 201 248 323 373
#
# _framework density 19.839549000000002
#
# number of rings (size 3 to 8) (size 9 to 14) (size 15 to 20)
#    0.000    1.846    3.077    1.846    2.154    0.615 
#    5.538    1.538    0.000    0.000    0.000    0.000 
#    0.000    0.000    0.000    0.000    0.000    0.000 
#
# Total GULP energy -644631.497646 kJ/mol
# GULP energy per Si atom -12396.759570 kJ/mol
# Density = 1.979439 g / cm^3
# Si number density = 19.839549 Si / 1000 Ang^3
#
#
#
# Elastic Constant Matrix: (Units=GPa)
#
#
# Indices 1 2 3 4 5 6 
#
# 1 78.6337 32.7492 57.0029 0.0000 0.0000 0.0000
# 2 32.7492 108.4975 26.1115 0.0000 0.0000 0.0000
# 3 57.0029 26.1115 116.8026 0.0000 0.0000 0.0000
# 4 0.0000 0.0000 0.0000 16.0281 0.0000 0.0000
# 5 0.0000 0.0000 0.0000 0.0000 33.4447 0.0000
# 6 0.0000 0.0000 0.0000 0.0000 0.0000 23.0665
#
#
#
# Elastic Compliance Matrix: (Units=1/GPa)
#
#
# Indices 1 2 3 4 5 6 
#
# 1 0.021315 -0.004154 -0.009474 0.000000 0.000000 0.000000
# 2 -0.004154 0.010550 -0.000331 0.000000 0.000000 0.000000
# 3 -0.009474 -0.000331 0.013259 0.000000 0.000000 0.000000
# 4 0.000000 0.000000 0.000000 0.062391 0.000000 0.000000
# 5 0.000000 0.000000 0.000000 0.000000 0.029900 0.000000
# 6 0.000000 0.000000 0.000000 0.000000 0.000000 0.043353
#
#
# Mechanical properties :
#
#
# Convention : Reuss Voigt Hill
#
# Bulk Modulus (GPa) = 58.11764 59.51788 58.81776
# Shear Modulus (GPa) = 23.31865 27.04586 25.18226
#
# Velocity S-wave (km/s) = 3.43207 3.69620 3.56658
# Velocity P-wave (km/s) = 6.71289 6.94842 6.83167
#
# Compressibility (1/GPa) = 0.01720648
#
# Stress axis : x y z
#
# Youngs Moduli (GPa) = 46.91591 94.78363 75.42091
#
# Poissons Ratio (x) = 0.39371 0.71451
# Poissons Ratio (y) = 0.19488 0.02499
# Poissons Ratio (z) = 0.44446 0.03141
#
# Static dielectric constant tensor:
#      x y z
#    x 3.617520 0.000000 0.000000 
#    y 0.000000 3.726480 0.000000 
#    z 0.000000 0.000000 3.379600 
# 
# 
# High freq. dielectric constant tensor:
#      x y z
#    x 1.768030 0.000000 0.000000 
#    y 0.000000 1.779810 0.000000 
#    z 0.000000 0.000000 1.753560 
# 
# From -- ./inp_files/20601.got.cif
#   From: 2010.03.12/outbox.cif.g09.slc.cpg/sg60_11_cif.got.tgz:20601.got - 2010.04.10 18:46:24.
