data_PCOD8246492
_publ_section_title
;
Structure prediction by ZEFSAII (Michael W. Deem and Ramdas Pophale) SiO2 
 PCOD8246492
Probable space group: P B C N
;
_chemical_formula_sum "Si O2"
_cell_formula_units_Z 60
_cell_length_a 17.445675
_cell_length_b 12.631644
_cell_length_c 13.731354
_cell_angle_alpha 90.000000
_cell_angle_beta 90.000000
_cell_angle_gamma 90.000000
_cell_volume 3025.944921
_symmetry_space_group_name_H-M "P B C N"
_symmetry_group_IT_number 60
_symmetry_cell_setting 'orthorhombic'
loop_
_space_group_symop_operation_xyz
x,y,z
1/2-x,1/2-y,1/2+z
1/2+x,1/2-y,-z
-x,y,1/2-z
-x,-y,-z
1/2+x,1/2+y,1/2-z
1/2-x,1/2+y,z
x,-y,1/2+z
loop_
_atom_site_type_symbol
_atom_site_label
_atom_site_fract_x
_atom_site_fract_y
_atom_site_fract_z
Si Si1 0.687929 0.207015 0.458150
Si Si2 0.030772 0.174711 0.031223
Si Si3 0.369808 0.386104 0.917756
Si Si4 0.418201 0.442209 0.714127
Si Si5 0.000000 0.695929 0.250000
Si Si6 0.149425 0.164289 0.722766
Si Si7 0.323362 0.613608 0.931747
Si Si8 0.525649 0.111128 0.455609
O O1 0.675650 0.283728 0.549289
O O2 0.698561 0.274348 0.358921
O O3 0.768386 0.152264 0.482117
O O4 0.618420 0.122293 0.452138
O O5 0.076007 0.144045 0.129056
O O6 0.951572 0.108030 0.024103
O O7 0.087548 0.147963 0.942837
O O8 0.009786 0.298772 0.026161
O O9 0.380487 0.377045 0.802191
O O10 0.318982 0.487814 0.941028
O O11 0.500000 0.485725 0.750000
O O12 0.369508 0.545816 0.683674
O O13 0.927231 0.770149 0.261503
O O14 0.007388 0.622073 0.345919
O O15 0.198263 0.154390 0.823090
O O16 0.500000 0.000000 0.500000
#
# Coordination Sequence:
#
# PCOD8246492 Si02
#       8
#     8   8   8   8   4   8   8   8
#     4  10  23  38  57  85 127 152 205 249 297 359
#     4  10  19  35  61  91 117 150 204 254 300 356
#     4   9  20  36  56  87 120 156 194 251 295 360
#     4   9  17  31  60  94 122 146 194 251 312 348
#     4  10  18  38  64  88 108 156 214 260 280 364
#     4  10  19  35  60  89 117 158 201 248 301 366
#     4  11  21  35  59  86 118 161 192 245 320 362
#     4  10  22  41  61  87 118 166 211 254 295 356
#
# _framework density 19.828517000000002
#
# number of rings (size 3 to 8) (size 9 to 14) (size 15 to 20)
#    0.000    2.133    2.000    1.200    0.000    2.133 
#    6.000    0.000    5.867    0.000    0.000    0.000 
#    0.000    0.000    0.000    0.000    0.000    0.000 
#
# Total GULP energy -743719.713051 kJ/mol
# GULP energy per Si atom -12395.328551 kJ/mol
# Density = 1.978339 g / cm^3
# Si number density = 19.828517 Si / 1000 Ang^3
#
#
#
# Elastic Constant Matrix: (Units=GPa)
#
#
# Indices 1 2 3 4 5 6 
#
# 1 52.0624 21.8280 36.3049 0.0000 0.0000 0.0000
# 2 21.8280 90.0456 62.2667 0.0000 0.0000 0.0000
# 3 36.3049 62.2667 128.7908 0.0000 0.0000 0.0000
# 4 0.0000 0.0000 0.0000 31.4963 0.0000 0.0000
# 5 0.0000 0.0000 0.0000 0.0000 31.7406 0.0000
# 6 0.0000 0.0000 0.0000 0.0000 0.0000 21.4628
#
#
#
# Elastic Compliance Matrix: (Units=1/GPa)
#
#
# Indices 1 2 3 4 5 6 
#
# 1 0.024083 -0.001718 -0.005958 0.000000 0.000000 0.000000
# 2 -0.001718 0.016805 -0.007641 0.000000 0.000000 0.000000
# 3 -0.005958 -0.007641 0.013138 0.000000 0.000000 0.000000
# 4 0.000000 0.000000 0.000000 0.031750 0.000000 0.000000
# 5 0.000000 0.000000 0.000000 0.000000 0.031505 0.000000
# 6 0.000000 0.000000 0.000000 0.000000 0.000000 0.046592
#
#
# Mechanical properties :
#
#
# Convention : Reuss Voigt Hill
#
# Bulk Modulus (GPa) = 42.74792 56.85533 49.80163
# Shear Modulus (GPa) = 24.71517 26.97323 25.84420
#
# Velocity S-wave (km/s) = 3.53433 3.69226 3.61416
# Velocity P-wave (km/s) = 6.18554 6.84929 6.52586
#
# Compressibility (1/GPa) = 0.02339295
#
# Stress axis : x y z
#
# Youngs Moduli (GPa) = 41.52338 59.50442 76.11419
#
# Poissons Ratio (x) = 0.10222 0.45350
# Poissons Ratio (y) = 0.07133 0.58157
# Poissons Ratio (z) = 0.24740 0.45466
#
# Static dielectric constant tensor:
#      x y z
#    x 3.344150 0.000000 0.000000 
#    y 0.000000 3.424560 0.000000 
#    z 0.000000 0.000000 3.904970 
# 
# 
# High freq. dielectric constant tensor:
#      x y z
#    x 1.747180 0.000000 0.000000 
#    y 0.000000 1.759080 0.000000 
#    z 0.000000 0.000000 1.787950 
# 
# From -- ./inp_files/17446.got.cif
#   From: 2010.03.12/outbox.cif.g09.slc.cpg/sg60_9_cif.got.tgz:17446.got - 2010.04.10 18:46:24.
