data_PCOD8246379
_publ_section_title
;
Structure prediction by ZEFSAII (Michael W. Deem and Ramdas Pophale) SiO2 
 PCOD8246379
Probable space group: P B C N
;
_chemical_formula_sum "Si O2"
_cell_formula_units_Z 56
_cell_length_a 21.608919
_cell_length_b 5.238243
_cell_length_c 26.131196
_cell_angle_alpha 90.000000
_cell_angle_beta 90.000000
_cell_angle_gamma 90.000000
_cell_volume 2957.862424
_symmetry_space_group_name_H-M "P B C N"
_symmetry_group_IT_number 60
_symmetry_cell_setting 'orthorhombic'
loop_
_space_group_symop_operation_xyz
x,y,z
1/2-x,1/2-y,1/2+z
1/2+x,1/2-y,-z
-x,y,1/2-z
-x,-y,-z
1/2+x,1/2+y,1/2-z
1/2-x,1/2+y,z
x,-y,1/2+z
loop_
_atom_site_type_symbol
_atom_site_label
_atom_site_fract_x
_atom_site_fract_y
_atom_site_fract_z
Si Si1 0.176929 0.931361 0.534698
Si Si2 0.214859 0.476916 0.374989
Si Si3 0.074209 0.523248 0.851697
Si Si4 0.926961 0.046085 0.899952
Si Si5 0.487427 0.476438 0.309385
Si Si6 0.013233 0.454084 0.058647
Si Si7 0.690231 0.931558 0.007481
O O1 0.146761 0.988199 0.590766
O O2 0.251223 0.902933 0.532219
O O3 0.147996 0.667091 0.512084
O O4 0.154142 0.163250 0.497095
O O5 0.252265 0.721547 0.354952
O O6 0.147595 0.487371 0.350908
O O7 0.214856 0.486652 0.436371
O O8 0.049212 0.281692 0.820700
O O9 0.051233 0.515812 0.910332
O O10 0.053345 0.781600 0.824403
O O11 0.962834 0.834088 0.933439
O O12 0.947229 0.019976 0.840675
O O13 0.939978 0.332007 0.919646
O O14 0.500000 0.491937 0.250000
O O15 0.000000 0.500000 0.000000
#
# Coordination Sequence:
#
# PCOD8246379 Si02
#       7
#     8   8   8   8   8   8   8
#     4  10  18  31  47  72 106 138 199 212 255 316
#     4  12  21  35  53  82 117 153 194 212 268 335
#     4  10  23  36  57  89 112 145 194 238 279 351
#     4  10  21  33  53  80 103 143 190 227 276 340
#     4  10  21  43  62  83 110 141 197 251 311 346
#     4  10  21  33  46  76 117 148 171 218 281 333
#     4  10  19  31  46  75 107 157 185 213 253 322
#
# _framework density 18.932592
#
# number of rings (size 3 to 8) (size 9 to 14) (size 15 to 20)
#    0.000    1.714    2.857    2.571    4.000    0.000 
#    0.000    0.000    0.000    0.000   22.286    0.000 
#    0.000    0.000    0.000    0.000    0.000    0.000 
#
# Total GULP energy -693966.301738 kJ/mol
# GULP energy per Si atom -12392.255388 kJ/mol
# Density = 1.888950 g / cm^3
# Si number density = 18.932592 Si / 1000 Ang^3
#
#
#
# Elastic Constant Matrix: (Units=GPa)
#
#
# Indices 1 2 3 4 5 6 
#
# 1 85.6778 33.6744 49.3137 0.0000 0.0000 0.0000
# 2 33.6744 184.0723 45.9078 0.0000 0.0000 0.0000
# 3 49.3137 45.9078 125.9657 0.0000 0.0000 0.0000
# 4 0.0000 0.0000 0.0000 21.2630 0.0000 0.0000
# 5 0.0000 0.0000 0.0000 0.0000 18.2151 0.0000
# 6 0.0000 0.0000 0.0000 0.0000 0.0000 24.1805
#
#
#
# Elastic Compliance Matrix: (Units=1/GPa)
#
#
# Indices 1 2 3 4 5 6 
#
# 1 0.015409 -0.001446 -0.005505 0.000000 0.000000 0.000000
# 2 -0.001446 0.006111 -0.001661 0.000000 0.000000 0.000000
# 3 -0.005505 -0.001661 0.010699 0.000000 0.000000 0.000000
# 4 0.000000 0.000000 0.000000 0.047030 0.000000 0.000000
# 5 0.000000 0.000000 0.000000 0.000000 0.054900 0.000000
# 6 0.000000 0.000000 0.000000 0.000000 0.000000 0.041356
#
#
# Mechanical properties :
#
#
# Convention : Reuss Voigt Hill
#
# Bulk Modulus (GPa) = 66.69077 72.61196 69.65137
# Shear Modulus (GPa) = 25.28731 30.51972 27.90352
#
# Velocity S-wave (km/s) = 3.65862 4.01935 3.84322
# Velocity P-wave (km/s) = 7.29035 7.74444 7.52082
#
# Compressibility (1/GPa) = 0.01499458
#
# Stress axis : x y z
#
# Youngs Moduli (GPa) = 64.89881 163.62660 93.46347
#
# Poissons Ratio (x) = 0.23658 0.51455
# Poissons Ratio (y) = 0.09383 0.15527
# Poissons Ratio (z) = 0.35729 0.27183
#
# Static dielectric constant tensor:
#      x y z
#    x 3.404930 0.000000 0.000000 
#    y 0.000000 4.297260 0.000000 
#    z 0.000000 0.000000 3.088830 
# 
# 
# High freq. dielectric constant tensor:
#      x y z
#    x 1.723370 0.000000 0.000000 
#    y 0.000000 1.778900 0.000000 
#    z 0.000000 0.000000 1.684040 
# 
# From -- ./inp_files/24565.got.cif
#   From: 2010.03.12/outbox.cif.g09.slc.cpg/sg60_13_cif.got.tgz:24565.got - 2010.04.10 18:46:24.
