data_PCOD8246844
_publ_section_title
;
Structure prediction by ZEFSAII (Michael W. Deem and Ramdas Pophale) SiO2 
 PCOD8246844
Probable space group: P B C N
;
_chemical_formula_sum "Si O2"
_cell_formula_units_Z 40
_cell_length_a 19.417414
_cell_length_b 12.089752
_cell_length_c 9.278897
_cell_angle_alpha 90.000000
_cell_angle_beta 90.000000
_cell_angle_gamma 90.000000
_cell_volume 2178.237028
_symmetry_space_group_name_H-M "P B C N"
_symmetry_group_IT_number 60
_symmetry_cell_setting 'orthorhombic'
loop_
_space_group_symop_operation_xyz
x,y,z
1/2-x,1/2-y,1/2+z
1/2+x,1/2-y,-z
-x,y,1/2-z
-x,-y,-z
1/2+x,1/2+y,1/2-z
1/2-x,1/2+y,z
x,-y,1/2+z
loop_
_atom_site_type_symbol
_atom_site_label
_atom_site_fract_x
_atom_site_fract_y
_atom_site_fract_z
Si Si1 0.192722 0.590195 0.301854
Si Si2 0.841325 0.201721 0.523130
Si Si3 0.153416 0.166142 0.303481
Si Si4 0.811741 0.374002 0.029989
Si Si5 0.950043 0.027018 0.627250
O O1 0.153756 0.682990 0.393771
O O2 0.274906 0.600705 0.320187
O O3 0.166817 0.474069 0.365564
O O4 0.170231 0.598885 0.135315
O O5 0.851788 0.222056 0.353465
O O6 0.768981 0.143739 0.552788
O O7 0.899080 0.123816 0.586793
O O8 0.147730 0.263349 0.422174
O O9 0.090989 0.082282 0.325017
O O10 0.000000 0.071911 0.750000
O O11 0.000000 0.000000 0.500000
#
# Coordination Sequence:
#
# PCOD8246844 Si02
#       5
#     8   8   8   8   8
#     4  10  20  34  59  85 116 149 186 247 291 340
#     4  10  21  37  55  84 117 151 195 234 290 340
#     4  10  21  37  55  84 117 151 195 235 290 338
#     4  10  20  34  59  85 116 149 186 246 291 340
#     4  12  24  38  60  84 118 160 192 235 279 346
#
# _framework density 18.363474
#
# number of rings (size 3 to 8) (size 9 to 14) (size 15 to 20)
#    0.000    1.600    4.000    1.200    2.800    1.600 
#    0.000    0.000    0.000    2.400    0.000    0.000 
#    0.000    0.000    0.000    0.000    0.000    0.000 
#
# Total GULP energy -496062.779877 kJ/mol
# GULP energy per Si atom -12401.569497 kJ/mol
# Density = 1.832168 g / cm^3
# Si number density = 18.363474 Si / 1000 Ang^3
#
#
#
# Elastic Constant Matrix: (Units=GPa)
#
#
# Indices 1 2 3 4 5 6 
#
# 1 61.3332 20.0611 15.6299 0.0000 0.0000 0.0000
# 2 20.0611 81.2564 32.3291 0.0000 0.0000 0.0000
# 3 15.6299 32.3291 101.5196 0.0000 0.0000 0.0000
# 4 0.0000 0.0000 0.0000 40.9610 0.0000 0.0000
# 5 0.0000 0.0000 0.0000 0.0000 26.7285 0.0000
# 6 0.0000 0.0000 0.0000 0.0000 0.0000 28.9883
#
#
#
# Elastic Compliance Matrix: (Units=1/GPa)
#
#
# Indices 1 2 3 4 5 6 
#
# 1 0.017947 -0.003815 -0.001548 0.000000 0.000000 0.000000
# 2 -0.003815 0.014903 -0.004159 0.000000 0.000000 0.000000
# 3 -0.001548 -0.004159 0.011413 0.000000 0.000000 0.000000
# 4 0.000000 0.000000 0.000000 0.024413 0.000000 0.000000
# 5 0.000000 0.000000 0.000000 0.000000 0.037413 0.000000
# 6 0.000000 0.000000 0.000000 0.000000 0.000000 0.034497
#
#
# Mechanical properties :
#
#
# Convention : Reuss Voigt Hill
#
# Bulk Modulus (GPa) = 39.65182 42.23882 40.94532
# Shear Modulus (GPa) = 29.75553 31.07483 30.41518
#
# Velocity S-wave (km/s) = 4.02974 4.11811 4.07417
# Velocity P-wave (km/s) = 6.57962 6.75746 6.66913
#
# Compressibility (1/GPa) = 0.02521953
#
# Stress axis : x y z
#
# Youngs Moduli (GPa) = 55.72055 67.10010 87.61942
#
# Poissons Ratio (x) = 0.25597 0.13566
# Poissons Ratio (y) = 0.21256 0.36437
# Poissons Ratio (z) = 0.08627 0.27904
#
# Static dielectric constant tensor:
#      x y z
#    x 3.104020 0.000000 0.000000 
#    y 0.000000 3.340600 0.000000 
#    z 0.000000 0.000000 3.607250 
# 
# 
# High freq. dielectric constant tensor:
#      x y z
#    x 1.680450 0.000000 0.000000 
#    y 0.000000 1.715060 0.000000 
#    z 0.000000 0.000000 1.732900 
# 
# From -- ./inp_files/6498.got.cif
#   From: 2010.03.12/outbox.cif.g09.slc.cpg/sg60_4_cif.got.tgz:6498.got - 2010.04.10 18:46:24.
