data_PCOD8246141
_publ_section_title
;
Structure prediction by ZEFSAII (Michael W. Deem and Ramdas Pophale) SiO2 
 PCOD8246141
Probable space group: P M M N
;
_chemical_formula_sum "Si O2"
_cell_formula_units_Z 56
_cell_length_a 9.897221
_cell_length_b 19.710803
_cell_length_c 17.733461
_cell_angle_alpha 90.000000
_cell_angle_beta 90.000000
_cell_angle_gamma 90.000000
_cell_volume 3459.482113
_symmetry_space_group_name_H-M "P M M N"
_symmetry_group_IT_number 59
_space_group.IT_coordinate_system_code '2'
_symmetry_cell_setting 'orthorhombic'
loop_
_space_group_symop_operation_xyz
x,y,z
1/2-x,1/2-y,z
1/2+x,-y,-z
-x,1/2+y,-z
-x,-y,-z
1/2+x,1/2+y,-z
1/2-x,y,z
x,1/2-y,z
loop_
_atom_site_type_symbol
_atom_site_label
_atom_site_fract_x
_atom_site_fract_y
_atom_site_fract_z
Si Si1 0.901407 0.669230 0.004025
Si Si2 0.904287 0.436824 0.416529
Si Si3 0.900204 0.169301 0.869910
Si Si4 0.092860 0.939311 0.410166
Si Si5 0.410499 0.825114 0.296652
Si Si6 0.904966 0.172070 0.293323
Si Si7 0.598675 0.830594 0.836673
O O1 0.750000 0.644311 0.022592
O O2 0.907138 0.750000 0.006812
O O3 0.943725 0.643838 0.920277
O O4 0.002062 0.637737 0.066310
O O5 0.750000 0.461622 0.404892
O O6 0.930823 0.418025 0.503422
O O7 0.935027 0.369404 0.369120
O O8 0.005128 0.495205 0.388853
O O9 0.750000 0.139415 0.883109
O O10 0.894891 0.250000 0.875844
O O11 0.955640 0.149642 0.786704
O O12 0.250000 0.955417 0.393818
O O13 0.037587 0.877591 0.359316
O O14 0.250000 0.820473 0.297893
O O15 0.470350 0.750000 0.314109
O O16 0.750000 0.165102 0.267874
O O17 0.942571 0.250000 0.310793
O O18 0.994765 0.141192 0.225468
O O19 0.750000 0.856060 0.817186
O O20 0.594674 0.750000 0.836218
#
# Coordination Sequence:
#
# PCOD8246141 Si02
#       7
#     8   8   8   8   8   8   8
#     4   8  13  21  33  51  78 110 139 165 197 241
#     4   9  18  31  45  63  87 111 138 176 214 247
#     4   8  13  21  34  54  80 107 134 166 203 240
#     4   9  17  30  48  65  82 111 146 173 204 251
#     4   8  14  25  42  65  89 110 138 177 212 243
#     4   9  17  28  42  62  87 112 139 173 213 253
#     4   8  14  24  37  55  81 111 140 170 204 243
#
# _framework density 16.187394000000001
#
# number of rings (size 3 to 8) (size 9 to 14) (size 15 to 20)
#    0.000    3.571    0.000    1.714    0.000    1.714 
#    0.000    6.429    0.000    1.286    0.000    5.000 
#    0.000    0.000    0.000    0.000    0.000    0.000 
#
# Total GULP energy -694029.702305 kJ/mol
# GULP energy per Si atom -12393.387541 kJ/mol
# Density = 1.615055 g / cm^3
# Si number density = 16.187394 Si / 1000 Ang^3
#
#
#
# Elastic Constant Matrix: (Units=GPa)
#
#
# Indices 1 2 3 4 5 6 
#
# 1 72.7093 37.4312 64.5617 0.0000 0.0000 0.0000
# 2 37.4312 53.1605 53.2779 0.0000 0.0000 0.0000
# 3 64.5617 53.2779 123.0602 0.0000 0.0000 0.0000
# 4 0.0000 0.0000 0.0000 4.7408 0.0000 0.0000
# 5 0.0000 0.0000 0.0000 0.0000 24.6603 0.0000
# 6 0.0000 0.0000 0.0000 0.0000 0.0000 16.0208
#
#
#
# Elastic Compliance Matrix: (Units=1/GPa)
#
#
# Indices 1 2 3 4 5 6 
#
# 1 0.027893 -0.008786 -0.010829 0.000000 0.000000 0.000000
# 2 -0.008786 0.035997 -0.010975 0.000000 0.000000 0.000000
# 3 -0.010829 -0.010975 0.018559 0.000000 0.000000 0.000000
# 4 0.000000 0.000000 0.000000 0.210937 0.000000 0.000000
# 5 0.000000 0.000000 0.000000 0.000000 0.040551 0.000000
# 6 0.000000 0.000000 0.000000 0.000000 0.000000 0.062419
#
#
# Mechanical properties :
#
#
# Convention : Reuss Voigt Hill
#
# Bulk Modulus (GPa) = 47.02096 62.16351 54.59224
# Shear Modulus (GPa) = 10.76136 15.32830 13.04483
#
# Velocity S-wave (km/s) = 2.58117 3.08056 2.84185
# Velocity P-wave (km/s) = 6.16394 7.15115 6.67582
#
# Compressibility (1/GPa) = 0.02126711
#
# Stress axis : x y z
#
# Youngs Moduli (GPa) = 35.85187 27.78042 53.88183
#
# Poissons Ratio (x) = 0.24408 0.58351
# Poissons Ratio (y) = 0.31500 0.59135
# Poissons Ratio (z) = 0.38826 0.30489
#
# Static dielectric constant tensor:
#      x y z
#    x 3.142240 0.000000 0.000000 
#    y 0.000000 2.719890 0.000000 
#    z 0.000000 0.000000 3.361090 
# 
# 
# High freq. dielectric constant tensor:
#      x y z
#    x 1.611220 0.000000 0.000000 
#    y 0.000000 1.570190 0.000000 
#    z 0.000000 0.000000 1.632210 
# 
# From -- ./inp_files/25992.got.cif
#   From: 2010.03.12/outbox.cif.g09.slc.cpg/sg59_13_cif.got.tgz:25992.got - 2010.04.16 16:29:54.
