data_PCOD8246939
_publ_section_title
;
Structure prediction by ZEFSAII (Michael W. Deem and Ramdas Pophale) SiO2 
 PCOD8246939
Probable space group: P B C N
;
_chemical_formula_sum "Si O2"
_cell_formula_units_Z 48
_cell_length_a 9.062920
_cell_length_b 22.699351
_cell_length_c 11.665772
_cell_angle_alpha 90.000000
_cell_angle_beta 90.000000
_cell_angle_gamma 90.000000
_cell_volume 2399.910639
_symmetry_space_group_name_H-M "P B C N"
_symmetry_group_IT_number 60
_symmetry_cell_setting 'orthorhombic'
loop_
_space_group_symop_operation_xyz
x,y,z
1/2-x,1/2-y,1/2+z
1/2+x,1/2-y,-z
-x,y,1/2-z
-x,-y,-z
1/2+x,1/2+y,1/2-z
1/2-x,1/2+y,z
x,-y,1/2+z
loop_
_atom_site_type_symbol
_atom_site_label
_atom_site_fract_x
_atom_site_fract_y
_atom_site_fract_z
Si Si1 0.630026 0.437179 0.824880
Si Si2 0.500000 0.673031 0.250000
Si Si3 0.765241 0.052847 0.787436
Si Si4 0.543702 0.409983 0.079691
Si Si5 0.544699 0.273596 0.118794
Si Si6 0.115731 0.267891 0.412190
Si Si7 0.000000 0.367809 0.250000
O O1 0.500000 0.468765 0.750000
O O2 0.642409 0.369705 0.777197
O O3 0.767514 0.481648 0.799293
O O4 0.587001 0.435303 0.957230
O O5 0.528319 0.712998 0.140862
O O6 0.824157 0.072189 0.663785
O O7 0.618743 0.090318 0.812396
O O8 0.885314 0.064457 0.886094
O O9 0.523544 0.340146 0.079237
O O10 0.500000 0.264875 0.250000
O O11 0.712293 0.254402 0.097718
O O12 0.437752 0.230843 0.044194
O O13 0.075452 0.328403 0.348203
#
# Coordination Sequence:
#
# PCOD8246939 Si02
#       7
#     8   4   8   8   8   8   4
#     4  10  20  36  64  91 117 158 220 266 304 372
#     4   9  20  38  62  92 124 169 212 266 322 377
#     4  11  22  38  65  91 120 169 214 264 312 382
#     4  11  19  38  63  90 119 162 224 260 305 383
#     4  12  24  40  66  97 131 173 216 264 330 394
#     4  11  25  40  66  95 136 167 215 266 329 390
#     4  11  24  44  62  94 136 171 204 272 336 383
#
# _framework density 20.000744000000001
#
# number of rings (size 3 to 8) (size 9 to 14) (size 15 to 20)
#    0.500    0.667    6.667    0.500    7.000    0.000 
#    0.000    0.833    5.500    0.000    0.000    0.000 
#    0.000    0.000    0.000    0.000    0.000    0.000 
#
# Total GULP energy -594787.680356 kJ/mol
# GULP energy per Si atom -12391.410007 kJ/mol
# Density = 1.995522 g / cm^3
# Si number density = 20.000744 Si / 1000 Ang^3
#
#
#
# Elastic Constant Matrix: (Units=GPa)
#
#
# Indices 1 2 3 4 5 6 
#
# 1 93.3571 30.0942 34.7682 0.0000 0.0000 0.0000
# 2 30.0942 108.3383 26.1730 0.0000 0.0000 0.0000
# 3 34.7682 26.1730 132.1972 0.0000 0.0000 0.0000
# 4 0.0000 0.0000 0.0000 -1.7768 0.0000 0.0000
# 5 0.0000 0.0000 0.0000 0.0000 19.4459 0.0000
# 6 0.0000 0.0000 0.0000 0.0000 0.0000 359.0396
#
#
#
# Elastic Compliance Matrix: (Units=1/GPa)
#
#
# Indices 1 2 3 4 5 6 
#
# 1 0.012660 -0.002848 -0.002766 0.000000 0.000000 0.000000
# 2 -0.002848 0.010335 -0.001297 0.000000 0.000000 0.000000
# 3 -0.002766 -0.001297 0.008549 0.000000 0.000000 0.000000
# 4 0.000000 0.000000 0.000000 -0.562798 0.000000 0.000000
# 5 0.000000 0.000000 0.000000 0.000000 0.051425 0.000000
# 6 0.000000 0.000000 0.000000 0.000000 0.000000 0.002785
#
#
# Mechanical properties :
#
#
# Convention : Reuss Voigt Hill
#
# Bulk Modulus (GPa) = 56.42981 57.32926 56.87953
# Shear Modulus (GPa) = -10.93336 91.53221 40.29943
#
# Velocity S-wave (km/s) = -2.34059 6.77228 4.49363
# Velocity P-wave (km/s) = 4.57937 9.48037 7.44473
#
# Compressibility (1/GPa) = 0.01772113
#
# Stress axis : x y z
#
# Youngs Moduli (GPa) = 78.99043 96.75919 116.97818
#
# Poissons Ratio (x) = 0.27562 0.32351
# Poissons Ratio (y) = 0.22500 0.15172
# Poissons Ratio (z) = 0.21846 0.12550
#
# Static dielectric constant tensor:
#      x y z
#    x 3.372590 0.000000 0.000000 
#    y 0.000000 3.880320 0.000000 
#    z 0.000000 0.000000 3.601890 
# 
# 
# High freq. dielectric constant tensor:
#      x y z
#    x 1.739960 0.000000 0.000000 
#    y 0.000000 1.796920 0.000000 
#    z 0.000000 0.000000 1.788000 
# 
# From -- ./inp_files/10162.got.cif
#   From: 2010.03.12/outbox.cif.g09.slc.cpg/sg60_6_cif.got.tgz:10162.got - 2010.04.10 18:46:24.
