data_PCOD8246877
_publ_section_title
;
Structure prediction by ZEFSAII (Michael W. Deem and Ramdas Pophale) SiO2 
 PCOD8246877
Probable space group: P B C N
;
_chemical_formula_sum "Si O2"
_cell_formula_units_Z 56
_cell_length_a 32.913353
_cell_length_b 16.814810
_cell_length_c 4.951103
_cell_angle_alpha 90.000000
_cell_angle_beta 90.000000
_cell_angle_gamma 90.000000
_cell_volume 2740.097732
_symmetry_space_group_name_H-M "P B C N"
_symmetry_group_IT_number 60
_symmetry_cell_setting 'orthorhombic'
loop_
_space_group_symop_operation_xyz
x,y,z
1/2-x,1/2-y,1/2+z
1/2+x,1/2-y,-z
-x,y,1/2-z
-x,-y,-z
1/2+x,1/2+y,1/2-z
1/2-x,1/2+y,z
x,-y,1/2+z
loop_
_atom_site_type_symbol
_atom_site_label
_atom_site_fract_x
_atom_site_fract_y
_atom_site_fract_z
Si Si1 0.899061 0.274661 0.797076
Si Si2 0.859487 0.799403 0.780885
Si Si3 0.874569 0.447132 0.775422
Si Si4 0.281050 0.051366 0.215430
Si Si5 0.092330 0.053698 0.391735
Si Si6 0.265563 0.293184 0.676831
Si Si7 0.526721 0.322254 0.504080
O O1 0.887811 0.223716 0.533222
O O2 0.901185 0.368076 0.727476
O O3 0.865896 0.262291 0.034739
O O4 0.942628 0.246186 0.905402
O O5 0.870588 0.887043 0.672188
O O6 0.813315 0.798531 0.876158
O O7 0.885516 0.515159 0.561947
O O8 0.827590 0.421085 0.748909
O O9 0.251807 0.124047 0.288027
O O10 0.271731 0.978447 0.414953
O O11 0.050128 0.101658 0.372357
O O12 0.095186 0.021597 0.695896
O O13 0.243697 0.274683 0.394910
O O14 0.500000 0.287025 0.750000
O O15 0.500000 0.349947 0.250000
#
# Coordination Sequence:
#
# PCOD8246877 Si02
#       7
#     8   8   8   8   8   8   8
#     4  11  22  41  63  86 118 152 195 241 290 360
#     4  11  23  39  60  84 117 163 202 242 294 348
#     4  10  20  35  59  86 112 146 190 238 288 341
#     4  10  21  36  54  81 114 148 190 242 293 338
#     4  11  23  39  60  89 122 157 202 246 288 350
#     4  12  24  38  59  86 117 157 206 251 295 343
#     4  11  23  40  63  91 120 155 195 239 298 354
#
# _framework density 20.437228000000001
#
# number of rings (size 3 to 8) (size 9 to 14) (size 15 to 20)
#    0.000    1.143    0.000    8.571    0.000    5.143 
#    0.000    0.000    0.000    2.571    0.000    0.000 
#    0.000    0.000    0.000    0.000    0.000    0.000 
#
# Total GULP energy -694724.263733 kJ/mol
# GULP energy per Si atom -12405.790424 kJ/mol
# Density = 2.039071 g / cm^3
# Si number density = 20.437228 Si / 1000 Ang^3
#
#
#
# Elastic Constant Matrix: (Units=GPa)
#
#
# Indices 1 2 3 4 5 6 
#
# 1 93.6768 42.6530 28.0403 0.0000 0.0000 0.0000
# 2 42.6530 103.8734 18.8880 0.0000 0.0000 0.0000
# 3 28.0403 18.8880 100.3474 0.0000 0.0000 0.0000
# 4 0.0000 0.0000 0.0000 29.2459 0.0000 0.0000
# 5 0.0000 0.0000 0.0000 0.0000 26.6248 0.0000
# 6 0.0000 0.0000 0.0000 0.0000 0.0000 19.2855
#
#
#
# Elastic Compliance Matrix: (Units=1/GPa)
#
#
# Indices 1 2 3 4 5 6 
#
# 1 0.013905 -0.005181 -0.002910 0.000000 0.000000 0.000000
# 2 -0.005181 0.011898 -0.000792 0.000000 0.000000 0.000000
# 3 -0.002910 -0.000792 0.010928 0.000000 0.000000 0.000000
# 4 0.000000 0.000000 0.000000 0.034193 0.000000 0.000000
# 5 0.000000 0.000000 0.000000 0.000000 0.037559 0.000000
# 6 0.000000 0.000000 0.000000 0.000000 0.000000 0.051852
#
#
# Mechanical properties :
#
#
# Convention : Reuss Voigt Hill
#
# Bulk Modulus (GPa) = 52.72794 53.00669 52.86731
# Shear Modulus (GPa) = 27.11164 28.91901 28.01532
#
# Velocity S-wave (km/s) = 3.64618 3.76575 3.70645
# Velocity P-wave (km/s) = 6.60167 6.70078 6.65141
#
# Compressibility (1/GPa) = 0.01896528
#
# Stress axis : x y z
#
# Youngs Moduli (GPa) = 71.91683 84.04525 91.51050
#
# Poissons Ratio (x) = 0.43540 0.26633
# Poissons Ratio (y) = 0.37257 0.07247
# Poissons Ratio (z) = 0.20931 0.06656
#
# Static dielectric constant tensor:
#      x y z
#    x 3.541840 0.000000 0.000000 
#    y 0.000000 3.530930 0.000000 
#    z 0.000000 0.000000 3.851770 
# 
# 
# High freq. dielectric constant tensor:
#      x y z
#    x 1.780220 0.000000 0.000000 
#    y 0.000000 1.795850 0.000000 
#    z 0.000000 0.000000 1.820870 
# 
# From -- ./inp_files/2691.got.cif
#   From: 2010.03.12/outbox.cif.g09.slc.cpg/sg60_2_cif.got.tgz:2691.got - 2010.04.10 18:46:24.
