data_PCOD8246901
_publ_section_title
;
Structure prediction by ZEFSAII (Michael W. Deem and Ramdas Pophale) SiO2 
 PCOD8246901
Probable space group: P B C N
;
_chemical_formula_sum "Si O2"
_cell_formula_units_Z 40
_cell_length_a 8.504669
_cell_length_b 22.473240
_cell_length_c 10.130944
_cell_angle_alpha 90.000000
_cell_angle_beta 90.000000
_cell_angle_gamma 90.000000
_cell_volume 1936.301671
_symmetry_space_group_name_H-M "P B C N"
_symmetry_group_IT_number 60
_symmetry_cell_setting 'orthorhombic'
loop_
_space_group_symop_operation_xyz
x,y,z
1/2-x,1/2-y,1/2+z
1/2+x,1/2-y,-z
-x,y,1/2-z
-x,-y,-z
1/2+x,1/2+y,1/2-z
1/2-x,1/2+y,z
x,-y,1/2+z
loop_
_atom_site_type_symbol
_atom_site_label
_atom_site_fract_x
_atom_site_fract_y
_atom_site_fract_z
Si Si1 0.829330 0.328002 0.498835
Si Si2 0.174775 0.156416 0.225980
Si Si3 0.092330 0.741797 0.114090
Si Si4 0.173319 0.023069 0.259046
Si Si5 0.847867 0.538031 0.968637
O O1 0.784524 0.336997 0.648899
O O2 0.676211 0.304260 0.420871
O O3 0.885733 0.392173 0.446096
O O4 0.974260 0.280821 0.498596
O O5 0.266088 0.193533 0.114962
O O6 0.167259 0.087277 0.186609
O O7 0.000000 0.182213 0.250000
O O8 0.000000 0.752043 0.250000
O O9 0.224904 0.027924 0.411913
O O10 0.000000 0.994645 0.250000
O O11 0.286823 0.982148 0.173772
O O12 0.000000 0.500000 0.000000
#
# Coordination Sequence:
#
# PCOD8246901 Si02
#       5
#     8   8   8   8   8
#     4  10  21  36  57  82 114 149 188 235 285 338
#     4   9  18  35  58  80 108 149 191 233 286 343
#     4  10  20  36  56  82 112 147 188 234 285 342
#     4  10  21  38  60  85 116 154 194 237 287 344
#     4  11  22  39  60  87 118 153 194 239 288 343
#
# _framework density 20.657938999999999
#
# number of rings (size 3 to 8) (size 9 to 14) (size 15 to 20)
#    0.000    2.000    0.000    3.600    0.000    4.000 
#    0.000   16.000    0.000    0.000    0.000    0.000 
#    0.000    0.000    0.000    0.000    0.000    0.000 
#
# Total GULP energy -495841.176207 kJ/mol
# GULP energy per Si atom -12396.029405 kJ/mol
# Density = 2.061092 g / cm^3
# Si number density = 20.657939 Si / 1000 Ang^3
#
#
#
# Elastic Constant Matrix: (Units=GPa)
#
#
# Indices 1 2 3 4 5 6 
#
# 1 118.6782 50.3386 10.1374 0.0000 0.0000 0.0000
# 2 50.3386 118.7266 23.6129 0.0000 0.0000 0.0000
# 3 10.1374 23.6129 50.0635 0.0000 0.0000 0.0000
# 4 0.0000 0.0000 0.0000 10.4158 0.0000 0.0000
# 5 0.0000 0.0000 0.0000 0.0000 34.9780 0.0000
# 6 0.0000 0.0000 0.0000 0.0000 0.0000 40.6687
#
#
#
# Elastic Compliance Matrix: (Units=1/GPa)
#
#
# Indices 1 2 3 4 5 6 
#
# 1 0.010274 -0.004350 -0.000028 0.000000 0.000000 0.000000
# 2 -0.004350 0.011137 -0.004372 0.000000 0.000000 0.000000
# 3 -0.000028 -0.004372 0.022042 0.000000 0.000000 0.000000
# 4 0.000000 0.000000 0.000000 0.096008 0.000000 0.000000
# 5 0.000000 0.000000 0.000000 0.000000 0.028589 0.000000
# 6 0.000000 0.000000 0.000000 0.000000 0.000000 0.024589
#
#
# Mechanical properties :
#
#
# Convention : Reuss Voigt Hill
#
# Bulk Modulus (GPa) = 38.53315 50.62735 44.58025
# Shear Modulus (GPa) = 22.85290 30.77114 26.81202
#
# Velocity S-wave (km/s) = 3.32965 3.86366 3.60655
# Velocity P-wave (km/s) = 5.78580 6.66817 6.24260
#
# Compressibility (1/GPa) = 0.02595168
#
# Stress axis : x y z
#
# Youngs Moduli (GPa) = 97.33482 89.79337 45.36705
#
# Poissons Ratio (x) = 0.39063 0.00129
# Poissons Ratio (y) = 0.42344 0.19834
# Poissons Ratio (z) = 0.00277 0.39256
#
# Static dielectric constant tensor:
#      x y z
#    x 4.115420 0.000000 0.000000 
#    y 0.000000 3.894770 0.000000 
#    z 0.000000 0.000000 3.663160 
# 
# 
# High freq. dielectric constant tensor:
#      x y z
#    x 1.824040 0.000000 0.000000 
#    y 0.000000 1.805050 0.000000 
#    z 0.000000 0.000000 1.784080 
# 
# From -- ./inp_files/3785.got.cif
#   From: 2010.03.12/outbox.cif.g09.slc.cpg/sg60_2_cif.got.tgz:3785.got - 2010.04.10 18:46:24.
