data_PCOD8246813
_publ_section_title
;
Structure prediction by ZEFSAII (Michael W. Deem and Ramdas Pophale) SiO2 
 PCOD8246813
Probable space group: P B C N
;
_chemical_formula_sum "Si O2"
_cell_formula_units_Z 52
_cell_length_a 7.490338
_cell_length_b 23.254970
_cell_length_c 14.725231
_cell_angle_alpha 90.000000
_cell_angle_beta 90.000000
_cell_angle_gamma 90.000000
_cell_volume 2564.952434
_symmetry_space_group_name_H-M "P B C N"
_symmetry_group_IT_number 60
_symmetry_cell_setting 'orthorhombic'
loop_
_space_group_symop_operation_xyz
x,y,z
1/2-x,1/2-y,1/2+z
1/2+x,1/2-y,-z
-x,y,1/2-z
-x,-y,-z
1/2+x,1/2+y,1/2-z
1/2-x,1/2+y,z
x,-y,1/2+z
loop_
_atom_site_type_symbol
_atom_site_label
_atom_site_fract_x
_atom_site_fract_y
_atom_site_fract_z
Si Si1 0.500000 0.705161 0.250000
Si Si2 0.743813 0.889023 0.328738
Si Si3 0.839730 0.763559 0.320059
Si Si4 0.422787 0.331514 0.939985
Si Si5 0.772078 0.722678 0.506444
Si Si6 0.848925 0.616957 0.621832
Si Si7 0.992341 0.061222 0.546279
O O1 0.663816 0.748132 0.263895
O O2 0.529032 0.662324 0.165740
O O3 0.815516 0.827242 0.363648
O O4 0.741078 0.882622 0.220468
O O5 0.550633 0.907185 0.369950
O O6 0.890012 0.936596 0.360847
O O7 0.863398 0.720810 0.406020
O O8 0.000000 0.758775 0.250000
O O9 0.570077 0.297357 0.998342
O O10 0.257411 0.287400 0.951719
O O11 0.401808 0.395378 0.978716
O O12 0.869861 0.680258 0.577780
O O13 0.716652 0.577798 0.560168
O O14 0.000000 0.000000 0.500000
#
# Coordination Sequence:
#
# PCOD8246813 Si02
#       7
#     4   8   8   8   8   8   8
#     4  10  22  36  52  84 122 154 192 246 312 374
#     4  11  21  38  62  89 118 164 209 255 313 364
#     4  11  21  32  56  89 128 162 195 246 308 385
#     4  10  21  37  56  84 119 157 192 246 312 370
#     4  10  20  33  56  89 121 155 194 246 310 367
#     4  10  22  39  63  92 122 155 209 265 306 379
#     4  11  24  41  61  90 120 163 212 260 313 373
#
# _framework density 20.27328
#
# number of rings (size 3 to 8) (size 9 to 14) (size 15 to 20)
#    0.000    1.538    1.538    5.077    4.308    0.615 
#    2.769    0.000    0.000    0.000    0.000    0.000 
#    0.000    0.000    0.000    0.000    0.000    0.000 
#
# Total GULP energy -644519.344723 kJ/mol
# GULP energy per Si atom -12394.602783 kJ/mol
# Density = 2.022714 g / cm^3
# Si number density = 20.273280 Si / 1000 Ang^3
#
#
#
# Elastic Constant Matrix: (Units=GPa)
#
#
# Indices 1 2 3 4 5 6 
#
# 1 93.7329 34.3707 44.1888 0.0000 0.0000 0.0000
# 2 34.3707 119.5813 49.9422 0.0000 0.0000 0.0000
# 3 44.1888 49.9422 93.3332 0.0000 0.0000 0.0000
# 4 0.0000 0.0000 0.0000 27.8211 0.0000 0.0000
# 5 0.0000 0.0000 0.0000 0.0000 32.7815 0.0000
# 6 0.0000 0.0000 0.0000 0.0000 0.0000 20.7542
#
#
#
# Elastic Compliance Matrix: (Units=1/GPa)
#
#
# Indices 1 2 3 4 5 6 
#
# 1 0.013972 -0.001614 -0.005751 0.000000 0.000000 0.000000
# 2 -0.001614 0.010956 -0.005098 0.000000 0.000000 0.000000
# 3 -0.005751 -0.005098 0.016165 0.000000 0.000000 0.000000
# 4 0.000000 0.000000 0.000000 0.035944 0.000000 0.000000
# 5 0.000000 0.000000 0.000000 0.000000 0.030505 0.000000
# 6 0.000000 0.000000 0.000000 0.000000 0.000000 0.048183
#
#
# Mechanical properties :
#
#
# Convention : Reuss Voigt Hill
#
# Bulk Modulus (GPa) = 61.85891 62.62785 62.24338
# Shear Modulus (GPa) = 26.87590 28.14773 27.51182
#
# Velocity S-wave (km/s) = 3.64494 3.73019 3.68781
# Velocity P-wave (km/s) = 6.94931 7.03643 6.99300
#
# Compressibility (1/GPa) = 0.01616582
#
# Stress axis : x y z
#
# Youngs Moduli (GPa) = 71.57272 91.27756 61.86056
#
# Poissons Ratio (x) = 0.14730 0.35579
# Poissons Ratio (y) = 0.11550 0.31538
# Poissons Ratio (z) = 0.41165 0.46535
#
# Static dielectric constant tensor:
#      x y z
#    x 3.854830 0.000000 0.000000 
#    y 0.000000 3.314340 0.000000 
#    z 0.000000 0.000000 3.919840 
# 
# 
# High freq. dielectric constant tensor:
#      x y z
#    x 1.801560 0.000000 0.000000 
#    y 0.000000 1.733950 0.000000 
#    z 0.000000 0.000000 1.812790 
# 
# From -- ./inp_files/15208.got.cif
#   From: 2010.03.12/outbox.cif.g09.slc.cpg/sg60_8_cif.got.tgz:15208.got - 2010.04.10 18:46:24.
