data_PCOD8246367
_publ_section_title
;
Structure prediction by ZEFSAII (Michael W. Deem and Ramdas Pophale) SiO2 
 PCOD8246367
Probable space group: P B C N
;
_chemical_formula_sum "Si O2"
_cell_formula_units_Z 56
_cell_length_a 11.802740
_cell_length_b 21.972650
_cell_length_c 12.719051
_cell_angle_alpha 90.000000
_cell_angle_beta 90.000000
_cell_angle_gamma 90.000000
_cell_volume 3298.526572
_symmetry_space_group_name_H-M "P B C N"
_symmetry_group_IT_number 60
_symmetry_cell_setting 'orthorhombic'
loop_
_space_group_symop_operation_xyz
x,y,z
1/2-x,1/2-y,1/2+z
1/2+x,1/2-y,-z
-x,y,1/2-z
-x,-y,-z
1/2+x,1/2+y,1/2-z
1/2-x,1/2+y,z
x,-y,1/2+z
loop_
_atom_site_type_symbol
_atom_site_label
_atom_site_fract_x
_atom_site_fract_y
_atom_site_fract_z
Si Si1 0.108169 0.819725 0.360239
Si Si2 0.078665 0.265084 0.563753
Si Si3 0.442233 0.226135 0.640335
Si Si4 0.276550 0.664669 0.640985
Si Si5 0.942183 0.075796 0.917084
Si Si6 0.210516 0.164301 0.081082
Si Si7 0.951999 0.063550 0.363755
O O1 0.182237 0.814197 0.256232
O O2 0.194717 0.825951 0.456499
O O3 0.029329 0.758385 0.367324
O O4 0.029085 0.879910 0.355492
O O5 0.167013 0.209528 0.554955
O O6 0.155557 0.322368 0.607597
O O7 0.036695 0.280633 0.447988
O O8 0.500000 0.220855 0.750000
O O9 0.357897 0.168616 0.630195
O O10 0.372874 0.288988 0.639491
O O11 0.314514 0.596967 0.609628
O O12 0.944972 0.008728 0.870802
O O13 0.963569 0.082837 0.042057
O O14 0.170203 0.096708 0.117837
O O15 0.000000 0.082827 0.250000
#
# Coordination Sequence:
#
# PCOD8246367 Si02
#       7
#     8   8   8   8   8   8   8
#     4   9  16  29  46  65  89 116 150 188 223 264
#     4   9  17  29  42  64  93 118 146 181 223 268
#     4  10  19  30  46  67  91 119 152 186 222 267
#     4  10  18  30  48  67  88 118 153 189 225 262
#     4   9  18  30  47  70  92 116 149 189 227 263
#     4   9  18  28  43  67  94 119 145 181 226 273
#     4  10  18  30  47  69  96 120 145 183 229 271
#
# _framework density 16.977277999999998
#
# number of rings (size 3 to 8) (size 9 to 14) (size 15 to 20)
#    0.000    2.571    0.000    4.714    0.000    0.000 
#    0.000    4.286    0.000    0.857    0.000    4.000 
#    0.000    0.000    0.000    0.000    0.000    0.000 
#
# Total GULP energy -693768.601242 kJ/mol
# GULP energy per Si atom -12388.725022 kJ/mol
# Density = 1.693864 g / cm^3
# Si number density = 16.977278 Si / 1000 Ang^3
#
#
#
# Elastic Constant Matrix: (Units=GPa)
#
#
# Indices 1 2 3 4 5 6 
#
# 1 80.0814 36.1573 47.6741 0.0000 0.0000 0.0000
# 2 36.1573 64.9179 25.1885 0.0000 0.0000 0.0000
# 3 47.6741 25.1885 81.7508 0.0000 0.0000 0.0000
# 4 0.0000 0.0000 0.0000 15.2457 0.0000 0.0000
# 5 0.0000 0.0000 0.0000 0.0000 13.8947 0.0000
# 6 0.0000 0.0000 0.0000 0.0000 0.0000 17.7671
#
#
#
# Elastic Compliance Matrix: (Units=1/GPa)
#
#
# Indices 1 2 3 4 5 6 
#
# 1 0.022616 -0.008495 -0.010572 0.000000 0.000000 0.000000
# 2 -0.008495 0.020686 -0.001420 0.000000 0.000000 0.000000
# 3 -0.010572 -0.001420 0.018835 0.000000 0.000000 0.000000
# 4 0.000000 0.000000 0.000000 0.065592 0.000000 0.000000
# 5 0.000000 0.000000 0.000000 0.000000 0.071970 0.000000
# 6 0.000000 0.000000 0.000000 0.000000 0.000000 0.056284
#
#
# Mechanical properties :
#
#
# Convention : Reuss Voigt Hill
#
# Bulk Modulus (GPa) = 47.24826 49.42109 48.33467
# Shear Modulus (GPa) = 16.44681 17.23020 16.83851
#
# Velocity S-wave (km/s) = 3.11586 3.18920 3.15274
# Velocity P-wave (km/s) = 6.39026 6.53718 6.46414
#
# Compressibility (1/GPa) = 0.02116480
#
# Stress axis : x y z
#
# Youngs Moduli (GPa) = 44.21611 48.34126 53.09332
#
# Poissons Ratio (x) = 0.41064 0.56128
# Poissons Ratio (y) = 0.37560 0.07539
# Poissons Ratio (z) = 0.46744 0.06864
#
# Static dielectric constant tensor:
#      x y z
#    x 3.347410 0.000000 0.000000 
#    y 0.000000 3.177210 0.000000 
#    z 0.000000 0.000000 3.241270 
# 
# 
# High freq. dielectric constant tensor:
#      x y z
#    x 1.637490 0.000000 0.000000 
#    y 0.000000 1.628920 0.000000 
#    z 0.000000 0.000000 1.664010 
# 
# From -- ./inp_files/11327.got.cif
#   From: 2010.03.12/outbox.cif.g09.slc.cpg/sg60_6_cif.got.tgz:11327.got - 2010.04.10 18:46:24.
