data_PCOD8246100
_publ_section_title
;
Structure prediction by ZEFSAII (Michael W. Deem and Ramdas Pophale) SiO2 
 PCOD8246100
Probable space group: P M M N
;
_chemical_formula_sum "Si O2"
_cell_formula_units_Z 48
_cell_length_a 8.793905
_cell_length_b 31.589375
_cell_length_c 9.101460
_cell_angle_alpha 90.000000
_cell_angle_beta 90.000000
_cell_angle_gamma 90.000000
_cell_volume 2528.330640
_symmetry_space_group_name_H-M "P M M N"
_symmetry_group_IT_number 59
_space_group.IT_coordinate_system_code '2'
_symmetry_cell_setting 'orthorhombic'
loop_
_space_group_symop_operation_xyz
x,y,z
1/2-x,1/2-y,z
1/2+x,-y,-z
-x,1/2+y,-z
-x,-y,-z
1/2+x,1/2+y,-z
1/2-x,y,z
x,1/2-y,z
loop_
_atom_site_type_symbol
_atom_site_label
_atom_site_fract_x
_atom_site_fract_y
_atom_site_fract_z
Si Si1 0.568613 0.961454 0.411580
Si Si2 0.929517 0.461907 0.908795
Si Si3 0.073052 0.119759 0.415199
Si Si4 0.926718 0.204171 0.409169
Si Si5 0.924776 0.886453 0.927369
Si Si6 0.577226 0.704708 0.896950
O O1 0.750000 0.964501 0.411218
O O2 0.506662 0.962054 0.248344
O O3 0.507775 0.918992 0.490348
O O4 0.500000 0.000000 0.500000
O O5 0.750000 0.468388 0.893763
O O6 0.000000 0.500000 0.000000
O O7 0.963426 0.417490 0.987654
O O8 0.250000 0.122158 0.437691
O O9 0.030860 0.112952 0.244558
O O10 0.008193 0.163725 0.481624
O O11 0.750000 0.197793 0.433547
O O12 0.978465 0.250000 0.476712
O O13 0.960988 0.204903 0.236540
O O14 0.750000 0.900985 0.950647
O O15 0.950938 0.838293 0.990886
O O16 0.750000 0.701349 0.833708
O O17 0.558351 0.750000 0.984345
#
# Coordination Sequence:
#
# PCOD8246100 Si02
#       6
#     8   8   8   8   8   8
#     4  11  23  40  61  84 109 138 175 219 268 322
#     4  12  25  40  58  80 107 141 180 221 269 321
#     4   9  19  34  54  79 107 140 177 217 262 315
#     4   9  16  25  42  72 107 140 175 216 259 303
#     4   9  17  32  54  81 111 140 176 222 267 314
#     4   8  14  26  46  72 103 139 176 215 260 309
#
# _framework density 18.984859
#
# number of rings (size 3 to 8) (size 9 to 14) (size 15 to 20)
#    0.000    2.333    0.000    4.500    0.000    6.333 
#    0.000    0.000    0.000    1.000    0.000    2.333 
#    0.000    0.000    0.000    0.000    0.000    0.000 
#
# Total GULP energy -594749.093800 kJ/mol
# GULP energy per Si atom -12390.606121 kJ/mol
# Density = 1.894165 g / cm^3
# Si number density = 18.984859 Si / 1000 Ang^3
#
#
#
# Elastic Constant Matrix: (Units=GPa)
#
#
# Indices 1 2 3 4 5 6 
#
# 1 61.2113 51.6546 28.8627 0.0000 0.0000 0.0000
# 2 51.6546 208.5665 62.8870 0.0000 0.0000 0.0000
# 3 28.8627 62.8870 69.2196 0.0000 0.0000 0.0000
# 4 0.0000 0.0000 0.0000 22.5040 0.0000 0.0000
# 5 0.0000 0.0000 0.0000 0.0000 23.6840 0.0000
# 6 0.0000 0.0000 0.0000 0.0000 0.0000 34.9470
#
#
#
# Elastic Compliance Matrix: (Units=1/GPa)
#
#
# Indices 1 2 3 4 5 6 
#
# 1 0.022269 -0.003740 -0.005888 0.000000 0.000000 0.000000
# 2 -0.003740 0.007232 -0.005011 0.000000 0.000000 0.000000
# 3 -0.005888 -0.005011 0.021454 0.000000 0.000000 0.000000
# 4 0.000000 0.000000 0.000000 0.044437 0.000000 0.000000
# 5 0.000000 0.000000 0.000000 0.000000 0.042223 0.000000
# 6 0.000000 0.000000 0.000000 0.000000 0.000000 0.028615
#
#
# Mechanical properties :
#
#
# Convention : Reuss Voigt Hill
#
# Bulk Modulus (GPa) = 46.12955 69.53400 57.83178
# Shear Modulus (GPa) = 24.66313 29.26654 26.96484
#
# Velocity S-wave (km/s) = 3.60821 3.93055 3.77282
# Velocity P-wave (km/s) = 6.45830 7.56997 7.03613
#
# Compressibility (1/GPa) = 0.02167808
#
# Stress axis : x y z
#
# Youngs Moduli (GPa) = 44.90512 138.28001 46.61125
#
# Poissons Ratio (x) = 0.51717 0.27444
# Poissons Ratio (y) = 0.16795 0.23355
# Poissons Ratio (z) = 0.26439 0.69287
#
# Static dielectric constant tensor:
#      x y z
#    x 3.485840 0.000000 0.000000 
#    y 0.000000 4.251410 0.000000 
#    z 0.000000 0.000000 3.518580 
# 
# 
# High freq. dielectric constant tensor:
#      x y z
#    x 1.736700 0.000000 0.000000 
#    y 0.000000 1.774330 0.000000 
#    z 0.000000 0.000000 1.682280 
# 
# From -- ./inp_files/6313.got.cif
#   From: 2010.03.12/outbox.cif.g09.slc.cpg/sg59_4_cif.got.tgz:6313.got - 2010.04.16 16:29:54.
