data_PCOD8246024
_publ_section_title
;
Structure prediction by ZEFSAII (Michael W. Deem and Ramdas Pophale) SiO2 
 PCOD8246024
Probable space group: P M M N
;
_chemical_formula_sum "Si O2"
_cell_formula_units_Z 64
_cell_length_a 14.561997
_cell_length_b 8.982100
_cell_length_c 24.372430
_cell_angle_alpha 90.000000
_cell_angle_beta 90.000000
_cell_angle_gamma 90.000000
_cell_volume 3187.848361
_symmetry_space_group_name_H-M "P M M N"
_symmetry_group_IT_number 59
_space_group.IT_coordinate_system_code '2'
_symmetry_cell_setting 'orthorhombic'
loop_
_space_group_symop_operation_xyz
x,y,z
1/2-x,1/2-y,z
1/2+x,-y,-z
-x,1/2+y,-z
-x,-y,-z
1/2+x,1/2+y,-z
1/2-x,y,z
x,1/2-y,z
loop_
_atom_site_type_symbol
_atom_site_label
_atom_site_fract_x
_atom_site_fract_y
_atom_site_fract_z
Si Si1 0.851063 0.086404 0.609205
Si Si2 0.356056 0.423837 0.087811
Si Si3 0.975603 0.926312 0.133553
Si Si4 0.148828 0.916314 0.261565
Si Si5 0.648556 0.926783 0.035313
Si Si6 0.854477 0.427206 0.348901
Si Si7 0.990184 0.077000 0.441942
Si Si8 0.534886 0.074711 0.242122
O O1 0.750000 0.055981 0.584267
O O2 0.885786 0.250000 0.588791
O O3 0.845224 0.086846 0.673712
O O4 0.916605 0.954043 0.590569
O O5 0.250000 0.456848 0.101580
O O6 0.378186 0.250000 0.095246
O O7 0.418914 0.518532 0.129334
O O8 0.379411 0.478055 0.025854
O O9 0.971655 0.750000 0.137377
O O10 0.921871 0.989330 0.080406
O O11 0.926614 0.994728 0.187507
O O12 0.250000 0.962081 0.238538
O O13 0.121968 0.750000 0.240231
O O14 0.072907 0.035625 0.244547
O O15 0.750000 0.988350 0.049467
O O16 0.650593 0.750000 0.036561
O O17 0.750000 0.488642 0.348396
O O18 0.855264 0.250000 0.347733
O O19 0.905255 0.483360 0.404544
O O20 0.909314 0.486172 0.295187
O O21 0.977982 0.250000 0.452073
O O22 0.000000 0.000000 0.500000
O O23 0.547027 0.250000 0.236412
#
# Coordination Sequence:
#
# PCOD8246024 Si02
#       8
#     8   8   8   8   8   8   8   8
#     4   9  18  34  57  83 112 145 177 218 277 337
#     4   9  18  35  58  81 108 146 188 230 278 334
#     4  11  22  34  53  82 114 147 182 229 285 336
#     4   9  18  34  57  82 108 139 175 220 277 336
#     4   8  16  33  56  80 108 143 184 230 282 338
#     4   9  20  40  62  82 109 149 193 233 278 330
#     4  11  22  37  59  88 118 151 190 235 283 333
#     4  11  22  37  57  81 109 146 192 237 277 326
#
# _framework density 20.076238
#
# number of rings (size 3 to 8) (size 9 to 14) (size 15 to 20)
#    0.000    2.375    1.250    3.000    0.000    2.250 
#    0.000    3.125    0.000    7.875    0.000    0.000 
#    0.000    0.000    0.000    0.000    0.000    0.000 
#
# Total GULP energy -793298.339418 kJ/mol
# GULP energy per Si atom -12395.286553 kJ/mol
# Density = 2.003054 g / cm^3
# Si number density = 20.076238 Si / 1000 Ang^3
#
#
#
# Elastic Constant Matrix: (Units=GPa)
#
#
# Indices 1 2 3 4 5 6 
#
# 1 102.3700 24.9826 45.9809 0.0000 0.0000 0.0000
# 2 24.9826 54.1563 31.6632 0.0000 0.0000 0.0000
# 3 45.9809 31.6632 109.9365 0.0000 0.0000 0.0000
# 4 0.0000 0.0000 0.0000 30.8993 0.0000 0.0000
# 5 0.0000 0.0000 0.0000 0.0000 17.2055 0.0000
# 6 0.0000 0.0000 0.0000 0.0000 0.0000 25.6108
#
#
#
# Elastic Compliance Matrix: (Units=1/GPa)
#
#
# Indices 1 2 3 4 5 6 
#
# 1 0.012488 -0.003255 -0.004285 0.000000 0.000000 0.000000
# 2 -0.003255 0.023052 -0.005278 0.000000 0.000000 0.000000
# 3 -0.004285 -0.005278 0.012409 0.000000 0.000000 0.000000
# 4 0.000000 0.000000 0.000000 0.032363 0.000000 0.000000
# 5 0.000000 0.000000 0.000000 0.000000 0.058121 0.000000
# 6 0.000000 0.000000 0.000000 0.000000 0.000000 0.039046
#
#
# Mechanical properties :
#
#
# Convention : Reuss Voigt Hill
#
# Bulk Modulus (GPa) = 44.81933 52.41292 48.61613
# Shear Modulus (GPa) = 23.74695 25.66554 24.70624
#
# Velocity S-wave (km/s) = 3.44297 3.57936 3.51183
# Velocity P-wave (km/s) = 6.17887 6.57617 6.38061
#
# Compressibility (1/GPa) = 0.02231180
#
# Stress axis : x y z
#
# Youngs Moduli (GPa) = 80.07847 43.37925 80.58870
#
# Poissons Ratio (x) = 0.14120 0.34536
# Poissons Ratio (y) = 0.26066 0.42535
# Poissons Ratio (z) = 0.34318 0.22895
#
# Static dielectric constant tensor:
#      x y z
#    x -0.595610 0.000000 0.000000 
#    y 0.000000 3.026230 0.000000 
#    z 0.000000 0.000000 3.905630 
# 
# 
# High freq. dielectric constant tensor:
#      x y z
#    x 1.782920 0.000000 0.000000 
#    y 0.000000 1.753050 0.000000 
#    z 0.000000 0.000000 1.791100 
# 
# From -- ./inp_files/32119.got.cif
#   From: 2010.03.12/outbox.cif.g09.slc.cpg/sg59_17_cif.got.tgz:32119.got - 2010.04.16 16:29:54.
