data_PCOD8246886
_publ_section_title
;
Structure prediction by ZEFSAII (Michael W. Deem and Ramdas Pophale) SiO2 
 PCOD8246886
Probable space group: P B C N
;
_chemical_formula_sum "Si O2"
_cell_formula_units_Z 56
_cell_length_a 19.792244
_cell_length_b 12.941745
_cell_length_c 9.355770
_cell_angle_alpha 90.000000
_cell_angle_beta 90.000000
_cell_angle_gamma 90.000000
_cell_volume 2396.444698
_symmetry_space_group_name_H-M "P B C N"
_symmetry_group_IT_number 60
_symmetry_cell_setting 'orthorhombic'
loop_
_space_group_symop_operation_xyz
x,y,z
1/2-x,1/2-y,1/2+z
1/2+x,1/2-y,-z
-x,y,1/2-z
-x,-y,-z
1/2+x,1/2+y,1/2-z
1/2-x,1/2+y,z
x,-y,1/2+z
loop_
_atom_site_type_symbol
_atom_site_label
_atom_site_fract_x
_atom_site_fract_y
_atom_site_fract_z
Si Si1 0.724406 0.739687 0.019260
Si Si2 0.101108 0.026962 0.936015
Si Si3 0.815238 0.550733 0.394746
Si Si4 0.140502 0.626331 0.396942
Si Si5 0.187245 0.067570 0.682841
Si Si6 0.408568 0.309412 0.831143
Si Si7 0.962251 0.772667 0.974562
O O1 0.718945 0.861034 0.992149
O O2 0.703643 0.681731 0.873689
O O3 0.797459 0.704788 0.074523
O O4 0.670024 0.708754 0.140051
O O5 0.043158 0.113048 0.955323
O O6 0.131807 0.990191 0.085998
O O7 0.160919 0.079165 0.843500
O O8 0.071639 0.930028 0.847807
O O9 0.863868 0.593636 0.269587
O O10 0.854891 0.473136 0.499427
O O11 0.755704 0.496314 0.308231
O O12 0.069656 0.684731 0.425436
O O13 0.420001 0.271173 0.671829
O O14 0.458711 0.248685 0.941644
#
# Coordination Sequence:
#
# PCOD8246886 Si02
#       7
#     8   8   8   8   8   8   8
#     4  10  23  39  66  92 130 170 220 272 327 385
#     4  11  19  37  62  96 130 170 206 258 329 406
#     4  11  23  42  61  98 131 173 220 275 328 387
#     4  11  26  40  70  98 132 178 223 275 332 385
#     4  10  20  35  60  96 129 162 211 260 328 386
#     4  10  23  41  65  97 131 176 213 272 331 392
#     4  11  23  42  65  95 137 171 221 265 335 393
#
# _framework density 23.367948999999999
#
# number of rings (size 3 to 8) (size 9 to 14) (size 15 to 20)
#    0.000    1.429    1.429    4.714    4.000    1.143 
#    0.000    4.286    0.000    0.000    0.000    0.000 
#    0.000    0.000    0.000    0.000    0.000    0.000 
#
# Total GULP energy -694476.095993 kJ/mol
# GULP energy per Si atom -12401.358857 kJ/mol
# Density = 2.331476 g / cm^3
# Si number density = 23.367949 Si / 1000 Ang^3
#
#
#
# Elastic Constant Matrix: (Units=GPa)
#
#
# Indices 1 2 3 4 5 6 
#
# 1 32.5216 -3.1034 -9.1145 0.0000 0.0000 0.0000
# 2 -3.1034 83.8893 14.6114 0.0000 0.0000 0.0000
# 3 -9.1145 14.6114 62.9672 0.0000 0.0000 0.0000
# 4 0.0000 0.0000 0.0000 32.3748 0.0000 0.0000
# 5 0.0000 0.0000 0.0000 0.0000 28.5064 0.0000
# 6 0.0000 0.0000 0.0000 0.0000 0.0000 22.7991
#
#
#
# Elastic Compliance Matrix: (Units=1/GPa)
#
#
# Indices 1 2 3 4 5 6 
#
# 1 0.032061 0.000394 0.004550 0.000000 0.000000 0.000000
# 2 0.000394 0.012427 -0.002827 0.000000 0.000000 0.000000
# 3 0.004550 -0.002827 0.017196 0.000000 0.000000 0.000000
# 4 0.000000 0.000000 0.000000 0.030888 0.000000 0.000000
# 5 0.000000 0.000000 0.000000 0.000000 0.035080 0.000000
# 6 0.000000 0.000000 0.000000 0.000000 0.000000 0.043861
#
#
# Mechanical properties :
#
#
# Convention : Reuss Voigt Hill
#
# Bulk Modulus (GPa) = 15.17051 20.46281 17.81666
# Shear Modulus (GPa) = 26.41956 28.53503 27.47729
#
# Velocity S-wave (km/s) = 3.36607 3.49824 3.43279
# Velocity P-wave (km/s) = 4.64902 5.00926 4.83250
#
# Compressibility (1/GPa) = 0.06591738
#
# Stress axis : x y z
#
# Youngs Moduli (GPa) = 31.19015 80.46744 58.15381
#
# Poissons Ratio (x) = -0.03168 -0.26457
# Poissons Ratio (y) = -0.01228 0.16439
# Poissons Ratio (z) = -0.14190 0.22746
#
# Static dielectric constant tensor:
#      x y z
#    x 3.915140 0.000000 0.000000 
#    y 0.000000 4.233990 0.000000 
#    z 0.000000 0.000000 4.095200 
# 
# 
# High freq. dielectric constant tensor:
#      x y z
#    x 1.902530 0.000000 0.000000 
#    y 0.000000 1.921770 0.000000 
#    z 0.000000 0.000000 1.931030 
# 
# From -- ./inp_files/7406.got.cif
#   From: 2010.03.12/outbox.cif.g09.slc.cpg/sg60_4_cif.got.tgz:7406.got - 2010.04.10 18:46:24.
