data_PCOD8246205
_publ_section_title
;
Structure prediction by ZEFSAII (Michael W. Deem and Ramdas Pophale) SiO2 
 PCOD8246205
Probable space group: P M M N
;
_chemical_formula_sum "Si O2"
_cell_formula_units_Z 40
_cell_length_a 9.670705
_cell_length_b 19.301814
_cell_length_c 12.823254
_cell_angle_alpha 90.000000
_cell_angle_beta 90.000000
_cell_angle_gamma 90.000000
_cell_volume 2393.616151
_symmetry_space_group_name_H-M "P M M N"
_symmetry_group_IT_number 59
_space_group.IT_coordinate_system_code '2'
_symmetry_cell_setting 'orthorhombic'
loop_
_space_group_symop_operation_xyz
x,y,z
1/2-x,1/2-y,z
1/2+x,-y,-z
-x,1/2+y,-z
-x,-y,-z
1/2+x,1/2+y,-z
1/2-x,y,z
x,1/2-y,z
loop_
_atom_site_type_symbol
_atom_site_label
_atom_site_fract_x
_atom_site_fract_y
_atom_site_fract_z
Si Si1 0.409727 0.081643 0.594954
Si Si2 0.090244 0.330675 0.793629
Si Si3 0.403935 0.832397 0.018448
Si Si4 0.089328 0.921431 0.602070
Si Si5 0.414445 0.827177 0.789836
O O1 0.250000 0.095172 0.566281
O O2 0.457926 0.128247 0.691531
O O3 0.502762 0.103777 0.497333
O O4 0.435437 0.002027 0.625326
O O5 0.250000 0.344621 0.818294
O O6 0.060064 0.250000 0.773873
O O7 0.005193 0.360419 0.891849
O O8 0.250000 0.862542 0.038236
O O9 0.398331 0.750000 0.020690
O O10 0.461557 0.854701 0.904219
O O11 0.250000 0.905305 0.580422
O O12 0.031656 0.879450 0.701515
O O13 0.250000 0.824159 0.790155
O O14 0.473736 0.750000 0.767577
#
# Coordination Sequence:
#
# PCOD8246205 Si02
#       5
#     8   8   8   8   8
#     4   9  18  31  44  60  85 114 141 171 209 248
#     4   9  17  29  44  61  84 114 143 170 203 245
#     4   8  14  26  44  64  85 108 135 170 210 248
#     4   9  17  30  47  63  82 111 142 171 207 251
#     4   8  14  26  45  67  87 107 135 172 211 248
#
# _framework density 16.711117000000002
#
# number of rings (size 3 to 8) (size 9 to 14) (size 15 to 20)
#    0.000    3.400    0.000    1.200    0.000    1.600 
#    0.000    2.000    0.000    1.200    0.000    0.000 
#    0.000    0.000    0.000    0.000    0.000    0.000 
#
# Total GULP energy -495857.909210 kJ/mol
# GULP energy per Si atom -12396.447730 kJ/mol
# Density = 1.667308 g / cm^3
# Si number density = 16.711117 Si / 1000 Ang^3
#
#
#
# Elastic Constant Matrix: (Units=GPa)
#
#
# Indices 1 2 3 4 5 6 
#
# 1 54.8260 30.0650 71.1318 0.0000 0.0000 0.0000
# 2 30.0650 51.1770 68.4254 0.0000 0.0000 0.0000
# 3 71.1318 68.4254 187.1726 0.0000 0.0000 0.0000
# 4 0.0000 0.0000 0.0000 13.4384 0.0000 0.0000
# 5 0.0000 0.0000 0.0000 0.0000 29.7045 0.0000
# 6 0.0000 0.0000 0.0000 0.0000 0.0000 14.6115
#
#
#
# Elastic Compliance Matrix: (Units=1/GPa)
#
#
# Indices 1 2 3 4 5 6 
#
# 1 0.036815 -0.005715 -0.011902 0.000000 0.000000 0.000000
# 2 -0.005715 0.039110 -0.012126 0.000000 0.000000 0.000000
# 3 -0.011902 -0.012126 0.014299 0.000000 0.000000 0.000000
# 4 0.000000 0.000000 0.000000 0.074414 0.000000 0.000000
# 5 0.000000 0.000000 0.000000 0.000000 0.033665 0.000000
# 6 0.000000 0.000000 0.000000 0.000000 0.000000 0.068439
#
#
# Mechanical properties :
#
#
# Convention : Reuss Voigt Hill
#
# Bulk Modulus (GPa) = 32.53208 70.26890 51.40049
# Shear Modulus (GPa) = 14.86011 19.78776 17.32394
#
# Velocity S-wave (km/s) = 2.98524 3.44482 3.22323
# Velocity P-wave (km/s) = 5.60284 7.61333 6.68411
#
# Compressibility (1/GPa) = 0.03073889
#
# Stress axis : x y z
#
# Youngs Moduli (GPa) = 27.16317 25.56907 69.93703
#
# Poissons Ratio (x) = 0.14611 0.83237
# Poissons Ratio (y) = 0.15522 0.84804
# Poissons Ratio (z) = 0.32329 0.31005
#
# Static dielectric constant tensor:
#      x y z
#    x 3.038560 0.000000 0.000000 
#    y 0.000000 3.012290 0.000000 
#    z 0.000000 0.000000 3.452910 
# 
# 
# High freq. dielectric constant tensor:
#      x y z
#    x 1.621630 0.000000 0.000000 
#    y 0.000000 1.620240 0.000000 
#    z 0.000000 0.000000 1.653610 
# 
# From -- ./inp_files/7129.got.cif
#   From: 2010.03.12/outbox.cif.g09.slc.cpg/sg59_4_cif.got.tgz:7129.got - 2010.04.16 16:29:54.
