data_PCOD8246639
_publ_section_title
;
Structure prediction by ZEFSAII (Michael W. Deem and Ramdas Pophale) SiO2 
 PCOD8246639
Probable space group: P B C N
;
_chemical_formula_sum "Si O2"
_cell_formula_units_Z 40
_cell_length_a 11.242659
_cell_length_b 18.376037
_cell_length_c 9.079417
_cell_angle_alpha 90.000000
_cell_angle_beta 90.000000
_cell_angle_gamma 90.000000
_cell_volume 1875.766856
_symmetry_space_group_name_H-M "P B C N"
_symmetry_group_IT_number 60
_symmetry_cell_setting 'orthorhombic'
loop_
_space_group_symop_operation_xyz
x,y,z
1/2-x,1/2-y,1/2+z
1/2+x,1/2-y,-z
-x,y,1/2-z
-x,-y,-z
1/2+x,1/2+y,1/2-z
1/2-x,1/2+y,z
x,-y,1/2+z
loop_
_atom_site_type_symbol
_atom_site_label
_atom_site_fract_x
_atom_site_fract_y
_atom_site_fract_z
Si Si1 0.718773 0.261213 0.034361
Si Si2 0.628204 0.314828 0.321054
Si Si3 0.036478 0.350787 0.087174
Si Si4 0.267214 0.047451 0.694780
Si Si5 0.203869 0.589809 0.017402
O O1 0.725150 0.276397 0.210992
O O2 0.705211 0.342580 0.967271
O O3 0.842980 0.223649 0.978484
O O4 0.603560 0.214477 0.995202
O O5 0.500000 0.300778 0.250000
O O6 0.652140 0.401415 0.338246
O O7 0.120956 0.420252 0.107165
O O8 0.000000 0.323316 0.250000
O O9 0.929122 0.376007 0.980801
O O10 0.284902 0.043959 0.868530
O O11 0.257718 0.963530 0.648462
#
# Coordination Sequence:
#
# PCOD8246639 Si02
#       5
#     8   8   8   8   8
#     4  10  21  36  58  87 114 151 200 244 295 359
#     4  10  21  39  59  84 121 158 196 249 300 350
#     4   9  18  35  57  80 111 148 192 249 300 345
#     4   9  20  35  54  81 112 149 191 235 291 357
#     4  10  19  35  56  82 115 148 189 243 296 351
#
# _framework density 21.324611000000001
#
# number of rings (size 3 to 8) (size 9 to 14) (size 15 to 20)
#    0.000    2.400    0.000    3.000    0.000    3.200 
#    0.000   10.000    0.000    0.000    0.000    0.000 
#    0.000    0.000    0.000    0.000    0.000    0.000 
#
# Total GULP energy -495595.652049 kJ/mol
# GULP energy per Si atom -12389.891301 kJ/mol
# Density = 2.127608 g / cm^3
# Si number density = 21.324611 Si / 1000 Ang^3
#
#
#
# Elastic Constant Matrix: (Units=GPa)
#
#
# Indices 1 2 3 4 5 6 
#
# 1 63.5984 28.0664 26.2298 0.0000 0.0000 0.0000
# 2 28.0664 118.2698 36.7046 0.0000 0.0000 0.0000
# 3 26.2298 36.7046 38.3042 0.0000 0.0000 0.0000
# 4 0.0000 0.0000 0.0000 39.6201 0.0000 0.0000
# 5 0.0000 0.0000 0.0000 0.0000 23.8621 0.0000
# 6 0.0000 0.0000 0.0000 0.0000 0.0000 25.4359
#
#
#
# Elastic Compliance Matrix: (Units=1/GPa)
#
#
# Indices 1 2 3 4 5 6 
#
# 1 0.021962 -0.000775 -0.014296 0.000000 0.000000 0.000000
# 2 -0.000775 0.012061 -0.011027 0.000000 0.000000 0.000000
# 3 -0.014296 -0.011027 0.046463 0.000000 0.000000 0.000000
# 4 0.000000 0.000000 0.000000 0.025240 0.000000 0.000000
# 5 0.000000 0.000000 0.000000 0.000000 0.041907 0.000000
# 6 0.000000 0.000000 0.000000 0.000000 0.000000 0.039315
#
#
# Mechanical properties :
#
#
# Convention : Reuss Voigt Hill
#
# Bulk Modulus (GPa) = 35.34856 44.68598 40.01727
# Shear Modulus (GPa) = 20.11468 26.39506 23.25487
#
# Velocity S-wave (km/s) = 3.07459 3.52202 3.30588
# Velocity P-wave (km/s) = 5.40523 6.12700 5.77740
#
# Compressibility (1/GPa) = 0.02828970
#
# Stress axis : x y z
#
# Youngs Moduli (GPa) = 45.53338 82.90963 21.52242
#
# Poissons Ratio (x) = 0.06425 0.30769
# Poissons Ratio (y) = 0.03528 0.23733
# Poissons Ratio (z) = 0.65097 0.91425
#
# Static dielectric constant tensor:
#      x y z
#    x 3.765250 0.000000 0.000000 
#    y 0.000000 3.798150 0.000000 
#    z 0.000000 0.000000 3.809520 
# 
# 
# High freq. dielectric constant tensor:
#      x y z
#    x 1.817320 0.000000 0.000000 
#    y 0.000000 1.839680 0.000000 
#    z 0.000000 0.000000 1.824300 
# 
# From -- ./inp_files/4764.got.cif
#   From: 2010.03.12/outbox.cif.g09.slc.cpg/sg60_3_cif.got.tgz:4764.got - 2010.04.10 18:46:24.
