data_PCOD8246009
_publ_section_title
;
Structure prediction by ZEFSAII (Michael W. Deem and Ramdas Pophale) SiO2 
 PCOD8246009
Probable space group: P M M N
;
_chemical_formula_sum "Si O2"
_cell_formula_units_Z 48
_cell_length_a 8.377320
_cell_length_b 28.218910
_cell_length_c 10.291957
_cell_angle_alpha 90.000000
_cell_angle_beta 90.000000
_cell_angle_gamma 90.000000
_cell_volume 2433.006687
_symmetry_space_group_name_H-M "P M M N"
_symmetry_group_IT_number 59
_space_group.IT_coordinate_system_code '2'
_symmetry_cell_setting 'orthorhombic'
loop_
_space_group_symop_operation_xyz
x,y,z
1/2-x,1/2-y,z
1/2+x,-y,-z
-x,1/2+y,-z
-x,-y,-z
1/2+x,1/2+y,-z
1/2-x,y,z
x,1/2-y,z
loop_
_atom_site_type_symbol
_atom_site_label
_atom_site_fract_x
_atom_site_fract_y
_atom_site_fract_z
Si Si1 0.560627 0.601109 0.003618
Si Si2 0.560078 0.801511 0.106477
Si Si3 0.432354 0.605115 0.508183
Si Si4 0.064360 0.051248 0.734762
Si Si5 0.064592 0.448341 0.255256
Si Si6 0.935596 0.803485 0.401942
O O1 0.750000 0.602782 0.997536
O O2 0.494021 0.655081 0.019175
O O3 0.503977 0.569283 0.124939
O O4 0.493933 0.578412 0.871375
O O5 0.750000 0.801039 0.105459
O O6 0.497151 0.750000 0.055652
O O7 0.503358 0.809353 0.254319
O O8 0.250000 0.597228 0.548866
O O9 0.465338 0.578215 0.374268
O O10 0.545226 0.585150 0.620769
O O11 0.466352 0.660955 0.492974
O O12 0.250000 0.062940 0.714244
O O13 0.036560 0.995521 0.723195
O O14 0.250000 0.461346 0.237115
O O15 0.750000 0.816747 0.410991
O O16 0.966302 0.750000 0.451121
#
# Coordination Sequence:
#
# PCOD8246009 Si02
#       6
#     8   8   8   8   8   8
#     4   9  18  33  56  84 113 144 181 229 283 333
#     4   8  13  26  53  86 112 135 171 221 274 324
#     4  12  24  38  56  82 115 153 189 228 279 332
#     4  11  21  38  61  83 109 143 189 239 284 335
#     4  11  23  38  55  80 115 151 189 232 280 338
#     4   9  17  33  60  88 112 142 183 231 279 327
#
# _framework density 19.728677999999999
#
# number of rings (size 3 to 8) (size 9 to 14) (size 15 to 20)
#    0.000    2.000    1.667    4.500    0.000    0.333 
#    0.000    3.333    0.000    3.000    0.000    0.000 
#    0.000    0.000    0.000    0.000    0.000    0.000 
#
# Total GULP energy -595199.637440 kJ/mol
# GULP energy per Si atom -12399.992447 kJ/mol
# Density = 1.968377 g / cm^3
# Si number density = 19.728678 Si / 1000 Ang^3
#
#
#
# Elastic Constant Matrix: (Units=GPa)
#
#
# Indices 1 2 3 4 5 6 
#
# 1 38.5429 11.6802 7.7376 0.0000 0.0000 0.0000
# 2 11.6802 143.2991 46.0535 0.0000 0.0000 0.0000
# 3 7.7376 46.0535 97.7516 0.0000 0.0000 0.0000
# 4 0.0000 0.0000 0.0000 12.1670 0.0000 0.0000
# 5 0.0000 0.0000 0.0000 0.0000 11.5029 0.0000
# 6 0.0000 0.0000 0.0000 0.0000 0.0000 20.9005
#
#
#
# Elastic Compliance Matrix: (Units=1/GPa)
#
#
# Indices 1 2 3 4 5 6 
#
# 1 0.026738 -0.001767 -0.001284 0.000000 0.000000 0.000000
# 2 -0.001767 0.008340 -0.003790 0.000000 0.000000 0.000000
# 3 -0.001284 -0.003790 0.012117 0.000000 0.000000 0.000000
# 4 0.000000 0.000000 0.000000 0.082190 0.000000 0.000000
# 5 0.000000 0.000000 0.000000 0.000000 0.086934 0.000000
# 6 0.000000 0.000000 0.000000 0.000000 0.000000 0.047846
#
#
# Mechanical properties :
#
#
# Convention : Reuss Voigt Hill
#
# Bulk Modulus (GPa) = 29.83752 45.61514 37.72633
# Shear Modulus (GPa) = 17.29998 23.18890 20.24444
#
# Velocity S-wave (km/s) = 2.96445 3.43212 3.20682
# Velocity P-wave (km/s) = 5.18402 6.23517 5.73373
#
# Compressibility (1/GPa) = 0.03351485
#
# Stress axis : x y z
#
# Youngs Moduli (GPa) = 37.39956 119.89995 82.52865
#
# Poissons Ratio (x) = 0.21183 0.10598
# Poissons Ratio (y) = 0.06607 0.31274
# Poissons Ratio (z) = 0.04803 0.45436
#
# Static dielectric constant tensor:
#      x y z
#    x 3.172660 0.000000 0.000000 
#    y 0.000000 3.985160 0.000000 
#    z 0.000000 0.000000 3.540960 
# 
# 
# High freq. dielectric constant tensor:
#      x y z
#    x 1.735790 0.000000 0.000000 
#    y 0.000000 1.788780 0.000000 
#    z 0.000000 0.000000 1.751030 
# 
# From -- ./inp_files/6250.got.cif
#   From: 2010.03.12/outbox.cif.g09.slc.cpg/sg59_4_cif.got.tgz:6250.got - 2010.04.16 16:29:54.
