data_PCOD8246690
_publ_section_title
;
Structure prediction by ZEFSAII (Michael W. Deem and Ramdas Pophale) SiO2 
 PCOD8246690
Probable space group: P B C N
;
_chemical_formula_sum "Si O2"
_cell_formula_units_Z 48
_cell_length_a 4.904846
_cell_length_b 17.269198
_cell_length_c 26.575057
_cell_angle_alpha 90.000000
_cell_angle_beta 90.000000
_cell_angle_gamma 90.000000
_cell_volume 2250.980588
_symmetry_space_group_name_H-M "P B C N"
_symmetry_group_IT_number 60
_symmetry_cell_setting 'orthorhombic'
loop_
_space_group_symop_operation_xyz
x,y,z
1/2-x,1/2-y,1/2+z
1/2+x,1/2-y,-z
-x,y,1/2-z
-x,-y,-z
1/2+x,1/2+y,1/2-z
1/2-x,1/2+y,z
x,-y,1/2+z
loop_
_atom_site_type_symbol
_atom_site_label
_atom_site_fract_x
_atom_site_fract_y
_atom_site_fract_z
Si Si1 0.032350 0.895062 0.194255
Si Si2 0.032310 0.291351 0.306008
Si Si3 0.370397 0.470986 0.403970
Si Si4 0.333925 0.133977 0.437858
Si Si5 0.138599 0.389521 0.052654
Si Si6 0.342762 0.275131 0.595288
O O1 0.342050 0.867139 0.186947
O O2 0.000000 0.931025 0.250000
O O3 0.842639 0.819181 0.186656
O O4 0.961194 0.960619 0.153838
O O5 0.000000 0.255431 0.250000
O O6 0.953365 0.227194 0.347368
O O7 0.269433 0.557889 0.409681
O O8 0.630662 0.454852 0.439671
O O9 0.135390 0.410430 0.417907
O O10 0.431736 0.115061 0.493970
O O11 0.587027 0.167565 0.406650
O O12 0.086611 0.194932 0.440306
O O13 0.249296 0.308801 0.075087
#
# Coordination Sequence:
#
# PCOD8246690 Si02
#       6
#     8   8   8   8   8   8
#     4  10  19  36  62  90 112 150 206 259 300 363
#     4  10  20  37  64  90 114 153 208 256 302 365
#     4  12  22  41  62  91 123 165 210 263 312 373
#     4  12  26  38  59  93 132 166 201 265 320 374
#     4  12  23  41  64  86 123 173 223 246 303 378
#     4  12  22  41  61  90 126 161 210 261 317 369
#
# _framework density 21.324041000000001
#
# number of rings (size 3 to 8) (size 9 to 14) (size 15 to 20)
#    0.000    0.667    3.333    6.000    0.000    0.000 
#    0.000    0.833    0.000    2.000    0.000    0.000 
#    0.000    0.000    0.000    0.000    0.000    0.000 
#
# Total GULP energy -595533.800056 kJ/mol
# GULP energy per Si atom -12406.954168 kJ/mol
# Density = 2.127551 g / cm^3
# Si number density = 21.324041 Si / 1000 Ang^3
#
#
#
# Elastic Constant Matrix: (Units=GPa)
#
#
# Indices 1 2 3 4 5 6 
#
# 1 97.9803 16.6115 26.8186 0.0000 0.0000 0.0000
# 2 16.6115 61.9878 47.4580 0.0000 0.0000 0.0000
# 3 26.8186 47.4580 133.4667 0.0000 0.0000 0.0000
# 4 0.0000 0.0000 0.0000 18.1880 0.0000 0.0000
# 5 0.0000 0.0000 0.0000 0.0000 34.8974 0.0000
# 6 0.0000 0.0000 0.0000 0.0000 0.0000 31.4998
#
#
#
# Elastic Compliance Matrix: (Units=1/GPa)
#
#
# Indices 1 2 3 4 5 6 
#
# 1 0.010931 -0.001714 -0.001587 0.000000 0.000000 0.000000
# 2 -0.001714 0.022436 -0.007633 0.000000 0.000000 0.000000
# 3 -0.001587 -0.007633 0.010526 0.000000 0.000000 0.000000
# 4 0.000000 0.000000 0.000000 0.054981 0.000000 0.000000
# 5 0.000000 0.000000 0.000000 0.000000 0.028655 0.000000
# 6 0.000000 0.000000 0.000000 0.000000 0.000000 0.031746
#
#
# Mechanical properties :
#
#
# Convention : Reuss Voigt Hill
#
# Bulk Modulus (GPa) = 45.40617 52.80123 49.10370
# Shear Modulus (GPa) = 26.52727 30.42016 28.47372
#
# Velocity S-wave (km/s) = 3.53088 3.78109 3.65812
# Velocity P-wave (km/s) = 6.16137 6.62399 6.39686
#
# Compressibility (1/GPa) = 0.02202344
#
# Stress axis : x y z
#
# Youngs Moduli (GPa) = 91.48172 44.57199 95.00680
#
# Poissons Ratio (x) = 0.07641 0.15076
# Poissons Ratio (y) = 0.15684 0.72520
# Poissons Ratio (z) = 0.14517 0.34022
#
# Static dielectric constant tensor:
#      x y z
#    x 4.029270 0.000000 0.000000 
#    y 0.000000 3.518420 0.000000 
#    z 0.000000 0.000000 4.118710 
# 
# 
# High freq. dielectric constant tensor:
#      x y z
#    x 1.858620 0.000000 0.000000 
#    y 0.000000 1.800650 0.000000 
#    z 0.000000 0.000000 1.848810 
# 
# From -- ./inp_files/24853.got.cif
#   From: 2010.03.12/outbox.cif.g09.slc.cpg/sg60_13_cif.got.tgz:24853.got - 2010.04.10 18:46:24.
