data_PCOD8246801
_publ_section_title
;
Structure prediction by ZEFSAII (Michael W. Deem and Ramdas Pophale) SiO2 
 PCOD8246801
Probable space group: P B C N
;
_chemical_formula_sum "Si O2"
_cell_formula_units_Z 64
_cell_length_a 19.592433
_cell_length_b 8.667589
_cell_length_c 19.701669
_cell_angle_alpha 90.000000
_cell_angle_beta 90.000000
_cell_angle_gamma 90.000000
_cell_volume 3345.720816
_symmetry_space_group_name_H-M "P B C N"
_symmetry_group_IT_number 60
_symmetry_cell_setting 'orthorhombic'
loop_
_space_group_symop_operation_xyz
x,y,z
1/2-x,1/2-y,1/2+z
1/2+x,1/2-y,-z
-x,y,1/2-z
-x,-y,-z
1/2+x,1/2+y,1/2-z
1/2-x,1/2+y,z
x,-y,1/2+z
loop_
_atom_site_type_symbol
_atom_site_label
_atom_site_fract_x
_atom_site_fract_y
_atom_site_fract_z
Si Si1 0.253246 0.436366 0.370810
Si Si2 0.254081 0.573739 0.630963
Si Si3 0.924310 0.670848 0.033879
Si Si4 0.346770 0.171649 0.178542
Si Si5 0.306400 0.695906 0.454981
Si Si6 0.312489 0.684064 0.043817
Si Si7 0.847291 0.686371 0.173639
Si Si8 0.081251 0.652773 0.038970
O O1 0.297038 0.518267 0.432395
O O2 0.192497 0.317298 0.392372
O O3 0.214947 0.566341 0.328626
O O4 0.311842 0.354084 0.326887
O O5 0.214872 0.451626 0.677344
O O6 0.314692 0.657757 0.671216
O O7 0.198406 0.699818 0.607077
O O8 0.291054 0.489067 0.566295
O O9 0.900366 0.666851 0.112202
O O10 0.004028 0.708963 0.032518
O O11 0.888697 0.803034 0.987562
O O12 0.906625 0.507427 0.999610
O O13 0.383452 0.164894 0.252490
O O14 0.399841 0.135377 0.118301
O O15 0.235176 0.750619 0.485657
O O16 0.370734 0.717632 0.504681
#
# Coordination Sequence:
#
# PCOD8246801 Si02
#       8
#     8   8   8   8   8   8   8   8
#     4  10  20  32  58  84 111 139 185 230 279 327
#     4  10  20  32  58  84 111 139 185 230 279 327
#     4  11  22  36  57  85 112 146 192 237 280 340
#     4  11  22  36  54  83 116 152 185 228 283 339
#     4  11  17  33  59  83 108 139 180 236 281 323
#     4  11  17  33  59  83 108 139 180 236 281 323
#     4  11  22  36  54  83 116 152 185 228 283 339
#     4  11  22  36  57  85 112 146 192 237 280 340
#
# _framework density 19.128910999999999
#
# number of rings (size 3 to 8) (size 9 to 14) (size 15 to 20)
#    0.000    1.250    7.500    1.500    0.000    0.500 
#    0.000    2.500    0.000    0.000    0.000    0.000 
#    0.000    0.000    0.000    0.000    0.000    0.000 
#
# Total GULP energy -793138.529600 kJ/mol
# GULP energy per Si atom -12392.789525 kJ/mol
# Density = 1.908537 g / cm^3
# Si number density = 19.128911 Si / 1000 Ang^3
#
#
#
# Elastic Constant Matrix: (Units=GPa)
#
#
# Indices 1 2 3 4 5 6 
#
# 1 88.6793 18.3614 28.6139 0.0000 0.0000 0.0000
# 2 18.3614 67.7615 9.3916 0.0000 0.0000 0.0000
# 3 28.6139 9.3916 110.6581 0.0000 0.0000 0.0000
# 4 0.0000 0.0000 0.0000 15.4308 0.0000 0.0000
# 5 0.0000 0.0000 0.0000 0.0000 16.8202 0.0000
# 6 0.0000 0.0000 0.0000 0.0000 0.0000 21.6025
#
#
#
# Elastic Compliance Matrix: (Units=1/GPa)
#
#
# Indices 1 2 3 4 5 6 
#
# 1 0.012905 -0.003070 -0.003076 0.000000 0.000000 0.000000
# 2 -0.003070 0.015664 -0.000535 0.000000 0.000000 0.000000
# 3 -0.003076 -0.000535 0.009878 0.000000 0.000000 0.000000
# 4 0.000000 0.000000 0.000000 0.064806 0.000000 0.000000
# 5 0.000000 0.000000 0.000000 0.000000 0.059452 0.000000
# 6 0.000000 0.000000 0.000000 0.000000 0.000000 0.046291
#
#
# Mechanical properties :
#
#
# Convention : Reuss Voigt Hill
#
# Bulk Modulus (GPa) = 39.86917 42.20361 41.03639
# Shear Modulus (GPa) = 21.67123 24.81951 23.24537
#
# Velocity S-wave (km/s) = 3.36952 3.60597 3.48975
# Velocity P-wave (km/s) = 6.00215 6.28077 6.14304
#
# Compressibility (1/GPa) = 0.02508204
#
# Stress axis : x y z
#
# Youngs Moduli (GPa) = 77.48945 63.84124 101.23745
#
# Poissons Ratio (x) = 0.19602 0.31144
# Poissons Ratio (y) = 0.23793 0.05421
# Poissons Ratio (z) = 0.23839 0.03418
#
# Static dielectric constant tensor:
#      x y z
#    x 3.206930 0.000000 0.000000 
#    y 0.000000 3.818070 0.000000 
#    z 0.000000 0.000000 3.552200 
# 
# 
# High freq. dielectric constant tensor:
#      x y z
#    x 1.703550 0.000000 0.000000 
#    y 0.000000 1.756590 0.000000 
#    z 0.000000 0.000000 1.742820 
# 
# From -- ./inp_files/23219.got.cif
#   From: 2010.03.12/outbox.cif.g09.slc.cpg/sg60_12_cif.got.tgz:23219.got - 2010.04.10 18:46:24.
