data_PCOD8246284
_publ_section_title
;
Structure prediction by ZEFSAII (Michael W. Deem and Ramdas Pophale) SiO2 
 PCOD8246284
Probable space group: P B C N
;
_chemical_formula_sum "Si O2"
_cell_formula_units_Z 64
_cell_length_a 21.297629
_cell_length_b 31.829969
_cell_length_c 5.302003
_cell_angle_alpha 90.000000
_cell_angle_beta 90.000000
_cell_angle_gamma 90.000000
_cell_volume 3594.243055
_symmetry_space_group_name_H-M "P B C N"
_symmetry_group_IT_number 60
_symmetry_cell_setting 'orthorhombic'
loop_
_space_group_symop_operation_xyz
x,y,z
1/2-x,1/2-y,1/2+z
1/2+x,1/2-y,-z
-x,y,1/2-z
-x,-y,-z
1/2+x,1/2+y,1/2-z
1/2-x,1/2+y,z
x,-y,1/2+z
loop_
_atom_site_type_symbol
_atom_site_label
_atom_site_fract_x
_atom_site_fract_y
_atom_site_fract_z
Si Si1 0.658584 0.611314 0.523239
Si Si2 0.738046 0.386051 0.525908
Si Si3 0.332267 0.755460 0.506847
Si Si4 0.710967 0.201421 0.992963
Si Si5 0.875661 0.015692 0.514033
Si Si6 0.735607 0.019748 0.024878
Si Si7 0.975806 0.757272 0.499841
Si Si8 0.028758 0.850456 0.499785
O O1 0.706477 0.620455 0.298152
O O2 0.630483 0.565201 0.490678
O O3 0.603665 0.645450 0.501856
O O4 0.689207 0.616185 0.796542
O O5 0.788731 0.349065 0.494102
O O6 0.774293 0.430284 0.518382
O O7 0.325340 0.782657 0.760286
O O8 0.282911 0.717425 0.504889
O O9 0.401363 0.735677 0.500847
O O10 0.323781 0.784172 0.260409
O O11 0.912402 0.997454 0.269752
O O12 0.809143 0.991404 0.533815
O O13 0.703501 0.000687 0.276953
O O14 0.000000 0.732530 0.250000
O O15 0.012046 0.801553 0.499799
O O16 0.000000 0.732615 0.750000
O O17 0.000000 0.872411 0.750000
O O18 0.000000 0.872596 0.250000
#
# Coordination Sequence:
#
# PCOD8246284 Si02
#       8
#     8   8   8   8   8   8   8   8
#     4  12  21  31  54  73 103 127 167 238 248 316
#     4  12  21  31  53  82  99 135 178 214 259 312
#     4  10  21  41  52  73 111 132 175 216 274 342
#     4  10  23  35  55  78 101 147 164 214 279 321
#     4  10  16  30  46  70  92 135 169 200 268 305
#     4  10  16  30  45  73 101 129 175 207 245 312
#     4  10  21  35  58  78  95 133 173 220 270 311
#     4  10  23  37  47  74  94 121 165 222 289 294
#
# _framework density 17.806252000000001
#
# number of rings (size 3 to 8) (size 9 to 14) (size 15 to 20)
#    0.000    1.500    5.000    2.250    7.000    0.000 
#    0.000    0.000    0.000    2.250    0.000    0.000 
#    0.000    0.000    0.000    0.000    0.000   43.750 
#
# Total GULP energy -793346.035205 kJ/mol
# GULP energy per Si atom -12396.031800 kJ/mol
# Density = 1.776572 g / cm^3
# Si number density = 17.806252 Si / 1000 Ang^3
#
#
#
# Elastic Constant Matrix: (Units=GPa)
#
#
# Indices 1 2 3 4 5 6 
#
# 1 37.6462 14.8757 12.9581 0.0000 0.0000 0.0000
# 2 14.8757 97.1091 19.2104 0.0000 0.0000 0.0000
# 3 12.9581 19.2104 162.5065 0.0000 0.0000 0.0000
# 4 0.0000 0.0000 0.0000 16.1124 0.0000 0.0000
# 5 0.0000 0.0000 0.0000 0.0000 12.7120 0.0000
# 6 0.0000 0.0000 0.0000 0.0000 0.0000 15.4889
#
#
#
# Elastic Compliance Matrix: (Units=1/GPa)
#
#
# Indices 1 2 3 4 5 6 
#
# 1 0.028789 -0.004051 -0.001817 0.000000 0.000000 0.000000
# 2 -0.004051 0.011114 -0.000991 0.000000 0.000000 0.000000
# 3 -0.001817 -0.000991 0.006416 0.000000 0.000000 0.000000
# 4 0.000000 0.000000 0.000000 0.062064 0.000000 0.000000
# 5 0.000000 0.000000 0.000000 0.000000 0.078666 0.000000
# 6 0.000000 0.000000 0.000000 0.000000 0.000000 0.064562
#
#
# Mechanical properties :
#
#
# Convention : Reuss Voigt Hill
#
# Bulk Modulus (GPa) = 30.67269 43.48336 37.07803
# Shear Modulus (GPa) = 18.10316 25.54383 21.82350
#
# Velocity S-wave (km/s) = 3.19199 3.79165 3.50467
# Velocity P-wave (km/s) = 5.55412 6.60621 6.10288
#
# Compressibility (1/GPa) = 0.03260229
#
# Stress axis : x y z
#
# Youngs Moduli (GPa) = 34.73547 89.97493 155.87009
#
# Poissons Ratio (x) = 0.36446 0.28318
# Poissons Ratio (y) = 0.14070 0.15444
# Poissons Ratio (z) = 0.06311 0.08915
#
# Static dielectric constant tensor:
#      x y z
#    x 2.747530 0.000000 0.000000 
#    y 0.000000 3.164740 0.000000 
#    z 0.000000 0.000000 5.930590 
# 
# 
# High freq. dielectric constant tensor:
#      x y z
#    x 1.618440 0.000000 0.000000 
#    y 0.000000 1.668000 0.000000 
#    z 0.000000 0.000000 1.736570 
# 
# From -- ./inp_files/1910.got.cif
#   From: 2010.03.12/outbox.cif.g09.slc.cpg/sg60_1_cif.got.tgz:1910.got - 2010.04.10 18:46:24.
