data_PCOD8246388
_publ_section_title
;
Structure prediction by ZEFSAII (Michael W. Deem and Ramdas Pophale) SiO2 
 PCOD8246388
Probable space group: P B C N
;
_chemical_formula_sum "Si O2"
_cell_formula_units_Z 48
_cell_length_a 13.515596
_cell_length_b 34.274982
_cell_length_c 4.958542
_cell_angle_alpha 90.000000
_cell_angle_beta 90.000000
_cell_angle_gamma 90.000000
_cell_volume 2297.028762
_symmetry_space_group_name_H-M "P B C N"
_symmetry_group_IT_number 60
_symmetry_cell_setting 'orthorhombic'
loop_
_space_group_symop_operation_xyz
x,y,z
1/2-x,1/2-y,1/2+z
1/2+x,1/2-y,-z
-x,y,1/2-z
-x,-y,-z
1/2+x,1/2+y,1/2-z
1/2-x,1/2+y,z
x,-y,1/2+z
loop_
_atom_site_type_symbol
_atom_site_label
_atom_site_fract_x
_atom_site_fract_y
_atom_site_fract_z
Si Si1 0.000000 0.539455 0.250000
Si Si2 0.708027 0.350860 0.652924
Si Si3 0.793533 0.269027 0.676535
Si Si4 0.500000 0.909714 0.250000
Si Si5 0.787454 0.392226 0.153811
Si Si6 0.500000 0.683103 0.250000
Si Si7 0.500000 0.737732 0.750000
Si Si8 0.291972 0.978524 0.563186
O O1 0.088818 0.514992 0.108744
O O2 0.042358 0.565912 0.494710
O O3 0.767018 0.311965 0.567123
O O4 0.735248 0.385191 0.442116
O O5 0.590607 0.344516 0.662883
O O6 0.741631 0.361523 0.951239
O O7 0.780166 0.240329 0.422636
O O8 0.905036 0.265546 0.790928
O O9 0.405456 0.884069 0.336756
O O10 0.766345 0.435725 0.042515
O O11 0.525385 0.710652 0.498517
O O12 0.247395 0.010492 0.354515
#
# Coordination Sequence:
#
# PCOD8246388 Si02
#       8
#     4   8   8   4   8   4   4   8
#     4  10  18  31  53  84 117 166 216 254 286 355
#     4  12  24  42  64  92 124 160 206 265 318 364
#     4  12  23  41  64  95 125 165 203 253 309 373
#     4  10  20  37  55  80 131 174 198 246 304 375
#     4  11  24  39  59  90 130 165 209 254 310 375
#     4  12  24  42  71  90 115 161 210 273 312 351
#     4  12  22  42  67  96 125 161 212 253 306 371
#     4  11  20  34  56  86 122 168 212 256 305 368
#
# _framework density 20.896561999999999
#
# number of rings (size 3 to 8) (size 9 to 14) (size 15 to 20)
#    0.000    0.667    3.333    7.500    0.000    2.000 
#    0.000    0.000    0.000    0.000    0.000   11.667 
#    0.000    0.000    0.000    0.000    0.000    0.000 
#
# Total GULP energy -595119.941398 kJ/mol
# GULP energy per Si atom -12398.332112 kJ/mol
# Density = 2.084900 g / cm^3
# Si number density = 20.896562 Si / 1000 Ang^3
#
#
#
# Elastic Constant Matrix: (Units=GPa)
#
#
# Indices 1 2 3 4 5 6 
#
# 1 106.4938 44.2609 23.6833 0.0000 0.0000 0.0000
# 2 44.2609 79.8321 25.7365 0.0000 0.0000 0.0000
# 3 23.6833 25.7365 116.4647 0.0000 0.0000 0.0000
# 4 0.0000 0.0000 0.0000 30.5317 0.0000 0.0000
# 5 0.0000 0.0000 0.0000 0.0000 28.9910 0.0000
# 6 0.0000 0.0000 0.0000 0.0000 0.0000 22.0482
#
#
#
# Elastic Compliance Matrix: (Units=1/GPa)
#
#
# Indices 1 2 3 4 5 6 
#
# 1 0.012325 -0.006488 -0.001073 0.000000 0.000000 0.000000
# 2 -0.006488 0.016902 -0.002416 0.000000 0.000000 0.000000
# 3 -0.001073 -0.002416 0.009338 0.000000 0.000000 0.000000
# 4 0.000000 0.000000 0.000000 0.032753 0.000000 0.000000
# 5 0.000000 0.000000 0.000000 0.000000 0.034494 0.000000
# 6 0.000000 0.000000 0.000000 0.000000 0.000000 0.045355
#
#
# Mechanical properties :
#
#
# Convention : Reuss Voigt Hill
#
# Bulk Modulus (GPa) = 53.72494 54.46132 54.09313
# Shear Modulus (GPa) = 28.19707 30.25483 29.22595
#
# Velocity S-wave (km/s) = 3.67735 3.80917 3.74384
# Velocity P-wave (km/s) = 6.61788 6.74280 6.68063
#
# Compressibility (1/GPa) = 0.01861333
#
# Stress axis : x y z
#
# Youngs Moduli (GPa) = 81.13504 59.16477 107.08622
#
# Poissons Ratio (x) = 0.38383 0.11487
# Poissons Ratio (y) = 0.52637 0.25870
# Poissons Ratio (z) = 0.08703 0.14293
#
# Static dielectric constant tensor:
#      x y z
#    x 3.527090 0.000000 0.000000 
#    y 0.000000 3.559510 0.000000 
#    z 0.000000 0.000000 4.113820 
# 
# 
# High freq. dielectric constant tensor:
#      x y z
#    x 1.783890 0.000000 0.000000 
#    y 0.000000 1.802950 0.000000 
#    z 0.000000 0.000000 1.851420 
# 
# From -- ./inp_files/1454.got.cif
#   From: 2010.03.12/outbox.cif.g09.slc.cpg/sg60_1_cif.got.tgz:1454.got - 2010.04.10 18:46:24.
