data_PCOD8246033
_publ_section_title
;
Structure prediction by ZEFSAII (Michael W. Deem and Ramdas Pophale) SiO2 
 PCOD8246033
Probable space group: P M M N
;
_chemical_formula_sum "Si O2"
_cell_formula_units_Z 56
_cell_length_a 8.858394
_cell_length_b 14.858980
_cell_length_c 21.808527
_cell_angle_alpha 90.000000
_cell_angle_beta 90.000000
_cell_angle_gamma 90.000000
_cell_volume 2870.584425
_symmetry_space_group_name_H-M "P M M N"
_symmetry_group_IT_number 59
_space_group.IT_coordinate_system_code '2'
_symmetry_cell_setting 'orthorhombic'
loop_
_space_group_symop_operation_xyz
x,y,z
1/2-x,1/2-y,z
1/2+x,-y,-z
-x,1/2+y,-z
-x,-y,-z
1/2+x,1/2+y,-z
1/2-x,y,z
x,1/2-y,z
loop_
_atom_site_type_symbol
_atom_site_label
_atom_site_fract_x
_atom_site_fract_y
_atom_site_fract_z
Si Si1 0.572286 0.482682 0.153184
Si Si2 0.929706 0.852621 0.616117
Si Si3 0.571391 0.989666 0.717610
Si Si4 0.921560 0.855192 0.940133
Si Si5 0.573104 0.855510 0.351395
Si Si6 0.571264 0.649693 0.483971
Si Si7 0.070611 0.348946 0.922366
O O1 0.750000 0.485798 0.164453
O O2 0.489721 0.462243 0.216440
O O3 0.533831 0.403872 0.106160
O O4 0.511375 0.577451 0.125814
O O5 0.750000 0.851509 0.618733
O O6 0.989168 0.750000 0.625293
O O7 0.981534 0.893958 0.548994
O O8 0.994862 0.916932 0.669059
O O9 0.750000 0.987617 0.718942
O O10 0.516420 0.089399 0.699903
O O11 0.750000 0.890545 0.931592
O O12 0.928164 0.750000 0.925835
O O13 0.981772 0.874698 0.008919
O O14 0.750000 0.872430 0.341699
O O15 0.535599 0.750000 0.343877
O O16 0.517210 0.892412 0.418930
O O17 0.750000 0.653016 0.481091
O O18 0.506566 0.750000 0.486023
O O19 0.250000 0.345828 0.922885
O O20 0.007560 0.250000 0.903784
#
# Coordination Sequence:
#
# PCOD8246033 Si02
#       7
#     8   8   8   8   8   8   8
#     4  11  22  35  53  77 107 142 178 216 255 300
#     4   8  15  30  51  73  98 130 170 215 261 312
#     4  11  23  35  49  74 106 141 180 216 255 305
#     4   9  18  35  59  83 106 133 166 208 261 316
#     4   9  18  34  55  76 100 132 169 212 264 319
#     4   7  11  24  49  76  96 120 162 213 262 313
#     4   8  16  33  57  82 104 130 168 212 260 313
#
# _framework density 19.508223000000001
#
# number of rings (size 3 to 8) (size 9 to 14) (size 15 to 20)
#    0.000    3.000    0.000    3.857    0.000    2.286 
#    0.000    3.571    0.000    5.143    0.000    4.000 
#    0.000    0.000    0.000    0.000    0.000    0.000 
#
# Total GULP energy -693848.818677 kJ/mol
# GULP energy per Si atom -12390.157476 kJ/mol
# Density = 1.946382 g / cm^3
# Si number density = 19.508223 Si / 1000 Ang^3
#
#
#
# Elastic Constant Matrix: (Units=GPa)
#
#
# Indices 1 2 3 4 5 6 
#
# 1 34.2988 14.8986 13.3677 0.0000 0.0000 0.0000
# 2 14.8986 50.2208 16.0688 0.0000 0.0000 0.0000
# 3 13.3677 16.0688 76.1575 0.0000 0.0000 0.0000
# 4 0.0000 0.0000 0.0000 24.5738 0.0000 0.0000
# 5 0.0000 0.0000 0.0000 0.0000 26.3607 0.0000
# 6 0.0000 0.0000 0.0000 0.0000 0.0000 22.9851
#
#
#
# Elastic Compliance Matrix: (Units=1/GPa)
#
#
# Indices 1 2 3 4 5 6 
#
# 1 0.034677 -0.008944 -0.004200 0.000000 0.000000 0.000000
# 2 -0.008944 0.023660 -0.003422 0.000000 0.000000 0.000000
# 3 -0.004200 -0.003422 0.014590 0.000000 0.000000 0.000000
# 4 0.000000 0.000000 0.000000 0.040694 0.000000 0.000000
# 5 0.000000 0.000000 0.000000 0.000000 0.037935 0.000000
# 6 0.000000 0.000000 0.000000 0.000000 0.000000 0.043506
#
#
# Mechanical properties :
#
#
# Convention : Reuss Voigt Hill
#
# Bulk Modulus (GPa) = 25.12813 27.70527 26.41670
# Shear Modulus (GPa) = 20.70738 22.54005 21.62371
#
# Velocity S-wave (km/s) = 3.26155 3.40282 3.33294
# Velocity P-wave (km/s) = 5.20504 5.44717 5.32748
#
# Compressibility (1/GPa) = 0.03979603
#
# Stress axis : x y z
#
# Youngs Moduli (GPa) = 28.83735 42.26482 68.54043
#
# Poissons Ratio (x) = 0.37800 0.28785
# Poissons Ratio (y) = 0.25791 0.23457
# Poissons Ratio (z) = 0.12111 0.14464
#
# Static dielectric constant tensor:
#      x y z
#    x 3.078020 0.000000 0.000000 
#    y 0.000000 3.630550 0.000000 
#    z 0.000000 0.000000 3.819830 
# 
# 
# High freq. dielectric constant tensor:
#      x y z
#    x 1.713260 0.000000 0.000000 
#    y 0.000000 1.753980 0.000000 
#    z 0.000000 0.000000 1.771110 
# 
# From -- ./inp_files/29018.got.cif
#   From: 2010.03.12/outbox.cif.g09.slc.cpg/sg59_15_cif.got.tgz:29018.got - 2010.04.16 16:29:54.
