data_PCOD8246912
_publ_section_title
;
Structure prediction by ZEFSAII (Michael W. Deem and Ramdas Pophale) SiO2 
 PCOD8246912
Probable space group: P B C N
;
_chemical_formula_sum "Si O2"
_cell_formula_units_Z 56
_cell_length_a 19.246842
_cell_length_b 9.304643
_cell_length_c 15.252646
_cell_angle_alpha 90.000000
_cell_angle_beta 90.000000
_cell_angle_gamma 90.000000
_cell_volume 2731.520013
_symmetry_space_group_name_H-M "P B C N"
_symmetry_group_IT_number 60
_symmetry_cell_setting 'orthorhombic'
loop_
_space_group_symop_operation_xyz
x,y,z
1/2-x,1/2-y,1/2+z
1/2+x,1/2-y,-z
-x,y,1/2-z
-x,-y,-z
1/2+x,1/2+y,1/2-z
1/2-x,1/2+y,z
x,-y,1/2+z
loop_
_atom_site_type_symbol
_atom_site_label
_atom_site_fract_x
_atom_site_fract_y
_atom_site_fract_z
Si Si1 0.261110 0.468985 0.355430
Si Si2 0.808242 0.869055 0.911321
Si Si3 0.299070 0.933499 0.034668
Si Si4 0.969162 0.160757 0.155660
Si Si5 0.452373 0.132167 0.526306
Si Si6 0.097883 0.100671 0.935366
Si Si7 0.175094 0.764418 0.777077
O O1 0.219302 0.483534 0.445736
O O2 0.337009 0.394168 0.367936
O O3 0.270511 0.626600 0.318529
O O4 0.213703 0.387245 0.284739
O O5 0.777205 0.734221 0.967225
O O6 0.841208 0.807337 0.822693
O O7 0.746952 0.983181 0.891878
O O8 0.871037 0.940861 0.967949
O O9 0.380564 0.941717 0.057272
O O10 0.895735 0.239069 0.168461
O O11 0.000000 0.115784 0.250000
O O12 0.017088 0.275931 0.106526
O O13 0.958557 0.016970 0.096518
O O14 0.438138 0.241345 0.444117
O O15 0.500000 0.000000 0.500000
#
# Coordination Sequence:
#
# PCOD8246912 Si02
#       7
#     8   8   8   8   8   8   8
#     4  10  20  36  59  82 111 144 187 243 289 334
#     4  10  20  36  60  86 114 144 190 245 289 346
#     4  10  20  37  57  83 112 149 190 233 289 347
#     4  11  23  39  59  82 116 159 199 238 285 350
#     4  11  22  37  58  85 119 156 192 237 296 364
#     4   9  21  40  59  81 110 154 201 236 283 350
#     4  11  21  35  56  85 112 144 185 238 294 335
#
# _framework density 20.501407
#
# number of rings (size 3 to 8) (size 9 to 14) (size 15 to 20)
#    0.000    1.714    0.000    6.429    0.000    2.286 
#    0.000    3.571    0.000    1.714    0.000    0.000 
#    0.000    0.000    0.000    0.000    0.000    0.000 
#
# Total GULP energy -694075.610356 kJ/mol
# GULP energy per Si atom -12394.207328 kJ/mol
# Density = 2.045474 g / cm^3
# Si number density = 20.501407 Si / 1000 Ang^3
#
#
#
# Elastic Constant Matrix: (Units=GPa)
#
#
# Indices 1 2 3 4 5 6 
#
# 1 114.9547 70.8459 27.1555 0.0000 0.0000 0.0000
# 2 70.8459 98.3920 29.7587 0.0000 0.0000 0.0000
# 3 27.1555 29.7587 79.4358 0.0000 0.0000 0.0000
# 4 0.0000 0.0000 0.0000 32.0238 0.0000 0.0000
# 5 0.0000 0.0000 0.0000 0.0000 26.6589 0.0000
# 6 0.0000 0.0000 0.0000 0.0000 0.0000 48.2565
#
#
#
# Elastic Compliance Matrix: (Units=1/GPa)
#
#
# Indices 1 2 3 4 5 6 
#
# 1 0.015754 -0.010956 -0.001281 0.000000 0.000000 0.000000
# 2 -0.010956 0.019081 -0.003403 0.000000 0.000000 0.000000
# 3 -0.001281 -0.003403 0.014302 0.000000 0.000000 0.000000
# 4 0.000000 0.000000 0.000000 0.031227 0.000000 0.000000
# 5 0.000000 0.000000 0.000000 0.000000 0.037511 0.000000
# 6 0.000000 0.000000 0.000000 0.000000 0.000000 0.020723
#
#
# Mechanical properties :
#
#
# Convention : Reuss Voigt Hill
#
# Bulk Modulus (GPa) = 56.00164 60.92252 58.46208
# Shear Modulus (GPa) = 28.43672 32.38933 30.41302
#
# Velocity S-wave (km/s) = 3.72837 3.97906 3.85575
# Velocity P-wave (km/s) = 6.77566 7.13381 6.95704
#
# Compressibility (1/GPa) = 0.01785662
#
# Stress axis : x y z
#
# Youngs Moduli (GPa) = 63.47722 52.40756 69.92211
#
# Poissons Ratio (x) = 0.57416 0.08958
# Poissons Ratio (y) = 0.69544 0.23795
# Poissons Ratio (z) = 0.08133 0.17835
#
# Static dielectric constant tensor:
#      x y z
#    x 3.825760 0.000000 0.000000 
#    y 0.000000 3.788450 0.000000 
#    z 0.000000 0.000000 3.658280 
# 
# 
# High freq. dielectric constant tensor:
#      x y z
#    x 1.807120 0.000000 0.000000 
#    y 0.000000 1.797370 0.000000 
#    z 0.000000 0.000000 1.789600 
# 
# From -- ./inp_files/17709.got.cif
#   From: 2010.03.12/outbox.cif.g09.slc.cpg/sg60_9_cif.got.tgz:17709.got - 2010.04.10 18:46:24.
