data_PCOD8246147
_publ_section_title
;
Structure prediction by ZEFSAII (Michael W. Deem and Ramdas Pophale) SiO2 
 PCOD8246147
Probable space group: P M M N
;
_chemical_formula_sum "Si O2"
_cell_formula_units_Z 56
_cell_length_a 9.382256
_cell_length_b 14.046389
_cell_length_c 26.488788
_cell_angle_alpha 90.000000
_cell_angle_beta 90.000000
_cell_angle_gamma 90.000000
_cell_volume 3490.873069
_symmetry_space_group_name_H-M "P M M N"
_symmetry_group_IT_number 59
_space_group.IT_coordinate_system_code '2'
_symmetry_cell_setting 'orthorhombic'
loop_
_space_group_symop_operation_xyz
x,y,z
1/2-x,1/2-y,z
1/2+x,-y,-z
-x,1/2+y,-z
-x,-y,-z
1/2+x,1/2+y,-z
1/2-x,y,z
x,1/2-y,z
loop_
_atom_site_type_symbol
_atom_site_label
_atom_site_fract_x
_atom_site_fract_y
_atom_site_fract_z
Si Si1 0.583984 0.643854 0.429703
Si Si2 0.916988 0.463760 0.374012
Si Si3 0.415998 0.859789 0.024581
Si Si4 0.912977 0.361887 0.473107
Si Si5 0.083357 0.979047 0.925854
Si Si6 0.080620 0.642627 0.721701
Si Si7 0.919641 0.143193 0.166694
O O1 0.750000 0.641715 0.443290
O O2 0.532648 0.750000 0.415166
O O3 0.550929 0.576047 0.381734
O O4 0.502839 0.603753 0.478641
O O5 0.750000 0.442235 0.371525
O O6 0.978673 0.408175 0.422549
O O7 0.985618 0.426628 0.321449
O O8 0.250000 0.867323 0.037707
O O9 0.467170 0.750000 0.026060
O O10 0.501899 0.921473 0.065717
O O11 0.448595 0.902443 0.969527
O O12 0.750000 0.394316 0.481533
O O13 0.926158 0.250000 0.466375
O O14 0.250000 0.002748 0.922528
O O15 0.023117 0.931972 0.874384
O O16 0.250000 0.637591 0.721517
O O17 0.030391 0.750000 0.709816
O O18 0.026860 0.611427 0.777452
O O19 0.750000 0.145086 0.164283
O O20 0.976037 0.250000 0.154800
#
# Coordination Sequence:
#
# PCOD8246147 Si02
#       7
#     8   8   8   8   8   8   8
#     4   9  17  27  37  51  73 100 126 150 181 223
#     4   9  15  23  36  53  75 100 123 151 187 225
#     4   9  17  28  41  59  85 115 143 169 200 240
#     4   9  16  25  38  56  75  94 119 152 187 222
#     4   9  16  26  42  63  85 109 138 171 204 238
#     4   8  13  21  35  57  81 101 123 154 193 233
#     4   8  13  22  38  60  84 107 130 160 200 242
#
# _framework density 16.041833
#
# number of rings (size 3 to 8) (size 9 to 14) (size 15 to 20)
#    0.000    3.286    0.000    2.143    0.000    3.714 
#    0.000    0.000    0.000    2.143    0.000    6.000 
#    0.000    4.571    0.000    0.000    0.000    0.000 
#
# Total GULP energy -693994.467079 kJ/mol
# GULP energy per Si atom -12392.758341 kJ/mol
# Density = 1.600532 g / cm^3
# Si number density = 16.041833 Si / 1000 Ang^3
#
#
#
# Elastic Constant Matrix: (Units=GPa)
#
#
# Indices 1 2 3 4 5 6 
#
# 1 21.0958 24.6121 24.7788 0.0000 0.0000 0.0000
# 2 24.6121 111.0494 78.0651 0.0000 0.0000 0.0000
# 3 24.7788 78.0651 131.7673 0.0000 0.0000 0.0000
# 4 0.0000 0.0000 0.0000 31.8077 0.0000 0.0000
# 5 0.0000 0.0000 0.0000 0.0000 13.9219 0.0000
# 6 0.0000 0.0000 0.0000 0.0000 0.0000 16.9823
#
#
#
# Elastic Compliance Matrix: (Units=1/GPa)
#
#
# Indices 1 2 3 4 5 6 
#
# 1 0.067052 -0.010277 -0.006520 0.000000 0.000000 0.000000
# 2 -0.010277 0.017007 -0.008143 0.000000 0.000000 0.000000
# 3 -0.006520 -0.008143 0.013640 0.000000 0.000000 0.000000
# 4 0.000000 0.000000 0.000000 0.031439 0.000000 0.000000
# 5 0.000000 0.000000 0.000000 0.000000 0.071829 0.000000
# 6 0.000000 0.000000 0.000000 0.000000 0.000000 0.058885
#
#
# Mechanical properties :
#
#
# Convention : Reuss Voigt Hill
#
# Bulk Modulus (GPa) = 20.91297 57.64717 39.28007
# Shear Modulus (GPa) = 15.35284 21.63949 18.49617
#
# Velocity S-wave (km/s) = 3.09698 3.67678 3.39926
# Velocity P-wave (km/s) = 5.08460 7.35109 6.32027
#
# Compressibility (1/GPa) = 0.04781721
#
# Stress axis : x y z
#
# Youngs Moduli (GPa) = 14.91382 58.79829 73.31492
#
# Poissons Ratio (x) = 0.60428 0.47805
# Poissons Ratio (y) = 0.15327 0.59703
# Poissons Ratio (z) = 0.09725 0.47881
#
# Static dielectric constant tensor:
#      x y z
#    x 2.675340 0.000000 0.000000 
#    y 0.000000 3.161680 0.000000 
#    z 0.000000 0.000000 3.279480 
# 
# 
# High freq. dielectric constant tensor:
#      x y z
#    x 1.567890 0.000000 0.000000 
#    y 0.000000 1.617450 0.000000 
#    z 0.000000 0.000000 1.608030 
# 
# From -- ./inp_files/33179.got.cif
#   From: 2010.03.12/outbox.cif.g09.slc.cpg/sg59_17_cif.got.tgz:33179.got - 2010.04.16 16:29:54.
