data_PCOD8246220
_publ_section_title
;
Structure prediction by ZEFSAII (Michael W. Deem and Ramdas Pophale) SiO2 
 PCOD8246220
Probable space group: P M M N
;
_chemical_formula_sum "Si O2"
_cell_formula_units_Z 64
_cell_length_a 9.160039
_cell_length_b 15.542839
_cell_length_c 24.088208
_cell_angle_alpha 90.000000
_cell_angle_beta 90.000000
_cell_angle_gamma 90.000000
_cell_volume 3429.510712
_symmetry_space_group_name_H-M "P M M N"
_symmetry_group_IT_number 59
_space_group.IT_coordinate_system_code '2'
_symmetry_cell_setting 'orthorhombic'
loop_
_space_group_symop_operation_xyz
x,y,z
1/2-x,1/2-y,z
1/2+x,-y,-z
-x,1/2+y,-z
-x,-y,-z
1/2+x,1/2+y,-z
1/2-x,y,z
x,1/2-y,z
loop_
_atom_site_type_symbol
_atom_site_label
_atom_site_fract_x
_atom_site_fract_y
_atom_site_fract_z
Si Si1 0.586456 0.148111 0.940405
Si Si2 0.920970 0.418260 0.474338
Si Si3 0.413935 0.147931 0.045857
Si Si4 0.079353 0.501443 0.635437
Si Si5 0.422647 0.991041 0.757601
Si Si6 0.083466 0.343956 0.565453
Si Si7 0.920940 0.848144 0.170537
Si Si8 0.921951 0.348859 0.156847
O O1 0.750000 0.109652 0.939757
O O2 0.592663 0.250000 0.945793
O O3 0.504955 0.121591 0.884270
O O4 0.498923 0.109104 0.992772
O O5 0.750000 0.420707 0.486834
O O6 0.949388 0.419175 0.407462
O O7 0.000000 0.500000 0.500000
O O8 0.994053 0.339030 0.507030
O O9 0.250000 0.110182 0.047176
O O10 0.409102 0.250000 0.041230
O O11 0.498144 0.120096 0.101238
O O12 0.250000 0.487562 0.645004
O O13 0.007604 0.518386 0.695730
O O14 0.016365 0.413071 0.608559
O O15 0.250000 0.982970 0.755003
O O16 0.480793 0.911542 0.794557
O O17 0.467110 0.084869 0.781426
O O18 0.250000 0.369432 0.551140
O O19 0.074061 0.250000 0.593328
O O20 0.750000 0.854292 0.157280
O O21 0.962572 0.750000 0.188211
O O22 0.750000 0.359233 0.146770
O O23 0.960904 0.250000 0.172303
#
# Coordination Sequence:
#
# PCOD8246220 Si02
#       8
#     8   8   8   8   8   8   8   8
#     4   9  16  27  45  68  94 123 153 187 231 285
#     4   9  16  28  47  69  94 124 157 193 235 281
#     4   9  16  27  46  70  93 117 149 193 241 286
#     4   8  15  28  46  68  93 122 157 196 234 274
#     4   9  17  30  48  70  95 123 159 200 237 277
#     4   9  17  29  47  72 100 128 159 197 241 288
#     4   9  17  29  46  68  93 121 153 190 232 278
#     4   9  17  30  48  68  90 118 152 191 237 287
#
# _framework density 18.661556000000001
#
# number of rings (size 3 to 8) (size 9 to 14) (size 15 to 20)
#    0.000    3.125    0.000    1.875    0.000    3.750 
#    0.000    4.375    0.000    9.750    0.000    5.250 
#    0.000    0.000    0.000    0.000    0.000    0.000 
#
# Total GULP energy -793014.148064 kJ/mol
# GULP energy per Si atom -12390.846063 kJ/mol
# Density = 1.861908 g / cm^3
# Si number density = 18.661556 Si / 1000 Ang^3
#
#
#
# Elastic Constant Matrix: (Units=GPa)
#
#
# Indices 1 2 3 4 5 6 
#
# 1 64.3355 10.6463 41.1617 0.0000 0.0000 0.0000
# 2 10.6463 47.3933 30.3710 0.0000 0.0000 0.0000
# 3 41.1617 30.3710 149.6167 0.0000 0.0000 0.0000
# 4 0.0000 0.0000 0.0000 20.6274 0.0000 0.0000
# 5 0.0000 0.0000 0.0000 0.0000 21.2588 0.0000
# 6 0.0000 0.0000 0.0000 0.0000 0.0000 11.3036
#
#
#
# Elastic Compliance Matrix: (Units=1/GPa)
#
#
# Indices 1 2 3 4 5 6 
#
# 1 0.018909 -0.001051 -0.004989 0.000000 0.000000 0.000000
# 2 -0.001051 0.024314 -0.004646 0.000000 0.000000 0.000000
# 3 -0.004989 -0.004646 0.008999 0.000000 0.000000 0.000000
# 4 0.000000 0.000000 0.000000 0.048479 0.000000 0.000000
# 5 0.000000 0.000000 0.000000 0.000000 0.047039 0.000000
# 6 0.000000 0.000000 0.000000 0.000000 0.000000 0.088468
#
#
# Mechanical properties :
#
#
# Convention : Reuss Voigt Hill
#
# Bulk Modulus (GPa) = 32.41456 47.30037 39.85747
# Shear Modulus (GPa) = 18.66620 22.58240 20.62430
#
# Velocity S-wave (km/s) = 3.16610 3.48243 3.32803
# Velocity P-wave (km/s) = 5.54734 6.44757 6.01432
#
# Compressibility (1/GPa) = 0.03085033
#
# Stress axis : x y z
#
# Youngs Moduli (GPa) = 52.88406 41.12922 111.11772
#
# Poissons Ratio (x) = 0.04321 0.55436
# Poissons Ratio (y) = 0.05556 0.51630
# Poissons Ratio (z) = 0.26384 0.19110
#
# Static dielectric constant tensor:
#      x y z
#    x 3.407860 0.000000 0.000000 
#    y 0.000000 4.269930 0.000000 
#    z 0.000000 0.000000 3.804030 
# 
# 
# High freq. dielectric constant tensor:
#      x y z
#    x 1.698310 0.000000 0.000000 
#    y 0.000000 1.704810 0.000000 
#    z 0.000000 0.000000 1.721720 
# 
# From -- ./inp_files/31764.got.cif
#   From: 2010.03.12/outbox.cif.g09.slc.cpg/sg59_16_cif.got.tgz:31764.got - 2010.04.16 16:29:54.
