data_PCOD8246336
_publ_section_title
;
Structure prediction by ZEFSAII (Michael W. Deem and Ramdas Pophale) SiO2 
 PCOD8246336
Probable space group: P B C N
;
_chemical_formula_sum "Si O2"
_cell_formula_units_Z 48
_cell_length_a 12.194866
_cell_length_b 8.261634
_cell_length_c 24.294821
_cell_angle_alpha 90.000000
_cell_angle_beta 90.000000
_cell_angle_gamma 90.000000
_cell_volume 2447.691544
_symmetry_space_group_name_H-M "P B C N"
_symmetry_group_IT_number 60
_symmetry_cell_setting 'orthorhombic'
loop_
_space_group_symop_operation_xyz
x,y,z
1/2-x,1/2-y,1/2+z
1/2+x,1/2-y,-z
-x,y,1/2-z
-x,-y,-z
1/2+x,1/2+y,1/2-z
1/2-x,1/2+y,z
x,-y,1/2+z
loop_
_atom_site_type_symbol
_atom_site_label
_atom_site_fract_x
_atom_site_fract_y
_atom_site_fract_z
Si Si1 0.467672 0.066966 0.089743
Si Si2 0.296903 0.341560 0.685018
Si Si3 0.125156 0.949278 0.510000
Si Si4 0.657258 0.925162 0.510808
Si Si5 0.644522 0.372866 0.380624
Si Si6 0.092574 0.536278 0.707736
O O1 0.459332 0.256340 0.108484
O O2 0.379374 0.035507 0.041196
O O3 0.449160 0.959827 0.144281
O O4 0.587594 0.032015 0.065352
O O5 0.251187 0.237614 0.632624
O O6 0.372440 0.495569 0.668319
O O7 0.189927 0.407395 0.717060
O O8 0.367506 0.218906 0.722367
O O9 0.216834 0.035309 0.470906
O O10 0.168186 0.014143 0.567939
O O11 0.135956 0.758459 0.506359
O O12 0.000000 0.000000 0.500000
O O13 0.000000 0.482622 0.750000
#
# Coordination Sequence:
#
# PCOD8246336 Si02
#       6
#     8   8   8   8   8   8
#     4  10  21  38  60  86 120 157 195 251 299 342
#     4   9  19  35  63  85 112 146 204 246 281 351
#     4  12  22  34  57  84 120 164 200 242 292 354
#     4  11  23  37  55  86 127 158 202 243 292 357
#     4  10  17  34  55  85 109 152 201 241 279 342
#     4  10  20  39  64  88 114 151 197 244 302 346
#
# _framework density 19.610315
#
# number of rings (size 3 to 8) (size 9 to 14) (size 15 to 20)
#    0.000    1.667    1.667    6.000    2.333    0.000 
#    0.000    9.167    0.000    0.000    0.000    0.000 
#    0.000    0.000    0.000    0.000    0.000    0.000 
#
# Total GULP energy -594661.732438 kJ/mol
# GULP energy per Si atom -12388.786092 kJ/mol
# Density = 1.956568 g / cm^3
# Si number density = 19.610315 Si / 1000 Ang^3
#
#
#
# Elastic Constant Matrix: (Units=GPa)
#
#
# Indices 1 2 3 4 5 6 
#
# 1 135.1621 45.1052 32.5806 0.0000 0.0000 0.0000
# 2 45.1052 125.7128 21.6538 0.0000 0.0000 0.0000
# 3 32.5806 21.6538 57.2645 0.0000 0.0000 0.0000
# 4 0.0000 0.0000 0.0000 15.8862 0.0000 0.0000
# 5 0.0000 0.0000 0.0000 0.0000 18.5705 0.0000
# 6 0.0000 0.0000 0.0000 0.0000 0.0000 23.0532
#
#
#
# Elastic Compliance Matrix: (Units=1/GPa)
#
#
# Indices 1 2 3 4 5 6 
#
# 1 0.009304 -0.002596 -0.004312 0.000000 0.000000 0.000000
# 2 -0.002596 0.009233 -0.002015 0.000000 0.000000 0.000000
# 3 -0.004312 -0.002015 0.020678 0.000000 0.000000 0.000000
# 4 0.000000 0.000000 0.000000 0.062948 0.000000 0.000000
# 5 0.000000 0.000000 0.000000 0.000000 0.053849 0.000000
# 6 0.000000 0.000000 0.000000 0.000000 0.000000 0.043378
#
#
# Mechanical properties :
#
#
# Convention : Reuss Voigt Hill
#
# Bulk Modulus (GPa) = 46.79326 57.42428 52.10877
# Shear Modulus (GPa) = 22.28584 26.08862 24.18723
#
# Velocity S-wave (km/s) = 3.37476 3.65136 3.51578
# Velocity P-wave (km/s) = 6.25290 6.86460 6.56588
#
# Compressibility (1/GPa) = 0.02137060
#
# Stress axis : x y z
#
# Youngs Moduli (GPa) = 107.47946 108.30826 48.36059
#
# Poissons Ratio (x) = 0.28112 0.20854
# Poissons Ratio (y) = 0.27897 0.09743
# Poissons Ratio (z) = 0.46346 0.21820
#
# Static dielectric constant tensor:
#      x y z
#    x 3.725460 0.000000 0.000000 
#    y 0.000000 3.914310 0.000000 
#    z 0.000000 0.000000 3.198940 
# 
# 
# High freq. dielectric constant tensor:
#      x y z
#    x 1.753100 0.000000 0.000000 
#    y 0.000000 1.786520 0.000000 
#    z 0.000000 0.000000 1.715410 
# 
# From -- ./inp_files/24210.got.cif
#   From: 2010.03.12/outbox.cif.g09.slc.cpg/sg60_13_cif.got.tgz:24210.got - 2010.04.10 18:46:24.
