data_PCOD8246537
_publ_section_title
;
Structure prediction by ZEFSAII (Michael W. Deem and Ramdas Pophale) SiO2 
 PCOD8246537
Probable space group: P B C N
;
_chemical_formula_sum "Si O2"
_cell_formula_units_Z 48
_cell_length_a 19.376132
_cell_length_b 33.200164
_cell_length_c 5.125703
_cell_angle_alpha 90.000000
_cell_angle_beta 90.000000
_cell_angle_gamma 90.000000
_cell_volume 3297.317379
_symmetry_space_group_name_H-M "P B C N"
_symmetry_group_IT_number 60
_symmetry_cell_setting 'orthorhombic'
loop_
_space_group_symop_operation_xyz
x,y,z
1/2-x,1/2-y,1/2+z
1/2+x,1/2-y,-z
-x,y,1/2-z
-x,-y,-z
1/2+x,1/2+y,1/2-z
1/2-x,1/2+y,z
x,-y,1/2+z
loop_
_atom_site_type_symbol
_atom_site_label
_atom_site_fract_x
_atom_site_fract_y
_atom_site_fract_z
Si Si1 0.426345 0.888852 0.372207
Si Si2 0.454215 0.226367 0.495198
Si Si3 0.629994 0.850729 0.597818
Si Si4 0.576511 0.981989 0.016081
Si Si5 0.761528 0.803005 0.621621
Si Si6 0.828528 0.777310 0.116838
O O1 0.500000 0.875306 0.250000
O O2 0.405184 0.862061 0.624318
O O3 0.427312 0.934233 0.471724
O O4 0.374394 0.885098 0.126132
O O5 0.500000 0.235329 0.750000
O O6 0.405913 0.187714 0.540380
O O7 0.408520 0.265478 0.421126
O O8 0.500000 0.215630 0.250000
O O9 0.710969 0.841517 0.631739
O O10 0.616350 0.002503 0.258917
O O11 0.500000 0.000000 0.000000
O O12 0.814186 0.802991 0.377837
O O13 0.716565 0.762827 0.623304
O O14 0.807837 0.805813 0.878290
#
# Coordination Sequence:
#
# PCOD8246537 Si02
#       6
#     8   8   8   8   8   8
#     4  12  21  30  44  59  81 105 135 166 231 264
#     4  11  20  31  41  62  87 102 129 165 218 264
#     4  11  22  30  42  62  83 106 127 176 219 265
#     4  10  19  32  44  56  72 102 140 175 192 254
#     4   9  17  31  43  58  74  98 143 160 196 249
#     4   9  17  29  47  55  72 108 130 164 195 245
#
# _framework density 14.557287000000001
#
# number of rings (size 3 to 8) (size 9 to 14) (size 15 to 20)
#    0.000    1.667    1.667    6.000    2.333    5.333 
#    0.000    0.000    0.000    0.000    0.000    0.000 
#    0.000    0.000    0.000    0.000    0.000    0.000 
#
# Total GULP energy -594853.859337 kJ/mol
# GULP energy per Si atom -12392.788736 kJ/mol
# Density = 1.452415 g / cm^3
# Si number density = 14.557287 Si / 1000 Ang^3
#
#
#
# Elastic Constant Matrix: (Units=GPa)
#
#
# Indices 1 2 3 4 5 6 
#
# 1 31.7151 21.6196 11.7838 0.0000 0.0000 0.0000
# 2 21.6196 48.8972 21.6044 0.0000 0.0000 0.0000
# 3 11.7838 21.6044 115.5426 0.0000 0.0000 0.0000
# 4 0.0000 0.0000 0.0000 23.6426 0.0000 0.0000
# 5 0.0000 0.0000 0.0000 0.0000 20.7694 0.0000
# 6 0.0000 0.0000 0.0000 0.0000 0.0000 11.6795
#
#
#
# Elastic Compliance Matrix: (Units=1/GPa)
#
#
# Indices 1 2 3 4 5 6 
#
# 1 0.045230 -0.019578 -0.000952 0.000000 0.000000 0.000000
# 2 -0.019578 0.030767 -0.003756 0.000000 0.000000 0.000000
# 3 -0.000952 -0.003756 0.009454 0.000000 0.000000 0.000000
# 4 0.000000 0.000000 0.000000 0.042297 0.000000 0.000000
# 5 0.000000 0.000000 0.000000 0.000000 0.048148 0.000000
# 6 0.000000 0.000000 0.000000 0.000000 0.000000 0.085620
#
#
# Mechanical properties :
#
#
# Convention : Reuss Voigt Hill
#
# Bulk Modulus (GPa) = 27.11545 34.01894 30.56720
# Shear Modulus (GPa) = 15.50962 20.62811 18.06887
#
# Velocity S-wave (km/s) = 3.26762 3.76843 3.52692
# Velocity P-wave (km/s) = 5.73617 6.50803 6.13425
#
# Compressibility (1/GPa) = 0.03687934
#
# Stress axis : x y z
#
# Youngs Moduli (GPa) = 22.10913 32.50258 105.77229
#
# Poissons Ratio (x) = 0.63632 0.10072
# Poissons Ratio (y) = 0.43284 0.39730
# Poissons Ratio (z) = 0.02105 0.12209
#
# Static dielectric constant tensor:
#      x y z
#    x 2.665330 0.000000 0.000000 
#    y 0.000000 2.608200 0.000000 
#    z 0.000000 0.000000 0.849100 
# 
# 
# High freq. dielectric constant tensor:
#      x y z
#    x 1.511090 0.000000 0.000000 
#    y 0.000000 1.516930 0.000000 
#    z 0.000000 0.000000 1.590920 
# 
# From -- ./inp_files/1864.got.cif
#   From: 2010.03.12/outbox.cif.g09.slc.cpg/sg60_1_cif.got.tgz:1864.got - 2010.04.10 18:46:24.
