data_PCOD8246776
_publ_section_title
;
Structure prediction by ZEFSAII (Michael W. Deem and Ramdas Pophale) SiO2 
 PCOD8246776
Probable space group: P B C N
;
_chemical_formula_sum "Si O2"
_cell_formula_units_Z 56
_cell_length_a 13.465315
_cell_length_b 9.672114
_cell_length_c 19.254925
_cell_angle_alpha 90.000000
_cell_angle_beta 90.000000
_cell_angle_gamma 90.000000
_cell_volume 2507.724111
_symmetry_space_group_name_H-M "P B C N"
_symmetry_group_IT_number 60
_symmetry_cell_setting 'orthorhombic'
loop_
_space_group_symop_operation_xyz
x,y,z
1/2-x,1/2-y,1/2+z
1/2+x,1/2-y,-z
-x,y,1/2-z
-x,-y,-z
1/2+x,1/2+y,1/2-z
1/2-x,1/2+y,z
x,-y,1/2+z
loop_
_atom_site_type_symbol
_atom_site_label
_atom_site_fract_x
_atom_site_fract_y
_atom_site_fract_z
Si Si1 0.489187 0.783163 0.674509
Si Si2 0.650766 0.297850 0.447920
Si Si3 0.957950 0.226369 0.318855
Si Si4 0.639041 0.805958 0.093245
Si Si5 0.192780 0.406315 0.859056
Si Si6 0.306746 0.579388 0.094655
Si Si7 0.840002 0.513026 0.789943
O O1 0.500000 0.704320 0.750000
O O2 0.420766 0.703146 0.619384
O O3 0.594780 0.810642 0.638479
O O4 0.438741 0.928721 0.692546
O O5 0.599915 0.233464 0.516150
O O6 0.675909 0.459051 0.462429
O O7 0.752807 0.212574 0.437019
O O8 0.871087 0.327080 0.290537
O O9 0.000000 0.149533 0.250000
O O10 0.044964 0.312155 0.356155
O O11 0.913244 0.119306 0.373465
O O12 0.716555 0.689660 0.118096
O O13 0.684947 0.960379 0.090389
O O14 0.209465 0.467413 0.782236
O O15 0.243276 0.505816 0.153376
#
# Coordination Sequence:
#
# PCOD8246776 Si02
#       7
#     8   8   8   8   8   8   8
#     4   9  20  40  67  92 127 173 232 281 330 399
#     4  11  25  43  64  99 136 185 231 273 346 410
#     4  12  22  42  69 101 134 171 230 283 344 399
#     4  12  26  41  66 101 139 187 224 283 338 413
#     4  11  23  41  66  96 136 176 230 281 343 402
#     4  11  24  42  68  95 135 180 224 286 335 412
#     4  10  19  41  68  97 124 175 227 282 335 402
#
# _framework density 22.331005000000001
#
# number of rings (size 3 to 8) (size 9 to 14) (size 15 to 20)
#    0.000    1.143    4.286    2.143    0.000    5.143 
#    0.000    0.000    0.000    0.000    0.000    0.000 
#    0.000    0.000    0.000    0.000    0.000    0.000 
#
# Total GULP energy -694313.502263 kJ/mol
# GULP energy per Si atom -12398.455398 kJ/mol
# Density = 2.228018 g / cm^3
# Si number density = 22.331005 Si / 1000 Ang^3
#
#
#
# Elastic Constant Matrix: (Units=GPa)
#
#
# Indices 1 2 3 4 5 6 
#
# 1 70.8431 24.2052 18.5748 0.0000 0.0000 0.0000
# 2 24.2052 95.8997 8.5368 0.0000 0.0000 0.0000
# 3 18.5748 8.5368 84.0064 0.0000 0.0000 0.0000
# 4 0.0000 0.0000 0.0000 14.9577 0.0000 0.0000
# 5 0.0000 0.0000 0.0000 0.0000 31.3964 0.0000
# 6 0.0000 0.0000 0.0000 0.0000 0.0000 14.4054
#
#
#
# Elastic Compliance Matrix: (Units=1/GPa)
#
#
# Indices 1 2 3 4 5 6 
#
# 1 0.016262 -0.003819 -0.003208 0.000000 0.000000 0.000000
# 2 -0.003819 0.011420 -0.000316 0.000000 0.000000 0.000000
# 3 -0.003208 -0.000316 0.012645 0.000000 0.000000 0.000000
# 4 0.000000 0.000000 0.000000 0.066855 0.000000 0.000000
# 5 0.000000 0.000000 0.000000 0.000000 0.031851 0.000000
# 6 0.000000 0.000000 0.000000 0.000000 0.000000 0.069419
#
#
# Mechanical properties :
#
#
# Convention : Reuss Voigt Hill
#
# Bulk Modulus (GPa) = 38.99956 39.26475 39.13216
# Shear Modulus (GPa) = 21.58122 25.44739 23.51431
#
# Velocity S-wave (km/s) = 3.11211 3.37939 3.24850
# Velocity P-wave (km/s) = 5.51506 5.73134 5.62424
#
# Compressibility (1/GPa) = 0.02564132
#
# Stress axis : x y z
#
# Youngs Moduli (GPa) = 61.49485 87.56885 79.08135
#
# Poissons Ratio (x) = 0.33442 0.25366
# Poissons Ratio (y) = 0.23484 0.02499
# Poissons Ratio (z) = 0.19725 0.02768
#
# Static dielectric constant tensor:
#      x y z
#    x 4.026710 0.000000 0.000000 
#    y 0.000000 3.848480 0.000000 
#    z 0.000000 0.000000 4.379640 
# 
# 
# High freq. dielectric constant tensor:
#      x y z
#    x 1.875230 0.000000 0.000000 
#    y 0.000000 1.871130 0.000000 
#    z 0.000000 0.000000 1.881750 
# 
# From -- ./inp_files/22905.got.cif
#   From: 2010.03.12/outbox.cif.g09.slc.cpg/sg60_12_cif.got.tgz:22905.got - 2010.04.10 18:46:24.
