data_PCOD8246217
_publ_section_title
;
Structure prediction by ZEFSAII (Michael W. Deem and Ramdas Pophale) SiO2 
 PCOD8246217
Probable space group: P M M N
;
_chemical_formula_sum "Si O2"
_cell_formula_units_Z 64
_cell_length_a 17.988214
_cell_length_b 9.211443
_cell_length_c 23.129907
_cell_angle_alpha 90.000000
_cell_angle_beta 90.000000
_cell_angle_gamma 90.000000
_cell_volume 3832.565636
_symmetry_space_group_name_H-M "P M M N"
_symmetry_group_IT_number 59
_space_group.IT_coordinate_system_code '2'
_symmetry_cell_setting 'orthorhombic'
loop_
_space_group_symop_operation_xyz
x,y,z
1/2-x,1/2-y,z
1/2+x,-y,-z
-x,1/2+y,-z
-x,-y,-z
1/2+x,1/2+y,-z
1/2-x,y,z
x,1/2-y,z
loop_
_atom_site_type_symbol
_atom_site_label
_atom_site_fract_x
_atom_site_fract_y
_atom_site_fract_z
Si Si1 0.964223 0.079627 0.126204
Si Si2 0.533425 0.918239 0.632307
Si Si3 0.460889 0.078264 0.240408
Si Si4 0.667983 0.078745 0.050616
Si Si5 0.334768 0.913743 0.183239
Si Si6 0.091695 0.582480 0.064690
Si Si7 0.066447 0.580325 0.531287
Si Si8 0.835500 0.921013 0.549010
O O1 0.979967 0.250000 0.122045
O O2 0.879883 0.041170 0.107991
O O3 0.979595 0.023651 0.191912
O O4 0.017502 0.004720 0.079676
O O5 0.550562 0.750000 0.640035
O O6 0.522813 0.988875 0.695953
O O7 0.454714 0.941422 0.598963
O O8 0.606880 0.979381 0.598351
O O9 0.462039 0.250000 0.243136
O O10 0.379723 0.026556 0.221872
O O11 0.750000 0.009230 0.057913
O O12 0.675464 0.250000 0.042619
O O13 0.627748 0.016414 0.993456
O O14 0.250000 0.944660 0.197514
O O15 0.357986 0.750000 0.200267
O O16 0.348138 0.938342 0.115335
O O17 0.069360 0.750000 0.056372
O O18 0.068999 0.750000 0.515022
O O19 0.143239 0.503571 0.511250
O O20 0.000000 0.500000 0.500000
O O21 0.750000 0.958334 0.565631
O O22 0.845570 0.750000 0.538404
#
# Coordination Sequence:
#
# PCOD8246217 Si02
#       8
#     8   8   8   8   8   8   8   8
#     4   9  17  28  43  63  85 107 135 176 215 243
#     4   8  15  28  45  63  84 114 148 175 200 243
#     4   9  17  29  44  61  82 111 145 174 203 241
#     4   9  16  26  42  63  83 105 136 172 211 256
#     4   9  17  28  40  57  83 111 139 173 210 247
#     4   9  16  27  44  61  79 108 141 169 205 258
#     4   9  16  28  46  65  86 113 144 175 208 246
#     4   9  17  29  45  66  91 115 139 171 212 255
#
# _framework density 16.698995
#
# number of rings (size 3 to 8) (size 9 to 14) (size 15 to 20)
#    0.000    3.125    0.000    1.875    0.000    2.500 
#    0.000    4.375    0.000    3.000    0.000    3.500 
#    0.000    0.000    0.000    0.000    0.000    0.000 
#
# Total GULP energy -792963.628128 kJ/mol
# GULP energy per Si atom -12390.056690 kJ/mol
# Density = 1.666099 g / cm^3
# Si number density = 16.698995 Si / 1000 Ang^3
#
#
#
# Elastic Constant Matrix: (Units=GPa)
#
#
# Indices 1 2 3 4 5 6 
#
# 1 98.2561 21.1569 65.7863 0.0000 0.0000 0.0000
# 2 21.1569 25.0309 22.1653 0.0000 0.0000 0.0000
# 3 65.7863 22.1653 125.6355 0.0000 0.0000 0.0000
# 4 0.0000 0.0000 0.0000 15.7751 0.0000 0.0000
# 5 0.0000 0.0000 0.0000 0.0000 14.7613 0.0000
# 6 0.0000 0.0000 0.0000 0.0000 0.0000 21.0680
#
#
#
# Elastic Compliance Matrix: (Units=1/GPa)
#
#
# Indices 1 2 3 4 5 6 
#
# 1 0.016810 -0.007601 -0.007461 0.000000 0.000000 0.000000
# 2 -0.007601 0.050785 -0.004980 0.000000 0.000000 0.000000
# 3 -0.007461 -0.004980 0.012745 0.000000 0.000000 0.000000
# 4 0.000000 0.000000 0.000000 0.063391 0.000000 0.000000
# 5 0.000000 0.000000 0.000000 0.000000 0.067745 0.000000
# 6 0.000000 0.000000 0.000000 0.000000 0.000000 0.047465
#
#
# Mechanical properties :
#
#
# Convention : Reuss Voigt Hill
#
# Bulk Modulus (GPa) = 24.84105 51.90437 38.37271
# Shear Modulus (GPa) = 16.00294 19.64181 17.82238
#
# Velocity S-wave (km/s) = 3.09903 3.43334 3.27046
# Velocity P-wave (km/s) = 5.26435 6.84594 6.10656
#
# Compressibility (1/GPa) = 0.04025595
#
# Stress axis : x y z
#
# Youngs Moduli (GPa) = 59.48985 19.69089 78.46340
#
# Poissons Ratio (x) = 0.14967 0.58541
# Poissons Ratio (y) = 0.45220 0.39071
# Poissons Ratio (z) = 0.44385 0.09805
#
# Static dielectric constant tensor:
#      x y z
#    x 3.260250 0.000000 0.000000 
#    y 0.000000 2.979540 0.000000 
#    z 0.000000 0.000000 3.530700 
# 
# 
# High freq. dielectric constant tensor:
#      x y z
#    x 1.628530 0.000000 0.000000 
#    y 0.000000 1.618330 0.000000 
#    z 0.000000 0.000000 1.637910 
# 
# From -- ./inp_files/31758.got.cif
#   From: 2010.03.12/outbox.cif.g09.slc.cpg/sg59_16_cif.got.tgz:31758.got - 2010.04.16 16:29:54.
