data_PCOD8246833
_publ_section_title
;
Structure prediction by ZEFSAII (Michael W. Deem and Ramdas Pophale) SiO2 
 PCOD8246833
Probable space group: P B C N
;
_chemical_formula_sum "Si O2"
_cell_formula_units_Z 56
_cell_length_a 20.140834
_cell_length_b 14.981404
_cell_length_c 9.486828
_cell_angle_alpha 90.000000
_cell_angle_beta 90.000000
_cell_angle_gamma 90.000000
_cell_volume 2862.536232
_symmetry_space_group_name_H-M "P B C N"
_symmetry_group_IT_number 60
_symmetry_cell_setting 'orthorhombic'
loop_
_space_group_symop_operation_xyz
x,y,z
1/2-x,1/2-y,1/2+z
1/2+x,1/2-y,-z
-x,y,1/2-z
-x,-y,-z
1/2+x,1/2+y,1/2-z
1/2-x,1/2+y,z
x,-y,1/2+z
loop_
_atom_site_type_symbol
_atom_site_label
_atom_site_fract_x
_atom_site_fract_y
_atom_site_fract_z
Si Si1 0.023582 0.861682 0.092369
Si Si2 0.800266 0.587268 0.596980
Si Si3 0.182497 0.604127 0.347425
Si Si4 0.134675 0.279131 0.601805
Si Si5 0.229324 0.309823 0.128351
Si Si6 0.799086 0.112173 0.351303
Si Si7 0.555729 0.555987 0.370160
O O1 0.067556 0.773820 0.066681
O O2 0.000000 0.855354 0.250000
O O3 0.059879 0.956505 0.063417
O O4 0.960828 0.866696 0.985821
O O5 0.841263 0.493644 0.600447
O O6 0.851236 0.658103 0.531101
O O7 0.782968 0.614926 0.755825
O O8 0.732256 0.584863 0.503544
O O9 0.132265 0.658125 0.243374
O O10 0.197352 0.665136 0.480174
O O11 0.250149 0.576639 0.268373
O O12 0.191739 0.204920 0.617846
O O13 0.194351 0.217916 0.169703
O O14 0.870429 0.072152 0.315733
O O15 0.500000 0.561327 0.250000
#
# Coordination Sequence:
#
# PCOD8246833 Si02
#       7
#     8   8   8   8   8   8   8
#     4  10  24  40  58  83 117 156 194 233 280 338
#     4  10  21  35  57  89 115 151 189 235 302 342
#     4  10  21  35  57  88 114 149 186 239 296 344
#     4  10  21  37  57  82 118 150 189 239 287 346
#     4  10  20  34  56  84 115 148 190 232 290 355
#     4  10  21  36  56  85 119 153 184 234 289 342
#     4  10  24  39  57  86 115 156 198 228 276 341
#
# _framework density 19.56307
#
# number of rings (size 3 to 8) (size 9 to 14) (size 15 to 20)
#    0.000    2.286    0.000    5.143   12.000    1.143 
#    0.000    0.000    0.000    0.857    0.000    0.000 
#    0.000    0.000    0.000    0.000    0.000    0.000 
#
# Total GULP energy -694005.042526 kJ/mol
# GULP energy per Si atom -12392.947188 kJ/mol
# Density = 1.951854 g / cm^3
# Si number density = 19.563070 Si / 1000 Ang^3
#
#
#
# Elastic Constant Matrix: (Units=GPa)
#
#
# Indices 1 2 3 4 5 6 
#
# 1 69.0016 28.2571 11.4375 0.0000 0.0000 0.0000
# 2 28.2571 96.4864 10.1943 0.0000 0.0000 0.0000
# 3 11.4375 10.1943 83.7769 0.0000 0.0000 0.0000
# 4 0.0000 0.0000 0.0000 36.8799 0.0000 0.0000
# 5 0.0000 0.0000 0.0000 0.0000 11.8280 0.0000
# 6 0.0000 0.0000 0.0000 0.0000 0.0000 25.6960
#
#
#
# Elastic Compliance Matrix: (Units=1/GPa)
#
#
# Indices 1 2 3 4 5 6 
#
# 1 0.016705 -0.004712 -0.001707 0.000000 0.000000 0.000000
# 2 -0.004712 0.011828 -0.000796 0.000000 0.000000 0.000000
# 3 -0.001707 -0.000796 0.012266 0.000000 0.000000 0.000000
# 4 0.000000 0.000000 0.000000 0.027115 0.000000 0.000000
# 5 0.000000 0.000000 0.000000 0.000000 0.084545 0.000000
# 6 0.000000 0.000000 0.000000 0.000000 0.000000 0.038917
#
#
# Mechanical properties :
#
#
# Convention : Reuss Voigt Hill
#
# Bulk Modulus (GPa) = 37.92293 38.78254 38.35274
# Shear Modulus (GPa) = 23.29954 28.17251 25.73603
#
# Velocity S-wave (km/s) = 3.45483 3.79896 3.63097
# Velocity P-wave (km/s) = 5.94487 6.25382 6.10130
#
# Compressibility (1/GPa) = 0.02636927
#
# Stress axis : x y z
#
# Youngs Moduli (GPa) = 59.86242 84.54390 81.52347
#
# Poissons Ratio (x) = 0.39836 0.13918
# Poissons Ratio (y) = 0.28206 0.06489
# Poissons Ratio (z) = 0.10220 0.06730
#
# Static dielectric constant tensor:
#      x y z
#    x 3.216210 0.000000 0.000000 
#    y 0.000000 3.666520 0.000000 
#    z 0.000000 0.000000 3.726250 
# 
# 
# High freq. dielectric constant tensor:
#      x y z
#    x 1.712170 0.000000 0.000000 
#    y 0.000000 1.772130 0.000000 
#    z 0.000000 0.000000 1.777430 
# 
# From -- ./inp_files/7423.got.cif
#   From: 2010.03.12/outbox.cif.g09.slc.cpg/sg60_4_cif.got.tgz:7423.got - 2010.04.10 18:46:24.
