data_PCOD8246642
_publ_section_title
;
Structure prediction by ZEFSAII (Michael W. Deem and Ramdas Pophale) SiO2 
 PCOD8246642
Probable space group: P B C N
;
_chemical_formula_sum "Si O2"
_cell_formula_units_Z 64
_cell_length_a 5.224712
_cell_length_b 27.318107
_cell_length_c 24.885464
_cell_angle_alpha 90.000000
_cell_angle_beta 90.000000
_cell_angle_gamma 90.000000
_cell_volume 3551.883400
_symmetry_space_group_name_H-M "P B C N"
_symmetry_group_IT_number 60
_symmetry_cell_setting 'orthorhombic'
loop_
_space_group_symop_operation_xyz
x,y,z
1/2-x,1/2-y,1/2+z
1/2+x,1/2-y,-z
-x,y,1/2-z
-x,-y,-z
1/2+x,1/2+y,1/2-z
1/2-x,1/2+y,z
x,-y,1/2+z
loop_
_atom_site_type_symbol
_atom_site_label
_atom_site_fract_x
_atom_site_fract_y
_atom_site_fract_z
Si Si1 0.748667 0.690714 0.448671
Si Si2 0.262248 0.211178 0.605353
Si Si3 0.748716 0.144803 0.103508
Si Si4 0.750229 0.355527 0.729496
Si Si5 0.772388 0.948489 0.540225
Si Si6 0.272695 0.942704 0.470634
Si Si7 0.238531 0.840674 0.428497
Si Si8 0.749930 0.752639 0.276044
O O1 0.739247 0.749447 0.442901
O O2 0.503940 0.667513 0.420480
O O3 0.747452 0.678131 0.510877
O O4 0.006859 0.671069 0.422262
O O5 0.518880 0.179258 0.603996
O O6 0.249738 0.241292 0.660311
O O7 0.019459 0.175872 0.600663
O O8 0.747087 0.154052 0.166580
O O9 0.739599 0.086674 0.091527
O O10 0.500000 0.385125 0.750000
O O11 0.749882 0.304857 0.762926
O O12 0.000000 0.385222 0.750000
O O13 0.550739 0.936575 0.497436
O O14 0.050411 0.938142 0.515065
O O15 0.749577 0.004892 0.559249
O O16 0.243045 0.899774 0.427079
O O17 0.500000 0.778017 0.250000
O O18 0.000000 0.777985 0.250000
#
# Coordination Sequence:
#
# PCOD8246642 Si02
#       8
#     8   8   8   8   8   8   8   8
#     4  12  22  35  51  79 116 154 180 223 256 335
#     4  12  24  35  53  76 110 152 191 219 277 323
#     4  12  20  35  59  83 110 145 187 222 285 339
#     4  10  20  33  51  77 105 136 175 230 280 320
#     4  10  19  35  57  84 104 148 176 226 270 331
#     4  10  20  36  56  77 116 141 186 220 266 312
#     4  12  22  37  51  79 114 154 185 224 260 324
#     4  10  19  36  52  71  97 134 182 236 272 310
#
# _framework density 18.018609000000001
#
# number of rings (size 3 to 8) (size 9 to 14) (size 15 to 20)
#    0.000    1.000    2.500    7.500    0.000    0.000 
#    0.000    0.000    0.000    0.000    0.000    5.250 
#    0.000    0.000    0.000    0.000    0.000    0.000 
#
# Total GULP energy -793575.312542 kJ/mol
# GULP energy per Si atom -12399.614258 kJ/mol
# Density = 1.797760 g / cm^3
# Si number density = 18.018609 Si / 1000 Ang^3
#
#
#
# Elastic Constant Matrix: (Units=GPa)
#
#
# Indices 1 2 3 4 5 6 
#
# 1 147.5338 17.5604 17.1863 0.0000 0.0000 0.0000
# 2 17.5604 109.9246 10.4656 0.0000 0.0000 0.0000
# 3 17.1863 10.4656 61.9338 0.0000 0.0000 0.0000
# 4 0.0000 0.0000 0.0000 12.9224 0.0000 0.0000
# 5 0.0000 0.0000 0.0000 0.0000 24.2730 0.0000
# 6 0.0000 0.0000 0.0000 0.0000 0.0000 17.1292
#
#
#
# Elastic Compliance Matrix: (Units=1/GPa)
#
#
# Indices 1 2 3 4 5 6 
#
# 1 0.007103 -0.000963 -0.001808 0.000000 0.000000 0.000000
# 2 -0.000963 0.009376 -0.001317 0.000000 0.000000 0.000000
# 3 -0.001808 -0.001317 0.016871 0.000000 0.000000 0.000000
# 4 0.000000 0.000000 0.000000 0.077385 0.000000 0.000000
# 5 0.000000 0.000000 0.000000 0.000000 0.041198 0.000000
# 6 0.000000 0.000000 0.000000 0.000000 0.000000 0.058380
#
#
# Mechanical properties :
#
#
# Convention : Reuss Voigt Hill
#
# Bulk Modulus (GPa) = 39.72405 45.53520 42.62963
# Shear Modulus (GPa) = 22.03799 29.14359 25.59079
#
# Velocity S-wave (km/s) = 3.50103 4.02607 3.77270
# Velocity P-wave (km/s) = 6.19976 6.85116 6.53358
#
# Compressibility (1/GPa) = 0.02517367
#
# Stress axis : x y z
#
# Youngs Moduli (GPa) = 140.77867 106.65148 59.27431
#
# Poissons Ratio (x) = 0.10266 0.10720
# Poissons Ratio (y) = 0.13551 0.07808
# Poissons Ratio (z) = 0.25460 0.14049
#
# Static dielectric constant tensor:
#      x y z
#    x 5.719270 0.000000 0.000000 
#    y 0.000000 3.393700 0.000000 
#    z 0.000000 0.000000 3.176400 
# 
# 
# High freq. dielectric constant tensor:
#      x y z
#    x 1.738430 0.000000 0.000000 
#    y 0.000000 1.670780 0.000000 
#    z 0.000000 0.000000 1.672300 
# 
# From -- ./inp_files/23786.got.cif
#   From: 2010.03.12/outbox.cif.g09.slc.cpg/sg60_12_cif.got.tgz:23786.got - 2010.04.10 18:46:24.
