data_PCOD8246420
_publ_section_title
;
Structure prediction by ZEFSAII (Michael W. Deem and Ramdas Pophale) SiO2 
 PCOD8246420
Probable space group: P B C N
;
_chemical_formula_sum "Si O2"
_cell_formula_units_Z 64
_cell_length_a 9.491873
_cell_length_b 19.510775
_cell_length_c 18.539572
_cell_angle_alpha 90.000000
_cell_angle_beta 90.000000
_cell_angle_gamma 90.000000
_cell_volume 3433.413760
_symmetry_space_group_name_H-M "P B C N"
_symmetry_group_IT_number 60
_symmetry_cell_setting 'orthorhombic'
loop_
_space_group_symop_operation_xyz
x,y,z
1/2-x,1/2-y,1/2+z
1/2+x,1/2-y,-z
-x,y,1/2-z
-x,-y,-z
1/2+x,1/2+y,1/2-z
1/2-x,1/2+y,z
x,-y,1/2+z
loop_
_atom_site_type_symbol
_atom_site_label
_atom_site_fract_x
_atom_site_fract_y
_atom_site_fract_z
Si Si1 0.332511 0.923335 0.738180
Si Si2 0.724589 0.895628 0.923502
Si Si3 0.763379 0.186562 0.156408
Si Si4 0.660112 0.216161 0.776005
Si Si5 0.126031 0.465762 0.042570
Si Si6 0.933395 0.666848 0.028146
Si Si7 0.364741 0.068911 0.704151
Si Si8 0.938012 0.786092 0.913134
O O1 0.500000 0.918352 0.750000
O O2 0.291638 0.890035 0.662498
O O3 0.249011 0.886330 0.802646
O O4 0.283329 0.003265 0.737265
O O5 0.587267 0.863241 0.959608
O O6 0.861341 0.852514 0.947328
O O7 0.745909 0.974726 0.951018
O O8 0.745405 0.246926 0.215307
O O9 0.636123 0.195846 0.100557
O O10 0.911175 0.189875 0.115640
O O11 0.500000 0.214520 0.750000
O O12 0.724251 0.139775 0.790494
O O13 0.664092 0.257827 0.850523
O O14 0.080763 0.446401 0.123549
O O15 0.168083 0.394771 0.002472
O O16 0.000000 0.500000 0.000000
O O17 0.954709 0.728217 0.972827
O O18 0.500000 0.085126 0.750000
#
# Coordination Sequence:
#
# PCOD8246420 Si02
#       8
#     8   8   8   8   8   8   8   8
#     4  10  18  33  56  85 110 141 189 238 275 327
#     4  10  20  35  57  81 110 148 189 235 282 334
#     4  11  22  35  57  87 113 150 190 230 288 345
#     4   9  18  33  52  79 110 143 184 232 273 328
#     4   9  19  33  54  83 111 143 189 238 286 330
#     4  11  21  37  56  82 115 150 190 239 286 339
#     4   9  17  31  54  81 111 140 185 240 280 316
#     4  11  21  36  55  84 116 151 184 231 289 348
#
# _framework density 18.640339999999998
#
# number of rings (size 3 to 8) (size 9 to 14) (size 15 to 20)
#    0.000    2.000    3.750    0.750    1.750    0.000 
#    0.000    0.625    0.000    1.500    9.750    0.000 
#    0.000    0.000    0.000    0.000    0.000    0.000 
#
# Total GULP energy -793058.593032 kJ/mol
# GULP energy per Si atom -12391.540516 kJ/mol
# Density = 1.859791 g / cm^3
# Si number density = 18.640340 Si / 1000 Ang^3
#
#
#
# Elastic Constant Matrix: (Units=GPa)
#
#
# Indices 1 2 3 4 5 6 
#
# 1 27.7255 22.5390 9.2225 0.0000 0.0000 0.0000
# 2 22.5390 118.9061 35.7677 0.0000 0.0000 0.0000
# 3 9.2225 35.7677 87.3371 0.0000 0.0000 0.0000
# 4 0.0000 0.0000 0.0000 24.9763 0.0000 0.0000
# 5 0.0000 0.0000 0.0000 0.0000 22.3378 0.0000
# 6 0.0000 0.0000 0.0000 0.0000 0.0000 20.4303
#
#
#
# Elastic Compliance Matrix: (Units=1/GPa)
#
#
# Indices 1 2 3 4 5 6 
#
# 1 0.042780 -0.007699 -0.001365 0.000000 0.000000 0.000000
# 2 -0.007699 0.010977 -0.003683 0.000000 0.000000 0.000000
# 3 -0.001365 -0.003683 0.013102 0.000000 0.000000 0.000000
# 4 0.000000 0.000000 0.000000 0.040038 0.000000 0.000000
# 5 0.000000 0.000000 0.000000 0.000000 0.044767 0.000000
# 6 0.000000 0.000000 0.000000 0.000000 0.000000 0.048947
#
#
# Mechanical properties :
#
#
# Convention : Reuss Voigt Hill
#
# Bulk Modulus (GPa) = 24.17334 41.00302 32.58818
# Shear Modulus (GPa) = 20.84270 24.64486 22.74378
#
# Velocity S-wave (km/s) = 3.34750 3.64005 3.49684
# Velocity P-wave (km/s) = 5.28559 6.30169 5.81587
#
# Compressibility (1/GPa) = 0.04136788
#
# Stress axis : x y z
#
# Youngs Moduli (GPa) = 23.37524 91.09933 76.32354
#
# Poissons Ratio (x) = 0.70134 0.10415
# Poissons Ratio (y) = 0.17996 0.28106
# Poissons Ratio (z) = 0.03190 0.33548
#
# Static dielectric constant tensor:
#      x y z
#    x 2.932620 0.000000 0.000000 
#    y 0.000000 4.009310 0.000000 
#    z 0.000000 0.000000 3.642280 
# 
# 
# High freq. dielectric constant tensor:
#      x y z
#    x 1.664250 0.000000 0.000000 
#    y 0.000000 1.747240 0.000000 
#    z 0.000000 0.000000 1.735650 
# 
# From -- ./inp_files/19682.got.cif
#   From: 2010.03.12/outbox.cif.g09.slc.cpg/sg60_10_cif.got.tgz:19682.got - 2010.04.10 18:46:24.
