data_PCOD8246536
_publ_section_title
;
Structure prediction by ZEFSAII (Michael W. Deem and Ramdas Pophale) SiO2 
 PCOD8246536
Probable space group: P B C N
;
_chemical_formula_sum "Si O2"
_cell_formula_units_Z 40
_cell_length_a 16.162638
_cell_length_b 31.250613
_cell_length_c 5.045382
_cell_angle_alpha 90.000000
_cell_angle_beta 90.000000
_cell_angle_gamma 90.000000
_cell_volume 2548.383827
_symmetry_space_group_name_H-M "P B C N"
_symmetry_group_IT_number 60
_symmetry_cell_setting 'orthorhombic'
loop_
_space_group_symop_operation_xyz
x,y,z
1/2-x,1/2-y,1/2+z
1/2+x,1/2-y,-z
-x,y,1/2-z
-x,-y,-z
1/2+x,1/2+y,1/2-z
1/2-x,1/2+y,z
x,-y,1/2+z
loop_
_atom_site_type_symbol
_atom_site_label
_atom_site_fract_x
_atom_site_fract_y
_atom_site_fract_z
Si Si1 0.276723 0.724750 0.658686
Si Si2 0.446328 0.750388 0.492353
Si Si3 0.408016 0.981389 0.946421
Si Si4 0.647969 0.163881 0.648616
Si Si5 0.590423 0.117610 0.161904
O O1 0.225096 0.741657 0.403861
O O2 0.372037 0.717987 0.570569
O O3 0.238776 0.679546 0.756167
O O4 0.500000 0.759616 0.750000
O O5 0.407573 0.794441 0.391209
O O6 0.500000 0.730627 0.250000
O O7 0.405590 0.933277 0.845779
O O8 0.361961 0.010999 0.725651
O O9 0.500000 0.000000 0.000000
O O10 0.655200 0.136674 0.376614
O O11 0.606944 0.134391 0.869411
O O12 0.500000 0.133097 0.250000
#
# Coordination Sequence:
#
# PCOD8246536 Si02
#       5
#     8   8   8   8   8
#     4  10  20  34  48  61  91 124 144 186 246 295
#     4  11  20  33  48  67  86 115 158 196 228 276
#     4  10  19  32  43  58  84 118 156 187 217 269
#     4  11  22  31  43  68  90 113 150 194 246 260
#     4  12  21  29  46  64  87 117 155 203 221 251
#
# _framework density 15.696223
#
# number of rings (size 3 to 8) (size 9 to 14) (size 15 to 20)
#    0.000    1.200    2.000    9.600    2.800    0.000 
#    0.000    0.000    0.000    0.000    0.000    0.000 
#    0.000    0.000    0.000    0.000    0.000   70.000 
#
# Total GULP energy -495739.851907 kJ/mol
# GULP energy per Si atom -12393.496298 kJ/mol
# Density = 1.566050 g / cm^3
# Si number density = 15.696223 Si / 1000 Ang^3
#
#
#
# Elastic Constant Matrix: (Units=GPa)
#
#
# Indices 1 2 3 4 5 6 
#
# 1 67.9232 30.7158 27.2281 0.0000 0.0000 0.0000
# 2 30.7158 64.1433 20.9944 0.0000 0.0000 0.0000
# 3 27.2281 20.9944 118.4915 0.0000 0.0000 0.0000
# 4 0.0000 0.0000 0.0000 25.1968 0.0000 0.0000
# 5 0.0000 0.0000 0.0000 0.0000 27.3129 0.0000
# 6 0.0000 0.0000 0.0000 0.0000 0.0000 13.0539
#
#
#
# Elastic Compliance Matrix: (Units=1/GPa)
#
#
# Indices 1 2 3 4 5 6 
#
# 1 0.019774 -0.008473 -0.003043 0.000000 0.000000 0.000000
# 2 -0.008473 0.020181 -0.001629 0.000000 0.000000 0.000000
# 3 -0.003043 -0.001629 0.009427 0.000000 0.000000 0.000000
# 4 0.000000 0.000000 0.000000 0.039688 0.000000 0.000000
# 5 0.000000 0.000000 0.000000 0.000000 0.036613 0.000000
# 6 0.000000 0.000000 0.000000 0.000000 0.000000 0.076605
#
#
# Mechanical properties :
#
#
# Convention : Reuss Voigt Hill
#
# Bulk Modulus (GPa) = 43.30302 45.38163 44.34233
# Shear Modulus (GPa) = 21.16193 24.55403 22.85798
#
# Velocity S-wave (km/s) = 3.67579 3.95945 3.82025
# Velocity P-wave (km/s) = 6.75747 7.06245 6.91164
#
# Compressibility (1/GPa) = 0.02309308
#
# Stress axis : x y z
#
# Youngs Moduli (GPa) = 50.57194 49.55262 106.07694
#
# Poissons Ratio (x) = 0.41986 0.32274
# Poissons Ratio (y) = 0.42850 0.17276
# Poissons Ratio (z) = 0.15387 0.08070
#
# Static dielectric constant tensor:
#      x y z
#    x 2.904210 0.000000 0.000000 
#    y 0.000000 2.853060 0.000000 
#    z 0.000000 0.000000 2.245350 
# 
# 
# High freq. dielectric constant tensor:
#      x y z
#    x 1.551820 0.000000 0.000000 
#    y 0.000000 1.572280 0.000000 
#    z 0.000000 0.000000 1.647580 
# 
# From -- ./inp_files/1386.got.cif
#   From: 2010.03.12/outbox.cif.g09.slc.cpg/sg60_1_cif.got.tgz:1386.got - 2010.04.10 18:46:24.
