data_PCOD8246378
_publ_section_title
;
Structure prediction by ZEFSAII (Michael W. Deem and Ramdas Pophale) SiO2 
 PCOD8246378
Probable space group: P B C N
;
_chemical_formula_sum "Si O2"
_cell_formula_units_Z 64
_cell_length_a 24.673309
_cell_length_b 18.235063
_cell_length_c 9.258952
_cell_angle_alpha 90.000000
_cell_angle_beta 90.000000
_cell_angle_gamma 90.000000
_cell_volume 4165.781610
_symmetry_space_group_name_H-M "P B C N"
_symmetry_group_IT_number 60
_symmetry_cell_setting 'orthorhombic'
loop_
_space_group_symop_operation_xyz
x,y,z
1/2-x,1/2-y,1/2+z
1/2+x,1/2-y,-z
-x,y,1/2-z
-x,-y,-z
1/2+x,1/2+y,1/2-z
1/2-x,1/2+y,z
x,-y,1/2+z
loop_
_atom_site_type_symbol
_atom_site_label
_atom_site_fract_x
_atom_site_fract_y
_atom_site_fract_z
Si Si1 0.254906 0.423209 0.567542
Si Si2 0.141606 0.656237 0.731625
Si Si3 0.296102 0.705207 0.227144
Si Si4 0.245774 0.922690 0.224292
Si Si5 0.857379 0.344355 0.940071
Si Si6 0.795554 0.205789 0.935143
Si Si7 0.538492 0.083818 0.884665
Si Si8 0.038904 0.579939 0.118867
O O1 0.301332 0.372299 0.643042
O O2 0.258719 0.500432 0.645323
O O3 0.264973 0.429117 0.395767
O O4 0.196611 0.388249 0.603949
O O5 0.150105 0.744237 0.715205
O O6 0.195683 0.611738 0.688619
O O7 0.091989 0.633015 0.631069
O O8 0.127169 0.636081 0.895736
O O9 0.250498 0.749457 0.144468
O O10 0.281009 0.693379 0.395942
O O11 0.199408 0.871326 0.149899
O O12 0.849426 0.256459 0.921300
O O13 0.907939 0.371719 0.844190
O O14 0.500000 0.080600 0.750000
O O15 0.557593 0.001717 0.931709
O O16 0.499419 0.120314 0.003158
O O17 0.000000 0.569776 0.250000
#
# Coordination Sequence:
#
# PCOD8246378 Si02
#       8
#     8   8   8   8   8   8   8   8
#     4  10  19  31  47  67  91 120 148 190 220 276
#     4   9  17  30  47  64  84 123 154 184 219 268
#     4   9  17  30  45  65  90 114 153 184 226 268
#     4  10  19  31  46  67  93 117 153 182 228 269
#     4   9  17  31  46  61  91 120 153 183 224 260
#     4   9  17  30  46  64  88 121 146 188 224 268
#     4  10  18  31  47  58  89 121 154 188 221 252
#     4  10  20  31  41  66  89 119 155 193 222 254
#
# _framework density 15.363263
#
# number of rings (size 3 to 8) (size 9 to 14) (size 15 to 20)
#    0.000    2.500    1.250    3.750    0.000    0.000 
#   13.500    0.000    0.000    0.000    0.000    0.000 
#    0.000    2.000    0.000    0.125    0.000    0.000 
#
# Total GULP energy -792886.088055 kJ/mol
# GULP energy per Si atom -12388.845126 kJ/mol
# Density = 1.532830 g / cm^3
# Si number density = 15.363263 Si / 1000 Ang^3
#
#
#
# Elastic Constant Matrix: (Units=GPa)
#
#
# Indices 1 2 3 4 5 6 
#
# 1 58.1171 40.9681 21.6880 0.0000 0.0000 0.0000
# 2 40.9681 115.0069 45.1004 0.0000 0.0000 0.0000
# 3 21.6880 45.1004 83.9660 0.0000 0.0000 0.0000
# 4 0.0000 0.0000 0.0000 29.4807 0.0000 0.0000
# 5 0.0000 0.0000 0.0000 0.0000 18.4272 0.0000
# 6 0.0000 0.0000 0.0000 0.0000 0.0000 25.7997
#
#
#
# Elastic Compliance Matrix: (Units=1/GPa)
#
#
# Indices 1 2 3 4 5 6 
#
# 1 0.023231 -0.007503 -0.001971 0.000000 0.000000 0.000000
# 2 -0.007503 0.013438 -0.005280 0.000000 0.000000 0.000000
# 3 -0.001971 -0.005280 0.015255 0.000000 0.000000 0.000000
# 4 0.000000 0.000000 0.000000 0.033921 0.000000 0.000000
# 5 0.000000 0.000000 0.000000 0.000000 0.054268 0.000000
# 6 0.000000 0.000000 0.000000 0.000000 0.000000 0.038760
#
#
# Mechanical properties :
#
#
# Convention : Reuss Voigt Hill
#
# Bulk Modulus (GPa) = 44.60875 52.51145 48.56010
# Shear Modulus (GPa) = 23.16410 24.69708 23.93059
#
# Velocity S-wave (km/s) = 3.88720 4.01377 3.95099
# Velocity P-wave (km/s) = 7.01756 7.46555 7.24502
#
# Compressibility (1/GPa) = 0.02241713
#
# Stress axis : x y z
#
# Youngs Moduli (GPa) = 43.04636 74.41372 65.55341
#
# Poissons Ratio (x) = 0.55829 0.12918
# Poissons Ratio (y) = 0.32296 0.34614
# Poissons Ratio (z) = 0.08483 0.39292
#
# Static dielectric constant tensor:
#      x y z
#    x 2.752390 0.000000 0.000000 
#    y 0.000000 -6.277800 0.000000 
#    z 0.000000 0.000000 3.094370 
# 
# 
# High freq. dielectric constant tensor:
#      x y z
#    x 1.549430 0.000000 0.000000 
#    y 0.000000 1.580980 0.000000 
#    z 0.000000 0.000000 1.600560 
# 
# From -- ./inp_files/8020.got.cif
#   From: 2010.03.12/outbox.cif.g09.slc.cpg/sg60_5_cif.got.tgz:8020.got - 2010.04.10 18:46:24.
