data_PCOD8246020
_publ_section_title
;
Structure prediction by ZEFSAII (Michael W. Deem and Ramdas Pophale) SiO2 
 PCOD8246020
Probable space group: P M M N
;
_chemical_formula_sum "Si O2"
_cell_formula_units_Z 56
_cell_length_a 18.531699
_cell_length_b 9.037200
_cell_length_c 19.358531
_cell_angle_alpha 90.000000
_cell_angle_beta 90.000000
_cell_angle_gamma 90.000000
_cell_volume 3242.063595
_symmetry_space_group_name_H-M "P M M N"
_symmetry_group_IT_number 59
_space_group.IT_coordinate_system_code '2'
_symmetry_cell_setting 'orthorhombic'
loop_
_space_group_symop_operation_xyz
x,y,z
1/2-x,1/2-y,z
1/2+x,-y,-z
-x,1/2+y,-z
-x,-y,-z
1/2+x,1/2+y,-z
1/2-x,y,z
x,1/2-y,z
loop_
_atom_site_type_symbol
_atom_site_label
_atom_site_fract_x
_atom_site_fract_y
_atom_site_fract_z
Si Si1 0.057526 0.576128 0.048485
Si Si2 0.535095 0.076236 0.566542
Si Si3 0.544116 0.420326 0.311126
Si Si4 0.032691 0.576938 0.848420
Si Si5 0.831540 0.423473 0.061889
Si Si6 0.831353 0.918626 0.527697
Si Si7 0.168164 0.084966 0.633587
O O1 0.043779 0.750000 0.052371
O O2 0.039768 0.504048 0.122783
O O3 0.137014 0.543209 0.015722
O O4 0.000000 0.500000 0.000000
O O5 0.525080 0.250000 0.558785
O O6 0.500000 0.000000 0.500000
O O7 0.501249 0.024225 0.638328
O O8 0.618946 0.031443 0.569956
O O9 0.529232 0.250000 0.328962
O O10 0.527869 0.457157 0.232211
O O11 0.627641 0.459819 0.323045
O O12 0.026474 0.750000 0.865301
O O13 0.109113 0.517758 0.881640
O O14 0.750000 0.493806 0.069809
O O15 0.823648 0.250000 0.072969
O O16 0.750000 0.949808 0.551241
O O17 0.853113 0.750000 0.544782
O O18 0.841022 0.949390 0.446917
O O19 0.250000 0.074683 0.657206
O O20 0.138105 0.250000 0.648979
#
# Coordination Sequence:
#
# PCOD8246020 Si02
#       7
#     8   8   8   8   8   8   8
#     4   9  16  28  49  73  98 131 167 202 242 290
#     4  12  23  35  53  76 102 132 174 224 268 314
#     4  11  22  34  50  74 102 136 177 219 263 310
#     4   9  19  33  49  71 101 136 172 208 248 300
#     4   8  14  27  49  76 103 130 162 201 243 286
#     4   9  18  34  55  76  99 127 160 206 265 319
#     4   9  18  32  49  70  99 133 165 202 255 315
#
# _framework density 17.272949000000001
#
# number of rings (size 3 to 8) (size 9 to 14) (size 15 to 20)
#    0.000    2.429    1.429    3.857    0.000    2.286 
#    0.000    2.857    0.000   11.571    0.000    4.000 
#    0.000    0.000    0.000    0.000    0.000    0.000 
#
# Total GULP energy -693874.634115 kJ/mol
# GULP energy per Si atom -12390.618466 kJ/mol
# Density = 1.723363 g / cm^3
# Si number density = 17.272949 Si / 1000 Ang^3
#
#
#
# Elastic Constant Matrix: (Units=GPa)
#
#
# Indices 1 2 3 4 5 6 
#
# 1 74.5376 46.1370 48.4160 0.0000 0.0000 0.0000
# 2 46.1370 80.0993 50.4733 0.0000 0.0000 0.0000
# 3 48.4160 50.4733 92.5449 0.0000 0.0000 0.0000
# 4 0.0000 0.0000 0.0000 25.0174 0.0000 0.0000
# 5 0.0000 0.0000 0.0000 0.0000 21.8523 0.0000
# 6 0.0000 0.0000 0.0000 0.0000 0.0000 27.7832
#
#
#
# Elastic Compliance Matrix: (Units=1/GPa)
#
#
# Indices 1 2 3 4 5 6 
#
# 1 0.023922 -0.008978 -0.007618 0.000000 0.000000 0.000000
# 2 -0.008978 0.022392 -0.007515 0.000000 0.000000 0.000000
# 3 -0.007618 -0.007515 0.018890 0.000000 0.000000 0.000000
# 4 0.000000 0.000000 0.000000 0.039972 0.000000 0.000000
# 5 0.000000 0.000000 0.000000 0.000000 0.045762 0.000000
# 6 0.000000 0.000000 0.000000 0.000000 0.000000 0.035993
#
#
# Mechanical properties :
#
#
# Convention : Reuss Voigt Hill
#
# Bulk Modulus (GPa) = 58.89341 59.69270 59.29306
# Shear Modulus (GPa) = 20.76294 21.74093 21.25193
#
# Velocity S-wave (km/s) = 3.47082 3.55162 3.51145
# Velocity P-wave (km/s) = 7.08745 7.17302 7.13036
#
# Compressibility (1/GPa) = 0.01697983
#
# Stress axis : x y z
#
# Youngs Moduli (GPa) = 41.80261 44.65975 52.93863
#
# Poissons Ratio (x) = 0.40097 0.40330
# Poissons Ratio (y) = 0.37532 0.39783
# Poissons Ratio (z) = 0.31846 0.33562
#
# Static dielectric constant tensor:
#      x y z
#    x 3.609320 0.000000 0.000000 
#    y 0.000000 3.296330 0.000000 
#    z 0.000000 0.000000 3.191130 
# 
# 
# High freq. dielectric constant tensor:
#      x y z
#    x 1.663960 0.000000 0.000000 
#    y 0.000000 1.658480 0.000000 
#    z 0.000000 0.000000 1.646270 
# 
# From -- ./inp_files/28105.got.cif
#   From: 2010.03.12/outbox.cif.g09.slc.cpg/sg59_15_cif.got.tgz:28105.got - 2010.04.16 16:29:54.
