data_PCOD8246283
_publ_section_title
;
Structure prediction by ZEFSAII (Michael W. Deem and Ramdas Pophale) SiO2 
 PCOD8246283
Probable space group: P B C N
;
_chemical_formula_sum "Si O2"
_cell_formula_units_Z 36
_cell_length_a 7.413067
_cell_length_b 22.159089
_cell_length_c 9.133994
_cell_angle_alpha 90.000000
_cell_angle_beta 90.000000
_cell_angle_gamma 90.000000
_cell_volume 1500.412070
_symmetry_space_group_name_H-M "P B C N"
_symmetry_group_IT_number 60
_symmetry_cell_setting 'orthorhombic'
loop_
_space_group_symop_operation_xyz
x,y,z
1/2-x,1/2-y,1/2+z
1/2+x,1/2-y,-z
-x,y,1/2-z
-x,-y,-z
1/2+x,1/2+y,1/2-z
1/2-x,1/2+y,z
x,-y,1/2+z
loop_
_atom_site_type_symbol
_atom_site_label
_atom_site_fract_x
_atom_site_fract_y
_atom_site_fract_z
Si Si1 0.500000 0.211272 0.250000
Si Si2 0.714014 0.037509 0.254952
Si Si3 0.713900 0.074722 0.571933
Si Si4 0.213002 0.687306 0.747802
Si Si5 0.860453 0.377313 0.525223
O O1 0.680814 0.250595 0.242827
O O2 0.503221 0.169300 0.106626
O O3 0.500000 0.043912 0.250000
O O4 0.795552 0.053316 0.414710
O O5 0.775555 0.088463 0.136486
O O6 0.776762 0.971996 0.198303
O O7 0.775342 0.141713 0.622342
O O8 0.493564 0.075174 0.559485
O O9 0.263359 0.656506 0.592726
O O10 0.000000 0.701083 0.750000
#
# Coordination Sequence:
#
# PCOD8246283 Si02
#       5
#     4   8   8   8   8
#     4  12  24  40  64  90 132 170 210 268 310 382
#     4  10  16  29  59  87 128 154 204 265 314 370
#     4  10  18  34  56  95 121 162 207 263 318 377
#     4  10  24  40  62  90 127 165 217 254 316 379
#     4  10  20  35  55  90 121 162 210 252 317 375
#
# _framework density 23.993411999999999
#
# number of rings (size 3 to 8) (size 9 to 14) (size 15 to 20)
#    0.000    1.778    3.333    6.000    6.222    0.000 
#    0.000    0.000    0.000    5.333    0.000    0.000 
#    0.000    0.000    0.000    0.000    0.000    0.000 
#
# Total GULP energy -446190.142563 kJ/mol
# GULP energy per Si atom -12394.170627 kJ/mol
# Density = 2.393880 g / cm^3
# Si number density = 23.993412 Si / 1000 Ang^3
#
#
#
# Elastic Constant Matrix: (Units=GPa)
#
#
# Indices 1 2 3 4 5 6 
#
# 1 45.3507 29.5416 11.1405 0.0000 0.0000 0.0000
# 2 29.5416 131.6491 45.3530 0.0000 0.0000 0.0000
# 3 11.1405 45.3530 133.1163 0.0000 0.0000 0.0000
# 4 0.0000 0.0000 0.0000 -5.6545 0.0000 0.0000
# 5 0.0000 0.0000 0.0000 0.0000 2.3389 0.0000
# 6 0.0000 0.0000 0.0000 0.0000 0.0000 1.4262
#
#
#
# Elastic Compliance Matrix: (Units=1/GPa)
#
#
# Indices 1 2 3 4 5 6 
#
# 1 0.025831 -0.005723 -0.000212 0.000000 0.000000 0.000000
# 2 -0.005723 0.009874 -0.002885 0.000000 0.000000 0.000000
# 3 -0.000212 -0.002885 0.008513 0.000000 0.000000 0.000000
# 4 0.000000 0.000000 0.000000 -0.176850 0.000000 0.000000
# 5 0.000000 0.000000 0.000000 0.000000 0.427546 0.000000
# 6 0.000000 0.000000 0.000000 0.000000 0.000000 0.701169
#
#
# Mechanical properties :
#
#
# Convention : Reuss Voigt Hill
#
# Bulk Modulus (GPa) = 37.62636 53.57627 45.60132
# Shear Modulus (GPa) = 4.88958 14.56085 9.72521
#
# Velocity S-wave (km/s) = 1.42909 2.46614 2.01546
# Velocity P-wave (km/s) = 4.29407 5.52152 4.94602
#
# Compressibility (1/GPa) = 0.02657711
#
# Stress axis : x y z
#
# Youngs Moduli (GPa) = 38.71372 101.27413 117.46827
#
# Poissons Ratio (x) = 0.57963 0.02488
# Poissons Ratio (y) = 0.22157 0.33892
# Poissons Ratio (z) = 0.00820 0.29219
#
# Static dielectric constant tensor:
#      x y z
#    x 3.412770 0.000000 0.000000 
#    y 0.000000 4.398250 0.000000 
#    z 0.000000 0.000000 4.967550 
# 
# 
# High freq. dielectric constant tensor:
#      x y z
#    x 1.870540 0.000000 0.000000 
#    y 0.000000 1.961370 0.000000 
#    z 0.000000 0.000000 1.976680 
# 
# From -- ./inp_files/3712.got.cif
#   From: 2010.03.12/outbox.cif.g09.slc.cpg/sg60_2_cif.got.tgz:3712.got - 2010.04.10 18:46:24.
