data_PCOD8246823
_publ_section_title
;
Structure prediction by ZEFSAII (Michael W. Deem and Ramdas Pophale) SiO2 
 PCOD8246823
Probable space group: P B C N
;
_chemical_formula_sum "Si O2"
_cell_formula_units_Z 48
_cell_length_a 11.312704
_cell_length_b 25.387825
_cell_length_c 8.633373
_cell_angle_alpha 90.000000
_cell_angle_beta 90.000000
_cell_angle_gamma 90.000000
_cell_volume 2479.547456
_symmetry_space_group_name_H-M "P B C N"
_symmetry_group_IT_number 60
_symmetry_cell_setting 'orthorhombic'
loop_
_space_group_symop_operation_xyz
x,y,z
1/2-x,1/2-y,1/2+z
1/2+x,1/2-y,-z
-x,y,1/2-z
-x,-y,-z
1/2+x,1/2+y,1/2-z
1/2-x,1/2+y,z
x,-y,1/2+z
loop_
_atom_site_type_symbol
_atom_site_label
_atom_site_fract_x
_atom_site_fract_y
_atom_site_fract_z
Si Si1 0.500000 0.695668 0.750000
Si Si2 0.838278 0.246147 0.498269
Si Si3 0.623531 0.054289 0.431273
Si Si4 0.148635 0.555254 0.432385
Si Si5 0.174479 0.341995 0.416679
Si Si6 0.500000 0.217818 0.750000
Si Si7 0.781393 0.151299 0.917014
O O1 0.421148 0.734911 0.853608
O O2 0.420174 0.658942 0.633165
O O3 0.748334 0.198373 0.481485
O O4 0.901966 0.245502 0.330415
O O5 0.764641 0.300286 0.523358
O O6 0.648600 0.053395 0.251050
O O7 0.487481 0.064692 0.483032
O O8 0.692790 0.103152 0.500208
O O9 0.681870 0.002111 0.502772
O O10 0.246019 0.597067 0.494719
O O11 0.210929 0.348478 0.240511
O O12 0.043099 0.317927 0.396619
#
# Coordination Sequence:
#
# PCOD8246823 Si02
#       7
#     4   8   8   8   8   4   8
#     4  10  22  38  56  80 118 154 192 238 284 346
#     4  10  21  35  55  81 111 148 185 227 279 338
#     4  10  20  35  55  83 111 139 183 235 289 345
#     4  10  21  34  56  82 109 144 182 234 293 345
#     4  10  20  34  53  76 108 144 179 224 273 330
#     4  10  20  34  52  76 110 144 180 224 276 334
#     4  10  21  36  55  80 111 149 187 229 284 340
#
# _framework density 19.358370000000001
#
# number of rings (size 3 to 8) (size 9 to 14) (size 15 to 20)
#    0.000    2.000    0.000    4.000    0.000   10.667 
#    0.000    0.000    0.000   10.000    0.000    0.000 
#    0.000    0.000    0.000    0.000    0.000    0.000 
#
# Total GULP energy -594703.303780 kJ/mol
# GULP energy per Si atom -12389.652162 kJ/mol
# Density = 1.931431 g / cm^3
# Si number density = 19.358370 Si / 1000 Ang^3
#
#
#
# Elastic Constant Matrix: (Units=GPa)
#
#
# Indices 1 2 3 4 5 6 
#
# 1 94.0247 63.7330 33.3213 0.0000 0.0000 0.0000
# 2 63.7330 180.7052 62.3686 0.0000 0.0000 0.0000
# 3 33.3213 62.3686 70.3329 0.0000 0.0000 0.0000
# 4 0.0000 0.0000 0.0000 35.6896 0.0000 0.0000
# 5 0.0000 0.0000 0.0000 0.0000 23.3302 0.0000
# 6 0.0000 0.0000 0.0000 0.0000 0.0000 31.7268
#
#
#
# Elastic Compliance Matrix: (Units=1/GPa)
#
#
# Indices 1 2 3 4 5 6 
#
# 1 0.014510 -0.003955 -0.003367 0.000000 0.000000 0.000000
# 2 -0.003955 0.009053 -0.006154 0.000000 0.000000 0.000000
# 3 -0.003367 -0.006154 0.021270 0.000000 0.000000 0.000000
# 4 0.000000 0.000000 0.000000 0.028019 0.000000 0.000000
# 5 0.000000 0.000000 0.000000 0.000000 0.042863 0.000000
# 6 0.000000 0.000000 0.000000 0.000000 0.000000 0.031519
#
#
# Mechanical properties :
#
#
# Convention : Reuss Voigt Hill
#
# Bulk Modulus (GPa) = 55.92573 73.76761 64.84667
# Shear Modulus (GPa) = 27.75528 30.52533 29.14030
#
# Velocity S-wave (km/s) = 3.79061 3.97527 3.88404
# Velocity P-wave (km/s) = 6.93619 7.69801 7.32701
#
# Compressibility (1/GPa) = 0.01788086
#
# Stress axis : x y z
#
# Youngs Moduli (GPa) = 68.91917 110.46252 47.01457
#
# Poissons Ratio (x) = 0.43693 0.15828
# Poissons Ratio (y) = 0.27261 0.28932
# Poissons Ratio (z) = 0.23203 0.67976
#
# Static dielectric constant tensor:
#      x y z
#    x 3.765310 0.000000 0.000000 
#    y 0.000000 7.253130 0.000000 
#    z 0.000000 0.000000 1.506620 
# 
# 
# High freq. dielectric constant tensor:
#      x y z
#    x 1.735990 0.000000 0.000000 
#    y 0.000000 1.749700 0.000000 
#    z 0.000000 0.000000 1.759920 
# 
# From -- ./inp_files/5177.got.cif
#   From: 2010.03.12/outbox.cif.g09.slc.cpg/sg60_3_cif.got.tgz:5177.got - 2010.04.10 18:46:24.
