data_PCOD8246994
_publ_section_title
;
Structure prediction by ZEFSAII (Michael W. Deem and Ramdas Pophale) SiO2 
 PCOD8246994
Probable space group: P B C N
;
_chemical_formula_sum "Si O2"
_cell_formula_units_Z 48
_cell_length_a 13.106183
_cell_length_b 13.260493
_cell_length_c 14.136041
_cell_angle_alpha 90.000000
_cell_angle_beta 90.000000
_cell_angle_gamma 90.000000
_cell_volume 2456.765441
_symmetry_space_group_name_H-M "P B C N"
_symmetry_group_IT_number 60
_symmetry_cell_setting 'orthorhombic'
loop_
_space_group_symop_operation_xyz
x,y,z
1/2-x,1/2-y,1/2+z
1/2+x,1/2-y,-z
-x,y,1/2-z
-x,-y,-z
1/2+x,1/2+y,1/2-z
1/2-x,1/2+y,z
x,-y,1/2+z
loop_
_atom_site_type_symbol
_atom_site_label
_atom_site_fract_x
_atom_site_fract_y
_atom_site_fract_z
Si Si1 0.657642 0.068342 0.211699
Si Si2 0.426889 0.278388 0.054745
Si Si3 0.398580 0.789791 0.079585
Si Si4 0.236624 0.378764 0.593291
Si Si5 0.000000 0.737546 0.250000
Si Si6 0.000000 0.401625 0.250000
Si Si7 0.740741 0.571695 0.017565
O O1 0.717031 0.060436 0.310451
O O2 0.589928 0.169103 0.206570
O O3 0.586905 0.969963 0.201570
O O4 0.742597 0.071602 0.130027
O O5 0.367214 0.172099 0.055245
O O6 0.457518 0.306106 0.163668
O O7 0.360124 0.366719 0.009204
O O8 0.527312 0.264919 0.993408
O O9 0.318044 0.707583 0.114467
O O10 0.457997 0.828845 0.169938
O O11 0.341960 0.883469 0.030676
O O12 0.276076 0.457001 0.515207
#
# Coordination Sequence:
#
# PCOD8246994 Si02
#       7
#     8   8   8   8   4   4   8
#     4  10  20  37  65  89 119 158 202 261 300 352
#     4  10  22  39  64  88 121 169 204 254 307 367
#     4  11  23  40  62  91 123 159 206 252 304 367
#     4  10  23  41  57  94 128 153 207 257 301 367
#     4   9  18  38  61  88 118 154 211 252 299 356
#     4  11  22  36  67  92 114 166 209 254 309 356
#     4  11  22  41  61  89 125 164 202 253 314 362
#
# _framework density 19.537883999999998
#
# number of rings (size 3 to 8) (size 9 to 14) (size 15 to 20)
#    0.000    1.667    3.333    1.000    2.333    2.000 
#    3.000    0.833    0.000    0.000    0.000    0.000 
#    0.000    0.000    0.000    0.000    0.000    0.000 
#
# Total GULP energy -595422.035651 kJ/mol
# GULP energy per Si atom -12404.625743 kJ/mol
# Density = 1.949342 g / cm^3
# Si number density = 19.537884 Si / 1000 Ang^3
#
#
#
# Elastic Constant Matrix: (Units=GPa)
#
#
# Indices 1 2 3 4 5 6 
#
# 1 72.1948 16.3294 28.1725 0.0000 0.0000 0.0000
# 2 16.3294 53.7137 15.7381 0.0000 0.0000 0.0000
# 3 28.1725 15.7381 78.6087 0.0000 0.0000 0.0000
# 4 0.0000 0.0000 0.0000 17.4203 0.0000 0.0000
# 5 0.0000 0.0000 0.0000 0.0000 42.0612 0.0000
# 6 0.0000 0.0000 0.0000 0.0000 0.0000 23.8366
#
#
#
# Elastic Compliance Matrix: (Units=1/GPa)
#
#
# Indices 1 2 3 4 5 6 
#
# 1 0.016712 -0.003533 -0.005282 0.000000 0.000000 0.000000
# 2 -0.003533 0.020524 -0.002843 0.000000 0.000000 0.000000
# 3 -0.005282 -0.002843 0.015183 0.000000 0.000000 0.000000
# 4 0.000000 0.000000 0.000000 0.057404 0.000000 0.000000
# 5 0.000000 0.000000 0.000000 0.000000 0.023775 0.000000
# 6 0.000000 0.000000 0.000000 0.000000 0.000000 0.041952
#
#
# Mechanical properties :
#
#
# Convention : Reuss Voigt Hill
#
# Bulk Modulus (GPa) = 34.35987 36.11078 35.23532
# Shear Modulus (GPa) = 23.97306 26.28212 25.12759
#
# Velocity S-wave (km/s) = 3.50666 3.67166 3.59011
# Velocity P-wave (km/s) = 5.83267 6.04130 5.93790
#
# Compressibility (1/GPa) = 0.02910372
#
# Stress axis : x y z
#
# Youngs Moduli (GPa) = 59.83849 48.72288 65.86132
#
# Poissons Ratio (x) = 0.17213 0.34788
# Poissons Ratio (y) = 0.21140 0.18724
# Poissons Ratio (z) = 0.31606 0.13852
#
# Static dielectric constant tensor:
#      x y z
#    x 3.536510 0.000000 0.000000 
#    y 0.000000 3.348070 0.000000 
#    z 0.000000 0.000000 3.577190 
# 
# 
# High freq. dielectric constant tensor:
#      x y z
#    x 1.758710 0.000000 0.000000 
#    y 0.000000 1.746100 0.000000 
#    z 0.000000 0.000000 1.769090 
# 
# From -- ./inp_files/11905.got.cif
#   From: 2010.03.12/outbox.cif.g09.slc.cpg/sg60_6_cif.got.tgz:11905.got - 2010.04.10 18:46:24.
