data_PCOD8246403
_publ_section_title
;
Structure prediction by ZEFSAII (Michael W. Deem and Ramdas Pophale) SiO2 
 PCOD8246403
Probable space group: P B C N
;
_chemical_formula_sum "Si O2"
_cell_formula_units_Z 52
_cell_length_a 14.338050
_cell_length_b 8.580741
_cell_length_c 20.587512
_cell_angle_alpha 90.000000
_cell_angle_beta 90.000000
_cell_angle_gamma 90.000000
_cell_volume 2532.904114
_symmetry_space_group_name_H-M "P B C N"
_symmetry_group_IT_number 60
_symmetry_cell_setting 'orthorhombic'
loop_
_space_group_symop_operation_xyz
x,y,z
1/2-x,1/2-y,1/2+z
1/2+x,1/2-y,-z
-x,y,1/2-z
-x,-y,-z
1/2+x,1/2+y,1/2-z
1/2-x,1/2+y,z
x,-y,1/2+z
loop_
_atom_site_type_symbol
_atom_site_label
_atom_site_fract_x
_atom_site_fract_y
_atom_site_fract_z
Si Si1 0.493976 0.198457 0.324388
Si Si2 0.146109 0.291852 0.149644
Si Si3 0.160709 0.063323 0.681157
Si Si4 0.000000 0.718929 0.750000
Si Si5 0.684542 0.603877 0.670773
Si Si6 0.131355 0.214392 0.361202
Si Si7 0.002678 0.571830 0.570515
O O1 0.500000 0.135229 0.250000
O O2 0.572570 0.328729 0.335427
O O3 0.392949 0.266800 0.340628
O O4 0.500671 0.058187 0.373973
O O5 0.249796 0.355726 0.150027
O O6 0.081294 0.368659 0.207916
O O7 0.100941 0.339386 0.080476
O O8 0.144947 0.105512 0.151279
O O9 0.177281 0.037042 0.756890
O O10 0.944400 0.818544 0.696058
O O11 0.670223 0.457504 0.621108
O O12 0.785864 0.675335 0.662290
O O13 0.081506 0.303171 0.421034
O O14 0.000000 0.500000 0.500000
#
# Coordination Sequence:
#
# PCOD8246403 Si02
#       7
#     8   8   8   4   8   8   8
#     4  10  23  37  66  94 127 159 210 258 314 368
#     4  11  22  36  62  89 128 162 203 249 313 366
#     4  11  20  37  62 103 130 158 201 261 312 374
#     4  10  18  32  54  88 118 160 190 240 294 354
#     4  11  20  37  62 103 130 158 201 261 312 374
#     4  11  22  36  62  89 128 162 203 249 313 366
#     4  11  26  45  61  88 126 169 214 261 313 372
#
# _framework density 20.529793000000002
#
# number of rings (size 3 to 8) (size 9 to 14) (size 15 to 20)
#    0.000    1.231    3.077    3.692    6.462    2.462 
#    0.000    9.231    0.000    0.000    0.000    0.000 
#    0.000    0.000    0.000    0.000    0.000    0.000 
#
# Total GULP energy -644374.012604 kJ/mol
# GULP energy per Si atom -12391.807935 kJ/mol
# Density = 2.048307 g / cm^3
# Si number density = 20.529793 Si / 1000 Ang^3
#
#
#
# Elastic Constant Matrix: (Units=GPa)
#
#
# Indices 1 2 3 4 5 6 
#
# 1 114.3399 25.9431 17.7610 0.0000 0.0000 0.0000
# 2 25.9431 109.2593 38.9392 0.0000 0.0000 0.0000
# 3 17.7610 38.9392 52.1738 0.0000 0.0000 0.0000
# 4 0.0000 0.0000 0.0000 13.4193 0.0000 0.0000
# 5 0.0000 0.0000 0.0000 0.0000 18.4906 0.0000
# 6 0.0000 0.0000 0.0000 0.0000 0.0000 19.1359
#
#
#
# Elastic Compliance Matrix: (Units=1/GPa)
#
#
# Indices 1 2 3 4 5 6 
#
# 1 0.009409 -0.001488 -0.002092 0.000000 0.000000 0.000000
# 2 -0.001488 0.012705 -0.008975 0.000000 0.000000 0.000000
# 3 -0.002092 -0.008975 0.026577 0.000000 0.000000 0.000000
# 4 0.000000 0.000000 0.000000 0.074519 0.000000 0.000000
# 5 0.000000 0.000000 0.000000 0.000000 0.054081 0.000000
# 6 0.000000 0.000000 0.000000 0.000000 0.000000 0.052258
#
#
# Mechanical properties :
#
#
# Convention : Reuss Voigt Hill
#
# Bulk Modulus (GPa) = 42.41012 49.00661 45.70836
# Shear Modulus (GPa) = 19.04614 23.08449 21.06531
#
# Velocity S-wave (km/s) = 3.04917 3.35690 3.20673
# Velocity P-wave (km/s) = 5.75320 6.24082 6.00196
#
# Compressibility (1/GPa) = 0.02357928
#
# Stress axis : x y z
#
# Youngs Moduli (GPa) = 106.28653 78.71121 37.62595
#
# Poissons Ratio (x) = 0.11716 0.07871
# Poissons Ratio (y) = 0.15820 0.33770
# Poissons Ratio (z) = 0.22235 0.70645
#
# Static dielectric constant tensor:
#      x y z
#    x 4.232910 0.000000 0.000000 
#    y 0.000000 3.775920 0.000000 
#    z 0.000000 0.000000 3.415500 
# 
# 
# High freq. dielectric constant tensor:
#      x y z
#    x 1.831200 0.000000 0.000000 
#    y 0.000000 1.816970 0.000000 
#    z 0.000000 0.000000 1.741480 
# 
# From -- ./inp_files/22830.got.cif
#   From: 2010.03.12/outbox.cif.g09.slc.cpg/sg60_12_cif.got.tgz:22830.got - 2010.04.10 18:46:24.
