data_PCOD8246190
_publ_section_title
;
Structure prediction by ZEFSAII (Michael W. Deem and Ramdas Pophale) SiO2 
 PCOD8246190
Probable space group: P M M N
;
_chemical_formula_sum "Si O2"
_cell_formula_units_Z 56
_cell_length_a 9.593287
_cell_length_b 15.148947
_cell_length_c 21.840017
_cell_angle_alpha 90.000000
_cell_angle_beta 90.000000
_cell_angle_gamma 90.000000
_cell_volume 3173.970278
_symmetry_space_group_name_H-M "P M M N"
_symmetry_group_IT_number 59
_space_group.IT_coordinate_system_code '2'
_symmetry_cell_setting 'orthorhombic'
loop_
_space_group_symop_operation_xyz
x,y,z
1/2-x,1/2-y,z
1/2+x,-y,-z
-x,1/2+y,-z
-x,-y,-z
1/2+x,1/2+y,-z
1/2-x,y,z
x,1/2-y,z
loop_
_atom_site_type_symbol
_atom_site_label
_atom_site_fract_x
_atom_site_fract_y
_atom_site_fract_z
Si Si1 0.583741 0.848314 0.627161
Si Si2 0.588373 0.850688 0.939017
Si Si3 0.414620 0.502377 0.150789
Si Si4 0.584516 0.498151 0.713088
Si Si5 0.087875 0.850904 0.057774
Si Si6 0.587625 0.148501 0.619625
Si Si7 0.595563 0.854740 0.492263
O O1 0.750000 0.845567 0.628264
O O2 0.525032 0.750000 0.641523
O O3 0.524173 0.916582 0.677254
O O4 0.537731 0.881724 0.559446
O O5 0.750000 0.866697 0.955457
O O6 0.561015 0.750000 0.918806
O O7 0.539711 0.912548 0.883212
O O8 0.498671 0.876517 0.997905
O O9 0.250000 0.506482 0.157145
O O10 0.481198 0.503985 0.218721
O O11 0.466201 0.587689 0.112963
O O12 0.750000 0.505990 0.716540
O O13 0.541224 0.408461 0.678344
O O14 0.250000 0.868159 0.043075
O O15 0.060957 0.750000 0.077384
O O16 0.750000 0.136601 0.605531
O O17 0.549589 0.250000 0.634003
O O18 0.508215 0.110808 0.560144
O O19 0.750000 0.894432 0.480679
O O20 0.603868 0.750000 0.490223
#
# Coordination Sequence:
#
# PCOD8246190 Si02
#       7
#     8   8   8   8   8   8   8
#     4   8  14  25  41  61  84 109 139 176 215 253
#     4   9  17  29  46  68  90 110 136 173 215 252
#     4   9  17  28  42  62  88 115 142 173 208 247
#     4   9  17  27  40  61  87 114 143 173 208 250
#     4   9  17  29  46  67  88 112 143 174 205 245
#     4   9  17  28  42  62  87 112 139 173 212 252
#     4   8  14  26  44  63  82 107 140 177 215 251
#
# _framework density 17.643518
#
# number of rings (size 3 to 8) (size 9 to 14) (size 15 to 20)
#    0.000    3.286    0.000    1.286    0.000    1.714 
#    0.000    5.714    0.000    1.714    0.000    4.000 
#    0.000    4.571    0.000    0.000    0.000    0.000 
#
# Total GULP energy -694133.174564 kJ/mol
# GULP energy per Si atom -12395.235260 kJ/mol
# Density = 1.760336 g / cm^3
# Si number density = 17.643518 Si / 1000 Ang^3
#
#
#
# Elastic Constant Matrix: (Units=GPa)
#
#
# Indices 1 2 3 4 5 6 
#
# 1 28.3389 24.3482 38.3798 0.0000 0.0000 0.0000
# 2 24.3482 109.0335 89.4568 0.0000 0.0000 0.0000
# 3 38.3798 89.4568 182.9883 0.0000 0.0000 0.0000
# 4 0.0000 0.0000 0.0000 28.7039 0.0000 0.0000
# 5 0.0000 0.0000 0.0000 0.0000 18.9118 0.0000
# 6 0.0000 0.0000 0.0000 0.0000 0.0000 11.8052
#
#
#
# Elastic Compliance Matrix: (Units=1/GPa)
#
#
# Indices 1 2 3 4 5 6 
#
# 1 0.050476 -0.004318 -0.008476 0.000000 0.000000 0.000000
# 2 -0.004318 0.015683 -0.006761 0.000000 0.000000 0.000000
# 3 -0.008476 -0.006761 0.010548 0.000000 0.000000 0.000000
# 4 0.000000 0.000000 0.000000 0.034838 0.000000 0.000000
# 5 0.000000 0.000000 0.000000 0.000000 0.052877 0.000000
# 6 0.000000 0.000000 0.000000 0.000000 0.000000 0.084709
#
#
# Mechanical properties :
#
#
# Convention : Reuss Voigt Hill
#
# Bulk Modulus (GPa) = 26.59777 69.41446 48.00612
# Shear Modulus (GPa) = 16.62380 23.09590 19.85985
#
# Velocity S-wave (km/s) = 3.07286 3.62198 3.35866
# Velocity P-wave (km/s) = 5.26287 7.54452 6.50452
#
# Compressibility (1/GPa) = 0.03759713
#
# Stress axis : x y z
#
# Youngs Moduli (GPa) = 19.81136 63.76342 94.80484
#
# Poissons Ratio (x) = 0.27530 0.80358
# Poissons Ratio (y) = 0.08554 0.64101
# Poissons Ratio (z) = 0.16792 0.43113
#
# Static dielectric constant tensor:
#      x y z
#    x 2.957770 0.000000 0.000000 
#    y 0.000000 3.395260 0.000000 
#    z 0.000000 0.000000 3.563590 
# 
# 
# High freq. dielectric constant tensor:
#      x y z
#    x 1.627770 0.000000 0.000000 
#    y 0.000000 1.688880 0.000000 
#    z 0.000000 0.000000 1.681340 
# 
# From -- ./inp_files/29082.got.cif
#   From: 2010.03.12/outbox.cif.g09.slc.cpg/sg59_15_cif.got.tgz:29082.got - 2010.04.16 16:29:54.
