data_PCOD8246888
_publ_section_title
;
Structure prediction by ZEFSAII (Michael W. Deem and Ramdas Pophale) SiO2 
 PCOD8246888
Probable space group: P B C N
;
_chemical_formula_sum "Si O2"
_cell_formula_units_Z 64
_cell_length_a 18.923086
_cell_length_b 18.370242
_cell_length_c 9.326997
_cell_angle_alpha 90.000000
_cell_angle_beta 90.000000
_cell_angle_gamma 90.000000
_cell_volume 3242.266266
_symmetry_space_group_name_H-M "P B C N"
_symmetry_group_IT_number 60
_symmetry_cell_setting 'orthorhombic'
loop_
_space_group_symop_operation_xyz
x,y,z
1/2-x,1/2-y,1/2+z
1/2+x,1/2-y,-z
-x,y,1/2-z
-x,-y,-z
1/2+x,1/2+y,1/2-z
1/2-x,1/2+y,z
x,-y,1/2+z
loop_
_atom_site_type_symbol
_atom_site_label
_atom_site_fract_x
_atom_site_fract_y
_atom_site_fract_z
Si Si1 0.438846 0.765232 0.647664
Si Si2 0.200776 0.139795 0.258466
Si Si3 0.660828 0.022675 0.607244
Si Si4 0.321238 0.655608 0.573344
Si Si5 0.565841 0.156372 0.644765
Si Si6 0.139638 0.639856 0.350495
Si Si7 0.736970 0.506605 0.855580
Si Si8 0.667975 0.218907 0.874206
O O1 0.500000 0.733729 0.750000
O O2 0.381741 0.700465 0.653072
O O3 0.459040 0.790924 0.486222
O O4 0.412778 0.839076 0.723970
O O5 0.160881 0.160042 0.404894
O O6 0.283118 0.150921 0.287618
O O7 0.188729 0.056196 0.214822
O O8 0.173668 0.193169 0.132498
O O9 0.598088 0.080760 0.582950
O O10 0.724641 0.027728 0.493853
O O11 0.625550 0.942678 0.600003
O O12 0.698290 0.036069 0.759539
O O13 0.318847 0.570242 0.612460
O O14 0.246329 0.687377 0.619802
O O15 0.500000 0.141283 0.750000
O O16 0.629458 0.194036 0.729737
O O17 0.125501 0.693388 0.485421
#
# Coordination Sequence:
#
# PCOD8246888 Si02
#       8
#     8   8   8   8   8   8   8   8
#     4  12  26  42  62  88 126 169 216 267 312 369
#     4  10  20  35  61  97 125 157 205 267 317 374
#     4  11  21  37  59  95 132 166 204 256 305 384
#     4  11  21  39  64  94 128 157 208 267 317 376
#     4  12  25  41  62  89 128 180 211 247 311 379
#     4  10  21  38  59  95 131 160 212 261 311 372
#     4  11  20  36  62  96 130 155 204 265 326 370
#     4  11  20  38  65  91 122 165 215 255 311 378
#
# _framework density 19.739279
#
# number of rings (size 3 to 8) (size 9 to 14) (size 15 to 20)
#    0.000    1.000    7.500    2.250    0.000    1.500 
#    0.000    3.750    0.000    1.500    0.000    0.000 
#    0.000    0.000    0.000    0.000    0.000    0.000 
#
# Total GULP energy -793357.658527 kJ/mol
# GULP energy per Si atom -12396.213414 kJ/mol
# Density = 1.969435 g / cm^3
# Si number density = 19.739279 Si / 1000 Ang^3
#
#
#
# Elastic Constant Matrix: (Units=GPa)
#
#
# Indices 1 2 3 4 5 6 
#
# 1 63.9795 44.7263 35.4184 0.0000 0.0000 0.0000
# 2 44.7263 113.6434 39.9063 0.0000 0.0000 0.0000
# 3 35.4184 39.9063 94.4953 0.0000 0.0000 0.0000
# 4 0.0000 0.0000 0.0000 32.4328 0.0000 0.0000
# 5 0.0000 0.0000 0.0000 0.0000 24.1967 0.0000
# 6 0.0000 0.0000 0.0000 0.0000 0.0000 22.4949
#
#
#
# Elastic Compliance Matrix: (Units=1/GPa)
#
#
# Indices 1 2 3 4 5 6 
#
# 1 0.024068 -0.007402 -0.005895 0.000000 0.000000 0.000000
# 2 -0.007402 0.012608 -0.002550 0.000000 0.000000 0.000000
# 3 -0.005895 -0.002550 0.013869 0.000000 0.000000 0.000000
# 4 0.000000 0.000000 0.000000 0.030833 0.000000 0.000000
# 5 0.000000 0.000000 0.000000 0.000000 0.041328 0.000000
# 6 0.000000 0.000000 0.000000 0.000000 0.000000 0.044455
#
#
# Mechanical properties :
#
#
# Convention : Reuss Voigt Hill
#
# Bulk Modulus (GPa) = 53.04900 56.91334 54.98117
# Shear Modulus (GPa) = 24.37365 25.96269 25.16817
#
# Velocity S-wave (km/s) = 3.51775 3.63061 3.57463
# Velocity P-wave (km/s) = 6.59034 6.81691 6.70458
#
# Compressibility (1/GPa) = 0.01885050
#
# Stress axis : x y z
#
# Youngs Moduli (GPa) = 41.54849 79.31310 72.10310
#
# Poissons Ratio (x) = 0.58711 0.42505
# Poissons Ratio (y) = 0.30756 0.18387
# Poissons Ratio (z) = 0.24493 0.20225
#
# Static dielectric constant tensor:
#      x y z
#    x 3.255720 0.000000 0.000000 
#    y 0.000000 3.738780 0.000000 
#    z 0.000000 0.000000 3.851570 
# 
# 
# High freq. dielectric constant tensor:
#      x y z
#    x 1.728630 0.000000 0.000000 
#    y 0.000000 1.771370 0.000000 
#    z 0.000000 0.000000 1.785340 
# 
# From -- ./inp_files/7572.got.cif
#   From: 2010.03.12/outbox.cif.g09.slc.cpg/sg60_4_cif.got.tgz:7572.got - 2010.04.10 18:46:24.
