data_PCOD8246056
_publ_section_title
;
Structure prediction by ZEFSAII (Michael W. Deem and Ramdas Pophale) SiO2 
 PCOD8246056
Probable space group: P M M N
;
_chemical_formula_sum "Si O2"
_cell_formula_units_Z 48
_cell_length_a 8.488047
_cell_length_b 28.860679
_cell_length_c 9.947267
_cell_angle_alpha 90.000000
_cell_angle_beta 90.000000
_cell_angle_gamma 90.000000
_cell_volume 2436.789953
_symmetry_space_group_name_H-M "P M M N"
_symmetry_group_IT_number 59
_space_group.IT_coordinate_system_code '2'
_symmetry_cell_setting 'orthorhombic'
loop_
_space_group_symop_operation_xyz
x,y,z
1/2-x,1/2-y,z
1/2+x,-y,-z
-x,1/2+y,-z
-x,-y,-z
1/2+x,1/2+y,-z
1/2-x,y,z
x,1/2-y,z
loop_
_atom_site_type_symbol
_atom_site_label
_atom_site_fract_x
_atom_site_fract_y
_atom_site_fract_z
Si Si1 0.566559 0.021665 0.866188
Si Si2 0.065174 0.878558 0.231094
Si Si3 0.064616 0.377005 0.475753
Si Si4 0.566128 0.804165 0.032252
Si Si5 0.933175 0.470711 0.379803
Si Si6 0.063615 0.199384 0.268352
O O1 0.750000 0.026558 0.884629
O O2 0.499522 0.073062 0.831704
O O3 0.526808 0.984862 0.752035
O O4 0.500000 0.000000 0.000000
O O5 0.250000 0.882608 0.262248
O O6 0.973721 0.868401 0.368969
O O7 0.034494 0.835986 0.131605
O O8 0.250000 0.387036 0.458684
O O9 0.006853 0.333438 0.388079
O O10 0.961707 0.417692 0.413458
O O11 0.750000 0.814667 0.054814
O O12 0.530612 0.750000 0.060759
O O13 0.512197 0.817580 0.880606
O O14 0.750000 0.480945 0.358915
O O15 0.000000 0.500000 0.500000
O O16 0.250000 0.203227 0.267125
O O17 0.990133 0.250000 0.296829
#
# Coordination Sequence:
#
# PCOD8246056 Si02
#       6
#     8   8   8   8   8   8
#     4  11  25  43  62  88 122 161 203 250 302 359
#     4  11  24  40  58  86 123 159 197 247 303 358
#     4  11  22  37  62  92 120 158 202 247 300 356
#     4   9  19  38  63  88 116 154 198 246 300 358
#     4  12  24  41  63  88 122 161 202 247 300 359
#     4   8  17  36  61  90 119 148 192 245 293 349
#
# _framework density 19.698046000000001
#
# number of rings (size 3 to 8) (size 9 to 14) (size 15 to 20)
#    0.000    1.667    1.667    4.000    2.333    3.000 
#    0.000    2.500    0.000    3.500    0.000    0.000 
#    0.000    0.000    0.000    0.000    0.000    0.000 
#
# Total GULP energy -595209.319297 kJ/mol
# GULP energy per Si atom -12400.194152 kJ/mol
# Density = 1.965321 g / cm^3
# Si number density = 19.698046 Si / 1000 Ang^3
#
#
#
# Elastic Constant Matrix: (Units=GPa)
#
#
# Indices 1 2 3 4 5 6 
#
# 1 40.0945 15.3654 11.0169 0.0000 0.0000 0.0000
# 2 15.3654 117.3116 74.5749 0.0000 0.0000 0.0000
# 3 11.0169 74.5749 155.0837 0.0000 0.0000 0.0000
# 4 0.0000 0.0000 0.0000 42.5849 0.0000 0.0000
# 5 0.0000 0.0000 0.0000 0.0000 28.5278 0.0000
# 6 0.0000 0.0000 0.0000 0.0000 0.0000 30.2294
#
#
#
# Elastic Compliance Matrix: (Units=1/GPa)
#
#
# Indices 1 2 3 4 5 6 
#
# 1 0.026269 -0.003247 -0.000305 0.000000 0.000000 0.000000
# 2 -0.003247 0.012679 -0.005866 0.000000 0.000000 0.000000
# 3 -0.000305 -0.005866 0.009291 0.000000 0.000000 0.000000
# 4 0.000000 0.000000 0.000000 0.023482 0.000000 0.000000
# 5 0.000000 0.000000 0.000000 0.000000 0.035054 0.000000
# 6 0.000000 0.000000 0.000000 0.000000 0.000000 0.033080
#
#
# Mechanical properties :
#
#
# Convention : Reuss Voigt Hill
#
# Bulk Modulus (GPa) = 34.01045 57.15601 45.58323
# Shear Modulus (GPa) = 29.67511 34.37061 32.02286
#
# Velocity S-wave (km/s) = 3.88558 4.18170 4.03636
# Velocity P-wave (km/s) = 6.11831 7.23841 6.70180
#
# Compressibility (1/GPa) = 0.02940273
#
# Stress axis : x y z
#
# Youngs Moduli (GPa) = 38.06752 78.87261 107.63562
#
# Poissons Ratio (x) = 0.25610 0.03280
# Poissons Ratio (y) = 0.12360 0.63140
# Poissons Ratio (z) = 0.01160 0.46268
#
# Static dielectric constant tensor:
#      x y z
#    x 5.000040 0.000000 0.000000 
#    y 0.000000 4.037380 0.000000 
#    z 0.000000 0.000000 3.806250 
# 
# 
# High freq. dielectric constant tensor:
#      x y z
#    x 1.755850 0.000000 0.000000 
#    y 0.000000 1.776410 0.000000 
#    z 0.000000 0.000000 1.779610 
# 
# From -- ./inp_files/6279.got.cif
#   From: 2010.03.12/outbox.cif.g09.slc.cpg/sg59_4_cif.got.tgz:6279.got - 2010.04.16 16:29:54.
