data_PCOD8246014
_publ_section_title
;
Structure prediction by ZEFSAII (Michael W. Deem and Ramdas Pophale) SiO2 
 PCOD8246014
Probable space group: P M M N
;
_chemical_formula_sum "Si O2"
_cell_formula_units_Z 40
_cell_length_a 9.495295
_cell_length_b 8.555186
_cell_length_c 23.453067
_cell_angle_alpha 90.000000
_cell_angle_beta 90.000000
_cell_angle_gamma 90.000000
_cell_volume 1905.186793
_symmetry_space_group_name_H-M "P M M N"
_symmetry_group_IT_number 59
_space_group.IT_coordinate_system_code '2'
_symmetry_cell_setting 'orthorhombic'
loop_
_space_group_symop_operation_xyz
x,y,z
1/2-x,1/2-y,z
1/2+x,-y,-z
-x,1/2+y,-z
-x,-y,-z
1/2+x,1/2+y,-z
1/2-x,y,z
x,1/2-y,z
loop_
_atom_site_type_symbol
_atom_site_label
_atom_site_fract_x
_atom_site_fract_y
_atom_site_fract_z
Si Si1 0.592657 0.570293 0.751614
Si Si2 0.750000 0.936629 0.543373
Si Si3 0.750000 0.567166 0.415745
Si Si4 0.589350 0.566334 0.948187
Si Si5 0.912776 0.932174 0.153731
Si Si6 0.040804 0.565741 0.368836
O O1 0.750000 0.546116 0.777320
O O2 0.546932 0.750000 0.757365
O O3 0.477857 0.464604 0.784061
O O4 0.599759 0.522143 0.685929
O O5 0.750000 0.750000 0.546415
O O6 0.750000 0.005824 0.479138
O O7 0.885739 0.005925 0.574210
O O8 0.750000 0.750000 0.426660
O O9 0.619913 0.516199 0.377096
O O10 0.750000 0.498798 0.948015
O O11 0.596875 0.750000 0.955129
O O12 0.508551 0.526181 0.890357
O O13 0.500000 0.500000 0.000000
O O14 0.750000 0.988324 0.151362
O O15 0.921578 0.750000 0.139441
O O16 0.064365 0.750000 0.361111
#
# Coordination Sequence:
#
# PCOD8246014 Si02
#       6
#     8   4   4   8   8   8
#     4  11  24  42  63  89 122 159 204 258 313 372
#     4  11  21  39  61  87 121 157 198 251 306 369
#     4   9  22  39  59  87 121 155 198 253 308 367
#     4  11  24  42  66  98 135 174 218 265 312 366
#     4  11  25  43  65  95 129 166 211 261 312 371
#     4  11  22  39  62  88 118 158 203 251 309 373
#
# _framework density 20.995318999999999
#
# number of rings (size 3 to 8) (size 9 to 14) (size 15 to 20)
#    0.000    1.200    1.000    4.500    1.400    9.200 
#    0.000    4.500    0.000    0.000    0.000    0.000 
#    0.000    0.000    0.000    0.000    0.000    0.000 
#
# Total GULP energy -496084.319790 kJ/mol
# GULP energy per Si atom -12402.107995 kJ/mol
# Density = 2.094753 g / cm^3
# Si number density = 20.995319 Si / 1000 Ang^3
#
#
#
# Elastic Constant Matrix: (Units=GPa)
#
#
# Indices 1 2 3 4 5 6 
#
# 1 167.3658 42.6602 40.1797 0.0000 0.0000 0.0000
# 2 42.6602 65.3311 15.0624 0.0000 0.0000 0.0000
# 3 40.1797 15.0624 90.0891 0.0000 0.0000 0.0000
# 4 0.0000 0.0000 0.0000 35.1376 0.0000 0.0000
# 5 0.0000 0.0000 0.0000 0.0000 44.0796 0.0000
# 6 0.0000 0.0000 0.0000 0.0000 0.0000 32.7424
#
#
#
# Elastic Compliance Matrix: (Units=1/GPa)
#
#
# Indices 1 2 3 4 5 6 
#
# 1 0.007759 -0.004440 -0.002718 0.000000 0.000000 0.000000
# 2 -0.004440 0.018461 -0.001106 0.000000 0.000000 0.000000
# 3 -0.002718 -0.001106 0.012497 0.000000 0.000000 0.000000
# 4 0.000000 0.000000 0.000000 0.028460 0.000000 0.000000
# 5 0.000000 0.000000 0.000000 0.000000 0.022686 0.000000
# 6 0.000000 0.000000 0.000000 0.000000 0.000000 0.030541
#
#
# Mechanical properties :
#
#
# Convention : Reuss Voigt Hill
#
# Bulk Modulus (GPa) = 45.06850 57.62118 51.34484
# Shear Modulus (GPa) = 34.64281 37.38417 36.01349
#
# Velocity S-wave (km/s) = 4.06646 4.22429 4.14612
# Velocity P-wave (km/s) = 6.60005 7.16220 6.88687
#
# Compressibility (1/GPa) = 0.02218845
#
# Stress axis : x y z
#
# Youngs Moduli (GPa) = 128.87896 54.16847 80.01637
#
# Poissons Ratio (x) = 0.24050 0.21751
# Poissons Ratio (y) = 0.57221 0.08853
# Poissons Ratio (z) = 0.35033 0.05993
#
# Static dielectric constant tensor:
#      x y z
#    x 4.259050 0.000000 0.000000 
#    y 0.000000 3.694880 0.000000 
#    z 0.000000 0.000000 3.832240 
# 
# 
# High freq. dielectric constant tensor:
#      x y z
#    x 1.842360 0.000000 0.000000 
#    y 0.000000 1.818640 0.000000 
#    z 0.000000 0.000000 1.830490 
# 
# From -- ./inp_files/31155.got.cif
#   From: 2010.03.12/outbox.cif.g09.slc.cpg/sg59_16_cif.got.tgz:31155.got - 2010.04.16 16:29:54.
