data_PCOD8246738
_publ_section_title
;
Structure prediction by ZEFSAII (Michael W. Deem and Ramdas Pophale) SiO2 
 PCOD8246738
Probable space group: P B C N
;
_chemical_formula_sum "Si O2"
_cell_formula_units_Z 56
_cell_length_a 14.351752
_cell_length_b 8.196230
_cell_length_c 21.362711
_cell_angle_alpha 90.000000
_cell_angle_beta 90.000000
_cell_angle_gamma 90.000000
_cell_volume 2512.901256
_symmetry_space_group_name_H-M "P B C N"
_symmetry_group_IT_number 60
_symmetry_cell_setting 'orthorhombic'
loop_
_space_group_symop_operation_xyz
x,y,z
1/2-x,1/2-y,1/2+z
1/2+x,1/2-y,-z
-x,y,1/2-z
-x,-y,-z
1/2+x,1/2+y,1/2-z
1/2-x,1/2+y,z
x,-y,1/2+z
loop_
_atom_site_type_symbol
_atom_site_label
_atom_site_fract_x
_atom_site_fract_y
_atom_site_fract_z
Si Si1 0.154996 0.633795 0.220931
Si Si2 0.977542 0.362606 0.314578
Si Si3 0.624596 0.188588 0.933310
Si Si4 0.185582 0.671244 0.081591
Si Si5 0.203579 0.925827 0.301561
Si Si6 0.349661 0.736412 0.371548
Si Si7 0.548779 0.327687 0.505176
O O1 0.057575 0.544280 0.204347
O O2 0.199977 0.692155 0.155657
O O3 0.140571 0.794437 0.263844
O O4 0.220119 0.499315 0.254135
O O5 0.904691 0.272940 0.360764
O O6 0.000000 0.264026 0.250000
O O7 0.074775 0.372477 0.351313
O O8 0.713728 0.298296 0.950358
O O9 0.537948 0.208681 0.980257
O O10 0.655413 0.004346 0.941119
O O11 0.102201 0.791377 0.059496
O O12 0.251277 0.825509 0.359342
O O13 0.141435 0.070669 0.330124
O O14 0.369309 0.685543 0.442798
O O15 0.500000 0.500000 0.500000
#
# Coordination Sequence:
#
# PCOD8246738 Si02
#       7
#     8   8   8   8   8   8   8
#     4  10  20  38  65  96 130 163 214 274 329 400
#     4  10  19  38  61  91 133 168 200 267 333 388
#     4  10  23  40  67  95 128 173 216 272 334 386
#     4  11  22  41  68  97 126 173 221 274 332 398
#     4  10  21  40  65  95 126 166 220 264 334 406
#     4  10  23  42  63  89 129 175 212 274 326 396
#     4  11  25  46  63  94 135 173 229 276 325 396
#
# _framework density 22.284998000000002
#
# number of rings (size 3 to 8) (size 9 to 14) (size 15 to 20)
#    0.000    1.714    1.429    3.000    2.000    2.286 
#    7.714    1.429    0.000    0.000    0.000    0.000 
#    0.000    0.000    0.000    0.000    0.000    0.000 
#
# Total GULP energy -693884.854309 kJ/mol
# GULP energy per Si atom -12390.800970 kJ/mol
# Density = 2.223428 g / cm^3
# Si number density = 22.284998 Si / 1000 Ang^3
#
#
#
# Elastic Constant Matrix: (Units=GPa)
#
#
# Indices 1 2 3 4 5 6 
#
# 1 102.0666 41.8943 34.2618 0.0000 0.0000 0.0000
# 2 41.8943 97.6873 22.5121 0.0000 0.0000 0.0000
# 3 34.2618 22.5121 72.6583 0.0000 0.0000 0.0000
# 4 0.0000 0.0000 0.0000 29.0678 0.0000 0.0000
# 5 0.0000 0.0000 0.0000 0.0000 32.3341 0.0000
# 6 0.0000 0.0000 0.0000 0.0000 0.0000 33.0235
#
#
#
# Elastic Compliance Matrix: (Units=1/GPa)
#
#
# Indices 1 2 3 4 5 6 
#
# 1 0.013311 -0.004590 -0.004855 0.000000 0.000000 0.000000
# 2 -0.004590 0.012607 -0.001742 0.000000 0.000000 0.000000
# 3 -0.004855 -0.001742 0.016592 0.000000 0.000000 0.000000
# 4 0.000000 0.000000 0.000000 0.034402 0.000000 0.000000
# 5 0.000000 0.000000 0.000000 0.000000 0.030927 0.000000
# 6 0.000000 0.000000 0.000000 0.000000 0.000000 0.030281
#
#
# Mechanical properties :
#
#
# Convention : Reuss Voigt Hill
#
# Bulk Modulus (GPa) = 49.65945 52.19430 50.92688
# Shear Modulus (GPa) = 29.90339 30.46802 30.18570
#
# Velocity S-wave (km/s) = 3.66712 3.70158 3.68439
# Velocity P-wave (km/s) = 6.34527 6.46073 6.40326
#
# Compressibility (1/GPa) = 0.02013715
#
# Stress axis : x y z
#
# Youngs Moduli (GPa) = 75.12525 79.32407 60.27039
#
# Poissons Ratio (x) = 0.36409 0.29260
# Poissons Ratio (y) = 0.34481 0.10497
# Poissons Ratio (z) = 0.36471 0.13815
#
# Static dielectric constant tensor:
#      x y z
#    x 4.160310 0.000000 0.000000 
#    y 0.000000 3.899870 0.000000 
#    z 0.000000 0.000000 4.224800 
# 
# 
# High freq. dielectric constant tensor:
#      x y z
#    x 1.876000 0.000000 0.000000 
#    y 0.000000 1.866630 0.000000 
#    z 0.000000 0.000000 1.875430 
# 
# From -- ./inp_files/22913.got.cif
#   From: 2010.03.12/outbox.cif.g09.slc.cpg/sg60_12_cif.got.tgz:22913.got - 2010.04.10 18:46:24.
