data_PCOD8246590
_publ_section_title
;
Structure prediction by ZEFSAII (Michael W. Deem and Ramdas Pophale) SiO2 
 PCOD8246590
Probable space group: P B C N
;
_chemical_formula_sum "Si O2"
_cell_formula_units_Z 64
_cell_length_a 20.960179
_cell_length_b 5.336321
_cell_length_c 27.128187
_cell_angle_alpha 90.000000
_cell_angle_beta 90.000000
_cell_angle_gamma 90.000000
_cell_volume 3034.294318
_symmetry_space_group_name_H-M "P B C N"
_symmetry_group_IT_number 60
_symmetry_cell_setting 'orthorhombic'
loop_
_space_group_symop_operation_xyz
x,y,z
1/2-x,1/2-y,1/2+z
1/2+x,1/2-y,-z
-x,y,1/2-z
-x,-y,-z
1/2+x,1/2+y,1/2-z
1/2-x,1/2+y,z
x,-y,1/2+z
loop_
_atom_site_type_symbol
_atom_site_label
_atom_site_fract_x
_atom_site_fract_y
_atom_site_fract_z
Si Si1 0.049838 0.619443 0.436909
Si Si2 0.909539 0.278902 0.366063
Si Si3 0.543219 0.604180 0.122761
Si Si4 0.072807 0.070976 0.267809
Si Si5 0.780329 0.772162 0.445856
Si Si6 0.908314 0.442521 0.963545
Si Si7 0.929841 0.432038 0.773847
Si Si8 0.228157 0.205193 0.162843
O O1 0.054592 0.377559 0.401226
O O2 0.096427 0.575756 0.483141
O O3 0.978471 0.670404 0.456591
O O4 0.069567 0.878056 0.410687
O O5 0.892845 0.354900 0.421572
O O6 0.931109 0.523370 0.333153
O O7 0.846396 0.148016 0.345095
O O8 0.967369 0.078268 0.365745
O O9 0.580996 0.570835 0.173597
O O10 0.105320 0.825618 0.242470
O O11 0.000000 0.090503 0.250000
O O12 0.107104 0.323211 0.247821
O O13 0.749750 0.521429 0.470015
O O14 0.855784 0.776252 0.458346
O O15 0.767595 0.770121 0.387307
O O16 0.000000 0.412408 0.750000
O O17 0.238775 0.471282 0.191535
#
# Coordination Sequence:
#
# PCOD8246590 Si02
#       8
#     8   8   8   8   8   8   8   8
#     4  10  25  36  53  81 109 167 187 223 284 353
#     4  11  21  34  60  78 120 160 178 239 287 340
#     4  11  22  37  56  78 113 156 187 235 281 333
#     4  10  19  34  51  77 109 139 185 225 265 331
#     4  10  20  35  53  78 105 151 186 236 276 331
#     4  10  22  38  54  78 121 153 193 223 282 351
#     4  10  20  33  49  83 105 146 187 219 273 343
#     4  10  21  35  49  82 107 150 190 223 281 339
#
# _framework density 21.092219
#
# number of rings (size 3 to 8) (size 9 to 14) (size 15 to 20)
#    0.000    1.750    5.000    0.750    8.750    6.500 
#    0.000    0.000    0.000    0.000    0.000    0.000 
#    0.000   20.000    0.000    0.000    0.000    0.000 
#
# Total GULP energy -793034.284080 kJ/mol
# GULP energy per Si atom -12391.160689 kJ/mol
# Density = 2.104421 g / cm^3
# Si number density = 21.092219 Si / 1000 Ang^3
#
#
#
# Elastic Constant Matrix: (Units=GPa)
#
#
# Indices 1 2 3 4 5 6 
#
# 1 29.4018 1.5144 8.8083 0.0000 0.0000 0.0000
# 2 1.5144 157.7049 30.8968 0.0000 0.0000 0.0000
# 3 8.8083 30.8968 105.2641 0.0000 0.0000 0.0000
# 4 0.0000 0.0000 0.0000 34.9980 0.0000 0.0000
# 5 0.0000 0.0000 0.0000 0.0000 8.1194 0.0000
# 6 0.0000 0.0000 0.0000 0.0000 0.0000 17.2193
#
#
#
# Elastic Compliance Matrix: (Units=1/GPa)
#
#
# Indices 1 2 3 4 5 6 
#
# 1 0.034895 0.000251 -0.002994 0.000000 0.000000 0.000000
# 2 0.000251 0.006730 -0.001996 0.000000 0.000000 0.000000
# 3 -0.002994 -0.001996 0.010336 0.000000 0.000000 0.000000
# 4 0.000000 0.000000 0.000000 0.028573 0.000000 0.000000
# 5 0.000000 0.000000 0.000000 0.000000 0.123162 0.000000
# 6 0.000000 0.000000 0.000000 0.000000 0.000000 0.058074
#
#
# Mechanical properties :
#
#
# Convention : Reuss Voigt Hill
#
# Bulk Modulus (GPa) = 23.53817 41.64553 32.59185
# Shear Modulus (GPa) = 17.51867 28.81076 23.16471
#
# Velocity S-wave (km/s) = 2.88510 3.69988 3.31759
# Velocity P-wave (km/s) = 4.72041 6.16761 5.49189
#
# Compressibility (1/GPa) = 0.04248418
#
# Stress axis : x y z
#
# Youngs Moduli (GPa) = 28.65699 148.59618 96.74567
#
# Poissons Ratio (x) = -0.03736 0.28964
# Poissons Ratio (y) = -0.00721 0.19313
# Poissons Ratio (z) = 0.08579 0.29664
#
# Static dielectric constant tensor:
#      x y z
#    x 3.304120 0.000000 0.000000 
#    y 0.000000 5.075200 0.000000 
#    z 0.000000 0.000000 3.787580 
# 
# 
# High freq. dielectric constant tensor:
#      x y z
#    x 1.771980 0.000000 0.000000 
#    y 0.000000 1.847710 0.000000 
#    z 0.000000 0.000000 1.799750 
# 
# From -- ./inp_files/24638.got.cif
#   From: 2010.03.12/outbox.cif.g09.slc.cpg/sg60_13_cif.got.tgz:24638.got - 2010.04.10 18:46:24.
