data_PCOD8246029
_publ_section_title
;
Structure prediction by ZEFSAII (Michael W. Deem and Ramdas Pophale) SiO2 
 PCOD8246029
Probable space group: P M M N
;
_chemical_formula_sum "Si O2"
_cell_formula_units_Z 48
_cell_length_a 9.032664
_cell_length_b 30.156798
_cell_length_c 9.445000
_cell_angle_alpha 90.000000
_cell_angle_beta 90.000000
_cell_angle_gamma 90.000000
_cell_volume 2572.782332
_symmetry_space_group_name_H-M "P M M N"
_symmetry_group_IT_number 59
_space_group.IT_coordinate_system_code '2'
_symmetry_cell_setting 'orthorhombic'
loop_
_space_group_symop_operation_xyz
x,y,z
1/2-x,1/2-y,z
1/2+x,-y,-z
-x,1/2+y,-z
-x,-y,-z
1/2+x,1/2+y,-z
1/2-x,y,z
x,1/2-y,z
loop_
_atom_site_type_symbol
_atom_site_label
_atom_site_fract_x
_atom_site_fract_y
_atom_site_fract_z
Si Si1 0.925264 0.750000 0.658398
Si Si2 0.578939 0.074503 0.833290
Si Si3 0.918158 0.322653 0.840931
Si Si4 0.423724 0.825748 0.833144
Si Si5 0.574248 0.996622 0.349165
Si Si6 0.075854 0.250000 0.663951
Si Si7 0.574607 0.075378 0.149360
O O1 0.750000 0.750000 0.669715
O O2 0.981595 0.750000 0.497031
O O3 0.985518 0.706039 0.731998
O O4 0.750000 0.059948 0.815563
O O5 0.560498 0.126238 0.800077
O O6 0.476547 0.048601 0.723765
O O7 0.518088 0.064189 0.991170
O O8 0.750000 0.307811 0.814232
O O9 0.022155 0.294156 0.741196
O O10 0.959379 0.313974 0.004280
O O11 0.250000 0.820086 0.802296
O O12 0.478621 0.875951 0.800999
O O13 0.750000 0.997138 0.364975
O O14 0.500000 0.000000 0.500000
O O15 0.516403 0.038361 0.257216
O O16 0.250000 0.250000 0.668165
O O17 0.750000 0.076795 0.140278
#
# Coordination Sequence:
#
# PCOD8246029 Si02
#       7
#     4   8   8   8   8   4   8
#     4  11  24  37  48  74 112 143 170 209 260 310
#     4   9  18  36  59  81 104 133 172 221 267 311
#     4   9  19  36  59  82 103 131 174 221 265 313
#     4   9  18  36  60  81  99 130 177 222 259 307
#     4  11  22  35  52  78 111 145 177 213 259 313
#     4  11  24  37  50  74 112 147 176 213 260 314
#     4   8  17  35  58  80 103 133 174 219 262 308
#
# _framework density 18.656844
#
# number of rings (size 3 to 8) (size 9 to 14) (size 15 to 20)
#    0.000    2.500    0.000    4.000    0.000    6.000 
#    0.000   10.000    0.000    0.000    0.000    0.000 
#    0.000    0.000    0.000    0.000    0.000    0.000 
#
# Total GULP energy -595229.596343 kJ/mol
# GULP energy per Si atom -12400.616590 kJ/mol
# Density = 1.861438 g / cm^3
# Si number density = 18.656844 Si / 1000 Ang^3
#
#
#
# Elastic Constant Matrix: (Units=GPa)
#
#
# Indices 1 2 3 4 5 6 
#
# 1 59.6503 42.8542 51.5172 0.0000 0.0000 0.0000
# 2 42.8542 114.1223 79.6927 0.0000 0.0000 0.0000
# 3 51.5172 79.6927 137.9991 0.0000 0.0000 0.0000
# 4 0.0000 0.0000 0.0000 7.2258 0.0000 0.0000
# 5 0.0000 0.0000 0.0000 0.0000 31.9677 0.0000
# 6 0.0000 0.0000 0.0000 0.0000 0.0000 30.3973
#
#
#
# Elastic Compliance Matrix: (Units=1/GPa)
#
#
# Indices 1 2 3 4 5 6 
#
# 1 0.026387 -0.005077 -0.006919 0.000000 0.000000 0.000000
# 2 -0.005077 0.015661 -0.007149 0.000000 0.000000 0.000000
# 3 -0.006919 -0.007149 0.013958 0.000000 0.000000 0.000000
# 4 0.000000 0.000000 0.000000 0.138393 0.000000 0.000000
# 5 0.000000 0.000000 0.000000 0.000000 0.031282 0.000000
# 6 0.000000 0.000000 0.000000 0.000000 0.000000 0.032898
#
#
# Mechanical properties :
#
#
# Convention : Reuss Voigt Hill
#
# Bulk Modulus (GPa) = 56.44409 73.32222 64.88315
# Shear Modulus (GPa) = 16.51398 23.09866 19.80632
#
# Velocity S-wave (km/s) = 2.97836 3.52245 3.26177
# Velocity P-wave (km/s) = 6.49207 7.47859 7.00273
#
# Compressibility (1/GPa) = 0.01771665
#
# Stress axis : x y z
#
# Youngs Moduli (GPa) = 37.89675 63.85258 71.64592
#
# Poissons Ratio (x) = 0.32420 0.49570
# Poissons Ratio (y) = 0.19242 0.51217
# Poissons Ratio (z) = 0.26220 0.45646
#
# Static dielectric constant tensor:
#      x y z
#    x 3.200440 0.000000 0.000000 
#    y 0.000000 3.607110 0.000000 
#    z 0.000000 0.000000 3.505180 
# 
# 
# High freq. dielectric constant tensor:
#      x y z
#    x 1.705280 0.000000 0.000000 
#    y 0.000000 1.737930 0.000000 
#    z 0.000000 0.000000 1.725530 
# 
# From -- ./inp_files/6426.got.cif
#   From: 2010.03.12/outbox.cif.g09.slc.cpg/sg59_4_cif.got.tgz:6426.got - 2010.04.16 16:29:54.
