data_PCOD8246115
_publ_section_title
;
Structure prediction by ZEFSAII (Michael W. Deem and Ramdas Pophale) SiO2 
 PCOD8246115
Probable space group: P M M N
;
_chemical_formula_sum "Si O2"
_cell_formula_units_Z 48
_cell_length_a 14.588116
_cell_length_b 9.612938
_cell_length_c 17.220396
_cell_angle_alpha 90.000000
_cell_angle_beta 90.000000
_cell_angle_gamma 90.000000
_cell_volume 2414.896286
_symmetry_space_group_name_H-M "P M M N"
_symmetry_group_IT_number 59
_space_group.IT_coordinate_system_code '2'
_symmetry_cell_setting 'orthorhombic'
loop_
_space_group_symop_operation_xyz
x,y,z
1/2-x,1/2-y,z
1/2+x,-y,-z
-x,1/2+y,-z
-x,-y,-z
1/2+x,1/2+y,-z
1/2-x,y,z
x,1/2-y,z
loop_
_atom_site_type_symbol
_atom_site_label
_atom_site_fract_x
_atom_site_fract_y
_atom_site_fract_z
Si Si1 0.641387 0.096820 0.144379
Si Si2 0.358711 0.405979 0.160949
Si Si3 0.490825 0.085978 0.578205
Si Si4 0.857827 0.410654 0.318807
Si Si5 0.359228 0.405702 0.990130
Si Si6 0.145477 0.590985 0.300115
O O1 0.750000 0.099995 0.137415
O O2 0.601174 0.250000 0.129451
O O3 0.614391 0.047548 0.230789
O O4 0.597275 0.999175 0.078230
O O5 0.250000 0.408956 0.163468
O O6 0.394879 0.250000 0.176024
O O7 0.397692 0.503660 0.228824
O O8 0.391246 0.458259 0.075624
O O9 0.471832 0.250000 0.562976
O O10 0.586060 0.064421 0.623448
O O11 0.500000 0.000000 0.500000
O O12 0.407256 0.019763 0.625585
O O13 0.750000 0.428180 0.332066
O O14 0.886059 0.250000 0.336111
O O15 0.250000 0.409933 0.985582
O O16 0.394658 0.250000 0.976398
O O17 0.250000 0.546344 0.319429
O O18 0.141104 0.750000 0.273462
#
# Coordination Sequence:
#
# PCOD8246115 Si02
#       6
#     8   8   8   8   8   8
#     4   8  14  25  43  69 100 136 177 215 255 307
#     4   8  14  25  43  70 103 138 176 216 259 308
#     4  11  24  40  59  84 110 138 176 221 272 331
#     4   9  19  37  59  82 111 146 181 221 271 322
#     4   8  13  21  36  64 102 138 172 213 258 302
#     4   9  19  36  56  78 106 140 176 216 265 318
#
# _framework density 19.876631
#
# number of rings (size 3 to 8) (size 9 to 14) (size 15 to 20)
#    0.000    3.167    0.000    2.500    0.000    3.667 
#    0.000    6.667    0.000    1.000    0.000    0.000 
#    0.000    0.000    0.000    0.000    0.000    0.000 
#
# Total GULP energy -594888.798876 kJ/mol
# GULP energy per Si atom -12393.516643 kJ/mol
# Density = 1.983139 g / cm^3
# Si number density = 19.876631 Si / 1000 Ang^3
#
#
#
# Elastic Constant Matrix: (Units=GPa)
#
#
# Indices 1 2 3 4 5 6 
#
# 1 51.9303 37.9245 36.4964 0.0000 0.0000 0.0000
# 2 37.9245 127.4063 109.3473 0.0000 0.0000 0.0000
# 3 36.4964 109.3473 178.8311 0.0000 0.0000 0.0000
# 4 0.0000 0.0000 0.0000 46.7004 0.0000 0.0000
# 5 0.0000 0.0000 0.0000 0.0000 -121.4130 0.0000
# 6 0.0000 0.0000 0.0000 0.0000 0.0000 17.5343
#
#
#
# Elastic Compliance Matrix: (Units=1/GPa)
#
#
# Indices 1 2 3 4 5 6 
#
# 1 0.024717 -0.006372 -0.001148 0.000000 0.000000 0.000000
# 2 -0.006372 0.018159 -0.009803 0.000000 0.000000 0.000000
# 3 -0.001148 -0.009803 0.011820 0.000000 0.000000 0.000000
# 4 0.000000 0.000000 0.000000 0.021413 0.000000 0.000000
# 5 0.000000 0.000000 0.000000 0.000000 -0.008236 0.000000
# 6 0.000000 0.000000 0.000000 0.000000 0.000000 0.057031
#
#
# Mechanical properties :
#
#
# Convention : Reuss Voigt Hill
#
# Bulk Modulus (GPa) = 49.87529 80.63380 65.25454
# Shear Modulus (GPa) = 30.07800 0.19097 15.13448
#
# Velocity S-wave (km/s) = 3.89425 0.31030 2.76238
# Velocity P-wave (km/s) = 6.73551 6.38620 6.56318
#
# Compressibility (1/GPa) = 0.02005001
#
# Stress axis : x y z
#
# Youngs Moduli (GPa) = 40.45808 55.06824 84.59961
#
# Poissons Ratio (x) = 0.35090 0.09713
# Poissons Ratio (y) = 0.25780 0.82935
# Poissons Ratio (z) = 0.04645 0.53984
#
# Static dielectric constant tensor:
#      x y z
#    x 3.311320 0.000000 0.000000 
#    y 0.000000 3.868810 0.000000 
#    z 0.000000 0.000000 3.848140 
# 
# 
# High freq. dielectric constant tensor:
#      x y z
#    x 1.757310 0.000000 0.000000 
#    y 0.000000 1.770360 0.000000 
#    z 0.000000 0.000000 1.777060 
# 
# From -- ./inp_files/27368.got.cif
#   From: 2010.03.12/outbox.cif.g09.slc.cpg/sg59_14_cif.got.tgz:27368.got - 2010.04.16 16:29:54.
