data_PCOD8246195
_publ_section_title
;
Structure prediction by ZEFSAII (Michael W. Deem and Ramdas Pophale) SiO2 
 PCOD8246195
Probable space group: P M M N
;
_chemical_formula_sum "Si O2"
_cell_formula_units_Z 64
_cell_length_a 17.934919
_cell_length_b 9.423971
_cell_length_c 23.018235
_cell_angle_alpha 90.000000
_cell_angle_beta 90.000000
_cell_angle_gamma 90.000000
_cell_volume 3890.499647
_symmetry_space_group_name_H-M "P M M N"
_symmetry_group_IT_number 59
_space_group.IT_coordinate_system_code '2'
_symmetry_cell_setting 'orthorhombic'
loop_
_space_group_symop_operation_xyz
x,y,z
1/2-x,1/2-y,z
1/2+x,-y,-z
-x,1/2+y,-z
-x,-y,-z
1/2+x,1/2+y,-z
1/2-x,y,z
x,1/2-y,z
loop_
_atom_site_type_symbol
_atom_site_label
_atom_site_fract_x
_atom_site_fract_y
_atom_site_fract_z
Si Si1 0.666321 0.087043 0.314097
Si Si2 0.558177 0.583041 0.960987
Si Si3 0.590586 0.414851 0.433406
Si Si4 0.021520 0.083199 0.871920
Si Si5 0.958784 0.913690 0.260031
Si Si6 0.035343 0.914906 0.375682
Si Si7 0.166744 0.414755 0.941511
Si Si8 0.668130 0.416849 0.549154
O O1 0.750000 0.038165 0.302669
O O2 0.653427 0.250000 0.298337
O O3 0.648311 0.058591 0.381306
O O4 0.616727 0.997710 0.270323
O O5 0.539171 0.750000 0.956514
O O6 0.547916 0.506856 0.898619
O O7 0.500000 0.500000 0.000000
O O8 0.638995 0.560781 0.991596
O O9 0.569589 0.250000 0.439876
O O10 0.515539 0.499865 0.420592
O O11 0.627603 0.477395 0.491767
O O12 0.011733 0.250000 0.886659
O O13 0.012452 0.051186 0.803967
O O14 0.102643 0.029273 0.896541
O O15 0.938346 0.750000 0.265984
O O16 0.020606 0.958123 0.308451
O O17 0.017934 0.750000 0.385636
O O18 0.120549 0.951231 0.392777
O O19 0.250000 0.485246 0.933283
O O20 0.175793 0.250000 0.928983
O O21 0.750000 0.486421 0.556421
O O22 0.676757 0.250000 0.540243
#
# Coordination Sequence:
#
# PCOD8246195 Si02
#       8
#     8   8   8   8   8   8   8   8
#     4   9  17  28  41  59  85 114 142 176 218 262
#     4   9  16  27  45  66  88 114 141 172 209 247
#     4   9  16  27  44  63  83 109 141 176 217 269
#     4   9  17  29  45  63  85 115 149 181 208 244
#     4   9  18  30  43  61  85 115 149 182 215 249
#     4   9  17  29  44  62  85 111 141 180 221 259
#     4   8  14  25  42  64  86 107 134 167 202 242
#     4   9  16  26  43  65  84 106 141 182 222 267
#
# _framework density 16.450330000000001
#
# number of rings (size 3 to 8) (size 9 to 14) (size 15 to 20)
#    0.000    3.125    0.000    1.875    0.000    2.750 
#    0.000    1.250    0.000   12.375    0.000    1.750 
#    0.000    0.000    0.000    0.000    0.000    0.000 
#
# Total GULP energy -792973.589839 kJ/mol
# GULP energy per Si atom -12390.212341 kJ/mol
# Density = 1.641289 g / cm^3
# Si number density = 16.450330 Si / 1000 Ang^3
#
#
#
# Elastic Constant Matrix: (Units=GPa)
#
#
# Indices 1 2 3 4 5 6 
#
# 1 87.8710 24.8472 55.2816 0.0000 0.0000 0.0000
# 2 24.8472 36.4244 31.1547 0.0000 0.0000 0.0000
# 3 55.2816 31.1547 103.2206 0.0000 0.0000 0.0000
# 4 0.0000 0.0000 0.0000 19.0765 0.0000 0.0000
# 5 0.0000 0.0000 0.0000 0.0000 16.3790 0.0000
# 6 0.0000 0.0000 0.0000 0.0000 0.0000 18.5288
#
#
#
# Elastic Compliance Matrix: (Units=1/GPa)
#
#
# Indices 1 2 3 4 5 6 
#
# 1 0.017922 -0.005413 -0.007964 0.000000 0.000000 0.000000
# 2 -0.005413 0.038643 -0.008764 0.000000 0.000000 0.000000
# 3 -0.007964 -0.008764 0.016599 0.000000 0.000000 0.000000
# 4 0.000000 0.000000 0.000000 0.052421 0.000000 0.000000
# 5 0.000000 0.000000 0.000000 0.000000 0.061054 0.000000
# 6 0.000000 0.000000 0.000000 0.000000 0.000000 0.053970
#
#
# Mechanical properties :
#
#
# Convention : Reuss Voigt Hill
#
# Bulk Modulus (GPa) = 34.62652 50.00920 42.31786
# Shear Modulus (GPa) = 16.97687 18.54569 17.76128
#
# Velocity S-wave (km/s) = 3.21597 3.36128 3.28943
# Velocity P-wave (km/s) = 5.90634 6.74762 6.34095
#
# Compressibility (1/GPa) = 0.02887960
#
# Stress axis : x y z
#
# Youngs Moduli (GPa) = 55.79869 25.87777 60.24549
#
# Poissons Ratio (x) = 0.14008 0.47982
# Poissons Ratio (y) = 0.30205 0.52801
# Poissons Ratio (z) = 0.44440 0.22680
#
# Static dielectric constant tensor:
#      x y z
#    x 3.310800 0.000000 0.000000 
#    y 0.000000 3.044870 0.000000 
#    z 0.000000 0.000000 3.484100 
# 
# 
# High freq. dielectric constant tensor:
#      x y z
#    x 1.617570 0.000000 0.000000 
#    y 0.000000 1.610350 0.000000 
#    z 0.000000 0.000000 1.629320 
# 
# From -- ./inp_files/31726.got.cif
#   From: 2010.03.12/outbox.cif.g09.slc.cpg/sg59_16_cif.got.tgz:31726.got - 2010.04.16 16:29:54.
