data_PCOD8246539
_publ_section_title
;
Structure prediction by ZEFSAII (Michael W. Deem and Ramdas Pophale) SiO2 
 PCOD8246539
Probable space group: P B C N
;
_chemical_formula_sum "Si O2"
_cell_formula_units_Z 64
_cell_length_a 19.109305
_cell_length_b 13.624303
_cell_length_c 13.384658
_cell_angle_alpha 90.000000
_cell_angle_beta 90.000000
_cell_angle_gamma 90.000000
_cell_volume 3484.708579
_symmetry_space_group_name_H-M "P B C N"
_symmetry_group_IT_number 60
_symmetry_cell_setting 'orthorhombic'
loop_
_space_group_symop_operation_xyz
x,y,z
1/2-x,1/2-y,1/2+z
1/2+x,1/2-y,-z
-x,y,1/2-z
-x,-y,-z
1/2+x,1/2+y,1/2-z
1/2-x,1/2+y,z
x,-y,1/2+z
loop_
_atom_site_type_symbol
_atom_site_label
_atom_site_fract_x
_atom_site_fract_y
_atom_site_fract_z
Si Si1 0.000000 0.363507 0.360886
Si Si2 0.351614 0.651461 0.132428
Si Si3 0.647537 0.135417 0.551886
Si Si4 0.500000 0.631627 0.141603
Si Si5 0.291074 0.051399 0.136097
Si Si6 0.708926 0.051399 0.136097
Si Si7 0.851614 0.151461 0.132428
Si Si8 0.352463 0.864583 0.051886
O O1 0.931466 0.396158 0.421645
O O2 0.000000 0.412233 0.250000
O O3 0.068534 0.396158 0.421645
O O4 0.000000 0.248110 0.347998
O O5 0.425412 0.605660 0.088622
O O6 0.290149 0.574719 0.113035
O O7 0.362201 0.674490 0.250000
O O8 0.333217 0.753320 0.078056
O O9 0.659036 0.117908 0.433696
O O10 0.666783 0.246680 0.578056
O O11 0.699469 0.063764 0.613288
O O12 0.500000 0.579979 0.250000
O O13 0.574588 0.605660 0.088622
O O14 0.310274 0.076625 0.250000
O O15 0.300531 0.936236 0.113288
O O16 0.790149 0.074719 0.113035
O O17 0.659036 0.117908 0.066304
#
# Coordination Sequence:
#
# PCOD8246539 Si02
#       8
#     8   8   8   8   8   8   8   8
#     4   9  16  29  50  70  88 118 155 189 228 267
#     4   9  16  29  49  71  94 119 152 193 231 269
#     4  10  19  32  48  67  95 122 152 193 232 271
#     4   7  12  24  45  69  88 112 150 193 225 249
#     4  10  20  30  44  69  96 124 154 184 231 285
#     4  10  20  30  44  69  96 124 154 184 231 285
#     4   9  16  29  49  71  94 119 152 193 231 269
#     4  10  19  32  48  67  95 122 152 193 232 271
#
# _framework density 18.365953999999999
#
# number of rings (size 3 to 8) (size 9 to 14) (size 15 to 20)
#    0.000    2.750    0.000    4.500    0.000    2.000 
#    0.000    1.875    0.000    3.000    0.000    3.500 
#    0.000   10.000    0.000    0.000    0.000    0.000 
#
# Total GULP energy -792964.007561 kJ/mol
# GULP energy per Si atom -12390.062618 kJ/mol
# Density = 1.832415 g / cm^3
# Si number density = 18.365954 Si / 1000 Ang^3
#
#
#
# Elastic Constant Matrix: (Units=GPa)
#
#
# Indices 1 2 3 4 5 6 
#
# 1 165.9187 49.7488 58.3881 0.0000 0.0000 0.0000
# 2 49.7488 47.7303 11.4244 0.0000 0.0000 0.0000
# 3 58.3881 11.4244 103.9695 0.0000 0.0000 0.0000
# 4 0.0000 0.0000 0.0000 15.7650 0.0000 0.0000
# 5 0.0000 0.0000 0.0000 0.0000 23.5724 0.0000
# 6 0.0000 0.0000 0.0000 0.0000 0.0000 21.7875
#
#
#
# Elastic Compliance Matrix: (Units=1/GPa)
#
#
# Indices 1 2 3 4 5 6 
#
# 1 0.010785 -0.010055 -0.004952 0.000000 0.000000 0.000000
# 2 -0.010055 0.030893 0.002252 0.000000 0.000000 0.000000
# 3 -0.004952 0.002252 0.012151 0.000000 0.000000 0.000000
# 4 0.000000 0.000000 0.000000 0.063432 0.000000 0.000000
# 5 0.000000 0.000000 0.000000 0.000000 0.042423 0.000000
# 6 0.000000 0.000000 0.000000 0.000000 0.000000 0.045898
#
#
# Mechanical properties :
#
#
# Convention : Reuss Voigt Hill
#
# Bulk Modulus (GPa) = 35.31135 61.86012 48.58573
# Shear Modulus (GPa) = 20.78747 25.42879 23.10813
#
# Velocity S-wave (km/s) = 3.36794 3.72501 3.55097
# Velocity P-wave (km/s) = 5.86450 7.22883 6.58211
#
# Compressibility (1/GPa) = 0.02831951
#
# Stress axis : x y z
#
# Youngs Moduli (GPa) = 92.72525 32.37021 82.29474
#
# Poissons Ratio (x) = 0.32550 0.40749
# Poissons Ratio (y) = 0.93239 -0.18537
# Poissons Ratio (z) = 0.45913 -0.07291
#
# Static dielectric constant tensor:
#      x y z
#    x 4.005510 0.000000 0.000000 
#    y 0.000000 3.006890 0.000000 
#    z 0.000000 0.000000 3.354230 
# 
# 
# High freq. dielectric constant tensor:
#      x y z
#    x 1.730070 0.000000 0.000000 
#    y 0.000000 1.676760 0.000000 
#    z 0.000000 0.000000 1.696160 
# 
# From -- ./inp_files/17541.got.cif
#   From: 2010.03.12/outbox.cif.g09.slc.cpg/sg60_9_cif.got.tgz:17541.got - 2010.04.10 18:46:24.
