data_PCOD8246173
_publ_section_title
;
Structure prediction by ZEFSAII (Michael W. Deem and Ramdas Pophale) SiO2 
 PCOD8246173
Probable space group: P M M N
;
_chemical_formula_sum "Si O2"
_cell_formula_units_Z 56
_cell_length_a 25.507681
_cell_length_b 9.205171
_cell_length_c 15.322939
_cell_angle_alpha 90.000000
_cell_angle_beta 90.000000
_cell_angle_gamma 90.000000
_cell_volume 3597.865387
_symmetry_space_group_name_H-M "P M M N"
_symmetry_group_IT_number 59
_space_group.IT_coordinate_system_code '2'
_symmetry_cell_setting 'orthorhombic'
loop_
_space_group_symop_operation_xyz
x,y,z
1/2-x,1/2-y,z
1/2+x,-y,-z
-x,1/2+y,-z
-x,-y,-z
1/2+x,1/2+y,-z
1/2-x,y,z
x,1/2-y,z
loop_
_atom_site_type_symbol
_atom_site_label
_atom_site_fract_x
_atom_site_fract_y
_atom_site_fract_z
Si Si1 0.689701 0.421321 0.766274
Si Si2 0.312330 0.412483 0.405653
Si Si3 0.687722 0.411524 0.431114
Si Si4 0.495859 0.080515 0.909033
Si Si5 0.388730 0.582364 0.090458
Si Si6 0.103693 0.576821 0.893406
Si Si7 0.691819 0.077173 0.239107
O O1 0.750000 0.459971 0.786537
O O2 0.681694 0.250000 0.753866
O O3 0.669452 0.496654 0.678193
O O4 0.654950 0.486456 0.845744
O O5 0.250000 0.410591 0.410704
O O6 0.334986 0.250000 0.398664
O O7 0.335619 0.485439 0.493427
O O8 0.750000 0.402725 0.438396
O O9 0.664111 0.250000 0.443980
O O10 0.672972 0.474987 0.335332
O O11 0.482617 0.250000 0.921873
O O12 0.553534 0.061236 0.865803
O O13 0.449142 0.000780 0.856086
O O14 0.500000 0.000000 0.000000
O O15 0.374810 0.750000 0.080728
O O16 0.385527 0.518790 0.991966
O O17 0.095714 0.750000 0.889779
O O18 0.151568 0.521800 0.833907
O O19 0.750000 0.015744 0.217371
O O20 0.694176 0.250000 0.240133
#
# Coordination Sequence:
#
# PCOD8246173 Si02
#       7
#     8   8   8   8   8   8   8
#     4   9  16  26  40  58  80 106 135 164 196 239
#     4   9  16  25  37  55  79 105 132 164 202 239
#     4   8  13  23  39  57  77 104 137 167 195 232
#     4   9  16  28  44  60  79 104 138 177 211 241
#     4   8  15  26  40  59  81 105 134 167 199 233
#     4   9  16  27  43  63  86 110 138 171 204 239
#     4   8  14  24  40  63  88 112 138 167 199 239
#
# _framework density 15.564786
#
# number of rings (size 3 to 8) (size 9 to 14) (size 15 to 20)
#    0.000    3.429    0.000    2.571    0.000    2.286 
#    0.000    7.143    0.000    1.286    0.000    1.000 
#    0.000    0.000    0.000    0.000    0.000    0.000 
#
# Total GULP energy -693819.099076 kJ/mol
# GULP energy per Si atom -12389.626769 kJ/mol
# Density = 1.552936 g / cm^3
# Si number density = 15.564786 Si / 1000 Ang^3
#
#
#
# Elastic Constant Matrix: (Units=GPa)
#
#
# Indices 1 2 3 4 5 6 
#
# 1 81.8495 29.8036 60.2510 0.0000 0.0000 0.0000
# 2 29.8036 52.6239 32.9668 0.0000 0.0000 0.0000
# 3 60.2510 32.9668 111.0100 0.0000 0.0000 0.0000
# 4 0.0000 0.0000 0.0000 11.3805 0.0000 0.0000
# 5 0.0000 0.0000 0.0000 0.0000 3.5623 0.0000
# 6 0.0000 0.0000 0.0000 0.0000 0.0000 17.0025
#
#
#
# Elastic Compliance Matrix: (Units=1/GPa)
#
#
# Indices 1 2 3 4 5 6 
#
# 1 0.021817 -0.006067 -0.010040 0.000000 0.000000 0.000000
# 2 -0.006067 0.025033 -0.004141 0.000000 0.000000 0.000000
# 3 -0.010040 -0.004141 0.015687 0.000000 0.000000 0.000000
# 4 0.000000 0.000000 0.000000 0.087870 0.000000 0.000000
# 5 0.000000 0.000000 0.000000 0.000000 0.280717 0.000000
# 6 0.000000 0.000000 0.000000 0.000000 0.000000 0.058815
#
#
# Mechanical properties :
#
#
# Convention : Reuss Voigt Hill
#
# Bulk Modulus (GPa) = 45.36835 54.61403 49.99119
# Shear Modulus (GPa) = 9.29745 14.55318 11.92532
#
# Velocity S-wave (km/s) = 2.44670 3.06111 2.77099
# Velocity P-wave (km/s) = 6.09862 6.90349 6.51350
#
# Compressibility (1/GPa) = 0.02204180
#
# Stress axis : x y z
#
# Youngs Moduli (GPa) = 45.83605 39.94713 63.74671
#
# Poissons Ratio (x) = 0.24234 0.63999
# Poissons Ratio (y) = 0.27807 0.26400
# Poissons Ratio (z) = 0.46017 0.16544
#
# Static dielectric constant tensor:
#      x y z
#    x 3.269370 0.000000 0.000000 
#    y 0.000000 2.919160 0.000000 
#    z 0.000000 0.000000 3.165510 
# 
# 
# High freq. dielectric constant tensor:
#      x y z
#    x 1.566470 0.000000 0.000000 
#    y 0.000000 1.575980 0.000000 
#    z 0.000000 0.000000 1.586760 
# 
# From -- ./inp_files/24967.got.cif
#   From: 2010.03.12/outbox.cif.g09.slc.cpg/sg59_13_cif.got.tgz:24967.got - 2010.04.16 16:29:54.
