data_PCOD8246965
_publ_section_title
;
Structure prediction by ZEFSAII (Michael W. Deem and Ramdas Pophale) SiO2 
 PCOD8246965
Probable space group: P B C N
;
_chemical_formula_sum "Si O2"
_cell_formula_units_Z 64
_cell_length_a 21.373643
_cell_length_b 9.083459
_cell_length_c 16.645839
_cell_angle_alpha 90.000000
_cell_angle_beta 90.000000
_cell_angle_gamma 90.000000
_cell_volume 3231.733210
_symmetry_space_group_name_H-M "P B C N"
_symmetry_group_IT_number 60
_symmetry_cell_setting 'orthorhombic'
loop_
_space_group_symop_operation_xyz
x,y,z
1/2-x,1/2-y,1/2+z
1/2+x,1/2-y,-z
-x,y,1/2-z
-x,-y,-z
1/2+x,1/2+y,1/2-z
1/2-x,1/2+y,z
x,-y,1/2+z
loop_
_atom_site_type_symbol
_atom_site_label
_atom_site_fract_x
_atom_site_fract_y
_atom_site_fract_z
Si Si1 0.934215 0.858408 0.717133
Si Si2 0.289930 0.206644 0.155403
Si Si3 0.134461 0.851513 0.515394
Si Si4 0.598770 0.413979 0.350504
Si Si5 0.198369 0.764473 0.805908
Si Si6 0.798363 0.407294 0.435626
Si Si7 0.473868 0.564899 0.919698
Si Si8 0.242567 0.023998 0.912281
O O1 0.875904 0.743890 0.714283
O O2 0.000000 0.788067 0.750000
O O3 0.909428 0.989376 0.772207
O O4 0.947384 0.927008 0.630225
O O5 0.356539 0.280304 0.175951
O O6 0.240873 0.200405 0.228392
O O7 0.261761 0.307064 0.084997
O O8 0.303977 0.040489 0.127187
O O9 0.141103 0.701198 0.567645
O O10 0.081209 0.826343 0.447841
O O11 0.197971 0.874709 0.466003
O O12 0.124619 0.988295 0.575498
O O13 0.529877 0.350035 0.373451
O O14 0.221788 0.613256 0.843553
O O15 0.203255 0.896262 0.869534
O O16 0.794318 0.460326 0.527346
O O17 0.500000 0.500000 0.000000
#
# Coordination Sequence:
#
# PCOD8246965 Si02
#       8
#     8   8   8   8   8   8   8   8
#     4  10  20  37  60  89 120 157 205 255 303 365
#     4  12  23  38  58  88 124 159 205 250 312 375
#     4  11  20  38  60  88 122 155 207 251 312 364
#     4  10  21  38  62  89 119 163 204 254 308 367
#     4  12  24  37  59  92 122 156 202 259 312 366
#     4  12  22  37  59  86 120 163 197 255 306 375
#     4   9  20  35  62  89 119 159 205 256 300 362
#     4  12  22  36  58  89 121 155 199 255 312 361
#
# _framework density 19.803616000000002
#
# number of rings (size 3 to 8) (size 9 to 14) (size 15 to 20)
#    0.000    1.000    5.000    3.000    0.000    0.000 
#    0.000    0.625    0.000    3.000    0.000    7.875 
#    0.000    0.000    0.000    0.000    0.000    0.000 
#
# Total GULP energy -793189.959062 kJ/mol
# GULP energy per Si atom -12393.593110 kJ/mol
# Density = 1.975854 g / cm^3
# Si number density = 19.803616 Si / 1000 Ang^3
#
#
#
# Elastic Constant Matrix: (Units=GPa)
#
#
# Indices 1 2 3 4 5 6 
#
# 1 106.1922 26.3610 21.4377 0.0000 0.0000 0.0000
# 2 26.3610 60.6250 7.1265 0.0000 0.0000 0.0000
# 3 21.4377 7.1265 82.6931 0.0000 0.0000 0.0000
# 4 0.0000 0.0000 0.0000 27.3439 0.0000 0.0000
# 5 0.0000 0.0000 0.0000 0.0000 32.8569 0.0000
# 6 0.0000 0.0000 0.0000 0.0000 0.0000 29.3047
#
#
#
# Elastic Compliance Matrix: (Units=1/GPa)
#
#
# Indices 1 2 3 4 5 6 
#
# 1 0.011035 -0.004508 -0.002472 0.000000 0.000000 0.000000
# 2 -0.004508 0.018505 -0.000426 0.000000 0.000000 0.000000
# 3 -0.002472 -0.000426 0.012771 0.000000 0.000000 0.000000
# 4 0.000000 0.000000 0.000000 0.036571 0.000000 0.000000
# 5 0.000000 0.000000 0.000000 0.000000 0.030435 0.000000
# 6 0.000000 0.000000 0.000000 0.000000 0.000000 0.034124
#
#
# Mechanical properties :
#
#
# Convention : Reuss Voigt Hill
#
# Bulk Modulus (GPa) = 36.36588 39.92896 38.14742
# Shear Modulus (GPa) = 29.86517 30.87345 30.36931
#
# Velocity S-wave (km/s) = 3.88760 3.95268 3.92027
# Velocity P-wave (km/s) = 6.20921 6.40607 6.30841
#
# Compressibility (1/GPa) = 0.02749831
#
# Stress axis : x y z
#
# Youngs Moduli (GPa) = 90.62120 54.03965 78.30511
#
# Poissons Ratio (x) = 0.24359 0.19359
# Poissons Ratio (y) = 0.40848 0.03337
# Poissons Ratio (z) = 0.22404 0.02303
#
# Static dielectric constant tensor:
#      x y z
#    x 3.374620 0.000000 0.000000 
#    y 0.000000 3.395900 0.000000 
#    z 0.000000 0.000000 3.262460 
# 
# 
# High freq. dielectric constant tensor:
#      x y z
#    x 1.775580 0.000000 0.000000 
#    y 0.000000 1.734790 0.000000 
#    z 0.000000 0.000000 1.792610 
# 
# From -- ./inp_files/21062.got.cif
#   From: 2010.03.12/outbox.cif.g09.slc.cpg/sg60_11_cif.got.tgz:21062.got - 2010.04.10 18:46:24.
