data_PCOD8246271
_publ_section_title
;
Structure prediction by ZEFSAII (Michael W. Deem and Ramdas Pophale) SiO2 
 PCOD8246271
Probable space group: P B C N
;
_chemical_formula_sum "Si O2"
_cell_formula_units_Z 32
_cell_length_a 14.593194
_cell_length_b 9.162458
_cell_length_c 12.456827
_cell_angle_alpha 90.000000
_cell_angle_beta 90.000000
_cell_angle_gamma 90.000000
_cell_volume 1665.596447
_symmetry_space_group_name_H-M "P B C N"
_symmetry_group_IT_number 60
_symmetry_cell_setting 'orthorhombic'
loop_
_space_group_symop_operation_xyz
x,y,z
1/2-x,1/2-y,1/2+z
1/2+x,1/2-y,-z
-x,y,1/2-z
-x,-y,-z
1/2+x,1/2+y,1/2-z
1/2-x,1/2+y,z
x,-y,1/2+z
loop_
_atom_site_type_symbol
_atom_site_label
_atom_site_fract_x
_atom_site_fract_y
_atom_site_fract_z
Si Si1 0.903979 0.624049 0.794192
Si Si2 0.300644 0.905260 0.416708
Si Si3 0.952214 0.627033 0.430809
Si Si4 0.136616 0.277499 0.974220
O O1 0.825691 0.637447 0.704782
O O2 0.917526 0.450472 0.821848
O O3 0.000000 0.687171 0.750000
O O4 0.872926 0.718296 0.896649
O O5 0.366152 0.814759 0.499875
O O6 0.195856 0.861783 0.439374
O O7 0.311129 0.077684 0.434080
O O8 0.000000 0.500000 0.500000
O O9 0.035585 0.742756 0.417501
#
# Coordination Sequence:
#
# PCOD8246271 Si02
#       4
#     8   8   8   8
#     4  10  15  33  59  72 100 151 190 208 261 324
#     4  10  19  33  53  83 108 139 181 232 265 320
#     4   8  16  31  52  75  99 138 187 209 244 335
#     4  10  20  32  53  86 106 135 190 227 262 326
#
# _framework density 19.212336000000001
#
# number of rings (size 3 to 8) (size 9 to 14) (size 15 to 20)
#    0.000    3.000    7.500    0.000    0.000    4.000 
#    0.000    1.250    0.000    0.000    0.000    0.000 
#    0.000    0.000    0.000    0.000    0.000    0.000 
#
# Total GULP energy -396433.637574 kJ/mol
# GULP energy per Si atom -12388.551174 kJ/mol
# Density = 1.916861 g / cm^3
# Si number density = 19.212336 Si / 1000 Ang^3
#
#
#
# Elastic Constant Matrix: (Units=GPa)
#
#
# Indices 1 2 3 4 5 6 
#
# 1 84.8041 8.3211 30.7326 0.0000 0.0000 0.0000
# 2 8.3211 18.0860 7.2812 0.0000 0.0000 0.0000
# 3 30.7326 7.2812 97.1177 0.0000 0.0000 0.0000
# 4 0.0000 0.0000 0.0000 12.5957 0.0000 0.0000
# 5 0.0000 0.0000 0.0000 0.0000 35.9566 0.0000
# 6 0.0000 0.0000 0.0000 0.0000 0.0000 39.5593
#
#
#
# Elastic Compliance Matrix: (Units=1/GPa)
#
#
# Indices 1 2 3 4 5 6 
#
# 1 0.013696 -0.004698 -0.003982 0.000000 0.000000 0.000000
# 2 -0.004698 0.058624 -0.002908 0.000000 0.000000 0.000000
# 3 -0.003982 -0.002908 0.011775 0.000000 0.000000 0.000000
# 4 0.000000 0.000000 0.000000 0.079392 0.000000 0.000000
# 5 0.000000 0.000000 0.000000 0.000000 0.027811 0.000000
# 6 0.000000 0.000000 0.000000 0.000000 0.000000 0.025279
#
#
# Mechanical properties :
#
#
# Convention : Reuss Voigt Hill
#
# Bulk Modulus (GPa) = 16.41563 32.51976 24.46770
# Shear Modulus (GPa) = 19.22639 27.86719 23.54679
#
# Velocity S-wave (km/s) = 3.16687 3.81265 3.50467
# Velocity P-wave (km/s) = 4.68347 6.02868 5.39815
#
# Compressibility (1/GPa) = 0.06091754
#
# Stress axis : x y z
#
# Youngs Moduli (GPa) = 73.01475 17.05792 84.92672
#
# Poissons Ratio (x) = 0.08014 0.33816
# Poissons Ratio (y) = 0.34304 0.24700
# Poissons Ratio (z) = 0.29073 0.04961
#
# Static dielectric constant tensor:
#      x y z
#    x 4.277270 0.000000 0.000000 
#    y 0.000000 2.950100 0.000000 
#    z 0.000000 0.000000 3.684890 
# 
# 
# High freq. dielectric constant tensor:
#      x y z
#    x 1.754590 0.000000 0.000000 
#    y 0.000000 1.666550 0.000000 
#    z 0.000000 0.000000 1.756270 
# 
# From -- ./inp_files/11505.got.cif
#   From: 2010.03.12/outbox.cif.g09.slc.cpg/sg60_6_cif.got.tgz:11505.got - 2010.04.10 18:46:24.
