data_PCOD8246005
_publ_section_title
;
Structure prediction by ZEFSAII (Michael W. Deem and Ramdas Pophale) SiO2 
 PCOD8246005
Probable space group: P M M N
;
_chemical_formula_sum "Si O2"
_cell_formula_units_Z 48
_cell_length_a 17.601915
_cell_length_b 7.771176
_cell_length_c 17.193120
_cell_angle_alpha 90.000000
_cell_angle_beta 90.000000
_cell_angle_gamma 90.000000
_cell_volume 2351.805267
_symmetry_space_group_name_H-M "P M M N"
_symmetry_group_IT_number 59
_space_group.IT_coordinate_system_code '2'
_symmetry_cell_setting 'orthorhombic'
loop_
_space_group_symop_operation_xyz
x,y,z
1/2-x,1/2-y,z
1/2+x,-y,-z
-x,1/2+y,-z
-x,-y,-z
1/2+x,1/2+y,-z
1/2-x,y,z
x,1/2-y,z
loop_
_atom_site_type_symbol
_atom_site_label
_atom_site_fract_x
_atom_site_fract_y
_atom_site_fract_z
Si Si1 0.659445 0.750000 0.412152
Si Si2 0.665827 0.046584 0.689128
Si Si3 0.572769 0.447114 0.833597
Si Si4 0.340580 0.558648 0.483232
Si Si5 0.092044 0.941454 0.860841
Si Si6 0.159997 0.250000 0.764045
Si Si7 0.162640 0.452332 0.020098
O O1 0.750000 0.750000 0.414655
O O2 0.627526 0.579295 0.454960
O O3 0.629433 0.750000 0.324170
O O4 0.750000 0.965203 0.700255
O O5 0.672528 0.250000 0.698627
O O6 0.609398 0.973604 0.754925
O O7 0.633178 0.001892 0.603412
O O8 0.548000 0.250000 0.820970
O O9 0.498728 0.555221 0.854734
O O10 0.634791 0.457792 0.901507
O O11 0.250000 0.563107 0.484033
O O12 0.371711 0.750000 0.504175
O O13 0.119752 0.750000 0.837417
O O14 0.131106 0.077740 0.804425
O O15 0.113023 0.977733 0.949494
O O16 0.250000 0.250000 0.768478
O O17 0.250000 0.502064 0.005749
O O18 0.151310 0.250000 0.027384
#
# Coordination Sequence:
#
# PCOD8246005 Si02
#       7
#     4   8   8   8   8   4   8
#     4   9  18  32  56  87 115 146 189 245 301 354
#     4   8  15  29  53  86 123 162 202 245 296 351
#     4  11  21  37  60  89 124 167 205 247 294 358
#     4   8  14  28  50  81 119 152 187 239 297 351
#     4  12  25  43  64  87 120 163 203 248 303 361
#     4  11  24  44  66  91 118 148 199 257 306 358
#     4  11  23  40  61  89 126 158 201 257 299 347
#
# _framework density 20.409855
#
# number of rings (size 3 to 8) (size 9 to 14) (size 15 to 20)
#    0.000    2.000    1.667    3.500    0.000    3.667 
#    3.000    1.667    0.000    1.000    0.000    0.000 
#    0.000    0.000    0.000    0.000    0.000    0.000 
#
# Total GULP energy -595212.162165 kJ/mol
# GULP energy per Si atom -12400.253378 kJ/mol
# Density = 2.036340 g / cm^3
# Si number density = 20.409855 Si / 1000 Ang^3
#
#
#
# Elastic Constant Matrix: (Units=GPa)
#
#
# Indices 1 2 3 4 5 6 
#
# 1 50.8779 15.3694 19.3065 0.0000 0.0000 0.0000
# 2 15.3694 96.6160 64.0132 0.0000 0.0000 0.0000
# 3 19.3065 64.0132 145.8930 0.0000 0.0000 0.0000
# 4 0.0000 0.0000 0.0000 8.2227 0.0000 0.0000
# 5 0.0000 0.0000 0.0000 0.0000 -9.0227 0.0000
# 6 0.0000 0.0000 0.0000 0.0000 0.0000 16.9454
#
#
#
# Elastic Compliance Matrix: (Units=1/GPa)
#
#
# Indices 1 2 3 4 5 6 
#
# 1 0.020996 -0.002114 -0.001851 0.000000 0.000000 0.000000
# 2 -0.002114 0.014805 -0.006216 0.000000 0.000000 0.000000
# 3 -0.001851 -0.006216 0.009827 0.000000 0.000000 0.000000
# 4 0.000000 0.000000 0.000000 0.121614 0.000000 0.000000
# 5 0.000000 0.000000 0.000000 0.000000 -0.110831 0.000000
# 6 0.000000 0.000000 0.000000 0.000000 0.000000 0.059013
#
#
# Mechanical properties :
#
#
# Convention : Reuss Voigt Hill
#
# Bulk Modulus (GPa) = 39.57909 54.52946 47.05427
# Shear Modulus (GPa) = 34.67223 16.20893 25.44058
#
# Velocity S-wave (km/s) = 4.12612 2.82116 3.53439
# Velocity P-wave (km/s) = 6.49108 6.11450 6.30560
#
# Compressibility (1/GPa) = 0.02526587
#
# Stress axis : x y z
#
# Youngs Moduli (GPa) = 47.62861 67.54419 101.76220
#
# Poissons Ratio (x) = 0.14275 0.18837
# Poissons Ratio (y) = 0.10066 0.63259
# Poissons Ratio (z) = 0.08817 0.41988
#
# Static dielectric constant tensor:
#      x y z
#    x 3.552000 0.000000 0.000000 
#    y 0.000000 3.856150 0.000000 
#    z 0.000000 0.000000 3.897110 
# 
# 
# High freq. dielectric constant tensor:
#      x y z
#    x 1.770530 0.000000 0.000000 
#    y 0.000000 1.797830 0.000000 
#    z 0.000000 0.000000 1.803620 
# 
# From -- ./inp_files/23704.got.cif
#   From: 2010.03.12/outbox.cif.g09.slc.cpg/sg59_12_cif.got.tgz:23704.got - 2010.04.16 16:29:54.
