data_PCOD8246506
_publ_section_title
;
Structure prediction by ZEFSAII (Michael W. Deem and Ramdas Pophale) SiO2 
 PCOD8246506
Probable space group: P B C N
;
_chemical_formula_sum "Si O2"
_cell_formula_units_Z 28
_cell_length_a 8.440899
_cell_length_b 19.424146
_cell_length_c 9.088707
_cell_angle_alpha 90.000000
_cell_angle_beta 90.000000
_cell_angle_gamma 90.000000
_cell_volume 1490.159447
_symmetry_space_group_name_H-M "P B C N"
_symmetry_group_IT_number 60
_symmetry_cell_setting 'orthorhombic'
loop_
_space_group_symop_operation_xyz
x,y,z
1/2-x,1/2-y,1/2+z
1/2+x,1/2-y,-z
-x,y,1/2-z
-x,-y,-z
1/2+x,1/2+y,1/2-z
1/2-x,1/2+y,z
x,-y,1/2+z
loop_
_atom_site_type_symbol
_atom_site_label
_atom_site_fract_x
_atom_site_fract_y
_atom_site_fract_z
Si Si1 0.500000 0.009319 0.250000
Si Si2 0.420066 0.672286 0.601538
Si Si3 0.648692 0.912839 0.489791
Si Si4 0.095128 0.731002 0.603224
O O1 0.385130 0.056034 0.350129
O O2 0.609490 0.964589 0.357103
O O3 0.500000 0.645238 0.750000
O O4 0.335866 0.607071 0.521068
O O5 0.284291 0.730091 0.635387
O O6 0.557639 0.705874 0.504303
O O7 0.544978 0.842968 0.467215
O O8 0.000000 0.745008 0.750000
#
# Coordination Sequence:
#
# PCOD8246506 Si02
#       4
#     4   8   8   8
#     4  10  18  40  54  88 118 174 210 232 308 366
#     4  10  21  37  58  89 122 151 203 258 314 364
#     4   9  21  33  62  80 121 159 206 254 288 379
#     4  10  20  34  55  89 117 154 193 257 312 356
#
# _framework density 18.789936000000001
#
# number of rings (size 3 to 8) (size 9 to 14) (size 15 to 20)
#    1.714    0.571    1.429    1.714    2.000    0.000 
#    0.000    4.286    0.000    0.000    0.000    0.000 
#    0.000    0.000    0.000    0.000    0.000    0.000 
#
# Total GULP energy -346937.351963 kJ/mol
# GULP energy per Si atom -12390.619713 kJ/mol
# Density = 1.874717 g / cm^3
# Si number density = 18.789936 Si / 1000 Ang^3
#
#
#
# Elastic Constant Matrix: (Units=GPa)
#
#
# Indices 1 2 3 4 5 6 
#
# 1 84.2982 23.7502 31.8545 0.0000 0.0000 0.0000
# 2 23.7502 83.0258 55.2644 0.0000 0.0000 0.0000
# 3 31.8545 55.2644 124.7043 0.0000 0.0000 0.0000
# 4 0.0000 0.0000 0.0000 -206.0998 0.0000 0.0000
# 5 0.0000 0.0000 0.0000 0.0000 33.3572 0.0000
# 6 0.0000 0.0000 0.0000 0.0000 0.0000 2.7538
#
#
#
# Elastic Compliance Matrix: (Units=1/GPa)
#
#
# Indices 1 2 3 4 5 6 
#
# 1 0.013409 -0.002207 -0.002447 0.000000 0.000000 0.000000
# 2 -0.002207 0.017447 -0.007168 0.000000 0.000000 0.000000
# 3 -0.002447 -0.007168 0.011821 0.000000 0.000000 0.000000
# 4 0.000000 0.000000 0.000000 -0.004852 0.000000 0.000000
# 5 0.000000 0.000000 0.000000 0.000000 0.029979 0.000000
# 6 0.000000 0.000000 0.000000 0.000000 0.000000 0.363134
#
#
# Mechanical properties :
#
#
# Convention : Reuss Voigt Hill
#
# Bulk Modulus (GPa) = 52.54181 57.08518 54.81350
# Shear Modulus (GPa) = 10.84771 -21.92049 -5.53639
#
# Velocity S-wave (km/s) = 2.40534 -3.41927 -1.71839
# Velocity P-wave (km/s) = 5.97810 3.85462 5.02970
#
# Compressibility (1/GPa) = 0.01903246
#
# Stress axis : x y z
#
# Youngs Moduli (GPa) = 74.57579 57.31609 84.59674
#
# Poissons Ratio (x) = 0.12649 0.20703
# Poissons Ratio (y) = 0.16458 0.60641
# Poissons Ratio (z) = 0.18251 0.41085
#
# Static dielectric constant tensor:
#      x y z
#    x 3.440120 0.000000 0.000000 
#    y 0.000000 3.313160 0.000000 
#    z 0.000000 0.000000 3.353890 
# 
# 
# High freq. dielectric constant tensor:
#      x y z
#    x 1.712000 0.000000 0.000000 
#    y 0.000000 1.713010 0.000000 
#    z 0.000000 0.000000 1.734730 
# 
# From -- ./inp_files/3464.got.cif
#   From: 2010.03.12/outbox.cif.g09.slc.cpg/sg60_2_cif.got.tgz:3464.got - 2010.04.10 18:46:24.
