data_PCOD8246573
_publ_section_title
;
Structure prediction by ZEFSAII (Michael W. Deem and Ramdas Pophale) SiO2 
 PCOD8246573
Probable space group: P B C N
;
_chemical_formula_sum "Si O2"
_cell_formula_units_Z 44
_cell_length_a 16.759755
_cell_length_b 21.984860
_cell_length_c 5.494789
_cell_angle_alpha 90.000000
_cell_angle_beta 90.000000
_cell_angle_gamma 90.000000
_cell_volume 2024.614721
_symmetry_space_group_name_H-M "P B C N"
_symmetry_group_IT_number 60
_symmetry_cell_setting 'orthorhombic'
loop_
_space_group_symop_operation_xyz
x,y,z
1/2-x,1/2-y,1/2+z
1/2+x,1/2-y,-z
-x,y,1/2-z
-x,-y,-z
1/2+x,1/2+y,1/2-z
1/2-x,1/2+y,z
x,-y,1/2+z
loop_
_atom_site_type_symbol
_atom_site_label
_atom_site_fract_x
_atom_site_fract_y
_atom_site_fract_z
Si Si1 0.101510 0.152405 0.858558
Si Si2 0.000000 0.797315 0.750000
Si Si3 0.290901 0.979389 0.721878
Si Si4 0.887470 0.026320 0.836142
Si Si5 0.347069 0.743273 0.482979
Si Si6 0.750135 0.346072 0.820006
O O1 0.094687 0.098543 0.661084
O O2 0.123080 0.216871 0.739012
O O3 0.018941 0.161297 0.011184
O O4 0.171613 0.132051 0.039323
O O5 0.921643 0.756053 0.704031
O O6 0.287901 0.907662 0.783846
O O7 0.334871 0.990209 0.458216
O O8 0.206331 0.011746 0.665564
O O9 0.926603 0.999091 0.587452
O O10 0.274564 0.700411 0.393128
O O11 0.314734 0.811707 0.510045
#
# Coordination Sequence:
#
# PCOD8246573 Si02
#       6
#     8   4   8   8   8   8
#     4  11  21  39  58  81 122 160 202 255 304 370
#     4  10  26  40  56  80 124 168 204 244 322 370
#     4  10  19  33  54  88 126 156 194 259 314 369
#     4  10  19  33  56  82 118 159 203 253 296 357
#     4  11  22  39  58  91 117 160 206 265 312 376
#     4  11  21  33  63  90 118 156 208 263 315 363
#
# _framework density 21.732530000000001
#
# number of rings (size 3 to 8) (size 9 to 14) (size 15 to 20)
#    0.000    1.455    5.455    2.727    2.545    0.000 
#    0.000    0.909    0.000    0.000    0.000    1.273 
#    0.000    0.000    0.000    0.000    0.000    0.000 
#
# Total GULP energy -545430.506445 kJ/mol
# GULP energy per Si atom -12396.147874 kJ/mol
# Density = 2.168307 g / cm^3
# Si number density = 21.732530 Si / 1000 Ang^3
#
#
#
# Elastic Constant Matrix: (Units=GPa)
#
#
# Indices 1 2 3 4 5 6 
#
# 1 48.6517 33.4674 11.2225 0.0000 0.0000 0.0000
# 2 33.4674 108.8269 21.7265 0.0000 0.0000 0.0000
# 3 11.2225 21.7265 126.8436 0.0000 0.0000 0.0000
# 4 0.0000 0.0000 0.0000 28.0632 0.0000 0.0000
# 5 0.0000 0.0000 0.0000 0.0000 21.4392 0.0000
# 6 0.0000 0.0000 0.0000 0.0000 0.0000 16.1067
#
#
#
# Elastic Compliance Matrix: (Units=1/GPa)
#
#
# Indices 1 2 3 4 5 6 
#
# 1 0.026184 -0.007859 -0.000971 0.000000 0.000000 0.000000
# 2 -0.007859 0.011873 -0.001338 0.000000 0.000000 0.000000
# 3 -0.000971 -0.001338 0.008199 0.000000 0.000000 0.000000
# 4 0.000000 0.000000 0.000000 0.035634 0.000000 0.000000
# 5 0.000000 0.000000 0.000000 0.000000 0.046644 0.000000
# 6 0.000000 0.000000 0.000000 0.000000 0.000000 0.062086
#
#
# Mechanical properties :
#
#
# Convention : Reuss Voigt Hill
#
# Bulk Modulus (GPa) = 38.57920 46.35056 42.46488
# Shear Modulus (GPa) = 22.76925 27.64887 25.20906
#
# Velocity S-wave (km/s) = 3.24034 3.57071 3.40953
# Velocity P-wave (km/s) = 5.63827 6.19467 5.92301
#
# Compressibility (1/GPa) = 0.02592070
#
# Stress axis : x y z
#
# Youngs Moduli (GPa) = 38.19120 84.22591 121.96854
#
# Poissons Ratio (x) = 0.66190 0.11838
# Poissons Ratio (y) = 0.30013 0.16324
# Poissons Ratio (z) = 0.03707 0.11272
#
# Static dielectric constant tensor:
#      x y z
#    x 3.473130 0.000000 0.000000 
#    y 0.000000 3.698990 0.000000 
#    z 0.000000 0.000000 4.596860 
# 
# 
# High freq. dielectric constant tensor:
#      x y z
#    x 1.794260 0.000000 0.000000 
#    y 0.000000 1.837870 0.000000 
#    z 0.000000 0.000000 1.879450 
# 
# From -- ./inp_files/2043.got.cif
#   From: 2010.03.12/outbox.cif.g09.slc.cpg/sg60_2_cif.got.tgz:2043.got - 2010.04.10 18:46:24.
