data_PCOD8246000
_publ_section_title
;
Structure prediction by ZEFSAII (Michael W. Deem and Ramdas Pophale) SiO2 
 PCOD8246000
Probable space group: P M M N
;
_chemical_formula_sum "Si O2"
_cell_formula_units_Z 40
_cell_length_a 9.808459
_cell_length_b 8.866554
_cell_length_c 23.994842
_cell_angle_alpha 90.000000
_cell_angle_beta 90.000000
_cell_angle_gamma 90.000000
_cell_volume 2086.764976
_symmetry_space_group_name_H-M "P M M N"
_symmetry_group_IT_number 59
_space_group.IT_coordinate_system_code '2'
_symmetry_cell_setting 'orthorhombic'
loop_
_space_group_symop_operation_xyz
x,y,z
1/2-x,1/2-y,z
1/2+x,-y,-z
-x,1/2+y,-z
-x,-y,-z
1/2+x,1/2+y,-z
1/2-x,y,z
x,1/2-y,z
loop_
_atom_site_type_symbol
_atom_site_label
_atom_site_fract_x
_atom_site_fract_y
_atom_site_fract_z
Si Si1 0.909431 0.071320 0.548577
Si Si2 0.250000 0.072829 0.066022
Si Si3 0.091908 0.578870 0.766958
Si Si4 0.506325 0.426660 0.871927
Si Si5 0.750000 0.571761 0.058263
Si Si6 0.593730 0.427041 0.360909
O O1 0.750000 0.018227 0.546228
O O2 0.915960 0.250000 0.543001
O O3 0.000000 0.000000 0.500000
O O4 0.980567 0.020495 0.605775
O O5 0.250000 0.250000 0.059985
O O6 0.375932 0.021010 0.101354
O O7 0.250000 0.000332 0.003831
O O8 0.250000 0.561038 0.781045
O O9 0.043891 0.750000 0.777378
O O10 0.065087 0.533090 0.703248
O O11 0.008038 0.467475 0.806796
O O12 0.534450 0.250000 0.877387
O O13 0.378225 0.484353 0.906983
O O14 0.750000 0.750000 0.054202
O O15 0.750000 0.472206 0.377096
O O16 0.574238 0.250000 0.372546
#
# Coordination Sequence:
#
# PCOD8246000 Si02
#       6
#     8   4   8   8   4   8
#     4  11  24  40  59  87 121 156 196 239 284 336
#     4  11  23  39  55  79 113 151 190 235 288 349
#     4   9  18  35  59  86 114 149 193 236 282 342
#     4  11  21  37  58  84 114 147 187 238 294 346
#     4   9  20  37  59  83 111 143 188 239 288 347
#     4   9  19  37  61  88 117 149 191 239 283 335
#
# _framework density 19.168427999999999
#
# number of rings (size 3 to 8) (size 9 to 14) (size 15 to 20)
#    0.000    2.000    1.000    3.900    0.000    5.200 
#    1.800    5.000    0.000    0.000    0.000    0.000 
#    0.000    0.000    0.000    0.000    0.000    0.000 
#
# Total GULP energy -495919.975992 kJ/mol
# GULP energy per Si atom -12397.999400 kJ/mol
# Density = 1.912480 g / cm^3
# Si number density = 19.168428 Si / 1000 Ang^3
#
#
#
# Elastic Constant Matrix: (Units=GPa)
#
#
# Indices 1 2 3 4 5 6 
#
# 1 142.1503 44.2417 69.6448 0.0000 0.0000 0.0000
# 2 44.2417 61.8962 40.2318 0.0000 0.0000 0.0000
# 3 69.6448 40.2318 131.0145 0.0000 0.0000 0.0000
# 4 0.0000 0.0000 0.0000 30.9286 0.0000 0.0000
# 5 0.0000 0.0000 0.0000 0.0000 38.3196 0.0000
# 6 0.0000 0.0000 0.0000 0.0000 0.0000 31.4019
#
#
#
# Elastic Compliance Matrix: (Units=1/GPa)
#
#
# Indices 1 2 3 4 5 6 
#
# 1 0.010573 -0.004877 -0.004122 0.000000 0.000000 0.000000
# 2 -0.004877 0.022435 -0.004297 0.000000 0.000000 0.000000
# 3 -0.004122 -0.004297 0.011144 0.000000 0.000000 0.000000
# 4 0.000000 0.000000 0.000000 0.032333 0.000000 0.000000
# 5 0.000000 0.000000 0.000000 0.000000 0.026096 0.000000
# 6 0.000000 0.000000 0.000000 0.000000 0.000000 0.031845
#
#
# Mechanical properties :
#
#
# Convention : Reuss Voigt Hill
#
# Bulk Modulus (GPa) = 56.95320 71.47752 64.21536
# Shear Modulus (GPa) = 29.96330 32.19287 31.07809
#
# Velocity S-wave (km/s) = 3.95797 4.10258 4.03093
# Velocity P-wave (km/s) = 7.11785 7.73381 7.43221
#
# Compressibility (1/GPa) = 0.01755828
#
# Stress axis : x y z
#
# Youngs Moduli (GPa) = 94.58466 44.57307 89.73823
#
# Poissons Ratio (x) = 0.21740 0.36994
# Poissons Ratio (y) = 0.46133 0.38557
# Poissons Ratio (z) = 0.38992 0.19151
#
# Static dielectric constant tensor:
#      x y z
#    x 3.484610 0.000000 0.000000 
#    y 0.000000 3.359880 0.000000 
#    z 0.000000 0.000000 3.707890 
# 
# 
# High freq. dielectric constant tensor:
#      x y z
#    x 1.743320 0.000000 0.000000 
#    y 0.000000 1.735420 0.000000 
#    z 0.000000 0.000000 1.761840 
# 
# From -- ./inp_files/31165.got.cif
#   From: 2010.03.12/outbox.cif.g09.slc.cpg/sg59_16_cif.got.tgz:31165.got - 2010.04.16 16:29:54.
