data_PCOD8246810
_publ_section_title
;
Structure prediction by ZEFSAII (Michael W. Deem and Ramdas Pophale) SiO2 
 PCOD8246810
Probable space group: P B C N
;
_chemical_formula_sum "Si O2"
_cell_formula_units_Z 56
_cell_length_a 9.939998
_cell_length_b 21.526961
_cell_length_c 12.497960
_cell_angle_alpha 90.000000
_cell_angle_beta 90.000000
_cell_angle_gamma 90.000000
_cell_volume 2674.287851
_symmetry_space_group_name_H-M "P B C N"
_symmetry_group_IT_number 60
_symmetry_cell_setting 'orthorhombic'
loop_
_space_group_symop_operation_xyz
x,y,z
1/2-x,1/2-y,1/2+z
1/2+x,1/2-y,-z
-x,y,1/2-z
-x,-y,-z
1/2+x,1/2+y,1/2-z
1/2-x,1/2+y,z
x,-y,1/2+z
loop_
_atom_site_type_symbol
_atom_site_label
_atom_site_fract_x
_atom_site_fract_y
_atom_site_fract_z
Si Si1 0.752765 0.649580 0.965550
Si Si2 0.163203 0.214189 0.339429
Si Si3 0.530360 0.090589 0.530369
Si Si4 0.150286 0.932011 0.224966
Si Si5 0.096061 0.490514 0.664808
Si Si6 0.370263 0.277626 0.608218
Si Si7 0.726169 0.335975 0.093896
O O1 0.662910 0.609334 0.883074
O O2 0.779659 0.717046 0.914170
O O3 0.676846 0.657338 0.078046
O O4 0.886887 0.615942 0.006519
O O5 0.179088 0.189082 0.218306
O O6 0.274591 0.268372 0.351114
O O7 0.020232 0.245357 0.367641
O O8 0.498055 0.049330 0.634394
O O9 0.621861 0.148143 0.561868
O O10 0.611963 0.052382 0.439524
O O11 0.258216 0.988309 0.212725
O O12 0.173931 0.889106 0.328143
O O13 0.000000 0.958683 0.250000
O O14 0.000000 0.454904 0.750000
O O15 0.363576 0.328691 0.513541
#
# Coordination Sequence:
#
# PCOD8246810 Si02
#       7
#     8   8   8   8   8   8   8
#     4  10  20  35  56  88 119 157 201 243 301 358
#     4  10  20  35  54  84 125 161 195 238 287 369
#     4  10  21  37  62  88 112 155 207 261 291 359
#     4  11  22  38  63  89 119 155 201 256 313 367
#     4  10  21  39  65  87 111 151 213 253 310 359
#     4  10  20  33  55  84 121 165 199 232 292 367
#     4  11  20  35  59  87 119 159 197 241 303 357
#
# _framework density 20.940152999999999
#
# number of rings (size 3 to 8) (size 9 to 14) (size 15 to 20)
#    0.000    1.714    4.286    0.857    0.000    1.143 
#    0.000    0.714    6.286    0.000    0.000    0.000 
#    0.000    0.000    0.000    0.000    0.000    0.000 
#
# Total GULP energy -693803.112716 kJ/mol
# GULP energy per Si atom -12389.341298 kJ/mol
# Density = 2.089249 g / cm^3
# Si number density = 20.940153 Si / 1000 Ang^3
#
#
#
# Elastic Constant Matrix: (Units=GPa)
#
#
# Indices 1 2 3 4 5 6 
#
# 1 92.6974 17.6664 43.9575 0.0000 0.0000 0.0000
# 2 17.6664 39.7559 27.3682 0.0000 0.0000 0.0000
# 3 43.9575 27.3682 139.3739 0.0000 0.0000 0.0000
# 4 0.0000 0.0000 0.0000 14.4596 0.0000 0.0000
# 5 0.0000 0.0000 0.0000 0.0000 29.5996 0.0000
# 6 0.0000 0.0000 0.0000 0.0000 0.0000 22.3026
#
#
#
# Elastic Compliance Matrix: (Units=1/GPa)
#
#
# Indices 1 2 3 4 5 6 
#
# 1 0.013079 -0.003437 -0.003450 0.000000 0.000000 0.000000
# 2 -0.003437 0.029988 -0.004805 0.000000 0.000000 0.000000
# 3 -0.003450 -0.004805 0.009207 0.000000 0.000000 0.000000
# 4 0.000000 0.000000 0.000000 0.069158 0.000000 0.000000
# 5 0.000000 0.000000 0.000000 0.000000 0.033784 0.000000
# 6 0.000000 0.000000 0.000000 0.000000 0.000000 0.044838
#
#
# Mechanical properties :
#
#
# Convention : Reuss Voigt Hill
#
# Bulk Modulus (GPa) = 34.61350 49.97904 42.29627
# Shear Modulus (GPa) = 21.45304 25.46137 23.45721
#
# Velocity S-wave (km/s) = 3.20424 3.49078 3.35057
# Velocity P-wave (km/s) = 5.50047 6.33772 5.93388
#
# Compressibility (1/GPa) = 0.02889047
#
# Stress axis : x y z
#
# Youngs Moduli (GPa) = 76.45948 33.34634 108.61814
#
# Poissons Ratio (x) = 0.11460 0.37474
# Poissons Ratio (y) = 0.26277 0.52188
# Poissons Ratio (z) = 0.26379 0.16022
#
# Static dielectric constant tensor:
#      x y z
#    x 3.694190 0.000000 0.000000 
#    y 0.000000 3.426410 0.000000 
#    z 0.000000 0.000000 3.971700 
# 
# 
# High freq. dielectric constant tensor:
#      x y z
#    x 1.809690 0.000000 0.000000 
#    y 0.000000 1.786640 0.000000 
#    z 0.000000 0.000000 1.834920 
# 
# From -- ./inp_files/11321.got.cif
#   From: 2010.03.12/outbox.cif.g09.slc.cpg/sg60_6_cif.got.tgz:11321.got - 2010.04.10 18:46:24.
