data_PCOD8246131
_publ_section_title
;
Structure prediction by ZEFSAII (Michael W. Deem and Ramdas Pophale) SiO2 
 PCOD8246131
Probable space group: P M M N
;
_chemical_formula_sum "Si O2"
_cell_formula_units_Z 56
_cell_length_a 18.961196
_cell_length_b 9.230650
_cell_length_c 17.511865
_cell_angle_alpha 90.000000
_cell_angle_beta 90.000000
_cell_angle_gamma 90.000000
_cell_volume 3064.999529
_symmetry_space_group_name_H-M "P M M N"
_symmetry_group_IT_number 59
_space_group.IT_coordinate_system_code '2'
_symmetry_cell_setting 'orthorhombic'
loop_
_space_group_symop_operation_xyz
x,y,z
1/2-x,1/2-y,z
1/2+x,-y,-z
-x,1/2+y,-z
-x,-y,-z
1/2+x,1/2+y,-z
1/2-x,y,z
x,1/2-y,z
loop_
_atom_site_type_symbol
_atom_site_label
_atom_site_fract_x
_atom_site_fract_y
_atom_site_fract_z
Si Si1 0.416973 0.421307 0.807948
Si Si2 0.957487 0.589405 0.437849
Si Si3 0.330316 0.422484 0.661129
Si Si4 0.667611 0.588183 0.931168
Si Si5 0.827167 0.916726 0.756042
Si Si6 0.431710 0.577620 0.965386
Si Si7 0.548311 0.091967 0.712061
O O1 0.409449 0.250000 0.825742
O O2 0.358926 0.470453 0.744677
O O3 0.408040 0.515833 0.883558
O O4 0.494674 0.460398 0.777400
O O5 0.943688 0.750000 0.471415
O O6 0.882487 0.521128 0.407438
O O7 0.000000 0.500000 0.500000
O O8 0.008138 0.599511 0.366511
O O9 0.250000 0.480364 0.649347
O O10 0.332866 0.250000 0.658193
O O11 0.750000 0.580387 0.946615
O O12 0.640159 0.750000 0.953785
O O13 0.650104 0.558873 0.843132
O O14 0.632073 0.460429 0.978532
O O15 0.750000 0.985567 0.740742
O O16 0.824297 0.750000 0.734767
O O17 0.885126 0.988023 0.702086
O O18 0.443374 0.750000 0.960965
O O19 0.500000 0.500000 0.000000
O O20 0.577381 0.250000 0.734215
#
# Coordination Sequence:
#
# PCOD8246131 Si02
#       7
#     8   8   8   8   8   8   8
#     4   9  18  33  52  74  98 127 168 214 259 306
#     4   9  18  33  53  78 106 134 166 201 240 291
#     4   8  15  31  56  81 103 132 171 211 251 302
#     4   9  19  36  54  71  96 131 168 208 257 308
#     4   9  18  32  50  72  95 121 160 207 248 290
#     4  12  24  35  49  72 103 136 174 219 263 309
#     4   9  18  32  50  72  98 128 162 200 242 294
#
# _framework density 18.270802
#
# number of rings (size 3 to 8) (size 9 to 14) (size 15 to 20)
#    0.000    2.714    0.000    4.714    0.000    5.143 
#    0.000    5.714    0.000    3.857    0.000    0.000 
#    0.000    0.000    0.000    0.000    0.000    0.000 
#
# Total GULP energy -693964.716712 kJ/mol
# GULP energy per Si atom -12392.227084 kJ/mol
# Density = 1.822922 g / cm^3
# Si number density = 18.270802 Si / 1000 Ang^3
#
#
#
# Elastic Constant Matrix: (Units=GPa)
#
#
# Indices 1 2 3 4 5 6 
#
# 1 121.3531 42.1402 43.1873 0.0000 0.0000 0.0000
# 2 42.1402 65.3020 23.0684 0.0000 0.0000 0.0000
# 3 43.1873 23.0684 37.2679 0.0000 0.0000 0.0000
# 4 0.0000 0.0000 0.0000 26.4605 0.0000 0.0000
# 5 0.0000 0.0000 0.0000 0.0000 22.6802 0.0000
# 6 0.0000 0.0000 0.0000 0.0000 0.0000 27.7027
#
#
#
# Elastic Compliance Matrix: (Units=1/GPa)
#
#
# Indices 1 2 3 4 5 6 
#
# 1 0.015003 -0.004531 -0.014582 0.000000 0.000000 0.000000
# 2 -0.004531 0.020967 -0.007728 0.000000 0.000000 0.000000
# 3 -0.014582 -0.007728 0.048514 0.000000 0.000000 0.000000
# 4 0.000000 0.000000 0.000000 0.037792 0.000000 0.000000
# 5 0.000000 0.000000 0.000000 0.000000 0.044091 0.000000
# 6 0.000000 0.000000 0.000000 0.000000 0.000000 0.036098
#
#
# Mechanical properties :
#
#
# Convention : Reuss Voigt Hill
#
# Bulk Modulus (GPa) = 32.46393 48.96831 40.71612
# Shear Modulus (GPa) = 18.76778 23.07048 20.91913
#
# Velocity S-wave (km/s) = 3.20847 3.55730 3.38738
# Velocity P-wave (km/s) = 5.61538 6.61302 6.13452
#
# Compressibility (1/GPa) = 0.03080342
#
# Stress axis : x y z
#
# Youngs Moduli (GPa) = 66.65333 47.69365 20.61258
#
# Poissons Ratio (x) = 0.21608 0.30056
# Poissons Ratio (y) = 0.30198 0.15930
# Poissons Ratio (z) = 0.97191 0.36859
#
# Static dielectric constant tensor:
#      x y z
#    x 3.816870 0.000000 0.000000 
#    y 0.000000 3.050600 0.000000 
#    z 0.000000 0.000000 3.787620 
# 
# 
# High freq. dielectric constant tensor:
#      x y z
#    x 1.715810 0.000000 0.000000 
#    y 0.000000 1.684130 0.000000 
#    z 0.000000 0.000000 1.696040 
# 
# From -- ./inp_files/28116.got.cif
#   From: 2010.03.12/outbox.cif.g09.slc.cpg/sg59_15_cif.got.tgz:28116.got - 2010.04.16 16:29:54.
