data_PCOD8246486
_publ_section_title
;
Structure prediction by ZEFSAII (Michael W. Deem and Ramdas Pophale) SiO2 
 PCOD8246486
Probable space group: P B C N
;
_chemical_formula_sum "Si O2"
_cell_formula_units_Z 52
_cell_length_a 14.238102
_cell_length_b 8.421925
_cell_length_c 20.056369
_cell_angle_alpha 90.000000
_cell_angle_beta 90.000000
_cell_angle_gamma 90.000000
_cell_volume 2405.003876
_symmetry_space_group_name_H-M "P B C N"
_symmetry_group_IT_number 60
_symmetry_cell_setting 'orthorhombic'
loop_
_space_group_symop_operation_xyz
x,y,z
1/2-x,1/2-y,1/2+z
1/2+x,1/2-y,-z
-x,y,1/2-z
-x,-y,-z
1/2+x,1/2+y,1/2-z
1/2-x,1/2+y,z
x,-y,1/2+z
loop_
_atom_site_type_symbol
_atom_site_label
_atom_site_fract_x
_atom_site_fract_y
_atom_site_fract_z
Si Si1 0.495152 0.872945 0.096107
Si Si2 0.854222 0.171116 0.650747
Si Si3 0.653784 0.699287 0.180386
Si Si4 0.492041 0.230219 0.450189
Si Si5 0.868119 0.088735 0.862657
Si Si6 0.823783 0.750244 0.834635
Si Si7 0.500000 0.332540 0.250000
O O1 0.572481 0.797922 0.144437
O O2 0.393751 0.874990 0.131412
O O3 0.515947 0.053139 0.078428
O O4 0.493043 0.765414 0.029655
O O5 0.752186 0.245727 0.649421
O O6 0.897955 0.184522 0.576831
O O7 0.922738 0.263955 0.705153
O O8 0.854630 0.987644 0.670798
O O9 0.647858 0.734091 0.258135
O O10 0.584720 0.324955 0.425902
O O11 0.782933 0.195286 0.837229
O O12 0.943993 0.062597 0.803825
O O13 0.831942 0.912252 0.877821
#
# Coordination Sequence:
#
# PCOD8246486 Si02
#       7
#     8   8   8   8   8   8   4
#     4  11  25  44  67  90 134 166 228 257 324 377
#     4  11  23  40  68  92 135 163 216 258 325 374
#     4  12  23  41  65 102 128 172 206 271 316 392
#     4  10  25  46  63  95 124 181 211 273 313 381
#     4  11  23  40  68  92 135 163 216 258 325 374
#     4  12  23  41  65 102 128 172 206 271 316 392
#     4  10  18  38  58  92 124 164 192 264 298 382
#
# _framework density 21.621585
#
# number of rings (size 3 to 8) (size 9 to 14) (size 15 to 20)
#    0.000    0.923    3.077    4.154    0.000    3.692 
#   11.077    0.000    0.000    0.000    0.000    0.000 
#    0.000    0.000    0.000    0.000    0.000    0.000 
#
# Total GULP energy -644632.480071 kJ/mol
# GULP energy per Si atom -12396.778463 kJ/mol
# Density = 2.157237 g / cm^3
# Si number density = 21.621585 Si / 1000 Ang^3
#
#
#
# Elastic Constant Matrix: (Units=GPa)
#
#
# Indices 1 2 3 4 5 6 
#
# 1 128.6188 31.8449 48.0178 0.0000 0.0000 0.0000
# 2 31.8449 53.2732 35.3856 0.0000 0.0000 0.0000
# 3 48.0178 35.3856 86.8851 0.0000 0.0000 0.0000
# 4 0.0000 0.0000 0.0000 29.4892 0.0000 0.0000
# 5 0.0000 0.0000 0.0000 0.0000 18.9479 0.0000
# 6 0.0000 0.0000 0.0000 0.0000 0.0000 20.9395
#
#
#
# Elastic Compliance Matrix: (Units=1/GPa)
#
#
# Indices 1 2 3 4 5 6 
#
# 1 0.010184 -0.003220 -0.004317 0.000000 0.000000 0.000000
# 2 -0.003220 0.026751 -0.009115 0.000000 0.000000 0.000000
# 3 -0.004317 -0.009115 0.017607 0.000000 0.000000 0.000000
# 4 0.000000 0.000000 0.000000 0.033911 0.000000 0.000000
# 5 0.000000 0.000000 0.000000 0.000000 0.052776 0.000000
# 6 0.000000 0.000000 0.000000 0.000000 0.000000 0.047757
#
#
# Mechanical properties :
#
#
# Convention : Reuss Voigt Hill
#
# Bulk Modulus (GPa) = 47.08563 55.47487 51.28025
# Shear Modulus (GPa) = 21.79901 24.11058 22.95480
#
# Velocity S-wave (km/s) = 3.17867 3.34296 3.26185
# Velocity P-wave (km/s) = 5.94107 6.37286 6.16075
#
# Compressibility (1/GPa) = 0.02123790
#
# Stress axis : x y z
#
# Youngs Moduli (GPa) = 98.19539 37.38242 56.79460
#
# Poissons Ratio (x) = 0.12038 0.24516
# Poissons Ratio (y) = 0.31622 0.51768
# Poissons Ratio (z) = 0.42387 0.34074
#
# Static dielectric constant tensor:
#      x y z
#    x 4.227270 0.000000 0.000000 
#    y 0.000000 3.840850 0.000000 
#    z 0.000000 0.000000 4.006340 
# 
# 
# High freq. dielectric constant tensor:
#      x y z
#    x 1.867320 0.000000 0.000000 
#    y 0.000000 1.843350 0.000000 
#    z 0.000000 0.000000 1.848780 
# 
# From -- ./inp_files/22860.got.cif
#   From: 2010.03.12/outbox.cif.g09.slc.cpg/sg60_12_cif.got.tgz:22860.got - 2010.04.10 18:46:24.
