data_PCOD8246628
_publ_section_title
;
Structure prediction by ZEFSAII (Michael W. Deem and Ramdas Pophale) SiO2 
 PCOD8246628
Probable space group: P B C N
;
_chemical_formula_sum "Si O2"
_cell_formula_units_Z 40
_cell_length_a 11.685342
_cell_length_b 10.838895
_cell_length_c 18.081150
_cell_angle_alpha 90.000000
_cell_angle_beta 90.000000
_cell_angle_gamma 90.000000
_cell_volume 2290.089660
_symmetry_space_group_name_H-M "P B C N"
_symmetry_group_IT_number 60
_symmetry_cell_setting 'orthorhombic'
loop_
_space_group_symop_operation_xyz
x,y,z
1/2-x,1/2-y,1/2+z
1/2+x,1/2-y,-z
-x,y,1/2-z
-x,-y,-z
1/2+x,1/2+y,1/2-z
1/2-x,1/2+y,z
x,-y,1/2+z
loop_
_atom_site_type_symbol
_atom_site_label
_atom_site_fract_x
_atom_site_fract_y
_atom_site_fract_z
Si Si1 0.170976 0.034079 0.456122
Si Si2 0.665739 0.317937 0.927485
Si Si3 0.096274 0.213857 0.581001
Si Si4 0.418659 0.110232 0.476907
Si Si5 0.016103 0.986649 0.663593
O O1 0.113450 0.146292 0.501681
O O2 0.303760 0.059957 0.437709
O O3 0.105088 0.018781 0.378925
O O4 0.158013 0.908444 0.502104
O O5 0.796165 0.301184 0.900987
O O6 0.594640 0.371327 0.859296
O O7 0.616529 0.184091 0.949092
O O8 0.984471 0.299866 0.579286
O O9 0.081623 0.113687 0.645377
O O10 0.500000 0.000000 0.500000
O O11 0.000000 0.977517 0.750000
#
# Coordination Sequence:
#
# PCOD8246628 Si02
#       5
#     8   8   8   8   8
#     4  10  19  34  61  81 108 152 191 235 291 329
#     4  10  19  37  58  84 112 142 193 245 280 330
#     4  10  19  36  58  84 113 140 192 247 277 329
#     4  11  19  31  60  92 108 135 189 252 287 317
#     4  11  22  40  57  81 119 162 189 222 291 359
#
# _framework density 17.466564999999999
#
# number of rings (size 3 to 8) (size 9 to 14) (size 15 to 20)
#    0.000    1.600    6.000    1.200    0.000    0.000 
#    3.600    0.000    0.000    1.200    0.000    0.000 
#    0.000    0.000    0.000    0.000    0.000    0.000 
#
# Total GULP energy -496084.001329 kJ/mol
# GULP energy per Si atom -12402.100033 kJ/mol
# Density = 1.742681 g / cm^3
# Si number density = 17.466565 Si / 1000 Ang^3
#
#
#
# Elastic Constant Matrix: (Units=GPa)
#
#
# Indices 1 2 3 4 5 6 
#
# 1 137.0640 42.8030 58.5872 0.0000 0.0000 0.0000
# 2 42.8030 69.8019 30.9677 0.0000 0.0000 0.0000
# 3 58.5872 30.9677 116.9699 0.0000 0.0000 0.0000
# 4 0.0000 0.0000 0.0000 11.9980 0.0000 0.0000
# 5 0.0000 0.0000 0.0000 0.0000 18.3055 0.0000
# 6 0.0000 0.0000 0.0000 0.0000 0.0000 45.9801
#
#
#
# Elastic Compliance Matrix: (Units=1/GPa)
#
#
# Indices 1 2 3 4 5 6 
#
# 1 0.010457 -0.004633 -0.004011 0.000000 0.000000 0.000000
# 2 -0.004633 0.018285 -0.002521 0.000000 0.000000 0.000000
# 3 -0.004011 -0.002521 0.011226 0.000000 0.000000 0.000000
# 4 0.000000 0.000000 0.000000 0.083347 0.000000 0.000000
# 5 0.000000 0.000000 0.000000 0.000000 0.054628 0.000000
# 6 0.000000 0.000000 0.000000 0.000000 0.000000 0.021749
#
#
# Mechanical properties :
#
#
# Convention : Reuss Voigt Hill
#
# Bulk Modulus (GPa) = 56.69258 65.39461 61.04359
# Shear Modulus (GPa) = 21.93930 28.02190 24.98060
#
# Velocity S-wave (km/s) = 3.54796 4.00974 3.78590
# Velocity P-wave (km/s) = 7.02227 7.67844 7.35767
#
# Compressibility (1/GPa) = 0.01763899
#
# Stress axis : x y z
#
# Youngs Moduli (GPa) = 95.62803 54.68845 89.08182
#
# Poissons Ratio (x) = 0.25336 0.35732
# Poissons Ratio (y) = 0.44303 0.22454
# Poissons Ratio (z) = 0.38358 0.13785
#
# Static dielectric constant tensor:
#      x y z
#    x 3.593370 0.000000 0.000000 
#    y 0.000000 3.497800 0.000000 
#    z 0.000000 0.000000 2.696150 
# 
# 
# High freq. dielectric constant tensor:
#      x y z
#    x 1.699100 0.000000 0.000000 
#    y 0.000000 1.690970 0.000000 
#    z 0.000000 0.000000 1.613620 
# 
# From -- ./inp_files/15818.got.cif
#   From: 2010.03.12/outbox.cif.g09.slc.cpg/sg60_8_cif.got.tgz:15818.got - 2010.04.10 18:46:24.
