data_PCOD8246349
_publ_section_title
;
Structure prediction by ZEFSAII (Michael W. Deem and Ramdas Pophale) SiO2 
 PCOD8246349
Probable space group: P B C N
;
_chemical_formula_sum "Si O2"
_cell_formula_units_Z 40
_cell_length_a 13.661951
_cell_length_b 14.384755
_cell_length_c 9.437994
_cell_angle_alpha 90.000000
_cell_angle_beta 90.000000
_cell_angle_gamma 90.000000
_cell_volume 1854.790615
_symmetry_space_group_name_H-M "P B C N"
_symmetry_group_IT_number 60
_symmetry_cell_setting 'orthorhombic'
loop_
_space_group_symop_operation_xyz
x,y,z
1/2-x,1/2-y,1/2+z
1/2+x,1/2-y,-z
-x,y,1/2-z
-x,-y,-z
1/2+x,1/2+y,1/2-z
1/2-x,1/2+y,z
x,-y,1/2+z
loop_
_atom_site_type_symbol
_atom_site_label
_atom_site_fract_x
_atom_site_fract_y
_atom_site_fract_z
Si Si1 0.792489 0.903629 0.932277
Si Si2 0.084357 0.615662 0.976681
Si Si3 0.856757 0.042298 0.148860
Si Si4 0.000000 0.516008 0.250000
Si Si5 0.500000 0.389940 0.250000
Si Si6 0.502355 0.690300 0.464102
O O1 0.777442 0.922074 0.763872
O O2 0.883176 0.833159 0.949252
O O3 0.698265 0.856084 0.004619
O O4 0.808625 0.006347 0.003039
O O5 0.075280 0.544639 0.845094
O O6 0.018776 0.702917 0.927490
O O7 0.055480 0.576822 0.131751
O O8 0.938188 0.122016 0.132338
O O9 0.907666 0.951440 0.210950
O O10 0.532907 0.323231 0.375954
#
# Coordination Sequence:
#
# PCOD8246349 Si02
#       6
#     8   8   8   4   4   8
#     4  11  22  40  67  99 129 168 218 260 339 389
#     4  11  25  47  67  96 124 183 219 270 324 391
#     4  11  19  39  65  96 132 167 199 275 328 385
#     4  10  25  51  68  80 142 172 220 273 327 382
#     4  10  17  37  62  90 136 166 190 261 345 366
#     4  11  22  39  65  99 136 163 216 276 318 383
#
# _framework density 21.565778000000002
#
# number of rings (size 3 to 8) (size 9 to 14) (size 15 to 20)
#    0.000    1.200    4.000    3.000    2.800    0.000 
#   18.000    0.000    0.000    0.000    0.000    0.000 
#    0.000    0.000    0.000    0.000    0.000    0.000 
#
# Total GULP energy -495718.229584 kJ/mol
# GULP energy per Si atom -12392.955740 kJ/mol
# Density = 2.151669 g / cm^3
# Si number density = 21.565778 Si / 1000 Ang^3
#
#
#
# Elastic Constant Matrix: (Units=GPa)
#
#
# Indices 1 2 3 4 5 6 
#
# 1 115.8344 45.7681 32.6520 0.0000 0.0000 0.0000
# 2 45.7681 104.0701 22.1987 0.0000 0.0000 0.0000
# 3 32.6520 22.1987 118.1818 0.0000 0.0000 0.0000
# 4 0.0000 0.0000 0.0000 14.5629 0.0000 0.0000
# 5 0.0000 0.0000 0.0000 0.0000 23.1104 0.0000
# 6 0.0000 0.0000 0.0000 0.0000 0.0000 20.4332
#
#
#
# Elastic Compliance Matrix: (Units=1/GPa)
#
#
# Indices 1 2 3 4 5 6 
#
# 1 0.010978 -0.004356 -0.002215 0.000000 0.000000 0.000000
# 2 -0.004356 0.011738 -0.001001 0.000000 0.000000 0.000000
# 3 -0.002215 -0.001001 0.009262 0.000000 0.000000 0.000000
# 4 0.000000 0.000000 0.000000 0.068668 0.000000 0.000000
# 5 0.000000 0.000000 0.000000 0.000000 0.043271 0.000000
# 6 0.000000 0.000000 0.000000 0.000000 0.000000 0.048940
#
#
# Mechanical properties :
#
#
# Convention : Reuss Voigt Hill
#
# Bulk Modulus (GPa) = 59.40395 59.92489 59.66442
# Shear Modulus (GPa) = 23.40697 27.45247 25.42972
#
# Velocity S-wave (km/s) = 3.29808 3.57173 3.43763
# Velocity P-wave (km/s) = 6.48910 6.69754 6.59414
#
# Compressibility (1/GPa) = 0.01683390
#
# Stress axis : x y z
#
# Youngs Moduli (GPa) = 91.08822 85.19319 107.97235
#
# Poissons Ratio (x) = 0.37107 0.23916
# Poissons Ratio (y) = 0.39674 0.10813
# Poissons Ratio (z) = 0.20176 0.08531
#
# Static dielectric constant tensor:
#      x y z
#    x 3.692560 0.000000 0.000000 
#    y 0.000000 3.670290 0.000000 
#    z 0.000000 0.000000 4.477940 
# 
# 
# High freq. dielectric constant tensor:
#      x y z
#    x 1.825150 0.000000 0.000000 
#    y 0.000000 1.824620 0.000000 
#    z 0.000000 0.000000 1.874360 
# 
# From -- ./inp_files/5711.got.cif
#   From: 2010.03.12/outbox.cif.g09.slc.cpg/sg60_3_cif.got.tgz:5711.got - 2010.04.10 18:46:24.
