data_PCOD8246339
_publ_section_title
;
Structure prediction by ZEFSAII (Michael W. Deem and Ramdas Pophale) SiO2 
 PCOD8246339
Probable space group: P B C N
;
_chemical_formula_sum "Si O2"
_cell_formula_units_Z 48
_cell_length_a 10.062553
_cell_length_b 9.167300
_cell_length_c 27.385786
_cell_angle_alpha 90.000000
_cell_angle_beta 90.000000
_cell_angle_gamma 90.000000
_cell_volume 2526.241323
_symmetry_space_group_name_H-M "P B C N"
_symmetry_group_IT_number 60
_symmetry_cell_setting 'orthorhombic'
loop_
_space_group_symop_operation_xyz
x,y,z
1/2-x,1/2-y,1/2+z
1/2+x,1/2-y,-z
-x,y,1/2-z
-x,-y,-z
1/2+x,1/2+y,1/2-z
1/2-x,1/2+y,z
x,-y,1/2+z
loop_
_atom_site_type_symbol
_atom_site_label
_atom_site_fract_x
_atom_site_fract_y
_atom_site_fract_z
Si Si1 0.612662 0.651604 0.287357
Si Si2 0.371918 0.346575 0.459400
Si Si3 0.211734 0.069852 0.856468
Si Si4 0.429549 0.277161 0.872208
Si Si5 0.111040 0.174598 0.479100
Si Si6 0.356922 0.665830 0.748741
O O1 0.500000 0.706116 0.250000
O O2 0.563206 0.696133 0.341310
O O3 0.750614 0.727967 0.274993
O O4 0.633603 0.478563 0.284692
O O5 0.370605 0.352083 0.400332
O O6 0.250224 0.256564 0.481592
O O7 0.512366 0.277256 0.476958
O O8 0.355621 0.504727 0.483312
O O9 0.366847 0.115852 0.863010
O O10 0.170255 0.125510 0.804096
O O11 0.186694 0.895921 0.858531
O O12 0.467646 0.292071 0.928714
O O13 0.500000 0.746290 0.750000
#
# Coordination Sequence:
#
# PCOD8246339 Si02
#       6
#     8   8   8   8   8   8
#     4  11  21  37  55  77 109 140 177 221 256 312
#     4   9  19  34  56  79 106 137 176 219 264 315
#     4  10  17  34  58  76 104 141 178 211 265 317
#     4  10  19  36  57  78 106 141 181 217 264 314
#     4   9  19  36  56  80 105 140 176 221 265 316
#     4  11  21  36  54  79 108 143 175 220 262 310
#
# _framework density 19.000558999999999
#
# number of rings (size 3 to 8) (size 9 to 14) (size 15 to 20)
#    0.000    2.000    5.000    0.000    0.000    1.333 
#    6.000    0.000    0.000    0.000    0.000    0.000 
#    0.000    0.000    0.000    0.000    0.000    0.000 
#
# Total GULP energy -594937.478406 kJ/mol
# GULP energy per Si atom -12394.530800 kJ/mol
# Density = 1.895731 g / cm^3
# Si number density = 19.000559 Si / 1000 Ang^3
#
#
#
# Elastic Constant Matrix: (Units=GPa)
#
#
# Indices 1 2 3 4 5 6 
#
# 1 79.1849 43.6719 -1.2789 0.0000 0.0000 0.0000
# 2 43.6719 48.5935 11.0681 0.0000 0.0000 0.0000
# 3 -1.2789 11.0681 38.1013 0.0000 0.0000 0.0000
# 4 0.0000 0.0000 0.0000 16.8470 0.0000 0.0000
# 5 0.0000 0.0000 0.0000 0.0000 38.0524 0.0000
# 6 0.0000 0.0000 0.0000 0.0000 0.0000 29.3871
#
#
#
# Elastic Compliance Matrix: (Units=1/GPa)
#
#
# Indices 1 2 3 4 5 6 
#
# 1 0.027477 -0.026669 0.008669 0.000000 0.000000 0.000000
# 2 -0.026669 0.047921 -0.014816 0.000000 0.000000 0.000000
# 3 0.008669 -0.014816 0.030841 0.000000 0.000000 0.000000
# 4 0.000000 0.000000 0.000000 0.059358 0.000000 0.000000
# 5 0.000000 0.000000 0.000000 0.000000 0.026280 0.000000
# 6 0.000000 0.000000 0.000000 0.000000 0.000000 0.034029
#
#
# Mechanical properties :
#
#
# Convention : Reuss Voigt Hill
#
# Bulk Modulus (GPa) = 24.62547 30.31132 27.46840
# Shear Modulus (GPa) = 16.38967 24.35189 20.37078
#
# Velocity S-wave (km/s) = 2.94017 3.58389 3.27787
# Velocity P-wave (km/s) = 4.95123 5.75440 5.36786
#
# Compressibility (1/GPa) = 0.04060835
#
# Stress axis : x y z
#
# Youngs Moduli (GPa) = 36.39430 20.86770 32.42478
#
# Poissons Ratio (x) = 0.55651 -0.28110
# Poissons Ratio (y) = 0.97058 0.48040
# Poissons Ratio (z) = -0.31551 0.30917
#
# Static dielectric constant tensor:
#      x y z
#    x 3.589740 0.000000 0.000000 
#    y 0.000000 3.618660 0.000000 
#    z 0.000000 0.000000 3.599920 
# 
# 
# High freq. dielectric constant tensor:
#      x y z
#    x 1.723560 0.000000 0.000000 
#    y 0.000000 1.727510 0.000000 
#    z 0.000000 0.000000 1.742090 
# 
# From -- ./inp_files/25948.got.cif
#   From: 2010.03.12/outbox.cif.g09.slc.cpg/sg60_13_cif.got.tgz:25948.got - 2010.04.10 18:46:24.
