data_PCOD8246979
_publ_section_title
;
Structure prediction by ZEFSAII (Michael W. Deem and Ramdas Pophale) SiO2 
 PCOD8246979
Probable space group: P B C N
;
_chemical_formula_sum "Si O2"
_cell_formula_units_Z 48
_cell_length_a 4.982546
_cell_length_b 27.750529
_cell_length_c 16.289994
_cell_angle_alpha 90.000000
_cell_angle_beta 90.000000
_cell_angle_gamma 90.000000
_cell_volume 2252.389570
_symmetry_space_group_name_H-M "P B C N"
_symmetry_group_IT_number 60
_symmetry_cell_setting 'orthorhombic'
loop_
_space_group_symop_operation_xyz
x,y,z
1/2-x,1/2-y,1/2+z
1/2+x,1/2-y,-z
-x,y,1/2-z
-x,-y,-z
1/2+x,1/2+y,1/2-z
1/2-x,1/2+y,z
x,-y,1/2+z
loop_
_atom_site_type_symbol
_atom_site_label
_atom_site_fract_x
_atom_site_fract_y
_atom_site_fract_z
Si Si1 0.095385 0.167678 0.596272
Si Si2 0.413507 0.113999 0.844440
Si Si3 0.610017 0.770496 0.841037
Si Si4 0.244367 0.090182 0.307805
Si Si5 0.750758 0.984628 0.193649
Si Si6 0.122344 0.179854 0.408964
O O1 0.332788 0.128286 0.600189
O O2 0.196883 0.215526 0.642808
O O3 0.022959 0.177373 0.502132
O O4 0.829221 0.150458 0.642216
O O5 0.500000 0.115077 0.750000
O O6 0.315359 0.059557 0.868335
O O7 0.500000 0.779556 0.750000
O O8 0.367835 0.782486 0.903500
O O9 0.870198 0.803860 0.853794
O O10 0.500000 0.096333 0.250000
O O11 0.242064 0.128377 0.381394
O O12 0.000000 0.101986 0.250000
O O13 0.205012 0.036761 0.349320
O O14 0.500000 0.994856 0.250000
O O15 0.000000 0.968686 0.250000
#
# Coordination Sequence:
#
# PCOD8246979 Si02
#       6
#     8   8   8   8   8   8
#     4  12  25  40  60  90 124 157 192 246 306 354
#     4  11  21  39  62  87 117 157 203 244 289 353
#     4  12  24  41  63  86 115 160 207 245 286 352
#     4  10  20  37  62  88 116 155 202 244 288 347
#     4   9  18  34  59  88 115 150 199 250 289 336
#     4  12  24  41  60  89 125 157 193 247 305 352
#
# _framework density 21.310697999999999
#
# number of rings (size 3 to 8) (size 9 to 14) (size 15 to 20)
#    0.000    1.000    0.000    9.500    0.000    0.000 
#    0.000    1.667    0.000    0.000    0.000    0.000 
#    0.000    0.000    0.000    0.000    0.000    0.000 
#
# Total GULP energy -595214.152592 kJ/mol
# GULP energy per Si atom -12400.294846 kJ/mol
# Density = 2.126219 g / cm^3
# Si number density = 21.310698 Si / 1000 Ang^3
#
#
#
# Elastic Constant Matrix: (Units=GPa)
#
#
# Indices 1 2 3 4 5 6 
#
# 1 135.4289 33.3060 21.8058 0.0000 0.0000 0.0000
# 2 33.3060 119.3307 44.4299 0.0000 0.0000 0.0000
# 3 21.8058 44.4299 62.2719 0.0000 0.0000 0.0000
# 4 0.0000 0.0000 0.0000 15.4108 0.0000 0.0000
# 5 0.0000 0.0000 0.0000 0.0000 28.6371 0.0000
# 6 0.0000 0.0000 0.0000 0.0000 0.0000 36.3015
#
#
#
# Elastic Compliance Matrix: (Units=1/GPa)
#
#
# Indices 1 2 3 4 5 6 
#
# 1 0.008052 -0.001631 -0.001656 0.000000 0.000000 0.000000
# 2 -0.001631 0.011742 -0.007807 0.000000 0.000000 0.000000
# 3 -0.001656 -0.007807 0.022208 0.000000 0.000000 0.000000
# 4 0.000000 0.000000 0.000000 0.064890 0.000000 0.000000
# 5 0.000000 0.000000 0.000000 0.000000 0.034920 0.000000
# 6 0.000000 0.000000 0.000000 0.000000 0.000000 0.027547
#
#
# Mechanical properties :
#
#
# Convention : Reuss Voigt Hill
#
# Bulk Modulus (GPa) = 50.46604 57.34610 53.90607
# Shear Modulus (GPa) = 25.23347 30.56920 27.90133
#
# Velocity S-wave (km/s) = 3.44477 3.79153 3.62230
# Velocity P-wave (km/s) = 6.28923 6.79231 6.54561
#
# Compressibility (1/GPa) = 0.01981531
#
# Stress axis : x y z
#
# Youngs Moduli (GPa) = 124.19857 85.16592 45.02820
#
# Poissons Ratio (x) = 0.13888 0.07457
# Poissons Ratio (y) = 0.20253 0.35151
# Poissons Ratio (z) = 0.20567 0.66485
#
# Static dielectric constant tensor:
#      x y z
#    x 3.965810 0.000000 0.000000 
#    y 0.000000 4.404040 0.000000 
#    z 0.000000 0.000000 3.423810 
# 
# 
# High freq. dielectric constant tensor:
#      x y z
#    x 1.859510 0.000000 0.000000 
#    y 0.000000 1.857950 0.000000 
#    z 0.000000 0.000000 1.793270 
# 
# From -- ./inp_files/13943.got.cif
#   From: 2010.03.12/outbox.cif.g09.slc.cpg/sg60_7_cif.got.tgz:13943.got - 2010.04.10 18:46:24.
