data_PCOD8246961
_publ_section_title
;
Structure prediction by ZEFSAII (Michael W. Deem and Ramdas Pophale) SiO2 
 PCOD8246961
Probable space group: P B C N
;
_chemical_formula_sum "Si O2"
_cell_formula_units_Z 56
_cell_length_a 13.050991
_cell_length_b 15.141718
_cell_length_c 14.861018
_cell_angle_alpha 90.000000
_cell_angle_beta 90.000000
_cell_angle_gamma 90.000000
_cell_volume 2936.751532
_symmetry_space_group_name_H-M "P B C N"
_symmetry_group_IT_number 60
_symmetry_cell_setting 'orthorhombic'
loop_
_space_group_symop_operation_xyz
x,y,z
1/2-x,1/2-y,1/2+z
1/2+x,1/2-y,-z
-x,y,1/2-z
-x,-y,-z
1/2+x,1/2+y,1/2-z
1/2-x,1/2+y,z
x,-y,1/2+z
loop_
_atom_site_type_symbol
_atom_site_label
_atom_site_fract_x
_atom_site_fract_y
_atom_site_fract_z
Si Si1 0.055636 0.367625 0.523252
Si Si2 0.839096 0.460015 0.529340
Si Si3 0.103934 0.741568 0.200507
Si Si4 0.417436 0.433148 0.676427
Si Si5 0.059095 0.804669 0.919954
Si Si6 0.258634 0.629752 0.307614
Si Si7 0.655763 0.601480 0.915890
O O1 0.143613 0.436667 0.492259
O O2 0.088938 0.324605 0.617122
O O3 0.041221 0.297283 0.443327
O O4 0.947691 0.413601 0.536438
O O5 0.781991 0.446383 0.624833
O O6 0.770841 0.415708 0.450962
O O7 0.168795 0.694236 0.277735
O O8 0.161149 0.830758 0.167964
O O9 0.000000 0.769375 0.250000
O O10 0.500000 0.464003 0.750000
O O11 0.457288 0.345220 0.625656
O O12 0.306937 0.416886 0.720746
O O13 0.401689 0.511216 0.606579
O O14 0.154895 0.809957 0.853188
O O15 0.081664 0.857637 0.010074
#
# Coordination Sequence:
#
# PCOD8246961 Si02
#       7
#     8   8   8   8   8   8   8
#     4  10  21  39  60  82 115 161 195 240 292 352
#     4  10  21  39  58  83 119 152 202 237 288 357
#     4  11  21  37  59  85 118 152 197 243 299 348
#     4  10  20  37  59  83 119 150 188 245 297 339
#     4   9  21  38  59  84 115 153 196 238 289 354
#     4  10  21  37  58  86 117 151 190 248 290 344
#     4  10  21  36  57  89 114 154 196 237 292 361
#
# _framework density 19.068688000000002
#
# number of rings (size 3 to 8) (size 9 to 14) (size 15 to 20)
#    0.000    2.000    1.429    1.714    2.000    1.143 
#    2.571    1.429    6.286    0.000    0.000    0.000 
#    0.000    0.000    0.000    0.000    0.000    0.000 
#
# Total GULP energy -694471.258280 kJ/mol
# GULP energy per Si atom -12401.272469 kJ/mol
# Density = 1.902529 g / cm^3
# Si number density = 19.068688 Si / 1000 Ang^3
#
#
#
# Elastic Constant Matrix: (Units=GPa)
#
#
# Indices 1 2 3 4 5 6 
#
# 1 77.5122 37.6903 25.2962 0.0000 0.0000 0.0000
# 2 37.6903 113.8721 46.7154 0.0000 0.0000 0.0000
# 3 25.2962 46.7154 78.7621 0.0000 0.0000 0.0000
# 4 0.0000 0.0000 0.0000 29.0927 0.0000 0.0000
# 5 0.0000 0.0000 0.0000 0.0000 30.8843 0.0000
# 6 0.0000 0.0000 0.0000 0.0000 0.0000 20.6117
#
#
#
# Elastic Compliance Matrix: (Units=1/GPa)
#
#
# Indices 1 2 3 4 5 6 
#
# 1 0.015769 -0.004152 -0.002602 0.000000 0.000000 0.000000
# 2 -0.004152 0.012699 -0.006198 0.000000 0.000000 0.000000
# 3 -0.002602 -0.006198 0.017209 0.000000 0.000000 0.000000
# 4 0.000000 0.000000 0.000000 0.034373 0.000000 0.000000
# 5 0.000000 0.000000 0.000000 0.000000 0.032379 0.000000
# 6 0.000000 0.000000 0.000000 0.000000 0.000000 0.048516
#
#
# Mechanical properties :
#
#
# Convention : Reuss Voigt Hill
#
# Bulk Modulus (GPa) = 50.57703 54.39446 52.48574
# Shear Modulus (GPa) = 25.84774 26.81402 26.33088
#
# Velocity S-wave (km/s) = 3.68572 3.75398 3.72000
# Velocity P-wave (km/s) = 6.68535 6.88311 6.78495
#
# Compressibility (1/GPa) = 0.01977182
#
# Stress axis : x y z
#
# Youngs Moduli (GPa) = 63.41444 78.74673 58.11038
#
# Poissons Ratio (x) = 0.32695 0.15121
# Poissons Ratio (y) = 0.26330 0.36020
# Poissons Ratio (z) = 0.16501 0.48811
#
# Static dielectric constant tensor:
#      x y z
#    x 3.487130 0.000000 0.000000 
#    y 0.000000 3.550990 0.000000 
#    z 0.000000 0.000000 3.611100 
# 
# 
# High freq. dielectric constant tensor:
#      x y z
#    x 1.744970 0.000000 0.000000 
#    y 0.000000 1.736690 0.000000 
#    z 0.000000 0.000000 1.748660 
# 
# From -- ./inp_files/16140.got.cif
#   From: 2010.03.12/outbox.cif.g09.slc.cpg/sg60_9_cif.got.tgz:16140.got - 2010.04.10 18:46:24.
