data_PCOD8246102
_publ_section_title
;
Structure prediction by ZEFSAII (Michael W. Deem and Ramdas Pophale) SiO2 
 PCOD8246102
Probable space group: P M M N
;
_chemical_formula_sum "Si O2"
_cell_formula_units_Z 40
_cell_length_a 8.506810
_cell_length_b 18.554563
_cell_length_c 12.348857
_cell_angle_alpha 90.000000
_cell_angle_beta 90.000000
_cell_angle_gamma 90.000000
_cell_volume 1949.145343
_symmetry_space_group_name_H-M "P M M N"
_symmetry_group_IT_number 59
_space_group.IT_coordinate_system_code '2'
_symmetry_cell_setting 'orthorhombic'
loop_
_space_group_symop_operation_xyz
x,y,z
1/2-x,1/2-y,z
1/2+x,-y,-z
-x,1/2+y,-z
-x,-y,-z
1/2+x,1/2+y,-z
1/2-x,y,z
x,1/2-y,z
loop_
_atom_site_type_symbol
_atom_site_label
_atom_site_fract_x
_atom_site_fract_y
_atom_site_fract_z
Si Si1 0.068328 0.167122 0.476915
Si Si2 0.432514 0.931011 0.700662
Si Si3 0.931212 0.082978 0.672676
Si Si4 0.564484 0.072955 0.050038
Si Si5 0.432997 0.166373 0.871870
O O1 0.250000 0.158516 0.508682
O O2 0.021978 0.250000 0.460442
O O3 0.033890 0.126246 0.365564
O O4 0.964377 0.135942 0.573645
O O5 0.250000 0.913901 0.683631
O O6 0.484122 0.923355 0.824942
O O7 0.465589 0.011403 0.658419
O O8 0.750000 0.060341 0.672441
O O9 0.968896 0.122269 0.784567
O O10 0.750000 0.075874 0.034709
O O11 0.484459 0.140754 0.990910
O O12 0.500000 0.000000 0.000000
O O13 0.250000 0.150687 0.853059
O O14 0.472855 0.250000 0.859774
#
# Coordination Sequence:
#
# PCOD8246102 Si02
#       5
#     8   8   8   8   8
#     4  11  25  44  65  91 127 168 210 260 318 378
#     4  11  24  42  66  94 127 166 211 262 314 375
#     4  12  24  40  66  95 126 165 211 264 317 378
#     4  11  23  40  65  93 126 167 210 260 313 372
#     4  11  24  41  63  93 130 169 211 262 319 377
#
# _framework density 20.521816000000001
#
# number of rings (size 3 to 8) (size 9 to 14) (size 15 to 20)
#    0.000    0.800    2.000    5.400    0.000    8.800 
#    0.000    4.000    0.000    0.000    0.000    0.000 
#    0.000    0.000    0.000    0.000    0.000    0.000 
#
# Total GULP energy -496354.829295 kJ/mol
# GULP energy per Si atom -12408.870732 kJ/mol
# Density = 2.047511 g / cm^3
# Si number density = 20.521816 Si / 1000 Ang^3
#
#
#
# Elastic Constant Matrix: (Units=GPa)
#
#
# Indices 1 2 3 4 5 6 
#
# 1 52.4615 15.5873 26.7223 0.0000 0.0000 0.0000
# 2 15.5873 107.3563 57.6262 0.0000 0.0000 0.0000
# 3 26.7223 57.6262 109.3389 0.0000 0.0000 0.0000
# 4 0.0000 0.0000 0.0000 36.4117 0.0000 0.0000
# 5 0.0000 0.0000 0.0000 0.0000 37.0364 0.0000
# 6 0.0000 0.0000 0.0000 0.0000 0.0000 35.0748
#
#
#
# Elastic Compliance Matrix: (Units=1/GPa)
#
#
# Indices 1 2 3 4 5 6 
#
# 1 0.021786 -0.000425 -0.005100 0.000000 0.000000 0.000000
# 2 -0.000425 0.012998 -0.006746 0.000000 0.000000 0.000000
# 3 -0.005100 -0.006746 0.013948 0.000000 0.000000 0.000000
# 4 0.000000 0.000000 0.000000 0.027464 0.000000 0.000000
# 5 0.000000 0.000000 0.000000 0.000000 0.027000 0.000000
# 6 0.000000 0.000000 0.000000 0.000000 0.000000 0.028511
#
#
# Mechanical properties :
#
#
# Convention : Reuss Voigt Hill
#
# Bulk Modulus (GPa) = 41.34359 52.11425 46.72892
# Shear Modulus (GPa) = 30.42968 32.98597 31.70783
#
# Velocity S-wave (km/s) = 3.85489 4.01354 3.93501
# Velocity P-wave (km/s) = 6.32483 6.85038 6.59284
#
# Compressibility (1/GPa) = 0.02418755
#
# Stress axis : x y z
#
# Youngs Moduli (GPa) = 45.90125 76.93565 71.69475
#
# Poissons Ratio (x) = 0.03273 0.36566
# Poissons Ratio (y) = 0.01953 0.48368
# Poissons Ratio (z) = 0.23411 0.51904
#
# Static dielectric constant tensor:
#      x y z
#    x 3.816970 0.000000 0.000000 
#    y 0.000000 3.880140 0.000000 
#    z 0.000000 0.000000 3.969290 
# 
# 
# High freq. dielectric constant tensor:
#      x y z
#    x 1.814150 0.000000 0.000000 
#    y 0.000000 1.808290 0.000000 
#    z 0.000000 0.000000 1.815120 
# 
# From -- ./inp_files/13824.got.cif
#   From: 2010.03.12/outbox.cif.g09.slc.cpg/sg59_7_cif.got.tgz:13824.got - 2010.04.16 16:29:54.
