data_PCOD8246971
_publ_section_title
;
Structure prediction by ZEFSAII (Michael W. Deem and Ramdas Pophale) SiO2 
 PCOD8246971
Probable space group: P B C N
;
_chemical_formula_sum "Si O2"
_cell_formula_units_Z 48
_cell_length_a 12.041602
_cell_length_b 8.503866
_cell_length_c 23.925978
_cell_angle_alpha 90.000000
_cell_angle_beta 90.000000
_cell_angle_gamma 90.000000
_cell_volume 2450.024211
_symmetry_space_group_name_H-M "P B C N"
_symmetry_group_IT_number 60
_symmetry_cell_setting 'orthorhombic'
loop_
_space_group_symop_operation_xyz
x,y,z
1/2-x,1/2-y,1/2+z
1/2+x,1/2-y,-z
-x,y,1/2-z
-x,-y,-z
1/2+x,1/2+y,1/2-z
1/2-x,1/2+y,z
x,-y,1/2+z
loop_
_atom_site_type_symbol
_atom_site_label
_atom_site_fract_x
_atom_site_fract_y
_atom_site_fract_z
Si Si1 0.096284 0.072214 0.291289
Si Si2 0.375412 0.935873 0.000621
Si Si3 0.027411 0.048865 0.908055
Si Si4 0.844208 0.086400 0.479152
Si Si5 0.702036 0.875287 0.186315
Si Si6 0.640739 0.160028 0.120089
O O1 0.129246 0.253674 0.277187
O O2 0.000000 0.017704 0.250000
O O3 0.060926 0.064143 0.356597
O O4 0.198780 0.955054 0.278174
O O5 0.329084 0.915176 0.938643
O O6 0.372109 0.768799 0.032130
O O7 0.500000 0.000000 0.000000
O O8 0.287867 0.056697 0.028426
O O9 0.030905 0.230049 0.885300
O O10 0.113614 0.030052 0.959697
O O11 0.904739 0.011435 0.930115
O O12 0.756140 0.771445 0.136740
O O13 0.623714 0.015880 0.163160
#
# Coordination Sequence:
#
# PCOD8246971 Si02
#       6
#     8   8   8   8   8   8
#     4  10  20  37  61  85 111 146 194 238 295 339
#     4  11  23  33  56  83 118 159 196 235 286 348
#     4   9  20  37  59  84 116 156 188 247 291 338
#     4  10  22  37  56  84 125 152 199 238 288 347
#     4   9  18  35  61  83 107 143 196 243 271 347
#     4   9  17  33  56  81 108 145 197 232 281 329
#
# _framework density 19.591643999999999
#
# number of rings (size 3 to 8) (size 9 to 14) (size 15 to 20)
#    0.000    2.333    0.000    4.000    9.333    0.000 
#    0.000    9.167    0.000    0.000    0.000    0.000 
#    0.000    0.000    0.000    0.000    0.000    0.000 
#
# Total GULP energy -594805.601457 kJ/mol
# GULP energy per Si atom -12391.783364 kJ/mol
# Density = 1.954705 g / cm^3
# Si number density = 19.591644 Si / 1000 Ang^3
#
#
#
# Elastic Constant Matrix: (Units=GPa)
#
#
# Indices 1 2 3 4 5 6 
#
# 1 124.7007 64.1759 19.6477 0.0000 0.0000 0.0000
# 2 64.1759 134.0283 26.8606 0.0000 0.0000 0.0000
# 3 19.6477 26.8606 43.7752 0.0000 0.0000 0.0000
# 4 0.0000 0.0000 0.0000 14.2009 0.0000 0.0000
# 5 0.0000 0.0000 0.0000 0.0000 25.3053 0.0000
# 6 0.0000 0.0000 0.0000 0.0000 0.0000 24.8155
#
#
#
# Elastic Compliance Matrix: (Units=1/GPa)
#
#
# Indices 1 2 3 4 5 6 
#
# 1 0.010779 -0.004779 -0.001905 0.000000 0.000000 0.000000
# 2 -0.004779 0.010626 -0.004375 0.000000 0.000000 0.000000
# 3 -0.001905 -0.004375 0.026384 0.000000 0.000000 0.000000
# 4 0.000000 0.000000 0.000000 0.070418 0.000000 0.000000
# 5 0.000000 0.000000 0.000000 0.000000 0.039517 0.000000
# 6 0.000000 0.000000 0.000000 0.000000 0.000000 0.040297
#
#
# Mechanical properties :
#
#
# Convention : Reuss Voigt Hill
#
# Bulk Modulus (GPa) = 38.95698 58.20807 48.58253
# Shear Modulus (GPa) = 21.86280 25.65232 23.75756
#
# Velocity S-wave (km/s) = 3.34417 3.62242 3.48607
# Velocity P-wave (km/s) = 5.90245 6.87540 6.40742
#
# Compressibility (1/GPa) = 0.02566934
#
# Stress axis : x y z
#
# Youngs Moduli (GPa) = 92.77223 94.10469 37.90198
#
# Poissons Ratio (x) = 0.44977 0.07222
# Poissons Ratio (y) = 0.44340 0.16583
# Poissons Ratio (z) = 0.17676 0.41173
#
# Static dielectric constant tensor:
#      x y z
#    x 3.508450 0.000000 0.000000 
#    y 0.000000 3.912610 0.000000 
#    z 0.000000 0.000000 3.194310 
# 
# 
# High freq. dielectric constant tensor:
#      x y z
#    x 1.746550 0.000000 0.000000 
#    y 0.000000 1.779870 0.000000 
#    z 0.000000 0.000000 1.716300 
# 
# From -- ./inp_files/24248.got.cif
#   From: 2010.03.12/outbox.cif.g09.slc.cpg/sg60_13_cif.got.tgz:24248.got - 2010.04.10 18:46:24.
