data_PCOD8246050
_publ_section_title
;
Structure prediction by ZEFSAII (Michael W. Deem and Ramdas Pophale) SiO2 
 PCOD8246050
Probable space group: P M M N
;
_chemical_formula_sum "Si O2"
_cell_formula_units_Z 48
_cell_length_a 31.000381
_cell_length_b 8.908473
_cell_length_c 9.050746
_cell_angle_alpha 90.000000
_cell_angle_beta 90.000000
_cell_angle_gamma 90.000000
_cell_volume 2499.508837
_symmetry_space_group_name_H-M "P M M N"
_symmetry_group_IT_number 59
_space_group.IT_coordinate_system_code '2'
_symmetry_cell_setting 'orthorhombic'
loop_
_space_group_symop_operation_xyz
x,y,z
1/2-x,1/2-y,z
1/2+x,-y,-z
-x,1/2+y,-z
-x,-y,-z
1/2+x,1/2+y,-z
1/2-x,y,z
x,1/2-y,z
loop_
_atom_site_type_symbol
_atom_site_label
_atom_site_fract_x
_atom_site_fract_y
_atom_site_fract_z
Si Si1 0.750000 0.572786 0.854565
Si Si2 0.667790 0.926990 0.669756
Si Si3 0.093021 0.922208 0.160652
Si Si4 0.585356 0.424590 0.182486
Si Si5 0.250000 0.071151 0.812040
Si Si6 0.997740 0.577647 0.156139
Si Si7 0.329649 0.572264 0.646727
O O1 0.750000 0.750000 0.862576
O O2 0.792470 0.516672 0.769798
O O3 0.750000 0.508441 0.020572
O O4 0.670171 0.750000 0.636185
O O5 0.623745 0.964270 0.753755
O O6 0.670209 0.020827 0.521047
O O7 0.108534 0.750000 0.180720
O O8 0.044921 0.942041 0.230689
O O9 0.093801 0.966861 0.988136
O O10 0.577029 0.250000 0.200355
O O11 0.542101 0.504901 0.246248
O O12 0.625583 0.478640 0.279269
O O13 0.250000 0.250000 0.804817
O O14 0.208018 0.010524 0.732180
O O15 0.986922 0.750000 0.130968
O O16 0.000000 0.500000 0.000000
O O17 0.322714 0.750000 0.656838
#
# Coordination Sequence:
#
# PCOD8246050 Si02
#       7
#     4   8   8   8   4   8   8
#     4   9  21  39  58  82 110 137 174 225 272 312
#     4  11  22  37  57  81 110 147 185 223 270 327
#     4   9  18  34  54  80 111 142 179 228 278 326
#     4   9  19  35  56  81 110 144 187 234 278 327
#     4  11  22  39  62  86 110 139 180 227 270 324
#     4   9  17  30  52  80 111 144 182 229 280 328
#     4  11  23  39  57  81 114 149 181 222 277 329
#
# _framework density 19.203773999999999
#
# number of rings (size 3 to 8) (size 9 to 14) (size 15 to 20)
#    0.000    2.167    0.000    4.250    0.000    5.333 
#    0.000    4.583    0.000    0.000    0.000    0.000 
#    0.000    0.000    0.000    0.000    0.000    0.000 
#
# Total GULP energy -595143.853189 kJ/mol
# GULP energy per Si atom -12398.830275 kJ/mol
# Density = 1.916007 g / cm^3
# Si number density = 19.203774 Si / 1000 Ang^3
#
#
#
# Elastic Constant Matrix: (Units=GPa)
#
#
# Indices 1 2 3 4 5 6 
#
# 1 163.6169 55.6484 61.8804 0.0000 0.0000 0.0000
# 2 55.6484 67.6828 24.8679 0.0000 0.0000 0.0000
# 3 61.8804 24.8679 91.0905 0.0000 0.0000 0.0000
# 4 0.0000 0.0000 0.0000 28.8634 0.0000 0.0000
# 5 0.0000 0.0000 0.0000 0.0000 26.9743 0.0000
# 6 0.0000 0.0000 0.0000 0.0000 0.0000 37.9205
#
#
#
# Elastic Compliance Matrix: (Units=1/GPa)
#
#
# Indices 1 2 3 4 5 6 
#
# 1 0.010318 -0.006567 -0.005217 0.000000 0.000000 0.000000
# 2 -0.006567 0.020601 -0.001163 0.000000 0.000000 0.000000
# 3 -0.005217 -0.001163 0.014840 0.000000 0.000000 0.000000
# 4 0.000000 0.000000 0.000000 0.034646 0.000000 0.000000
# 5 0.000000 0.000000 0.000000 0.000000 0.037072 0.000000
# 6 0.000000 0.000000 0.000000 0.000000 0.000000 0.026371
#
#
# Mechanical properties :
#
#
# Convention : Reuss Voigt Hill
#
# Bulk Modulus (GPa) = 50.33812 67.46485 58.90148
# Shear Modulus (GPa) = 28.35044 30.75121 29.55083
#
# Velocity S-wave (km/s) = 3.84643 4.00598 3.92701
# Velocity P-wave (km/s) = 6.78205 7.52359 7.16242
#
# Compressibility (1/GPa) = 0.01986566
#
# Stress axis : x y z
#
# Youngs Moduli (GPa) = 96.91475 48.54022 67.38769
#
# Poissons Ratio (x) = 0.31876 0.35154
# Poissons Ratio (y) = 0.63644 0.07838
# Poissons Ratio (z) = 0.50558 0.05646
#
# Static dielectric constant tensor:
#      x y z
#    x 4.059040 0.000000 0.000000 
#    y 0.000000 3.534250 0.000000 
#    z 0.000000 0.000000 3.444150 
# 
# 
# High freq. dielectric constant tensor:
#      x y z
#    x 1.768920 0.000000 0.000000 
#    y 0.000000 1.746740 0.000000 
#    z 0.000000 0.000000 1.726140 
# 
# From -- ./inp_files/13006.got.cif
#   From: 2010.03.12/outbox.cif.g09.slc.cpg/sg59_7_cif.got.tgz:13006.got - 2010.04.16 16:29:54.
