data_PCOD8246910
_publ_section_title
;
Structure prediction by ZEFSAII (Michael W. Deem and Ramdas Pophale) SiO2 
 PCOD8246910
Probable space group: P B C N
;
_chemical_formula_sum "Si O2"
_cell_formula_units_Z 48
_cell_length_a 11.901027
_cell_length_b 8.918177
_cell_length_c 19.200657
_cell_angle_alpha 90.000000
_cell_angle_beta 90.000000
_cell_angle_gamma 90.000000
_cell_volume 2037.870664
_symmetry_space_group_name_H-M "P B C N"
_symmetry_group_IT_number 60
_symmetry_cell_setting 'orthorhombic'
loop_
_space_group_symop_operation_xyz
x,y,z
1/2-x,1/2-y,1/2+z
1/2+x,1/2-y,-z
-x,y,1/2-z
-x,-y,-z
1/2+x,1/2+y,1/2-z
1/2-x,1/2+y,z
x,-y,1/2+z
loop_
_atom_site_type_symbol
_atom_site_label
_atom_site_fract_x
_atom_site_fract_y
_atom_site_fract_z
Si Si1 0.404840 0.306116 0.837615
Si Si2 0.000000 0.058104 0.750000
Si Si3 0.114821 0.243023 0.922587
Si Si4 0.657243 0.200378 0.226805
Si Si5 0.000000 0.555683 0.750000
Si Si6 0.780678 0.470778 0.013303
Si Si7 0.104333 0.188460 0.504222
O O1 0.472135 0.455295 0.816803
O O2 0.288363 0.302596 0.792570
O O3 0.479443 0.160995 0.817557
O O4 0.387575 0.312775 0.919957
O O5 0.111283 0.157747 0.728564
O O6 0.082585 0.272358 0.843339
O O7 0.137482 0.406454 0.954461
O O8 0.220944 0.129855 0.926240
O O9 0.018443 0.159653 0.966556
O O10 0.612576 0.045428 0.261031
O O11 0.852250 0.351479 0.967867
O O12 0.686344 0.556964 0.967421
#
# Coordination Sequence:
#
# PCOD8246910 Si02
#       7
#     8   4   8   8   4   8   8
#     4  11  21  41  69  87 125 163 209 250 307 374
#     4  10  24  36  64  98 114 164 216 256 294 362
#     4  11  22  38  68  97 120 161 207 256 304 382
#     4  11  21  41  69  87 125 163 209 250 307 374
#     4  10  24  36  64  98 114 164 216 256 294 362
#     4  10  20  36  58  96 118 166 198 236 314 348
#     4  11  22  38  68  97 120 161 207 256 304 382
#
# _framework density 23.553998
#
# number of rings (size 3 to 8) (size 9 to 14) (size 15 to 20)
#    0.000    1.333    3.333    4.000    0.000    0.000 
#    0.000    0.000   73.333    0.000    0.000    0.000 
#    0.000    0.000    0.000    0.000    0.000    0.000 
#
# Total GULP energy -594731.638340 kJ/mol
# GULP energy per Si atom -12390.242465 kJ/mol
# Density = 2.350039 g / cm^3
# Si number density = 23.553998 Si / 1000 Ang^3
#
#
#
# Elastic Constant Matrix: (Units=GPa)
#
#
# Indices 1 2 3 4 5 6 
#
# 1 98.0221 5.0196 29.5844 0.0000 0.0000 0.0000
# 2 5.0196 99.4495 -3.8810 0.0000 0.0000 0.0000
# 3 29.5844 -3.8810 19.6003 0.0000 0.0000 0.0000
# 4 0.0000 0.0000 0.0000 11.5363 0.0000 0.0000
# 5 0.0000 0.0000 0.0000 0.0000 26.5827 0.0000
# 6 0.0000 0.0000 0.0000 0.0000 0.0000 42.6210
#
#
#
# Elastic Compliance Matrix: (Units=1/GPa)
#
#
# Indices 1 2 3 4 5 6 
#
# 1 0.019169 -0.002113 -0.029351 0.000000 0.000000 0.000000
# 2 -0.002113 0.010367 0.005242 0.000000 0.000000 0.000000
# 3 -0.029351 0.005242 0.096360 0.000000 0.000000 0.000000
# 4 0.000000 0.000000 0.000000 0.086683 0.000000 0.000000
# 5 0.000000 0.000000 0.000000 0.000000 0.037618 0.000000
# 6 0.000000 0.000000 0.000000 0.000000 0.000000 0.023463
#
#
# Mechanical properties :
#
#
# Convention : Reuss Voigt Hill
#
# Bulk Modulus (GPa) = 13.61462 30.94645 22.28053
# Shear Modulus (GPa) = 14.26180 28.57127 21.41653
#
# Velocity S-wave (km/s) = 2.46335 3.48661 3.01865
# Velocity P-wave (km/s) = 3.72606 5.41993 4.65076
#
# Compressibility (1/GPa) = 0.07345046
#
# Stress axis : x y z
#
# Youngs Moduli (GPa) = 52.16875 96.46397 10.37779
#
# Poissons Ratio (x) = 0.20382 0.30460
# Poissons Ratio (y) = 0.11023 -0.05440
# Poissons Ratio (z) = 1.53121 -0.50565
#
# Static dielectric constant tensor:
#      x y z
#    x 4.330650 0.000000 0.000000 
#    y 0.000000 4.869850 0.000000 
#    z 0.000000 0.000000 3.666030 
# 
# 
# High freq. dielectric constant tensor:
#      x y z
#    x 1.934920 0.000000 0.000000 
#    y 0.000000 1.972740 0.000000 
#    z 0.000000 0.000000 1.869380 
# 
# From -- ./inp_files/24267.got.cif
#   From: 2010.03.12/outbox.cif.g09.slc.cpg/sg60_13_cif.got.tgz:24267.got - 2010.04.10 18:46:24.
