data_PCOD8246750
_publ_section_title
;
Structure prediction by ZEFSAII (Michael W. Deem and Ramdas Pophale) SiO2 
 PCOD8246750
Probable space group: P B C N
;
_chemical_formula_sum "Si O2"
_cell_formula_units_Z 48
_cell_length_a 8.741416
_cell_length_b 29.180643
_cell_length_c 9.970052
_cell_angle_alpha 90.000000
_cell_angle_beta 90.000000
_cell_angle_gamma 90.000000
_cell_volume 2543.162256
_symmetry_space_group_name_H-M "P B C N"
_symmetry_group_IT_number 60
_symmetry_cell_setting 'orthorhombic'
loop_
_space_group_symop_operation_xyz
x,y,z
1/2-x,1/2-y,1/2+z
1/2+x,1/2-y,-z
-x,y,1/2-z
-x,-y,-z
1/2+x,1/2+y,1/2-z
1/2-x,1/2+y,z
x,-y,1/2+z
loop_
_atom_site_type_symbol
_atom_site_label
_atom_site_fract_x
_atom_site_fract_y
_atom_site_fract_z
Si Si1 0.595062 0.711360 0.118041
Si Si2 0.445486 0.391583 0.897564
Si Si3 0.822534 0.539124 0.720663
Si Si4 0.888965 0.226806 0.632609
Si Si5 0.137379 0.877211 0.350154
Si Si6 0.828538 0.980937 0.496204
O O1 0.500000 0.721499 0.250000
O O2 0.636949 0.657742 0.103666
O O3 0.752883 0.737854 0.118532
O O4 0.488930 0.728631 0.999769
O O5 0.500000 0.405918 0.750000
O O6 0.324170 0.428847 0.949293
O O7 0.591092 0.389748 0.997465
O O8 0.781456 0.592395 0.694412
O O9 0.783427 0.510828 0.587446
O O10 0.000000 0.535574 0.750000
O O11 0.728762 0.517670 0.843893
O O12 0.820088 0.176314 0.661854
O O13 0.000000 0.243388 0.750000
O O14 0.000000 0.889756 0.250000
O O15 0.000000 0.000000 0.500000
#
# Coordination Sequence:
#
# PCOD8246750 Si02
#       6
#     8   8   8   8   8   8
#     4  10  21  38  58  88 122 155 200 251 302 355
#     4  10  20  36  62  87 113 154 211 246 281 362
#     4  12  25  40  59  94 129 150 196 260 309 344
#     4  10  21  37  63  87 120 158 203 249 301 359
#     4  10  19  39  61  86 114 160 209 243 288 372
#     4  12  22  41  67  87 116 167 209 236 296 374
#
# _framework density 18.874141000000002
#
# number of rings (size 3 to 8) (size 9 to 14) (size 15 to 20)
#    0.000    1.333    3.333    3.000    0.000    0.667 
#    3.000    0.833    0.000    0.000    0.000    0.000 
#    0.000    0.000    0.000    0.000    0.000    0.000 
#
# Total GULP energy -595356.335810 kJ/mol
# GULP energy per Si atom -12403.256996 kJ/mol
# Density = 1.883118 g / cm^3
# Si number density = 18.874141 Si / 1000 Ang^3
#
#
#
# Elastic Constant Matrix: (Units=GPa)
#
#
# Indices 1 2 3 4 5 6 
#
# 1 108.9557 58.5133 34.3945 0.0000 0.0000 0.0000
# 2 58.5133 107.0314 30.7831 0.0000 0.0000 0.0000
# 3 34.3945 30.7831 126.8342 0.0000 0.0000 0.0000
# 4 0.0000 0.0000 0.0000 32.8674 0.0000 0.0000
# 5 0.0000 0.0000 0.0000 0.0000 25.4002 0.0000
# 6 0.0000 0.0000 0.0000 0.0000 0.0000 32.0998
#
#
#
# Elastic Compliance Matrix: (Units=1/GPa)
#
#
# Indices 1 2 3 4 5 6 
#
# 1 0.013450 -0.006777 -0.002002 0.000000 0.000000 0.000000
# 2 -0.006777 0.013459 -0.001429 0.000000 0.000000 0.000000
# 3 -0.002002 -0.001429 0.008774 0.000000 0.000000 0.000000
# 4 0.000000 0.000000 0.000000 0.030425 0.000000 0.000000
# 5 0.000000 0.000000 0.000000 0.000000 0.039370 0.000000
# 6 0.000000 0.000000 0.000000 0.000000 0.000000 0.031153
#
#
# Mechanical properties :
#
#
# Convention : Reuss Voigt Hill
#
# Bulk Modulus (GPa) = 65.50360 65.57813 65.54086
# Shear Modulus (GPa) = 30.83842 32.68219 31.76031
#
# Velocity S-wave (km/s) = 4.04654 4.16575 4.10657
# Velocity P-wave (km/s) = 7.52419 7.61304 7.56874
#
# Compressibility (1/GPa) = 0.01526634
#
# Stress axis : x y z
#
# Youngs Moduli (GPa) = 74.35162 74.30050 113.97190
#
# Poissons Ratio (x) = 0.50353 0.22822
# Poissons Ratio (y) = 0.50387 0.16284
# Poissons Ratio (z) = 0.14889 0.10616
#
# Static dielectric constant tensor:
#      x y z
#    x 3.137970 0.000000 0.000000 
#    y 0.000000 3.711080 0.000000 
#    z 0.000000 0.000000 3.823070 
# 
# 
# High freq. dielectric constant tensor:
#      x y z
#    x 1.702290 0.000000 0.000000 
#    y 0.000000 1.745390 0.000000 
#    z 0.000000 0.000000 1.760130 
# 
# From -- ./inp_files/4213.got.cif
#   From: 2010.03.12/outbox.cif.g09.slc.cpg/sg60_3_cif.got.tgz:4213.got - 2010.04.10 18:46:24.
