data_PCOD8246237
_publ_section_title
;
Structure prediction by ZEFSAII (Michael W. Deem and Ramdas Pophale) SiO2 
 PCOD8246237
Probable space group: P M M N
;
_chemical_formula_sum "Si O2"
_cell_formula_units_Z 40
_cell_length_a 14.266442
_cell_length_b 14.266545
_cell_length_c 10.484250
_cell_angle_alpha 90.000000
_cell_angle_beta 90.000000
_cell_angle_gamma 90.000000
_cell_volume 2133.889144
_symmetry_space_group_name_H-M "P M M N"
_symmetry_group_IT_number 59
_space_group.IT_coordinate_system_code '2'
_symmetry_cell_setting 'orthorhombic'
loop_
_space_group_symop_operation_xyz
x,y,z
1/2-x,1/2-y,z
1/2+x,-y,-z
-x,1/2+y,-z
-x,-y,-z
1/2+x,1/2+y,-z
1/2-x,y,z
x,1/2-y,z
loop_
_atom_site_type_symbol
_atom_site_label
_atom_site_fract_x
_atom_site_fract_y
_atom_site_fract_z
Si Si1 0.858316 0.040290 0.122453
Si Si2 0.644872 0.644873 0.249999
Si Si3 0.459709 0.858316 0.377547
Si Si4 0.640158 0.359068 0.874146
Si Si5 0.640931 0.140159 0.374145
O O1 0.750000 0.069025 0.117686
O O2 0.872804 0.927882 0.134020
O O3 0.900113 0.088902 0.249182
O O4 0.902597 0.081127 0.992599
O O5 0.750000 0.631000 0.305580
O O6 0.631003 0.750000 0.194415
O O7 0.572119 0.627202 0.365981
O O8 0.430970 0.750000 0.382314
O O9 0.411098 0.900114 0.250817
O O10 0.418873 0.902597 0.507401
O O11 0.750000 0.375394 0.854832
O O12 0.616939 0.250000 0.898680
O O13 0.750000 0.116941 0.398678
O O14 0.624605 0.250000 0.354830
#
# Coordination Sequence:
#
# PCOD8246237 Si02
#       5
#     8   8   8   8   8
#     4   9  17  28  44  66  89 116 146 173 211 258
#     4   9  18  32  46  60  82 114 154 193 216 238
#     4   9  17  28  44  66  89 116 146 173 211 258
#     4   9  16  27  44  68  96 117 134 165 212 268
#     4   9  16  27  44  68  96 117 134 165 212 268
#
# _framework density 18.745118000000002
#
# number of rings (size 3 to 8) (size 9 to 14) (size 15 to 20)
#    0.000    3.000    0.000    1.200    0.000    6.400 
#    0.000    0.000    0.000    0.000    0.000    2.800 
#    0.000   19.200    0.000    0.000    0.000    0.000 
#
# Total GULP energy -495729.054540 kJ/mol
# GULP energy per Si atom -12393.226363 kJ/mol
# Density = 1.870245 g / cm^3
# Si number density = 18.745118 Si / 1000 Ang^3
#
#
#
# Elastic Constant Matrix: (Units=GPa)
#
#
# Indices 1 2 3 4 5 6 
#
# 1 67.4861 19.1147 36.6082 0.0000 0.0000 0.0000
# 2 19.1147 67.4899 36.6114 0.0000 0.0000 0.0000
# 3 36.6082 36.6114 140.0226 0.0000 0.0000 0.0000
# 4 0.0000 0.0000 0.0000 10.3251 0.0000 0.0000
# 5 0.0000 0.0000 0.0000 0.0000 10.3261 0.0000
# 6 0.0000 0.0000 0.0000 0.0000 0.0000 10.6692
#
#
#
# Elastic Compliance Matrix: (Units=1/GPa)
#
#
# Indices 1 2 3 4 5 6 
#
# 1 0.017749 -0.002924 -0.003876 0.000000 0.000000 0.000000
# 2 -0.002924 0.017748 -0.003876 0.000000 0.000000 0.000000
# 3 -0.003876 -0.003876 0.009168 0.000000 0.000000 0.000000
# 4 0.000000 0.000000 0.000000 0.096852 0.000000 0.000000
# 5 0.000000 0.000000 0.000000 0.000000 0.096842 0.000000
# 6 0.000000 0.000000 0.000000 0.000000 0.000000 0.093728
#
#
# Mechanical properties :
#
#
# Convention : Reuss Voigt Hill
#
# Bulk Modulus (GPa) = 42.89468 51.07412 46.98440
# Shear Modulus (GPa) = 13.84238 18.44169 16.14203
#
# Velocity S-wave (km/s) = 2.72040 3.13998 2.93769
# Velocity P-wave (km/s) = 5.72715 6.36017 6.05194
#
# Compressibility (1/GPa) = 0.02331292
#
# Stress axis : x y z
#
# Youngs Moduli (GPa) = 56.34276 56.34486 109.07026
#
# Poissons Ratio (x) = 0.16477 0.42272
# Poissons Ratio (y) = 0.16477 0.42275
# Poissons Ratio (z) = 0.21836 0.21839
#
# Static dielectric constant tensor:
#      x y z
#    x 3.368320 0.000000 0.000000 
#    y 0.000000 3.368370 0.000000 
#    z 0.000000 0.000000 3.515960 
# 
# 
# High freq. dielectric constant tensor:
#      x y z
#    x 1.715070 0.000000 0.000000 
#    y 0.000000 1.715070 0.000000 
#    z 0.000000 0.000000 1.711000 
# 
# From -- ./inp_files/8606.got.cif
#   From: 2010.03.12/outbox.cif.g09.slc.cpg/sg59_5_cif.got.tgz:8606.got - 2010.04.16 16:29:54.
