data_PCOD8246083
_publ_section_title
;
Structure prediction by ZEFSAII (Michael W. Deem and Ramdas Pophale) SiO2 
 PCOD8246083
Probable space group: P M M N
;
_chemical_formula_sum "Si O2"
_cell_formula_units_Z 40
_cell_length_a 9.222509
_cell_length_b 14.975417
_cell_length_c 14.972060
_cell_angle_alpha 90.000000
_cell_angle_beta 90.000000
_cell_angle_gamma 90.000000
_cell_volume 2067.804952
_symmetry_space_group_name_H-M "P M M N"
_symmetry_group_IT_number 59
_space_group.IT_coordinate_system_code '2'
_symmetry_cell_setting 'orthorhombic'
loop_
_space_group_symop_operation_xyz
x,y,z
1/2-x,1/2-y,z
1/2+x,-y,-z
-x,1/2+y,-z
-x,-y,-z
1/2+x,1/2+y,-z
1/2-x,y,z
x,1/2-y,z
loop_
_atom_site_type_symbol
_atom_site_label
_atom_site_fract_x
_atom_site_fract_y
_atom_site_fract_z
Si Si1 0.915049 0.104974 0.282064
Si Si2 0.419481 0.397630 0.726630
Si Si3 0.922295 0.750000 0.608975
Si Si4 0.914708 0.417359 0.087671
Si Si5 0.578216 0.750000 0.407926
Si Si6 0.584313 0.095038 0.896441
O O1 0.750000 0.119097 0.314758
O O2 0.931790 0.139305 0.179160
O O3 0.021170 0.160918 0.343893
O O4 0.960080 0.000893 0.289945
O O5 0.250000 0.384815 0.739793
O O6 0.476594 0.338716 0.643706
O O7 0.491454 0.359606 0.817876
O O8 0.750000 0.750000 0.612638
O O9 0.983829 0.750000 0.508017
O O10 0.750000 0.458524 0.087589
O O11 0.036144 0.493120 0.090794
O O12 0.935737 0.359897 0.995729
O O13 0.750000 0.750000 0.412757
O O14 0.750000 0.099299 0.865388
#
# Coordination Sequence:
#
# PCOD8246083 Si02
#       6
#     8   8   4   8   4   8
#     4   9  18  34  55  77 103 138 174 205 248 309
#     4   9  18  35  57  77 102 139 174 204 251 314
#     4  11  23  37  54  77 102 130 171 223 268 303
#     4   8  15  28  47  72 104 142 174 200 244 304
#     4   9  20  39  58  75 100 134 171 213 264 319
#     4   9  15  25  46  77 108 135 168 210 248 289
#
# _framework density 19.344183999999998
#
# number of rings (size 3 to 8) (size 9 to 14) (size 15 to 20)
#    0.000    3.000    0.000    2.100    0.000    4.800 
#    0.000    3.500    0.000    3.600    0.000    0.000 
#    0.000    0.000    0.000    0.000    0.000    0.000 
#
# Total GULP energy -495528.096245 kJ/mol
# GULP energy per Si atom -12388.202406 kJ/mol
# Density = 1.930016 g / cm^3
# Si number density = 19.344184 Si / 1000 Ang^3
#
#
#
# Elastic Constant Matrix: (Units=GPa)
#
#
# Indices 1 2 3 4 5 6 
#
# 1 63.4452 32.1408 57.8860 0.0000 0.0000 0.0000
# 2 32.1408 76.1230 66.0253 0.0000 0.0000 0.0000
# 3 57.8860 66.0253 198.6312 0.0000 0.0000 0.0000
# 4 0.0000 0.0000 0.0000 -328.3210 0.0000 0.0000
# 5 0.0000 0.0000 0.0000 0.0000 30.4779 0.0000
# 6 0.0000 0.0000 0.0000 0.0000 0.0000 19.0435
#
#
#
# Elastic Compliance Matrix: (Units=1/GPa)
#
#
# Indices 1 2 3 4 5 6 
#
# 1 0.022986 -0.005473 -0.004879 0.000000 0.000000 0.000000
# 2 -0.005473 0.019761 -0.004974 0.000000 0.000000 0.000000
# 3 -0.004879 -0.004974 0.008110 0.000000 0.000000 0.000000
# 4 0.000000 0.000000 0.000000 -0.003046 0.000000 0.000000
# 5 0.000000 0.000000 0.000000 0.000000 0.032811 0.000000
# 6 0.000000 0.000000 0.000000 0.000000 0.000000 0.052511
#
#
# Mechanical properties :
#
#
# Convention : Reuss Voigt Hill
#
# Bulk Modulus (GPa) = 49.49318 72.25596 60.87457
# Shear Modulus (GPa) = 29.32191 -43.61677 -7.14743
#
# Velocity S-wave (km/s) = 3.89755 -4.75360 -1.92429
# Velocity P-wave (km/s) = 6.77463 2.70277 5.15755
#
# Compressibility (1/GPa) = 0.02020481
#
# Stress axis : x y z
#
# Youngs Moduli (GPa) = 43.50447 50.60354 123.30842
#
# Poissons Ratio (x) = 0.27695 0.60168
# Poissons Ratio (y) = 0.23810 0.61331
# Poissons Ratio (z) = 0.21228 0.25169
#
# Static dielectric constant tensor:
#      x y z
#    x 3.385930 0.000000 0.000000 
#    y 0.000000 3.194960 0.000000 
#    z 0.000000 0.000000 4.090680 
# 
# 
# High freq. dielectric constant tensor:
#      x y z
#    x 1.739880 0.000000 0.000000 
#    y 0.000000 1.713620 0.000000 
#    z 0.000000 0.000000 1.768790 
# 
# From -- ./inp_files/19983.got.cif
#   From: 2010.03.12/outbox.cif.g09.slc.cpg/sg59_10_cif.got.tgz:19983.got - 2010.04.16 16:29:54.
