data_PCOD8246222
_publ_section_title
;
Structure prediction by ZEFSAII (Michael W. Deem and Ramdas Pophale) SiO2 
 PCOD8246222
Probable space group: P M M N
;
_chemical_formula_sum "Si O2"
_cell_formula_units_Z 48
_cell_length_a 24.910664
_cell_length_b 9.519930
_cell_length_c 12.529083
_cell_angle_alpha 90.000000
_cell_angle_beta 90.000000
_cell_angle_gamma 90.000000
_cell_volume 2971.244188
_symmetry_space_group_name_H-M "P M M N"
_symmetry_group_IT_number 59
_space_group.IT_coordinate_system_code '2'
_symmetry_cell_setting 'orthorhombic'
loop_
_space_group_symop_operation_xyz
x,y,z
1/2-x,1/2-y,z
1/2+x,-y,-z
-x,1/2+y,-z
-x,-y,-z
1/2+x,1/2+y,-z
1/2-x,y,z
x,1/2-y,z
loop_
_atom_site_type_symbol
_atom_site_label
_atom_site_fract_x
_atom_site_fract_y
_atom_site_fract_z
Si Si1 0.813815 0.405671 0.999226
Si Si2 0.386427 0.091591 0.616335
Si Si3 0.688844 0.912772 0.803793
Si Si4 0.494691 0.912664 0.392793
Si Si5 0.898124 0.587249 0.631182
Si Si6 0.189002 0.583897 0.764745
O O1 0.750000 0.400487 0.998450
O O2 0.837010 0.250000 0.977456
O O3 0.831588 0.459347 0.116654
O O4 0.835301 0.507730 0.906781
O O5 0.365291 0.250000 0.632360
O O6 0.447044 0.078545 0.663735
O O7 0.384661 0.052084 0.491284
O O8 0.348094 0.986418 0.677140
O O9 0.750000 0.959040 0.779192
O O10 0.685640 0.750000 0.832100
O O11 0.654082 0.950490 0.700253
O O12 0.479705 0.750000 0.415517
O O13 0.500000 0.000000 0.500000
O O14 0.447223 0.989115 0.326314
O O15 0.914989 0.750000 0.643946
O O16 0.250000 0.532730 0.746723
O O17 0.185227 0.750000 0.751223
#
# Coordination Sequence:
#
# PCOD8246222 Si02
#       6
#     8   8   8   8   8   8
#     4   8  15  29  46  63  86 116 150 186 221 259
#     4   9  18  30  45  67  92 118 148 182 221 264
#     4   9  17  29  46  68  93 120 149 182 221 266
#     4   9  17  30  47  66  88 116 152 189 222 260
#     4   9  18  31  46  67  94 121 149 182 222 265
#     4   9  18  31  46  66  92 120 149 183 223 265
#
# _framework density 16.154848999999999
#
# number of rings (size 3 to 8) (size 9 to 14) (size 15 to 20)
#    0.000    3.167    0.000    2.500    0.000    5.667 
#    0.000    3.333    0.000    3.000    0.000    0.000 
#    0.000    0.000    0.000    0.000    0.000    0.000 
#
# Total GULP energy -594868.377892 kJ/mol
# GULP energy per Si atom -12393.091206 kJ/mol
# Density = 1.611808 g / cm^3
# Si number density = 16.154849 Si / 1000 Ang^3
#
#
#
# Elastic Constant Matrix: (Units=GPa)
#
#
# Indices 1 2 3 4 5 6 
#
# 1 85.1061 50.9767 52.9446 0.0000 0.0000 0.0000
# 2 50.9767 71.9205 45.9100 0.0000 0.0000 0.0000
# 3 52.9446 45.9100 88.7079 0.0000 0.0000 0.0000
# 4 0.0000 0.0000 0.0000 29.8355 0.0000 0.0000
# 5 0.0000 0.0000 0.0000 0.0000 1.8425 0.0000
# 6 0.0000 0.0000 0.0000 0.0000 0.0000 29.4481
#
#
#
# Elastic Compliance Matrix: (Units=1/GPa)
#
#
# Indices 1 2 3 4 5 6 
#
# 1 0.023829 -0.011665 -0.008185 0.000000 0.000000 0.000000
# 2 -0.011665 0.026474 -0.006739 0.000000 0.000000 0.000000
# 3 -0.008185 -0.006739 0.019646 0.000000 0.000000 0.000000
# 4 0.000000 0.000000 0.000000 0.033517 0.000000 0.000000
# 5 0.000000 0.000000 0.000000 0.000000 0.542746 0.000000
# 6 0.000000 0.000000 0.000000 0.000000 0.000000 0.033958
#
#
# Mechanical properties :
#
#
# Convention : Reuss Voigt Hill
#
# Bulk Modulus (GPa) = 59.62835 60.59967 60.11401
# Shear Modulus (GPa) = 6.76645 18.61876 12.69261
#
# Velocity S-wave (km/s) = 2.04880 3.39856 2.80605
# Velocity P-wave (km/s) = 6.52590 7.27966 6.91306
#
# Compressibility (1/GPa) = 0.01677055
#
# Stress axis : x y z
#
# Youngs Moduli (GPa) = 41.96568 37.77249 50.90067
#
# Poissons Ratio (x) = 0.44061 0.41663
# Poissons Ratio (y) = 0.48953 0.34304
# Poissons Ratio (z) = 0.34349 0.25457
#
# Static dielectric constant tensor:
#      x y z
#    x 3.249360 0.000000 0.000000 
#    y 0.000000 3.217020 0.000000 
#    z 0.000000 0.000000 3.000420 
# 
# 
# High freq. dielectric constant tensor:
#      x y z
#    x 1.605860 0.000000 0.000000 
#    y 0.000000 1.626240 0.000000 
#    z 0.000000 0.000000 1.600350 
# 
# From -- ./inp_files/14468.got.cif
#   From: 2010.03.12/outbox.cif.g09.slc.cpg/sg59_8_cif.got.tgz:14468.got - 2010.04.16 16:29:54.
