data_PCOD8246148
_publ_section_title
;
Structure prediction by ZEFSAII (Michael W. Deem and Ramdas Pophale) SiO2 
 PCOD8246148
Probable space group: P M M N
;
_chemical_formula_sum "Si O2"
_cell_formula_units_Z 48
_cell_length_a 13.710945
_cell_length_b 9.494833
_cell_length_c 24.052882
_cell_angle_alpha 90.000000
_cell_angle_beta 90.000000
_cell_angle_gamma 90.000000
_cell_volume 3131.279538
_symmetry_space_group_name_H-M "P M M N"
_symmetry_group_IT_number 59
_space_group.IT_coordinate_system_code '2'
_symmetry_cell_setting 'orthorhombic'
loop_
_space_group_symop_operation_xyz
x,y,z
1/2-x,1/2-y,z
1/2+x,-y,-z
-x,1/2+y,-z
-x,-y,-z
1/2+x,1/2+y,-z
1/2-x,y,z
x,1/2-y,z
loop_
_atom_site_type_symbol
_atom_site_label
_atom_site_fract_x
_atom_site_fract_y
_atom_site_fract_z
Si Si1 0.140854 0.917012 0.809030
Si Si2 0.640458 0.417505 0.313369
Si Si3 0.019954 0.585757 0.583133
Si Si4 0.359520 0.412019 0.014888
Si Si5 0.046306 0.914911 0.919916
Si Si6 0.361821 0.586967 0.473233
O O1 0.250000 0.974118 0.821244
O O2 0.143543 0.750000 0.808275
O O3 0.105474 0.969135 0.748007
O O4 0.067534 0.970006 0.857320
O O5 0.750000 0.473949 0.324718
O O6 0.642038 0.250000 0.316887
O O7 0.566611 0.475165 0.359998
O O8 0.994399 0.750000 0.587633
O O9 0.097582 0.556114 0.534580
O O10 0.920030 0.502766 0.572424
O O11 0.250000 0.442323 0.036238
O O12 0.372481 0.250000 0.996862
O O13 0.380991 0.506629 0.961518
O O14 0.433892 0.449245 0.065013
O O15 0.069332 0.750000 0.925254
O O16 0.250000 0.538690 0.471847
O O17 0.373461 0.750000 0.457757
#
# Coordination Sequence:
#
# PCOD8246148 Si02
#       6
#     8   8   8   8   8   8
#     4   8  13  21  36  59  81  99 124 159 194 227
#     4   8  13  22  38  60  83 104 126 156 195 234
#     4   9  16  26  42  62  81 102 131 165 196 228
#     4   9  17  27  38  55  80 106 129 157 195 232
#     4   9  16  26  41  59  78 102 132 161 189 228
#     4   9  17  28  41  58  81 108 134 159 193 237
#
# _framework density 15.329198
#
# number of rings (size 3 to 8) (size 9 to 14) (size 15 to 20)
#    0.000    3.333    0.000    2.000    0.000    3.333 
#    0.000    0.000    0.000    3.500    0.000    7.000 
#    0.000    0.000    0.000    0.000    0.000    0.000 
#
# Total GULP energy -594901.864195 kJ/mol
# GULP energy per Si atom -12393.788837 kJ/mol
# Density = 1.529431 g / cm^3
# Si number density = 15.329198 Si / 1000 Ang^3
#
#
#
# Elastic Constant Matrix: (Units=GPa)
#
#
# Indices 1 2 3 4 5 6 
#
# 1 119.9307 32.5767 72.6452 0.0000 0.0000 0.0000
# 2 32.5767 25.5928 29.6658 0.0000 0.0000 0.0000
# 3 72.6452 29.6658 132.3447 0.0000 0.0000 0.0000
# 4 0.0000 0.0000 0.0000 15.8054 0.0000 0.0000
# 5 0.0000 0.0000 0.0000 0.0000 26.3339 0.0000
# 6 0.0000 0.0000 0.0000 0.0000 0.0000 19.5616
#
#
#
# Elastic Compliance Matrix: (Units=1/GPa)
#
#
# Indices 1 2 3 4 5 6 
#
# 1 0.015142 -0.013024 -0.005392 0.000000 0.000000 0.000000
# 2 -0.013024 0.063991 -0.007195 0.000000 0.000000 0.000000
# 3 -0.005392 -0.007195 0.012129 0.000000 0.000000 0.000000
# 4 0.000000 0.000000 0.000000 0.063270 0.000000 0.000000
# 5 0.000000 0.000000 0.000000 0.000000 0.037974 0.000000
# 6 0.000000 0.000000 0.000000 0.000000 0.000000 0.051121
#
#
# Mechanical properties :
#
#
# Convention : Reuss Voigt Hill
#
# Bulk Modulus (GPa) = 24.97509 60.84929 42.91219
# Shear Modulus (GPa) = 16.22350 21.87221 19.04785
#
# Velocity S-wave (km/s) = 3.25674 3.78144 3.52886
# Velocity P-wave (km/s) = 5.51994 7.67118 6.68269
#
# Compressibility (1/GPa) = 0.04003990
#
# Stress axis : x y z
#
# Youngs Moduli (GPa) = 66.04166 15.62712 82.44879
#
# Poissons Ratio (x) = 0.20352 0.44459
# Poissons Ratio (y) = 0.86010 0.59324
# Poissons Ratio (z) = 0.35611 0.11244
#
# Static dielectric constant tensor:
#      x y z
#    x 2.991260 0.000000 0.000000 
#    y 0.000000 2.669430 0.000000 
#    z 0.000000 0.000000 3.189100 
# 
# 
# High freq. dielectric constant tensor:
#      x y z
#    x 1.580260 0.000000 0.000000 
#    y 0.000000 1.554640 0.000000 
#    z 0.000000 0.000000 1.582350 
# 
# From -- ./inp_files/30521.got.cif
#   From: 2010.03.12/outbox.cif.g09.slc.cpg/sg59_16_cif.got.tgz:30521.got - 2010.04.16 16:29:54.
