data_PCOD8246104
_publ_section_title
;
Structure prediction by ZEFSAII (Michael W. Deem and Ramdas Pophale) SiO2 
 PCOD8246104
Probable space group: P M M N
;
_chemical_formula_sum "Si O2"
_cell_formula_units_Z 48
_cell_length_a 18.171899
_cell_length_b 13.608790
_cell_length_c 9.040700
_cell_angle_alpha 90.000000
_cell_angle_beta 90.000000
_cell_angle_gamma 90.000000
_cell_volume 2235.743027
_symmetry_space_group_name_H-M "P M M N"
_symmetry_group_IT_number 59
_space_group.IT_coordinate_system_code '2'
_symmetry_cell_setting 'orthorhombic'
loop_
_space_group_symop_operation_xyz
x,y,z
1/2-x,1/2-y,z
1/2+x,-y,-z
-x,1/2+y,-z
-x,-y,-z
1/2+x,1/2+y,-z
1/2-x,y,z
x,1/2-y,z
loop_
_atom_site_type_symbol
_atom_site_label
_atom_site_fract_x
_atom_site_fract_y
_atom_site_fract_z
Si Si1 0.971842 0.978169 0.838575
Si Si2 0.609500 0.440417 0.332123
Si Si3 0.250000 0.633002 0.176640
Si Si4 0.168407 0.363132 0.226039
Si Si5 0.895948 0.364787 0.661589
Si Si6 0.750000 0.365838 0.157817
Si Si7 0.835106 0.859654 0.427420
O O1 0.896115 0.918715 0.859647
O O2 0.034064 0.915043 0.753332
O O3 0.961058 0.077703 0.743911
O O4 0.000000 0.000000 0.000000
O O5 0.606479 0.386500 0.488500
O O6 0.677687 0.400583 0.240846
O O7 0.616591 0.558584 0.345396
O O8 0.250000 0.750000 0.177815
O O9 0.320862 0.594418 0.265321
O O10 0.250000 0.592279 0.009248
O O11 0.250000 0.406516 0.186736
O O12 0.166657 0.250000 0.178211
O O13 0.153210 0.374498 0.399144
O O14 0.907996 0.250000 0.689132
O O15 0.750000 0.250000 0.154314
O O16 0.750000 0.873883 0.384981
O O17 0.861350 0.750000 0.380495
#
# Coordination Sequence:
#
# PCOD8246104 Si02
#       7
#     8   8   4   8   8   4   8
#     4  12  27  43  63  99 137 175 220 279 344 403
#     4  12  23  41  64 100 132 173 227 276 334 402
#     4   9  21  41  65  93 128 176 223 266 325 396
#     4   9  20  41  69  95 122 168 222 275 333 395
#     4  11  24  42  66  97 132 175 225 278 336 402
#     4  11  23  41  66  97 138 180 216 266 338 406
#     4   9  18  36  64  96 127 166 219 279 329 383
#
# _framework density 21.469372
#
# number of rings (size 3 to 8) (size 9 to 14) (size 15 to 20)
#    0.000    1.500    2.500    3.500    1.167    3.333 
#    1.500    0.000    0.000    2.000    0.000    1.167 
#    0.000    0.000    0.000    0.000    0.000    0.000 
#
# Total GULP energy -595300.369456 kJ/mol
# GULP energy per Si atom -12402.091030 kJ/mol
# Density = 2.142051 g / cm^3
# Si number density = 21.469372 Si / 1000 Ang^3
#
#
#
# Elastic Constant Matrix: (Units=GPa)
#
#
# Indices 1 2 3 4 5 6 
#
# 1 159.5484 46.6579 71.3457 0.0000 0.0000 0.0000
# 2 46.6579 68.7078 26.7964 0.0000 0.0000 0.0000
# 3 71.3457 26.7964 144.2358 0.0000 0.0000 0.0000
# 4 0.0000 0.0000 0.0000 27.5117 0.0000 0.0000
# 5 0.0000 0.0000 0.0000 0.0000 46.6571 0.0000
# 6 0.0000 0.0000 0.0000 0.0000 0.0000 13.1524
#
#
#
# Elastic Compliance Matrix: (Units=1/GPa)
#
#
# Indices 1 2 3 4 5 6 
#
# 1 0.009368 -0.004910 -0.003722 0.000000 0.000000 0.000000
# 2 -0.004910 0.018265 -0.000965 0.000000 0.000000 0.000000
# 3 -0.003722 -0.000965 0.008953 0.000000 0.000000 0.000000
# 4 0.000000 0.000000 0.000000 0.036348 0.000000 0.000000
# 5 0.000000 0.000000 0.000000 0.000000 0.021433 0.000000
# 6 0.000000 0.000000 0.000000 0.000000 0.000000 0.076032
#
#
# Mechanical properties :
#
#
# Convention : Reuss Voigt Hill
#
# Bulk Modulus (GPa) = 57.49268 73.56578 65.52923
# Shear Modulus (GPa) = 25.59001 32.64369 29.11685
#
# Velocity S-wave (km/s) = 3.45618 3.90356 3.68666
# Velocity P-wave (km/s) = 6.53942 7.39303 6.97929
#
# Compressibility (1/GPa) = 0.01739352
#
# Stress axis : x y z
#
# Youngs Moduli (GPa) = 106.74967 54.75004 111.69288
#
# Poissons Ratio (x) = 0.26882 0.41567
# Poissons Ratio (y) = 0.52414 0.10774
# Poissons Ratio (z) = 0.39727 0.05281
#
# Static dielectric constant tensor:
#      x y z
#    x 4.012940 0.000000 0.000000 
#    y 0.000000 4.009490 0.000000 
#    z 0.000000 0.000000 3.721410 
# 
# 
# High freq. dielectric constant tensor:
#      x y z
#    x 1.851910 0.000000 0.000000 
#    y 0.000000 1.852020 0.000000 
#    z 0.000000 0.000000 1.828980 
# 
# From -- ./inp_files/10266.got.cif
#   From: 2010.03.12/outbox.cif.g09.slc.cpg/sg59_6_cif.got.tgz:10266.got - 2010.04.16 16:29:54.
