data_PCOD8246960
_publ_section_title
;
Structure prediction by ZEFSAII (Michael W. Deem and Ramdas Pophale) SiO2 
 PCOD8246960
Probable space group: P B C N
;
_chemical_formula_sum "Si O2"
_cell_formula_units_Z 64
_cell_length_a 11.222741
_cell_length_b 20.283499
_cell_length_c 14.715969
_cell_angle_alpha 90.000000
_cell_angle_beta 90.000000
_cell_angle_gamma 90.000000
_cell_volume 3349.891028
_symmetry_space_group_name_H-M "P B C N"
_symmetry_group_IT_number 60
_symmetry_cell_setting 'orthorhombic'
loop_
_space_group_symop_operation_xyz
x,y,z
1/2-x,1/2-y,1/2+z
1/2+x,1/2-y,-z
-x,y,1/2-z
-x,-y,-z
1/2+x,1/2+y,1/2-z
1/2-x,1/2+y,z
x,-y,1/2+z
loop_
_atom_site_type_symbol
_atom_site_label
_atom_site_fract_x
_atom_site_fract_y
_atom_site_fract_z
Si Si1 0.632417 0.106721 0.222774
Si Si2 0.778708 0.651649 0.399459
Si Si3 0.561528 0.069459 0.518329
Si Si4 0.846970 0.798829 0.409399
Si Si5 0.901700 0.183252 0.543501
Si Si6 0.635084 0.624738 0.734457
Si Si7 0.869481 0.547528 0.714805
Si Si8 0.862901 0.664406 0.028059
O O1 0.500000 0.132217 0.250000
O O2 0.728670 0.141229 0.290781
O O3 0.666301 0.125116 0.120353
O O4 0.639520 0.029099 0.234988
O O5 0.852588 0.588551 0.435119
O O6 0.843319 0.720329 0.423878
O O7 0.651447 0.654025 0.449781
O O8 0.638409 0.064588 0.608846
O O9 0.468254 0.128951 0.526468
O O10 0.500000 0.000000 0.500000
O O11 0.854305 0.812755 0.301754
O O12 0.741723 0.838989 0.455463
O O13 0.958841 0.830364 0.461264
O O14 0.844758 0.148713 0.631588
O O15 0.886349 0.260969 0.555136
O O16 0.500000 0.593662 0.750000
O O17 0.748285 0.577796 0.759077
O O18 0.000000 0.573859 0.750000
#
# Coordination Sequence:
#
# PCOD8246960 Si02
#       8
#     8   8   8   8   8   8   8   8
#     4  11  20  37  58  85 116 155 201 245 293 358
#     4  11  21  36  59  85 117 154 200 242 298 353
#     4  12  20  36  60  88 119 151 191 253 298 346
#     4  10  21  37  58  87 118 156 198 247 300 356
#     4  10  20  37  59  83 118 157 197 243 294 364
#     4  10  21  39  59  83 117 160 200 241 297 367
#     4  11  22  37  59  90 120 152 201 254 304 350
#     4  11  21  35  59  88 119 149 199 250 300 352
#
# _framework density 19.1051
#
# number of rings (size 3 to 8) (size 9 to 14) (size 15 to 20)
#    0.000    1.250    5.000    2.250    0.000    1.000 
#    0.000    1.875    0.000    3.750    0.000    0.000 
#    0.000    0.000    0.000    0.000    0.000    0.000 
#
# Total GULP energy -793143.580986 kJ/mol
# GULP energy per Si atom -12392.868453 kJ/mol
# Density = 1.906162 g / cm^3
# Si number density = 19.105100 Si / 1000 Ang^3
#
#
#
# Elastic Constant Matrix: (Units=GPa)
#
#
# Indices 1 2 3 4 5 6 
#
# 1 89.3276 28.1430 22.3319 0.0000 0.0000 0.0000
# 2 28.1430 68.4783 8.0448 0.0000 0.0000 0.0000
# 3 22.3319 8.0448 84.2690 0.0000 0.0000 0.0000
# 4 0.0000 0.0000 0.0000 29.3758 0.0000 0.0000
# 5 0.0000 0.0000 0.0000 0.0000 32.4596 0.0000
# 6 0.0000 0.0000 0.0000 0.0000 0.0000 23.4214
#
#
#
# Elastic Compliance Matrix: (Units=1/GPa)
#
#
# Indices 1 2 3 4 5 6 
#
# 1 0.013621 -0.005232 -0.003110 0.000000 0.000000 0.000000
# 2 -0.005232 0.016779 -0.000215 0.000000 0.000000 0.000000
# 3 -0.003110 -0.000215 0.012711 0.000000 0.000000 0.000000
# 4 0.000000 0.000000 0.000000 0.034042 0.000000 0.000000
# 5 0.000000 0.000000 0.000000 0.000000 0.030808 0.000000
# 6 0.000000 0.000000 0.000000 0.000000 0.000000 0.042696
#
#
# Mechanical properties :
#
#
# Convention : Reuss Voigt Hill
#
# Bulk Modulus (GPa) = 38.46787 39.90158 39.18472
# Shear Modulus (GPa) = 28.33874 29.28838 28.81356
#
# Velocity S-wave (km/s) = 3.85555 3.91962 3.88772
# Velocity P-wave (km/s) = 6.32447 6.43546 6.38021
#
# Compressibility (1/GPa) = 0.02599572
#
# Stress axis : x y z
#
# Youngs Moduli (GPa) = 73.41724 59.59884 78.66896
#
# Poissons Ratio (x) = 0.31185 0.24467
# Poissons Ratio (y) = 0.38415 0.01693
# Poissons Ratio (z) = 0.22833 0.01282
#
# Static dielectric constant tensor:
#      x y z
#    x 3.664710 0.000000 0.000000 
#    y 0.000000 3.415070 0.000000 
#    z 0.000000 0.000000 3.605820 
# 
# 
# High freq. dielectric constant tensor:
#      x y z
#    x 1.734720 0.000000 0.000000 
#    y 0.000000 1.733680 0.000000 
#    z 0.000000 0.000000 1.749870 
# 
# From -- ./inp_files/16382.got.cif
#   From: 2010.03.12/outbox.cif.g09.slc.cpg/sg60_9_cif.got.tgz:16382.got - 2010.04.10 18:46:24.
