data_PCOD8246819
_publ_section_title
;
Structure prediction by ZEFSAII (Michael W. Deem and Ramdas Pophale) SiO2 
 PCOD8246819
Probable space group: P B C N
;
_chemical_formula_sum "Si O2"
_cell_formula_units_Z 32
_cell_length_a 13.119800
_cell_length_b 25.930464
_cell_length_c 5.087243
_cell_angle_alpha 90.000000
_cell_angle_beta 90.000000
_cell_angle_gamma 90.000000
_cell_volume 1730.692795
_symmetry_space_group_name_H-M "P B C N"
_symmetry_group_IT_number 60
_symmetry_cell_setting 'orthorhombic'
loop_
_space_group_symop_operation_xyz
x,y,z
1/2-x,1/2-y,1/2+z
1/2+x,1/2-y,-z
-x,y,1/2-z
-x,-y,-z
1/2+x,1/2+y,1/2-z
1/2-x,1/2+y,z
x,-y,1/2+z
loop_
_atom_site_type_symbol
_atom_site_label
_atom_site_fract_x
_atom_site_fract_y
_atom_site_fract_z
Si Si1 0.618351 0.532008 0.745187
Si Si2 0.601906 0.727288 0.416040
Si Si3 0.790609 0.311575 0.672617
Si Si4 0.785172 0.859971 0.157996
O O1 0.500000 0.547367 0.750000
O O2 0.645558 0.487111 0.537314
O O3 0.683481 0.580838 0.655528
O O4 0.500000 0.725852 0.250000
O O5 0.608348 0.778142 0.603179
O O6 0.697595 0.729952 0.211966
O O7 0.614633 0.675601 0.594458
O O8 0.763067 0.349884 0.438917
O O9 0.800844 0.347120 0.934083
#
# Coordination Sequence:
#
# PCOD8246819 Si02
#       4
#     8   8   8   8
#     4  10  21  33  49  74 104 136 182 222 255 315
#     4  10  21  34  55  75 108 147 172 217 264 312
#     4  10  20  36  47  79 105 136 182 220 242 329
#     4  10  20  34  51  69 108 139 177 209 263 307
#
# _framework density 18.489706000000002
#
# number of rings (size 3 to 8) (size 9 to 14) (size 15 to 20)
#    1.500    0.500    2.500    1.500    3.500    1.000 
#    0.000    0.000    0.000    0.000    0.000    0.000 
#    0.000   20.000    0.000    0.000    0.000    0.000 
#
# Total GULP energy -396457.549024 kJ/mol
# GULP energy per Si atom -12389.298407 kJ/mol
# Density = 1.844762 g / cm^3
# Si number density = 18.489706 Si / 1000 Ang^3
#
#
#
# Elastic Constant Matrix: (Units=GPa)
#
#
# Indices 1 2 3 4 5 6 
#
# 1 17.0332 8.5053 0.2135 0.0000 0.0000 0.0000
# 2 8.5053 94.7486 20.6203 0.0000 0.0000 0.0000
# 3 0.2135 20.6203 103.0621 0.0000 0.0000 0.0000
# 4 0.0000 0.0000 0.0000 21.8082 0.0000 0.0000
# 5 0.0000 0.0000 0.0000 0.0000 19.2953 0.0000
# 6 0.0000 0.0000 0.0000 0.0000 0.0000 15.1459
#
#
#
# Elastic Compliance Matrix: (Units=1/GPa)
#
#
# Indices 1 2 3 4 5 6 
#
# 1 0.061567 -0.005749 0.001023 0.000000 0.000000 0.000000
# 2 -0.005749 0.011572 -0.002303 0.000000 0.000000 0.000000
# 3 0.001023 -0.002303 0.010162 0.000000 0.000000 0.000000
# 4 0.000000 0.000000 0.000000 0.045854 0.000000 0.000000
# 5 0.000000 0.000000 0.000000 0.000000 0.051826 0.000000
# 6 0.000000 0.000000 0.000000 0.000000 0.000000 0.066024
#
#
# Mechanical properties :
#
#
# Convention : Reuss Voigt Hill
#
# Bulk Modulus (GPa) = 14.44240 30.39134 22.41687
# Shear Modulus (GPa) = 17.59666 23.61687 20.60677
#
# Velocity S-wave (km/s) = 3.08831 3.57781 3.34203
# Velocity P-wave (km/s) = 4.53265 5.79139 5.20024
#
# Compressibility (1/GPa) = 0.06924059
#
# Stress axis : x y z
#
# Youngs Moduli (GPa) = 16.24246 86.41841 98.40970
#
# Poissons Ratio (x) = 0.49684 -0.10065
# Poissons Ratio (y) = 0.09338 0.22667
# Poissons Ratio (z) = -0.01661 0.19905
#
# Static dielectric constant tensor:
#      x y z
#    x 2.868690 0.000000 0.000000 
#    y 0.000000 3.146050 0.000000 
#    z 0.000000 0.000000 3.639610 
# 
# 
# High freq. dielectric constant tensor:
#      x y z
#    x 1.655760 0.000000 0.000000 
#    y 0.000000 1.701490 0.000000 
#    z 0.000000 0.000000 1.744400 
# 
# From -- ./inp_files/790.got.cif
#   From: 2010.03.12/outbox.cif.g09.slc.cpg/sg60_1_cif.got.tgz:790.got - 2010.04.10 18:46:24.
