data_PCOD8246937
_publ_section_title
;
Structure prediction by ZEFSAII (Michael W. Deem and Ramdas Pophale) SiO2 
 PCOD8246937
Probable space group: P B C N
;
_chemical_formula_sum "Si O2"
_cell_formula_units_Z 60
_cell_length_a 5.521611
_cell_length_b 18.816876
_cell_length_c 26.503313
_cell_angle_alpha 90.000000
_cell_angle_beta 90.000000
_cell_angle_gamma 90.000000
_cell_volume 2753.680161
_symmetry_space_group_name_H-M "P B C N"
_symmetry_group_IT_number 60
_symmetry_cell_setting 'orthorhombic'
loop_
_space_group_symop_operation_xyz
x,y,z
1/2-x,1/2-y,1/2+z
1/2+x,1/2-y,-z
-x,y,1/2-z
-x,-y,-z
1/2+x,1/2+y,1/2-z
1/2-x,1/2+y,z
x,-y,1/2+z
loop_
_atom_site_type_symbol
_atom_site_label
_atom_site_fract_x
_atom_site_fract_y
_atom_site_fract_z
Si Si1 0.800980 0.449822 0.523840
Si Si2 0.023888 0.714002 0.693921
Si Si3 0.000000 0.431052 0.750000
Si Si4 0.028513 0.945380 0.076184
Si Si5 0.483674 0.692885 0.864498
Si Si6 0.236025 0.536947 0.154084
Si Si7 0.608176 0.366633 0.688138
Si Si8 0.966143 0.655765 0.100577
O O1 0.674642 0.493113 0.570022
O O2 0.618949 0.427388 0.479791
O O3 0.909060 0.376192 0.545194
O O4 0.000000 0.500000 0.500000
O O5 0.762207 0.699703 0.667838
O O6 0.065202 0.798976 0.698020
O O7 0.000000 0.680891 0.750000
O O8 0.266792 0.681271 0.667643
O O9 0.045150 0.479295 0.699566
O O10 0.219126 0.377061 0.763033
O O11 0.925830 0.873571 0.099517
O O12 0.239223 0.972776 0.114493
O O13 0.533376 0.760911 0.900938
O O14 0.481364 0.556505 0.183031
O O15 0.181437 0.609196 0.123647
O O16 0.736000 0.351543 0.635683
#
# Coordination Sequence:
#
# PCOD8246937 Si02
#       8
#     8   8   4   8   8   8   8   8
#     4  11  23  45  72  95 127 179 229 281 355 422
#     4  11  23  42  69  99 140 191 231 271 342 418
#     4  10  22  32  60 100 126 180 228 296 322 402
#     4  11  26  44  69  99 135 178 226 289 355 417
#     4  11  26  45  69 103 144 181 228 293 345 404
#     4  11  19  39  63  92 135 172 230 278 340 406
#     4  10  20  36  63  93 134 171 236 282 329 392
#     4  10  21  40  67  99 129 177 226 283 340 405
#
# _framework density 21.789021000000002
#
# number of rings (size 3 to 8) (size 9 to 14) (size 15 to 20)
#    0.000    1.333    4.000    1.600    5.600    0.000 
#    3.600    1.333    0.000    0.000    0.000    0.000 
#    0.000    0.000    0.000    0.000    0.000    0.000 
#
# Total GULP energy -743399.578070 kJ/mol
# GULP energy per Si atom -12389.992968 kJ/mol
# Density = 2.173943 g / cm^3
# Si number density = 21.789021 Si / 1000 Ang^3
#
#
#
# Elastic Constant Matrix: (Units=GPa)
#
#
# Indices 1 2 3 4 5 6 
#
# 1 91.3480 22.1143 31.4788 0.0000 0.0000 0.0000
# 2 22.1143 102.3406 61.4476 0.0000 0.0000 0.0000
# 3 31.4788 61.4476 124.2515 0.0000 0.0000 0.0000
# 4 0.0000 0.0000 0.0000 30.3469 0.0000 0.0000
# 5 0.0000 0.0000 0.0000 0.0000 29.1620 0.0000
# 6 0.0000 0.0000 0.0000 0.0000 0.0000 21.1900
#
#
#
# Elastic Compliance Matrix: (Units=1/GPa)
#
#
# Indices 1 2 3 4 5 6 
#
# 1 0.012081 -0.001099 -0.002517 0.000000 0.000000 0.000000
# 2 -0.001099 0.013998 -0.006644 0.000000 0.000000 0.000000
# 3 -0.002517 -0.006644 0.011972 0.000000 0.000000 0.000000
# 4 0.000000 0.000000 0.000000 0.032952 0.000000 0.000000
# 5 0.000000 0.000000 0.000000 0.000000 0.034291 0.000000
# 6 0.000000 0.000000 0.000000 0.000000 0.000000 0.047192
#
#
# Mechanical properties :
#
#
# Convention : Reuss Voigt Hill
#
# Bulk Modulus (GPa) = 57.04604 60.89129 58.96866
# Shear Modulus (GPa) = 27.95638 29.66640 28.81139
#
# Velocity S-wave (km/s) = 3.58585 3.69389 3.64027
# Velocity P-wave (km/s) = 6.58653 6.79703 6.69261
#
# Compressibility (1/GPa) = 0.01752970
#
# Stress axis : x y z
#
# Youngs Moduli (GPa) = 82.77724 71.43810 83.53026
#
# Poissons Ratio (x) = 0.07852 0.21025
# Poissons Ratio (y) = 0.09099 0.55499
# Poissons Ratio (z) = 0.20835 0.47465
#
# Static dielectric constant tensor:
#      x y z
#    x 4.015400 0.000000 0.000000 
#    y 0.000000 3.762780 0.000000 
#    z 0.000000 0.000000 4.165640 
# 
# 
# High freq. dielectric constant tensor:
#      x y z
#    x 1.861470 0.000000 0.000000 
#    y 0.000000 1.827700 0.000000 
#    z 0.000000 0.000000 1.862520 
# 
# From -- ./inp_files/24999.got.cif
#   From: 2010.03.12/outbox.cif.g09.slc.cpg/sg60_13_cif.got.tgz:24999.got - 2010.04.10 18:46:24.
