data_PCOD8246137
_publ_section_title
;
Structure prediction by ZEFSAII (Michael W. Deem and Ramdas Pophale) SiO2 
 PCOD8246137
Probable space group: P M M N
;
_chemical_formula_sum "Si O2"
_cell_formula_units_Z 64
_cell_length_a 14.774885
_cell_length_b 14.771755
_cell_length_c 20.337949
_cell_angle_alpha 90.000000
_cell_angle_beta 90.000000
_cell_angle_gamma 90.000000
_cell_volume 4438.777328
_symmetry_space_group_name_H-M "P M M N"
_symmetry_group_IT_number 59
_space_group.IT_coordinate_system_code '2'
_symmetry_cell_setting 'orthorhombic'
loop_
_space_group_symop_operation_xyz
x,y,z
1/2-x,1/2-y,z
1/2+x,-y,-z
-x,1/2+y,-z
-x,-y,-z
1/2+x,1/2+y,-z
1/2-x,y,z
x,1/2-y,z
loop_
_atom_site_type_symbol
_atom_site_label
_atom_site_fract_x
_atom_site_fract_y
_atom_site_fract_z
Si Si1 0.352251 0.142557 0.641261
Si Si2 0.353315 0.999954 0.106591
Si Si3 0.358315 0.148589 0.358403
Si Si4 0.146383 0.146407 0.000261
Si Si5 0.849798 0.857185 0.500795
Si Si6 0.498692 0.354598 0.742994
Si Si7 0.500625 0.853420 0.106573
Si Si8 0.354280 0.999484 0.257058
O O1 0.250000 0.104089 0.650872
O O2 0.347741 0.250000 0.646412
O O3 0.394529 0.114006 0.569278
O O4 0.417984 0.105136 0.698053
O O5 0.250000 0.970127 0.093895
O O6 0.414941 0.914598 0.087727
O O7 0.367413 0.030238 0.181828
O O8 0.380914 0.085481 0.062399
O O9 0.250000 0.149949 0.362109
O O10 0.393857 0.250000 0.342134
O O11 0.397236 0.113732 0.430028
O O12 0.392271 0.081062 0.301864
O O13 0.250000 0.130270 0.979133
O O14 0.129865 0.250000 0.021428
O O15 0.085706 0.118994 0.938028
O O16 0.750000 0.900141 0.498772
O O17 0.842002 0.750000 0.503766
O O18 0.518984 0.250000 0.726779
O O19 0.468562 0.368051 0.818328
O O20 0.590397 0.408630 0.727590
O O21 0.470898 0.750000 0.094354
O O22 0.250000 0.977728 0.273018
#
# Coordination Sequence:
#
# PCOD8246137 Si02
#       8
#     8   8   8   8   8   8   8   8
#     4   8  13  22  37  55  74  96 121 152 190 225
#     4   9  17  28  41  56  75 100 127 154 182 212
#     4   8  13  22  37  55  74  96 121 152 190 225
#     4   9  17  28  42  60  79  97 118 146 184 229
#     4   7  10  18  33  52  72  94 119 147 184 226
#     4   9  17  27  38  54  76 101 128 154 179 212
#     4   9  17  28  41  56  75 100 127 154 182 212
#     4   9  17  27  38  54  76 101 128 154 179 212
#
# _framework density 14.418385000000001
#
# number of rings (size 3 to 8) (size 9 to 14) (size 15 to 20)
#    0.000    3.500    0.000    1.875    0.000    1.500 
#    0.000    8.125    0.000    0.000    0.000    0.000 
#    0.000    0.500    0.000    5.500    0.000    0.500 
#
# Total GULP energy -792898.371539 kJ/mol
# GULP energy per Si atom -12389.037055 kJ/mol
# Density = 1.438557 g / cm^3
# Si number density = 14.418385 Si / 1000 Ang^3
#
#
#
# Elastic Constant Matrix: (Units=GPa)
#
#
# Indices 1 2 3 4 5 6 
#
# 1 60.7020 38.9790 55.7269 0.0000 0.0000 0.0000
# 2 38.9790 60.9104 55.6603 0.0000 0.0000 0.0000
# 3 55.7269 55.6603 109.0389 0.0000 0.0000 0.0000
# 4 0.0000 0.0000 0.0000 16.6864 0.0000 0.0000
# 5 0.0000 0.0000 0.0000 0.0000 16.3946 0.0000
# 6 0.0000 0.0000 0.0000 0.0000 0.0000 15.1498
#
#
#
# Elastic Compliance Matrix: (Units=1/GPa)
#
#
# Indices 1 2 3 4 5 6 
#
# 1 0.034713 -0.011250 -0.011998 0.000000 0.000000 0.000000
# 2 -0.011250 0.034417 -0.011819 0.000000 0.000000 0.000000
# 3 -0.011998 -0.011819 0.021336 0.000000 0.000000 0.000000
# 4 0.000000 0.000000 0.000000 0.059929 0.000000 0.000000
# 5 0.000000 0.000000 0.000000 0.000000 0.060996 0.000000
# 6 0.000000 0.000000 0.000000 0.000000 0.000000 0.066007
#
#
# Mechanical properties :
#
#
# Convention : Reuss Voigt Hill
#
# Bulk Modulus (GPa) = 49.18444 59.04262 54.11353
# Shear Modulus (GPa) = 14.11193 14.99850 14.55521
#
# Velocity S-wave (km/s) = 3.13189 3.22877 3.18069
# Velocity P-wave (km/s) = 6.87493 7.41204 7.14853
#
# Compressibility (1/GPa) = 0.02033163
#
# Stress axis : x y z
#
# Youngs Moduli (GPa) = 28.80791 29.05506 46.86906
#
# Poissons Ratio (x) = 0.32688 0.56233
# Poissons Ratio (y) = 0.32410 0.55395
# Poissons Ratio (z) = 0.34563 0.34340
#
# Static dielectric constant tensor:
#      x y z
#    x 2.665590 0.000000 0.000000 
#    y 0.000000 2.635250 0.000000 
#    z 0.000000 0.000000 3.137540 
# 
# 
# High freq. dielectric constant tensor:
#      x y z
#    x 1.521160 0.000000 0.000000 
#    y 0.000000 1.522190 0.000000 
#    z 0.000000 0.000000 1.565290 
# 
# From -- ./inp_files/27718.got.cif
#   From: 2010.03.12/outbox.cif.g09.slc.cpg/sg59_14_cif.got.tgz:27718.got - 2010.04.16 16:29:54.
