data_PCOD8246904
_publ_section_title
;
Structure prediction by ZEFSAII (Michael W. Deem and Ramdas Pophale) SiO2 
 PCOD8246904
Probable space group: P B C N
;
_chemical_formula_sum "Si O2"
_cell_formula_units_Z 40
_cell_length_a 11.604496
_cell_length_b 17.206230
_cell_length_c 9.398683
_cell_angle_alpha 90.000000
_cell_angle_beta 90.000000
_cell_angle_gamma 90.000000
_cell_volume 1876.631531
_symmetry_space_group_name_H-M "P B C N"
_symmetry_group_IT_number 60
_symmetry_cell_setting 'orthorhombic'
loop_
_space_group_symop_operation_xyz
x,y,z
1/2-x,1/2-y,1/2+z
1/2+x,1/2-y,-z
-x,y,1/2-z
-x,-y,-z
1/2+x,1/2+y,1/2-z
1/2-x,1/2+y,z
x,-y,1/2+z
loop_
_atom_site_type_symbol
_atom_site_label
_atom_site_fract_x
_atom_site_fract_y
_atom_site_fract_z
Si Si1 0.628706 0.547129 0.268653
Si Si2 0.565854 0.120408 0.392791
Si Si3 0.345283 0.176119 0.529669
Si Si4 0.771541 0.496644 0.512458
Si Si5 0.272069 0.293859 0.751682
O O1 0.500000 0.514622 0.250000
O O2 0.662078 0.530913 0.430188
O O3 0.631164 0.639129 0.235426
O O4 0.728217 0.504058 0.175560
O O5 0.500000 0.088941 0.250000
O O6 0.480405 0.170920 0.490781
O O7 0.668775 0.176277 0.347845
O O8 0.614258 0.048291 0.486103
O O9 0.295258 0.090098 0.540042
O O10 0.328871 0.217772 0.681515
O O11 0.278269 0.225758 0.407786
#
# Coordination Sequence:
#
# PCOD8246904 Si02
#       5
#     8   8   8   8   8
#     4  10  21  39  57  80 116 151 185 235 286 339
#     4   9  19  39  61  82 116 152 188 244 293 334
#     4  10  20  36  57  84 115 148 187 236 286 336
#     4  10  21  37  60  87 112 147 198 238 283 349
#     4   9  21  37  55  83 114 146 187 227 279 348
#
# _framework density 21.314786000000002
#
# number of rings (size 3 to 8) (size 9 to 14) (size 15 to 20)
#    0.000    2.400    0.000    2.400    0.000    6.400 
#    0.000    6.000    0.000    0.000    0.000    0.000 
#    0.000    0.000    0.000    0.000    0.000    0.000 
#
# Total GULP energy -495884.086413 kJ/mol
# GULP energy per Si atom -12397.102160 kJ/mol
# Density = 2.126627 g / cm^3
# Si number density = 21.314786 Si / 1000 Ang^3
#
#
#
# Elastic Constant Matrix: (Units=GPa)
#
#
# Indices 1 2 3 4 5 6 
#
# 1 101.7340 16.5706 18.8190 0.0000 0.0000 0.0000
# 2 16.5706 53.6382 33.3028 0.0000 0.0000 0.0000
# 3 18.8190 33.3028 60.9155 0.0000 0.0000 0.0000
# 4 0.0000 0.0000 0.0000 40.1705 0.0000 0.0000
# 5 0.0000 0.0000 0.0000 0.0000 27.9001 0.0000
# 6 0.0000 0.0000 0.0000 0.0000 0.0000 22.1937
#
#
#
# Elastic Compliance Matrix: (Units=1/GPa)
#
#
# Indices 1 2 3 4 5 6 
#
# 1 0.010548 -0.001870 -0.002236 0.000000 0.000000 0.000000
# 2 -0.001870 0.028555 -0.015033 0.000000 0.000000 0.000000
# 3 -0.002236 -0.015033 0.025326 0.000000 0.000000 0.000000
# 4 0.000000 0.000000 0.000000 0.024894 0.000000 0.000000
# 5 0.000000 0.000000 0.000000 0.000000 0.035842 0.000000
# 6 0.000000 0.000000 0.000000 0.000000 0.000000 0.045058
#
#
# Mechanical properties :
#
#
# Convention : Reuss Voigt Hill
#
# Bulk Modulus (GPa) = 38.24204 39.29693 38.76948
# Shear Modulus (GPa) = 23.01828 27.89254 25.45541
#
# Velocity S-wave (km/s) = 3.28978 3.62138 3.45956
# Velocity P-wave (km/s) = 5.69304 5.99686 5.84693
#
# Compressibility (1/GPa) = 0.02614923
#
# Stress axis : x y z
#
# Youngs Moduli (GPa) = 94.80628 35.02000 39.48536
#
# Poissons Ratio (x) = 0.06549 0.08830
# Poissons Ratio (y) = 0.17730 0.59360
# Poissons Ratio (z) = 0.21200 0.52647
#
# Static dielectric constant tensor:
#      x y z
#    x 3.858030 0.000000 0.000000 
#    y 0.000000 3.542220 0.000000 
#    z 0.000000 0.000000 3.821190 
# 
# 
# High freq. dielectric constant tensor:
#      x y z
#    x 1.842410 0.000000 0.000000 
#    y 0.000000 1.813230 0.000000 
#    z 0.000000 0.000000 1.834670 
# 
# From -- ./inp_files/4724.got.cif
#   From: 2010.03.12/outbox.cif.g09.slc.cpg/sg60_3_cif.got.tgz:4724.got - 2010.04.10 18:46:24.
