data_PCOD8246389
_publ_section_title
;
Structure prediction by ZEFSAII (Michael W. Deem and Ramdas Pophale) SiO2 
 PCOD8246389
Probable space group: P B C N
;
_chemical_formula_sum "Si O2"
_cell_formula_units_Z 44
_cell_length_a 12.406972
_cell_length_b 23.303507
_cell_length_c 8.258171
_cell_angle_alpha 90.000000
_cell_angle_beta 90.000000
_cell_angle_gamma 90.000000
_cell_volume 2387.651609
_symmetry_space_group_name_H-M "P B C N"
_symmetry_group_IT_number 60
_symmetry_cell_setting 'orthorhombic'
loop_
_space_group_symop_operation_xyz
x,y,z
1/2-x,1/2-y,1/2+z
1/2+x,1/2-y,-z
-x,y,1/2-z
-x,-y,-z
1/2+x,1/2+y,1/2-z
1/2-x,1/2+y,z
x,-y,1/2+z
loop_
_atom_site_type_symbol
_atom_site_label
_atom_site_fract_x
_atom_site_fract_y
_atom_site_fract_z
Si Si1 0.493146 0.201823 0.939435
Si Si2 0.090822 0.080829 0.981261
Si Si3 0.773697 0.701945 0.954688
Si Si4 0.262919 0.174290 0.921743
Si Si5 0.445496 0.325204 0.925623
Si Si6 0.500000 0.507914 0.250000
O O1 0.500000 0.213896 0.750000
O O2 0.607318 0.176548 0.002747
O O3 0.388538 0.162236 0.971509
O O4 0.473919 0.265196 0.013985
O O5 0.989963 0.124320 0.960305
O O6 0.201325 0.116424 0.970929
O O7 0.082998 0.031553 0.848062
O O8 0.081439 0.048436 0.151916
O O9 0.747916 0.687587 0.768231
O O10 0.779595 0.771077 0.976161
O O11 0.685844 0.672509 0.074096
O O12 0.500000 0.332598 0.750000
#
# Coordination Sequence:
#
# PCOD8246389 Si02
#       6
#     8   8   8   8   8   4
#     4   8  16  31  48  79 109 148 174 200 263 361
#     4  11  20  38  52  82 106 150 186 252 282 330
#     4  10  19  32  53  84 116 152 179 210 271 373
#     4  10  20  32  55  78 119 149 181 221 284 335
#     4  10  18  31  54  76 114 148 176 222 286 327
#     4  10  24  34  56  76 106 140 212 240 298 318
#
# _framework density 18.428149000000001
#
# number of rings (size 3 to 8) (size 9 to 14) (size 15 to 20)
#    0.000    2.182    2.727    2.182    0.000    0.000 
#    0.000    0.000    0.000    0.000    0.000   34.364 
#    0.000    0.000    0.000    0.000    0.000    0.000 
#
# Total GULP energy -545079.865293 kJ/mol
# GULP energy per Si atom -12388.178757 kJ/mol
# Density = 1.838621 g / cm^3
# Si number density = 18.428149 Si / 1000 Ang^3
#
#
#
# Elastic Constant Matrix: (Units=GPa)
#
#
# Indices 1 2 3 4 5 6 
#
# 1 189.9456 64.6328 48.2103 0.0000 0.0000 0.0000
# 2 64.6328 104.8143 38.8731 0.0000 0.0000 0.0000
# 3 48.2103 38.8731 70.6026 0.0000 0.0000 0.0000
# 4 0.0000 0.0000 0.0000 24.4329 0.0000 0.0000
# 5 0.0000 0.0000 0.0000 0.0000 25.0396 0.0000
# 6 0.0000 0.0000 0.0000 0.0000 0.0000 38.7393
#
#
#
# Elastic Compliance Matrix: (Units=1/GPa)
#
#
# Indices 1 2 3 4 5 6 
#
# 1 0.007162 -0.003270 -0.003090 0.000000 0.000000 0.000000
# 2 -0.003270 0.013482 -0.005190 0.000000 0.000000 0.000000
# 3 -0.003090 -0.005190 0.019131 0.000000 0.000000 0.000000
# 4 0.000000 0.000000 0.000000 0.040928 0.000000 0.000000
# 5 0.000000 0.000000 0.000000 0.000000 0.039937 0.000000
# 6 0.000000 0.000000 0.000000 0.000000 0.000000 0.025814
#
#
# Mechanical properties :
#
#
# Convention : Reuss Voigt Hill
#
# Bulk Modulus (GPa) = 59.97039 74.31054 67.14046
# Shear Modulus (GPa) = 28.55314 31.88543 30.21928
#
# Velocity S-wave (km/s) = 3.94055 4.16415 4.05389
# Velocity P-wave (km/s) = 7.30188 7.97071 7.64361
#
# Compressibility (1/GPa) = 0.01667489
#
# Stress axis : x y z
#
# Youngs Moduli (GPa) = 139.63296 74.17218 52.27077
#
# Poissons Ratio (x) = 0.24256 0.16150
# Poissons Ratio (y) = 0.45664 0.27129
# Poissons Ratio (z) = 0.43142 0.38496
#
# Static dielectric constant tensor:
#      x y z
#    x 3.744530 0.000000 0.000000 
#    y 0.000000 3.253260 0.000000 
#    z 0.000000 0.000000 3.319520 
# 
# 
# High freq. dielectric constant tensor:
#      x y z
#    x 1.718440 0.000000 0.000000 
#    y 0.000000 1.678420 0.000000 
#    z 0.000000 0.000000 1.705110 
# 
# From -- ./inp_files/4993.got.cif
#   From: 2010.03.12/outbox.cif.g09.slc.cpg/sg60_3_cif.got.tgz:4993.got - 2010.04.10 18:46:24.
