data_PCOD8246105
_publ_section_title
;
Structure prediction by ZEFSAII (Michael W. Deem and Ramdas Pophale) SiO2 
 PCOD8246105
Probable space group: P M M N
;
_chemical_formula_sum "Si O2"
_cell_formula_units_Z 48
_cell_length_a 15.424200
_cell_length_b 8.992831
_cell_length_c 17.235337
_cell_angle_alpha 90.000000
_cell_angle_beta 90.000000
_cell_angle_gamma 90.000000
_cell_volume 2390.665748
_symmetry_space_group_name_H-M "P M M N"
_symmetry_group_IT_number 59
_space_group.IT_coordinate_system_code '2'
_symmetry_cell_setting 'orthorhombic'
loop_
_space_group_symop_operation_xyz
x,y,z
1/2-x,1/2-y,z
1/2+x,-y,-z
-x,1/2+y,-z
-x,-y,-z
1/2+x,1/2+y,-z
1/2-x,y,z
x,1/2-y,z
loop_
_atom_site_type_symbol
_atom_site_label
_atom_site_fract_x
_atom_site_fract_y
_atom_site_fract_z
Si Si1 0.091873 0.922964 0.996632
Si Si2 0.150806 0.078697 0.316733
Si Si3 0.895734 0.920317 0.151906
Si Si4 0.344852 0.074100 0.682824
Si Si5 0.100856 0.918137 0.165941
Si Si6 0.505475 0.072610 0.583363
O O1 0.077045 0.750000 0.982627
O O2 0.139999 0.949553 0.079506
O O3 0.142303 0.990971 0.922619
O O4 0.000000 0.000000 0.000000
O O5 0.250000 0.057679 0.343548
O O6 0.122362 0.250000 0.324248
O O7 0.142435 0.030411 0.227121
O O8 0.091534 0.978476 0.372056
O O9 0.869641 0.750000 0.139138
O O10 0.852562 0.987492 0.229513
O O11 0.998140 0.939730 0.162443
O O12 0.250000 0.029227 0.649390
O O13 0.356213 0.250000 0.686669
O O14 0.420873 0.010978 0.628683
O O15 0.123134 0.750000 0.192178
O O16 0.506229 0.250000 0.576253
O O17 0.500000 0.000000 0.500000
#
# Coordination Sequence:
#
# PCOD8246105 Si02
#       6
#     8   8   8   8   8   8
#     4   9  17  28  46  76 111 150 194 238 287 338
#     4  11  24  40  60  88 119 154 199 247 295 347
#     4   9  16  30  52  80 112 148 193 236 283 343
#     4   9  18  35  60  87 116 151 189 231 281 343
#     4   9  17  32  53  79 112 153 197 240 290 347
#     4  11  23  42  66  92 120 152 190 234 292 356
#
# _framework density 20.07809
#
# number of rings (size 3 to 8) (size 9 to 14) (size 15 to 20)
#    0.000    2.333    1.667    2.500    0.000    5.333 
#    0.000    2.500    0.000    7.000    0.000    0.000 
#    0.000    0.000    0.000    0.000    0.000    0.000 
#
# Total GULP energy -594952.182984 kJ/mol
# GULP energy per Si atom -12394.837145 kJ/mol
# Density = 2.003239 g / cm^3
# Si number density = 20.078090 Si / 1000 Ang^3
#
#
#
# Elastic Constant Matrix: (Units=GPa)
#
#
# Indices 1 2 3 4 5 6 
#
# 1 89.4510 33.4933 55.1285 0.0000 0.0000 0.0000
# 2 33.4933 89.5285 58.4798 0.0000 0.0000 0.0000
# 3 55.1285 58.4798 160.6669 0.0000 0.0000 0.0000
# 4 0.0000 0.0000 0.0000 39.6160 0.0000 0.0000
# 5 0.0000 0.0000 0.0000 0.0000 4.3273 0.0000
# 6 0.0000 0.0000 0.0000 0.0000 0.0000 19.4854
#
#
#
# Elastic Compliance Matrix: (Units=1/GPa)
#
#
# Indices 1 2 3 4 5 6 
#
# 1 0.014729 -0.002898 -0.003999 0.000000 0.000000 0.000000
# 2 -0.002898 0.015224 -0.004547 0.000000 0.000000 0.000000
# 3 -0.003999 -0.004547 0.009251 0.000000 0.000000 0.000000
# 4 0.000000 0.000000 0.000000 0.025242 0.000000 0.000000
# 5 0.000000 0.000000 0.000000 0.000000 0.231092 0.000000
# 6 0.000000 0.000000 0.000000 0.000000 0.000000 0.051321
#
#
# Mechanical properties :
#
#
# Convention : Reuss Voigt Hill
#
# Bulk Modulus (GPa) = 61.28881 70.42773 65.85827
# Shear Modulus (GPa) = 13.32673 25.52204 19.42438
#
# Velocity S-wave (km/s) = 2.57912 3.56917 3.11375
# Velocity P-wave (km/s) = 6.28177 7.22069 6.76753
#
# Compressibility (1/GPa) = 0.01631619
#
# Stress axis : x y z
#
# Youngs Moduli (GPa) = 67.89316 65.68672 108.09467
#
# Poissons Ratio (x) = 0.19037 0.43227
# Poissons Ratio (y) = 0.19676 0.49148
# Poissons Ratio (z) = 0.27151 0.29866
#
# Static dielectric constant tensor:
#      x y z
#    x 3.517900 0.000000 0.000000 
#    y 0.000000 3.622790 0.000000 
#    z 0.000000 0.000000 3.966020 
# 
# 
# High freq. dielectric constant tensor:
#      x y z
#    x 1.767590 0.000000 0.000000 
#    y 0.000000 1.764450 0.000000 
#    z 0.000000 0.000000 1.794400 
# 
# From -- ./inp_files/27385.got.cif
#   From: 2010.03.12/outbox.cif.g09.slc.cpg/sg59_14_cif.got.tgz:27385.got - 2010.04.16 16:29:54.
