data_PCOD8246923
_publ_section_title
;
Structure prediction by ZEFSAII (Michael W. Deem and Ramdas Pophale) SiO2 
 PCOD8246923
Probable space group: P B C N
;
_chemical_formula_sum "Si O2"
_cell_formula_units_Z 44
_cell_length_a 15.849759
_cell_length_b 8.981756
_cell_length_c 13.582722
_cell_angle_alpha 90.000000
_cell_angle_beta 90.000000
_cell_angle_gamma 90.000000
_cell_volume 1933.618212
_symmetry_space_group_name_H-M "P B C N"
_symmetry_group_IT_number 60
_symmetry_cell_setting 'orthorhombic'
loop_
_space_group_symop_operation_xyz
x,y,z
1/2-x,1/2-y,1/2+z
1/2+x,1/2-y,-z
-x,y,1/2-z
-x,-y,-z
1/2+x,1/2+y,1/2-z
1/2-x,1/2+y,z
x,-y,1/2+z
loop_
_atom_site_type_symbol
_atom_site_label
_atom_site_fract_x
_atom_site_fract_y
_atom_site_fract_z
Si Si1 0.359382 0.061410 0.242723
Si Si2 0.222009 0.151548 0.799787
Si Si3 0.451685 0.393900 0.073247
Si Si4 0.500000 0.425070 0.750000
Si Si5 0.508919 0.076584 0.102101
Si Si6 0.354578 0.369039 0.889959
O O1 0.334309 0.237167 0.232341
O O2 0.427645 0.021533 0.161663
O O3 0.402223 0.030926 0.349178
O O4 0.280024 0.951780 0.229623
O O5 0.277713 0.260202 0.867827
O O6 0.166749 0.042782 0.868540
O O7 0.438047 0.476465 0.178484
O O8 0.510496 0.253543 0.094664
O O9 0.500000 0.500000 0.000000
O O10 0.369676 0.348792 0.007982
O O11 0.436710 0.328867 0.820160
O O12 0.500000 0.000000 0.000000
#
# Coordination Sequence:
#
# PCOD8246923 Si02
#       6
#     8   8   8   4   8   8
#     4  10  22  41  62  86 124 160 199 251 301 357
#     4  10  21  40  60  87 127 163 195 245 307 364
#     4  10  20  36  60  85 112 150 196 244 293 352
#     4  10  20  38  64  88 112 156 210 248 290 356
#     4  11  22  39  63  91 118 156 206 255 298 349
#     4  10  21  38  60  87 121 158 200 248 298 357
#
# _framework density 22.755267
#
# number of rings (size 3 to 8) (size 9 to 14) (size 15 to 20)
#    0.000    1.818    0.000    5.455    0.000    4.364 
#    0.000   20.000    0.000    0.000    0.000    0.000 
#    0.000    0.000    0.000    0.000    0.000    0.000 
#
# Total GULP energy -545348.832504 kJ/mol
# GULP energy per Si atom -12394.291648 kJ/mol
# Density = 2.270348 g / cm^3
# Si number density = 22.755267 Si / 1000 Ang^3
#
#
#
# Elastic Constant Matrix: (Units=GPa)
#
#
# Indices 1 2 3 4 5 6 
#
# 1 72.7256 1.2915 13.3994 0.0000 0.0000 0.0000
# 2 1.2915 52.8708 4.9513 0.0000 0.0000 0.0000
# 3 13.3994 4.9513 104.2792 0.0000 0.0000 0.0000
# 4 0.0000 0.0000 0.0000 23.4134 0.0000 0.0000
# 5 0.0000 0.0000 0.0000 0.0000 19.8946 0.0000
# 6 0.0000 0.0000 0.0000 0.0000 0.0000 41.7991
#
#
#
# Elastic Compliance Matrix: (Units=1/GPa)
#
#
# Indices 1 2 3 4 5 6 
#
# 1 0.014085 -0.000175 -0.001802 0.000000 0.000000 0.000000
# 2 -0.000175 0.019001 -0.000880 0.000000 0.000000 0.000000
# 3 -0.001802 -0.000880 0.009863 0.000000 0.000000 0.000000
# 4 0.000000 0.000000 0.000000 0.042711 0.000000 0.000000
# 5 0.000000 0.000000 0.000000 0.000000 0.050265 0.000000
# 6 0.000000 0.000000 0.000000 0.000000 0.000000 0.023924
#
#
# Mechanical properties :
#
#
# Convention : Reuss Voigt Hill
#
# Bulk Modulus (GPa) = 26.85588 29.90668 28.38128
# Shear Modulus (GPa) = 28.09408 31.03699 29.56553
#
# Velocity S-wave (km/s) = 3.51753 3.69717 3.60847
# Velocity P-wave (km/s) = 5.32212 5.60328 5.46451
#
# Compressibility (1/GPa) = 0.03723580
#
# Stress axis : x y z
#
# Youngs Moduli (GPa) = 70.99566 52.62963 101.39007
#
# Poissons Ratio (x) = 0.00923 0.18266
# Poissons Ratio (y) = 0.01245 0.08919
# Poissons Ratio (z) = 0.12790 0.04630
#
# Static dielectric constant tensor:
#      x y z
#    x 5.391320 0.000000 0.000000 
#    y 0.000000 3.949150 0.000000 
#    z 0.000000 0.000000 4.917480 
# 
# 
# High freq. dielectric constant tensor:
#      x y z
#    x 1.898980 0.000000 0.000000 
#    y 0.000000 1.905450 0.000000 
#    z 0.000000 0.000000 1.885720 
# 
# From -- ./inp_files/17258.got.cif
#   From: 2010.03.12/outbox.cif.g09.slc.cpg/sg60_9_cif.got.tgz:17258.got - 2010.04.10 18:46:24.
