data_PCOD8246097
_publ_section_title
;
Structure prediction by ZEFSAII (Michael W. Deem and Ramdas Pophale) SiO2 
 PCOD8246097
Probable space group: P M M N
;
_chemical_formula_sum "Si O2"
_cell_formula_units_Z 40
_cell_length_a 22.815538
_cell_length_b 8.441404
_cell_length_c 9.977220
_cell_angle_alpha 90.000000
_cell_angle_beta 90.000000
_cell_angle_gamma 90.000000
_cell_volume 1921.564419
_symmetry_space_group_name_H-M "P M M N"
_symmetry_group_IT_number 59
_space_group.IT_coordinate_system_code '2'
_symmetry_cell_setting 'orthorhombic'
loop_
_space_group_symop_operation_xyz
x,y,z
1/2-x,1/2-y,z
1/2+x,-y,-z
-x,1/2+y,-z
-x,-y,-z
1/2+x,1/2+y,-z
1/2-x,y,z
x,1/2-y,z
loop_
_atom_site_type_symbol
_atom_site_label
_atom_site_fract_x
_atom_site_fract_y
_atom_site_fract_z
Si Si1 0.817686 0.933334 0.482109
Si Si2 0.997475 0.062872 0.849060
Si Si3 0.614837 0.432918 0.236831
Si Si4 0.183735 0.070002 0.004502
Si Si5 0.870851 0.431940 0.743713
O O1 0.750000 0.988624 0.482583
O O2 0.822602 0.750000 0.442180
O O3 0.854137 0.037544 0.377909
O O4 0.845685 0.957973 0.627407
O O5 0.006063 0.250000 0.851770
O O6 0.936501 0.014669 0.780242
O O7 0.046787 0.981798 0.756489
O O8 0.000000 0.000000 0.000000
O O9 0.620951 0.250000 0.197786
O O10 0.643547 0.538905 0.122586
O O11 0.250000 0.039950 0.958093
O O12 0.173809 0.250000 0.052800
O O13 0.169087 0.952997 0.125514
O O14 0.868309 0.250000 0.697494
#
# Coordination Sequence:
#
# PCOD8246097 Si02
#       5
#     8   8   8   8   8
#     4  11  25  45  67  93 129 172 215 263 323 387
#     4  11  23  41  66  96 131 169 213 266 322 381
#     4  12  25  41  65  95 127 169 215 266 324 379
#     4  11  23  39  62  92 126 167 214 264 320 382
#     4  11  24  41  65  96 128 167 213 263 321 381
#
# _framework density 20.816372999999999
#
# number of rings (size 3 to 8) (size 9 to 14) (size 15 to 20)
#    0.000    0.800    2.000    5.400    0.000   11.200 
#    0.000    0.000    0.000    0.000    0.000    0.000 
#    0.000    0.000    0.000    0.000    0.000    0.000 
#
# Total GULP energy -496313.623346 kJ/mol
# GULP energy per Si atom -12407.840584 kJ/mol
# Density = 2.076899 g / cm^3
# Si number density = 20.816373 Si / 1000 Ang^3
#
#
#
# Elastic Constant Matrix: (Units=GPa)
#
#
# Indices 1 2 3 4 5 6 
#
# 1 131.8257 51.6692 39.1571 0.0000 0.0000 0.0000
# 2 51.6692 69.4058 10.5569 0.0000 0.0000 0.0000
# 3 39.1571 10.5569 92.8282 0.0000 0.0000 0.0000
# 4 0.0000 0.0000 0.0000 38.1980 0.0000 0.0000
# 5 0.0000 0.0000 0.0000 0.0000 49.8015 0.0000
# 6 0.0000 0.0000 0.0000 0.0000 0.0000 16.4736
#
#
#
# Elastic Compliance Matrix: (Units=1/GPa)
#
#
# Indices 1 2 3 4 5 6 
#
# 1 0.012103 -0.008379 -0.004153 0.000000 0.000000 0.000000
# 2 -0.008379 0.020462 0.001207 0.000000 0.000000 0.000000
# 3 -0.004153 0.001207 0.012387 0.000000 0.000000 0.000000
# 4 0.000000 0.000000 0.000000 0.026179 0.000000 0.000000
# 5 0.000000 0.000000 0.000000 0.000000 0.020080 0.000000
# 6 0.000000 0.000000 0.000000 0.000000 0.000000 0.060703
#
#
# Mechanical properties :
#
#
# Convention : Reuss Voigt Hill
#
# Bulk Modulus (GPa) = 44.83464 55.20290 50.01877
# Shear Modulus (GPa) = 27.47300 33.73973 30.60636
#
# Velocity S-wave (km/s) = 3.63682 4.03032 3.83861
# Velocity P-wave (km/s) = 6.26260 6.94511 6.61266
#
# Compressibility (1/GPa) = 0.02230418
#
# Stress axis : x y z
#
# Youngs Moduli (GPa) = 82.62238 48.87135 80.73018
#
# Poissons Ratio (x) = 0.40948 0.33524
# Poissons Ratio (y) = 0.69226 -0.09746
# Poissons Ratio (z) = 0.34310 -0.05900
#
# Static dielectric constant tensor:
#      x y z
#    x 3.988400 0.000000 0.000000 
#    y 0.000000 3.473260 0.000000 
#    z 0.000000 0.000000 4.724540 
# 
# 
# High freq. dielectric constant tensor:
#      x y z
#    x 1.833200 0.000000 0.000000 
#    y 0.000000 1.824300 0.000000 
#    z 0.000000 0.000000 1.811040 
# 
# From -- ./inp_files/5645.got.cif
#   From: 2010.03.12/outbox.cif.g09.slc.cpg/sg59_3_cif.got.tgz:5645.got - 2010.04.16 16:29:54.
