data_PCOD8246013
_publ_section_title
;
Structure prediction by ZEFSAII (Michael W. Deem and Ramdas Pophale) SiO2 
 PCOD8246013
Probable space group: P M M N
;
_chemical_formula_sum "Si O2"
_cell_formula_units_Z 40
_cell_length_a 10.024161
_cell_length_b 8.860822
_cell_length_c 23.641554
_cell_angle_alpha 90.000000
_cell_angle_beta 90.000000
_cell_angle_gamma 90.000000
_cell_volume 2099.897351
_symmetry_space_group_name_H-M "P M M N"
_symmetry_group_IT_number 59
_space_group.IT_coordinate_system_code '2'
_symmetry_cell_setting 'orthorhombic'
loop_
_space_group_symop_operation_xyz
x,y,z
1/2-x,1/2-y,z
1/2+x,-y,-z
-x,1/2+y,-z
-x,-y,-z
1/2+x,1/2+y,-z
1/2-x,y,z
x,1/2-y,z
loop_
_atom_site_type_symbol
_atom_site_label
_atom_site_fract_x
_atom_site_fract_y
_atom_site_fract_z
Si Si1 0.750000 0.928111 0.579456
Si Si2 0.904694 0.924813 0.828291
Si Si3 0.969895 0.071657 0.375242
Si Si4 0.101753 0.072986 0.042676
Si Si5 0.250000 0.429458 0.548198
Si Si6 0.598178 0.923722 0.258506
O O1 0.750000 0.750000 0.575004
O O2 0.620973 0.983179 0.613986
O O3 0.750000 0.992486 0.515765
O O4 0.750000 0.958286 0.814401
O O5 0.936554 0.750000 0.815872
O O6 0.937321 0.966220 0.893051
O O7 0.998249 0.029632 0.790905
O O8 0.952898 0.250000 0.382016
O O9 0.881187 0.990505 0.421802
O O10 0.926904 0.025898 0.312850
O O11 0.250000 0.010521 0.029793
O O12 0.099206 0.250000 0.033545
O O13 0.000000 0.000000 0.000000
O O14 0.250000 0.250000 0.551465
O O15 0.750000 0.948325 0.237639
O O16 0.572794 0.750000 0.274606
#
# Coordination Sequence:
#
# PCOD8246013 Si02
#       6
#     4   8   8   8   4   8
#     4   9  22  39  59  87 115 145 188 235 282 337
#     4   9  20  39  61  84 113 151 194 238 282 336
#     4  11  22  39  61  85 112 150 193 231 280 345
#     4   9  19  36  57  84 118 154 192 235 283 333
#     4  11  21  39  61  85 119 149 180 235 288 333
#     4  11  24  40  57  82 116 149 186 238 293 339
#
# _framework density 19.048549999999999
#
# number of rings (size 3 to 8) (size 9 to 14) (size 15 to 20)
#    0.000    2.000    1.000    3.300    1.400    3.600 
#    0.000   10.500    0.000    0.000    0.000    0.000 
#    0.000    0.000    0.000    0.000    0.000    0.000 
#
# Total GULP energy -496070.219516 kJ/mol
# GULP energy per Si atom -12401.755488 kJ/mol
# Density = 1.900519 g / cm^3
# Si number density = 19.048550 Si / 1000 Ang^3
#
#
#
# Elastic Constant Matrix: (Units=GPa)
#
#
# Indices 1 2 3 4 5 6 
#
# 1 126.0771 43.7578 52.9491 0.0000 0.0000 0.0000
# 2 43.7578 67.1494 35.0256 0.0000 0.0000 0.0000
# 3 52.9491 35.0256 95.4773 0.0000 0.0000 0.0000
# 4 0.0000 0.0000 0.0000 30.6584 0.0000 0.0000
# 5 0.0000 0.0000 0.0000 0.0000 36.8597 0.0000
# 6 0.0000 0.0000 0.0000 0.0000 0.0000 33.0879
#
#
#
# Elastic Compliance Matrix: (Units=1/GPa)
#
#
# Indices 1 2 3 4 5 6 
#
# 1 0.011654 -0.005222 -0.004547 0.000000 0.000000 0.000000
# 2 -0.005222 0.020756 -0.004718 0.000000 0.000000 0.000000
# 3 -0.004547 -0.004718 0.014726 0.000000 0.000000 0.000000
# 4 0.000000 0.000000 0.000000 0.032618 0.000000 0.000000
# 5 0.000000 0.000000 0.000000 0.000000 0.027130 0.000000
# 6 0.000000 0.000000 0.000000 0.000000 0.000000 0.030222
#
#
# Mechanical properties :
#
#
# Convention : Reuss Voigt Hill
#
# Bulk Modulus (GPa) = 55.06286 61.35208 58.20747
# Shear Modulus (GPa) = 29.04688 30.58596 29.81642
#
# Velocity S-wave (km/s) = 3.90922 4.01145 3.96066
# Velocity P-wave (km/s) = 7.02462 7.33033 7.17911
#
# Compressibility (1/GPa) = 0.01816106
#
# Stress axis : x y z
#
# Youngs Moduli (GPa) = 85.80845 48.17794 67.90605
#
# Poissons Ratio (x) = 0.25161 0.30877
# Poissons Ratio (y) = 0.44813 0.32039
# Poissons Ratio (z) = 0.39018 0.22731
#
# Static dielectric constant tensor:
#      x y z
#    x 3.618080 0.000000 0.000000 
#    y 0.000000 3.385470 0.000000 
#    z 0.000000 0.000000 3.255320 
# 
# 
# High freq. dielectric constant tensor:
#      x y z
#    x 1.754530 0.000000 0.000000 
#    y 0.000000 1.734420 0.000000 
#    z 0.000000 0.000000 1.745680 
# 
# From -- ./inp_files/32437.got.cif
#   From: 2010.03.12/outbox.cif.g09.slc.cpg/sg59_17_cif.got.tgz:32437.got - 2010.04.16 16:29:54.
