data_PCOD8246868
_publ_section_title
;
Structure prediction by ZEFSAII (Michael W. Deem and Ramdas Pophale) SiO2 
 PCOD8246868
Probable space group: P B C N
;
_chemical_formula_sum "Si O2"
_cell_formula_units_Z 48
_cell_length_a 9.441781
_cell_length_b 14.781996
_cell_length_c 18.572493
_cell_angle_alpha 90.000000
_cell_angle_beta 90.000000
_cell_angle_gamma 90.000000
_cell_volume 2592.132556
_symmetry_space_group_name_H-M "P B C N"
_symmetry_group_IT_number 60
_symmetry_cell_setting 'orthorhombic'
loop_
_space_group_symop_operation_xyz
x,y,z
1/2-x,1/2-y,1/2+z
1/2+x,1/2-y,-z
-x,y,1/2-z
-x,-y,-z
1/2+x,1/2+y,1/2-z
1/2-x,1/2+y,z
x,-y,1/2+z
loop_
_atom_site_type_symbol
_atom_site_label
_atom_site_fract_x
_atom_site_fract_y
_atom_site_fract_z
Si Si1 0.180139 0.617321 0.817772
Si Si2 0.359765 0.097114 0.654078
Si Si3 0.813531 0.781575 0.583629
Si Si4 0.129995 0.240873 0.049666
Si Si5 0.646477 0.514273 0.089287
Si Si6 0.822509 0.038468 0.430729
O O1 0.200759 0.619626 0.732512
O O2 0.200489 0.719489 0.845907
O O3 0.298549 0.551954 0.849422
O O4 0.027327 0.580054 0.842053
O O5 0.318943 0.181357 0.603636
O O6 0.290041 0.006478 0.622801
O O7 0.685855 0.760051 0.529987
O O8 0.806893 0.884628 0.610092
O O9 0.960535 0.763007 0.542131
O O10 0.189107 0.146052 0.079827
O O11 0.478021 0.501765 0.087869
O O12 0.715103 0.487425 0.012793
#
# Coordination Sequence:
#
# PCOD8246868 Si02
#       6
#     8   8   8   8   8   8
#     4  10  22  38  55  80 113 147 183 225 276 330
#     4  10  22  38  55  80 113 147 183 225 276 330
#     4  10  20  35  57  82 110 144 183 226 271 326
#     4  10  20  35  57  82 110 144 183 226 271 326
#     4  10  20  35  57  85 111 141 185 229 272 326
#     4  10  20  35  57  85 111 141 185 229 272 326
#
# _framework density 18.517572000000001
#
# number of rings (size 3 to 8) (size 9 to 14) (size 15 to 20)
#    0.000    2.000    3.333    0.000    0.000    4.000 
#    0.000    3.333    0.000    0.000    0.000    0.000 
#    0.000    0.000    0.000    0.000    0.000    0.000 
#
# Total GULP energy -595428.923769 kJ/mol
# GULP energy per Si atom -12404.769245 kJ/mol
# Density = 1.847543 g / cm^3
# Si number density = 18.517572 Si / 1000 Ang^3
#
#
#
# Elastic Constant Matrix: (Units=GPa)
#
#
# Indices 1 2 3 4 5 6 
#
# 1 23.8781 9.0387 4.3233 0.0000 0.0000 0.0000
# 2 9.0387 76.5664 -2.9061 0.0000 0.0000 0.0000
# 3 4.3233 -2.9061 56.6061 0.0000 0.0000 0.0000
# 4 0.0000 0.0000 0.0000 18.9809 0.0000 0.0000
# 5 0.0000 0.0000 0.0000 0.0000 27.9881 0.0000
# 6 0.0000 0.0000 0.0000 0.0000 0.0000 30.9696
#
#
#
# Elastic Compliance Matrix: (Units=1/GPa)
#
#
# Indices 1 2 3 4 5 6 
#
# 1 0.044592 -0.005404 -0.003683 0.000000 0.000000 0.000000
# 2 -0.005404 0.013741 0.001118 0.000000 0.000000 0.000000
# 3 -0.003683 0.001118 0.018005 0.000000 0.000000 0.000000
# 4 0.000000 0.000000 0.000000 0.052684 0.000000 0.000000
# 5 0.000000 0.000000 0.000000 0.000000 0.035729 0.000000
# 6 0.000000 0.000000 0.000000 0.000000 0.000000 0.032290
#
#
# Mechanical properties :
#
#
# Convention : Reuss Voigt Hill
#
# Bulk Modulus (GPa) = 16.55637 19.77360 18.16499
# Shear Modulus (GPa) = 21.44892 25.36071 23.40482
#
# Velocity S-wave (km/s) = 3.40707 3.70476 3.55903
# Velocity P-wave (km/s) = 4.94347 5.38533 5.16912
#
# Compressibility (1/GPa) = 0.06039970
#
# Stress axis : x y z
#
# Youngs Moduli (GPa) = 22.42564 72.77529 55.54118
#
# Poissons Ratio (x) = 0.39327 0.20457
# Poissons Ratio (y) = 0.12119 -0.06210
# Poissons Ratio (z) = 0.08260 -0.08137
#
# Static dielectric constant tensor:
#      x y z
#    x 3.327550 0.000000 0.000000 
#    y 0.000000 3.527480 0.000000 
#    z 0.000000 0.000000 3.293780 
# 
# 
# High freq. dielectric constant tensor:
#      x y z
#    x 1.712260 0.000000 0.000000 
#    y 0.000000 1.730120 0.000000 
#    z 0.000000 0.000000 1.707990 
# 
# From -- ./inp_files/19269.got.cif
#   From: 2010.03.12/outbox.cif.g09.slc.cpg/sg60_10_cif.got.tgz:19269.got - 2010.04.10 18:46:24.
