data_PCOD8246411
_publ_section_title
;
Structure prediction by ZEFSAII (Michael W. Deem and Ramdas Pophale) SiO2 
 PCOD8246411
Probable space group: P B C N
;
_chemical_formula_sum "Si O2"
_cell_formula_units_Z 40
_cell_length_a 13.768560
_cell_length_b 12.758521
_cell_length_c 9.644593
_cell_angle_alpha 90.000000
_cell_angle_beta 90.000000
_cell_angle_gamma 90.000000
_cell_volume 1694.231529
_symmetry_space_group_name_H-M "P B C N"
_symmetry_group_IT_number 60
_symmetry_cell_setting 'orthorhombic'
loop_
_space_group_symop_operation_xyz
x,y,z
1/2-x,1/2-y,1/2+z
1/2+x,1/2-y,-z
-x,y,1/2-z
-x,-y,-z
1/2+x,1/2+y,1/2-z
1/2-x,1/2+y,z
x,-y,1/2+z
loop_
_atom_site_type_symbol
_atom_site_label
_atom_site_fract_x
_atom_site_fract_y
_atom_site_fract_z
Si Si1 0.568269 0.509739 0.368043
Si Si2 0.512872 0.841643 0.096034
Si Si3 0.642271 0.969584 0.534499
Si Si4 0.591316 0.273423 0.346603
Si Si5 0.736976 0.098848 0.299486
O O1 0.500000 0.552475 0.250000
O O2 0.500000 0.500000 0.500000
O O3 0.614057 0.396355 0.332196
O O4 0.655271 0.595213 0.367483
O O5 0.500000 0.794493 0.250000
O O6 0.570556 0.950958 0.113858
O O7 0.413012 0.863890 0.012501
O O8 0.569683 0.754285 0.006945
O O9 0.731128 0.940986 0.639132
O O10 0.673614 0.022675 0.392776
O O11 0.500000 0.240160 0.250000
O O12 0.690448 0.214860 0.301841
#
# Coordination Sequence:
#
# PCOD8246411 Si02
#       5
#     8   8   8   8   8
#     4  11  26  50  69  95 140 192 234 291 358 425
#     4  10  18  32  58 103 142 170 211 277 357 411
#     4  10  19  31  60  99 138 167 218 285 340 402
#     4  10  22  42  71 101 136 178 227 291 360 419
#     4  11  21  41  67  99 134 185 232 286 346 420
#
# _framework density 23.609524
#
# number of rings (size 3 to 8) (size 9 to 14) (size 15 to 20)
#    0.000    1.600    4.000    1.200    0.000    0.800 
#    3.600   10.000    0.000    1.200    0.000    0.000 
#    0.000    0.000    0.000    0.000    0.000    0.000 
#
# Total GULP energy -495846.559296 kJ/mol
# GULP energy per Si atom -12396.163982 kJ/mol
# Density = 2.355579 g / cm^3
# Si number density = 23.609524 Si / 1000 Ang^3
#
#
#
# Elastic Constant Matrix: (Units=GPa)
#
#
# Indices 1 2 3 4 5 6 
#
# 1 138.6268 40.5159 28.7525 0.0000 0.0000 0.0000
# 2 40.5159 68.7933 7.1805 0.0000 0.0000 0.0000
# 3 28.7525 7.1805 124.9503 0.0000 0.0000 0.0000
# 4 0.0000 0.0000 0.0000 16.2255 0.0000 0.0000
# 5 0.0000 0.0000 0.0000 0.0000 41.0425 0.0000
# 6 0.0000 0.0000 0.0000 0.0000 0.0000 27.1545
#
#
#
# Elastic Compliance Matrix: (Units=1/GPa)
#
#
# Indices 1 2 3 4 5 6 
#
# 1 0.009097 -0.005170 -0.001796 0.000000 0.000000 0.000000
# 2 -0.005170 0.017563 0.000180 0.000000 0.000000 0.000000
# 3 -0.001796 0.000180 0.008406 0.000000 0.000000 0.000000
# 4 0.000000 0.000000 0.000000 0.061631 0.000000 0.000000
# 5 0.000000 0.000000 0.000000 0.000000 0.024365 0.000000
# 6 0.000000 0.000000 0.000000 0.000000 0.000000 0.036826
#
#
# Mechanical properties :
#
#
# Convention : Reuss Voigt Hill
#
# Bulk Modulus (GPa) = 46.52523 53.91870 50.22196
# Shear Modulus (GPa) = 27.99151 33.94593 30.96872
#
# Velocity S-wave (km/s) = 3.44699 3.79596 3.62568
# Velocity P-wave (km/s) = 5.96584 6.48842 6.23261
#
# Compressibility (1/GPa) = 0.02149371
#
# Stress axis : x y z
#
# Youngs Moduli (GPa) = 109.92272 56.93931 118.96047
#
# Poissons Ratio (x) = 0.29440 0.21368
# Poissons Ratio (y) = 0.56834 -0.02147
# Poissons Ratio (z) = 0.19745 -0.01028
#
# Static dielectric constant tensor:
#      x y z
#    x 4.192670 0.000000 0.000000 
#    y 0.000000 4.033330 0.000000 
#    z 0.000000 0.000000 4.196900 
# 
# 
# High freq. dielectric constant tensor:
#      x y z
#    x 1.919880 0.000000 0.000000 
#    y 0.000000 1.916570 0.000000 
#    z 0.000000 0.000000 1.947570 
# 
# From -- ./inp_files/5675.got.cif
#   From: 2010.03.12/outbox.cif.g09.slc.cpg/sg60_3_cif.got.tgz:5675.got - 2010.04.10 18:46:24.
