data_PCOD8246041
_publ_section_title
;
Structure prediction by ZEFSAII (Michael W. Deem and Ramdas Pophale) SiO2 
 PCOD8246041
Probable space group: P M M N
;
_chemical_formula_sum "Si O2"
_cell_formula_units_Z 64
_cell_length_a 9.129709
_cell_length_b 18.607101
_cell_length_c 20.475427
_cell_angle_alpha 90.000000
_cell_angle_beta 90.000000
_cell_angle_gamma 90.000000
_cell_volume 3478.312660
_symmetry_space_group_name_H-M "P M M N"
_symmetry_group_IT_number 59
_space_group.IT_coordinate_system_code '2'
_symmetry_cell_setting 'orthorhombic'
loop_
_space_group_symop_operation_xyz
x,y,z
1/2-x,1/2-y,z
1/2+x,-y,-z
-x,1/2+y,-z
-x,-y,-z
1/2+x,1/2+y,-z
1/2-x,y,z
x,1/2-y,z
loop_
_atom_site_type_symbol
_atom_site_label
_atom_site_fract_x
_atom_site_fract_y
_atom_site_fract_z
Si Si1 0.588895 0.664840 0.936370
Si Si2 0.423892 0.573677 0.319225
Si Si3 0.076187 0.921100 0.680059
Si Si4 0.921211 0.666288 0.791227
Si Si5 0.582972 0.666806 0.573353
Si Si6 0.417166 0.166786 0.577690
Si Si7 0.075482 0.670012 0.199537
Si Si8 0.911470 0.164481 0.942758
O O1 0.750000 0.631443 0.941909
O O2 0.596607 0.750000 0.943843
O O3 0.525143 0.646470 0.864645
O O4 0.497819 0.630607 0.995964
O O5 0.250000 0.562140 0.319732
O O6 0.505589 0.498918 0.320843
O O7 0.468716 0.619675 0.382060
O O8 0.478683 0.615013 0.254379
O O9 0.250000 0.927554 0.682006
O O10 0.020833 0.879017 0.743179
O O11 0.029243 0.880213 0.614594
O O12 0.750000 0.647039 0.782143
O O13 0.946246 0.750000 0.776385
O O14 0.750000 0.649487 0.594429
O O15 0.548981 0.750000 0.586606
O O16 0.559312 0.647657 0.497906
O O17 0.250000 0.149319 0.598161
O O18 0.452280 0.250000 0.590530
O O19 0.250000 0.672987 0.196398
O O20 0.015584 0.750000 0.216276
O O21 0.017188 0.644720 0.127868
O O22 0.750000 0.131173 0.947227
O O23 0.904864 0.250000 0.948569
#
# Coordination Sequence:
#
# PCOD8246041 Si02
#       8
#     8   8   8   8   8   8   8   8
#     4   8  14  25  43  70 101 129 160 201 249 302
#     4  11  22  36  55  76 103 142 182 216 252 303
#     4  12  25  37  51  75 107 138 172 218 263 303
#     4   9  18  34  55  76 101 135 172 210 255 310
#     4   9  19  38  62  83 105 136 170 204 250 310
#     4   9  19  37  60  85 111 135 163 207 259 305
#     4   8  15  29  50  76 102 130 169 213 254 300
#     4   8  13  23  42  69 100 129 158 200 252 300
#
# _framework density 18.399726000000001
#
# number of rings (size 3 to 8) (size 9 to 14) (size 15 to 20)
#    0.000    2.750    0.000    4.500    0.000    4.250 
#    0.000    3.750    0.000    3.750    0.000    0.000 
#    0.000    0.000    0.000    0.000    0.000    0.000 
#
# Total GULP energy -793319.768889 kJ/mol
# GULP energy per Si atom -12395.621389 kJ/mol
# Density = 1.835785 g / cm^3
# Si number density = 18.399726 Si / 1000 Ang^3
#
#
#
# Elastic Constant Matrix: (Units=GPa)
#
#
# Indices 1 2 3 4 5 6 
#
# 1 94.8264 51.1931 64.9568 0.0000 0.0000 0.0000
# 2 51.1931 80.3079 64.7955 0.0000 0.0000 0.0000
# 3 64.9568 64.7955 142.2452 0.0000 0.0000 0.0000
# 4 0.0000 0.0000 0.0000 -0.6449 0.0000 0.0000
# 5 0.0000 0.0000 0.0000 0.0000 32.2473 0.0000
# 6 0.0000 0.0000 0.0000 0.0000 0.0000 11.3506
#
#
#
# Elastic Compliance Matrix: (Units=1/GPa)
#
#
# Indices 1 2 3 4 5 6 
#
# 1 0.017865 -0.007599 -0.004697 0.000000 0.000000 0.000000
# 2 -0.007599 0.022920 -0.006971 0.000000 0.000000 0.000000
# 3 -0.004697 -0.006971 0.012350 0.000000 0.000000 0.000000
# 4 0.000000 0.000000 0.000000 -1.550691 0.000000 0.000000
# 5 0.000000 0.000000 0.000000 0.000000 0.031010 0.000000
# 6 0.000000 0.000000 0.000000 0.000000 0.000000 0.088101
#
#
# Mechanical properties :
#
#
# Convention : Reuss Voigt Hill
#
# Bulk Modulus (GPa) = 68.47827 75.47445 71.97636
# Shear Modulus (GPa) = -3.74519 17.68622 6.97051
#
# Velocity S-wave (km/s) = -1.42824 3.10372 1.94849
# Velocity P-wave (km/s) = 5.88030 7.34524 6.65321
#
# Compressibility (1/GPa) = 0.01460317
#
# Stress axis : x y z
#
# Youngs Moduli (GPa) = 55.97459 43.62985 80.97071
#
# Poissons Ratio (x) = 0.33153 0.38031
# Poissons Ratio (y) = 0.42534 0.56441
# Poissons Ratio (z) = 0.26290 0.30412
#
# Static dielectric constant tensor:
#      x y z
#    x 3.341820 0.000000 0.000000 
#    y 0.000000 3.099820 0.000000 
#    z 0.000000 0.000000 3.687310 
# 
# 
# High freq. dielectric constant tensor:
#      x y z
#    x 1.695110 0.000000 0.000000 
#    y 0.000000 1.682230 0.000000 
#    z 0.000000 0.000000 1.733320 
# 
# From -- ./inp_files/29458.got.cif
#   From: 2010.03.12/outbox.cif.g09.slc.cpg/sg59_15_cif.got.tgz:29458.got - 2010.04.16 16:29:54.
