data_PCOD8246552
_publ_section_title
;
Structure prediction by ZEFSAII (Michael W. Deem and Ramdas Pophale) SiO2 
 PCOD8246552
Probable space group: P B C N
;
_chemical_formula_sum "Si O2"
_cell_formula_units_Z 56
_cell_length_a 9.171174
_cell_length_b 19.096621
_cell_length_c 16.907817
_cell_angle_alpha 90.000000
_cell_angle_beta 90.000000
_cell_angle_gamma 90.000000
_cell_volume 2961.208592
_symmetry_space_group_name_H-M "P B C N"
_symmetry_group_IT_number 60
_symmetry_cell_setting 'orthorhombic'
loop_
_space_group_symop_operation_xyz
x,y,z
1/2-x,1/2-y,1/2+z
1/2+x,1/2-y,-z
-x,y,1/2-z
-x,-y,-z
1/2+x,1/2+y,1/2-z
1/2-x,1/2+y,z
x,-y,1/2+z
loop_
_atom_site_type_symbol
_atom_site_label
_atom_site_fract_x
_atom_site_fract_y
_atom_site_fract_z
Si Si1 0.500000 0.468209 0.250000
Si Si2 0.403973 0.347216 0.521087
Si Si3 0.099272 0.707419 0.608007
Si Si4 0.500000 0.709325 0.250000
Si Si5 0.680927 0.047281 0.031676
Si Si6 0.098813 0.907165 0.851019
Si Si7 0.362762 0.606157 0.601895
Si Si8 0.105169 0.603329 0.966306
O O1 0.403291 0.518958 0.305253
O O2 0.599213 0.421151 0.309383
O O3 0.428382 0.265029 0.539564
O O4 0.454705 0.395991 0.594580
O O5 0.488326 0.370364 0.441501
O O6 0.231062 0.354670 0.510759
O O7 0.093257 0.742404 0.693070
O O8 0.258520 0.673619 0.603936
O O9 0.969071 0.650191 0.601844
O O10 0.383714 0.658533 0.292769
O O11 0.760854 0.096597 0.093960
O O12 0.521151 0.080644 0.027132
O O13 0.773579 0.047548 0.949017
O O14 0.674300 0.968762 0.066717
#
# Coordination Sequence:
#
# PCOD8246552 Si02
#       8
#     4   8   8   4   8   8   8   8
#     4  11  20  32  54  84 110 137 174 218 274 317
#     4  10  19  36  58  78 102 143 187 221 260 317
#     4  10  21  36  52  78 111 144 178 219 270 322
#     4   9  20  36  54  74 108 149 180 214 270 327
#     4   9  19  36  55  81 106 135 180 226 270 315
#     4   9  19  36  58  77 104 143 181 218 262 324
#     4  10  21  35  54  81 110 138 181 227 263 319
#     4  10  19  32  57  82 104 132 174 231 275 310
#
# _framework density 18.911197999999999
#
# number of rings (size 3 to 8) (size 9 to 14) (size 15 to 20)
#    0.000    2.286    0.000    2.571    0.000    5.714 
#    0.000    1.429    0.000   25.714    0.000    0.000 
#    0.000    0.000    0.000    0.000    0.000    0.000 
#
# Total GULP energy -694055.755819 kJ/mol
# GULP energy per Si atom -12393.852782 kJ/mol
# Density = 1.886815 g / cm^3
# Si number density = 18.911198 Si / 1000 Ang^3
#
#
#
# Elastic Constant Matrix: (Units=GPa)
#
#
# Indices 1 2 3 4 5 6 
#
# 1 101.4615 44.7207 46.4790 0.0000 0.0000 0.0000
# 2 44.7207 107.6927 54.1589 0.0000 0.0000 0.0000
# 3 46.4790 54.1589 105.4100 0.0000 0.0000 0.0000
# 4 0.0000 0.0000 0.0000 31.0406 0.0000 0.0000
# 5 0.0000 0.0000 0.0000 0.0000 16.9048 0.0000
# 6 0.0000 0.0000 0.0000 0.0000 0.0000 23.3826
#
#
#
# Elastic Compliance Matrix: (Units=1/GPa)
#
#
# Indices 1 2 3 4 5 6 
#
# 1 0.013240 -0.003455 -0.004063 0.000000 0.000000 0.000000
# 2 -0.003455 0.013422 -0.005373 0.000000 0.000000 0.000000
# 3 -0.004063 -0.005373 0.014039 0.000000 0.000000 0.000000
# 4 0.000000 0.000000 0.000000 0.032216 0.000000 0.000000
# 5 0.000000 0.000000 0.000000 0.000000 0.059155 0.000000
# 6 0.000000 0.000000 0.000000 0.000000 0.000000 0.042767
#
#
# Mechanical properties :
#
#
# Convention : Reuss Voigt Hill
#
# Bulk Modulus (GPa) = 67.02506 67.25350 67.13928
# Shear Modulus (GPa) = 24.31984 25.54596 24.93290
#
# Velocity S-wave (km/s) = 3.58998 3.67936 3.63494
# Velocity P-wave (km/s) = 7.25967 7.32736 7.29360
#
# Compressibility (1/GPa) = 0.01491979
#
# Stress axis : x y z
#
# Youngs Moduli (GPa) = 75.52930 74.50218 71.23089
#
# Poissons Ratio (x) = 0.25739 0.28940
# Poissons Ratio (y) = 0.26094 0.38272
# Poissons Ratio (z) = 0.30687 0.40030
#
# Static dielectric constant tensor:
#      x y z
#    x 3.370680 0.000000 0.000000 
#    y 0.000000 3.702440 0.000000 
#    z 0.000000 0.000000 3.445750 
# 
# 
# High freq. dielectric constant tensor:
#      x y z
#    x 1.727590 0.000000 0.000000 
#    y 0.000000 1.747530 0.000000 
#    z 0.000000 0.000000 1.719680 
# 
# From -- ./inp_files/19665.got.cif
#   From: 2010.03.12/outbox.cif.g09.slc.cpg/sg60_10_cif.got.tgz:19665.got - 2010.04.10 18:46:24.
