data_PCOD8246320
_publ_section_title
;
Structure prediction by ZEFSAII (Michael W. Deem and Ramdas Pophale) SiO2 
 PCOD8246320
Probable space group: P B C N
;
_chemical_formula_sum "Si O2"
_cell_formula_units_Z 64
_cell_length_a 8.113505
_cell_length_b 18.645072
_cell_length_c 23.218662
_cell_angle_alpha 90.000000
_cell_angle_beta 90.000000
_cell_angle_gamma 90.000000
_cell_volume 3512.446859
_symmetry_space_group_name_H-M "P B C N"
_symmetry_group_IT_number 60
_symmetry_cell_setting 'orthorhombic'
loop_
_space_group_symop_operation_xyz
x,y,z
1/2-x,1/2-y,1/2+z
1/2+x,1/2-y,-z
-x,y,1/2-z
-x,-y,-z
1/2+x,1/2+y,1/2-z
1/2-x,1/2+y,z
x,-y,1/2+z
loop_
_atom_site_type_symbol
_atom_site_label
_atom_site_fract_x
_atom_site_fract_y
_atom_site_fract_z
Si Si1 0.433714 0.909162 0.945562
Si Si2 0.885807 0.771266 0.701338
Si Si3 0.387934 0.930497 0.438103
Si Si4 0.139160 0.815880 0.440668
Si Si5 0.884638 0.322351 0.378040
Si Si6 0.440324 0.798615 0.850346
Si Si7 0.349087 0.302337 0.217792
Si Si8 0.703396 0.302657 0.492477
O O1 0.505219 0.861339 0.892677
O O2 0.376449 0.986126 0.921674
O O3 0.572403 0.919976 0.994119
O O4 0.277520 0.868906 0.972233
O O5 0.739380 0.821957 0.675947
O O6 0.793883 0.707360 0.735167
O O7 0.000000 0.811251 0.750000
O O8 0.995360 0.737190 0.650165
O O9 0.210267 0.894428 0.426792
O O10 0.522120 0.894714 0.396011
O O11 0.085243 0.777233 0.382516
O O12 0.286124 0.770172 0.470485
O O13 0.985971 0.821820 0.483539
O O14 0.735767 0.345109 0.334771
O O15 0.801042 0.287106 0.433686
O O16 0.578779 0.776455 0.803378
O O17 0.500000 0.344210 0.250000
#
# Coordination Sequence:
#
# PCOD8246320 Si02
#       8
#     8   8   8   8   8   8   8   8
#     4   9  21  35  50  77 111 145 173 204 255 324
#     4   9  18  30  50  79 102 123 168 227 270 299
#     4  10  20  35  51  75 114 142 174 207 252 323
#     4  11  19  31  51  79 105 132 178 218 256 310
#     4  10  17  31  52  77 105 137 168 214 273 305
#     4  10  17  32  53  80  99 135 170 219 262 311
#     4   9  18  30  50  80 102 125 169 232 267 298
#     4  10  20  30  51  78 108 136 175 215 257 313
#
# _framework density 18.220917
#
# number of rings (size 3 to 8) (size 9 to 14) (size 15 to 20)
#    0.000    2.250    2.500    2.250    1.750    0.500 
#    0.000    0.000    0.000    6.750    3.250    0.000 
#    0.000    0.000    0.000    0.000    0.000    0.000 
#
# Total GULP energy -793045.580482 kJ/mol
# GULP energy per Si atom -12391.337195 kJ/mol
# Density = 1.817945 g / cm^3
# Si number density = 18.220917 Si / 1000 Ang^3
#
#
#
# Elastic Constant Matrix: (Units=GPa)
#
#
# Indices 1 2 3 4 5 6 
#
# 1 81.0888 16.0735 13.7643 0.0000 0.0000 0.0000
# 2 16.0735 77.6352 22.2362 0.0000 0.0000 0.0000
# 3 13.7643 22.2362 70.2911 0.0000 0.0000 0.0000
# 4 0.0000 0.0000 0.0000 14.6903 0.0000 0.0000
# 5 0.0000 0.0000 0.0000 0.0000 34.8043 0.0000
# 6 0.0000 0.0000 0.0000 0.0000 0.0000 14.2173
#
#
#
# Elastic Compliance Matrix: (Units=1/GPa)
#
#
# Indices 1 2 3 4 5 6 
#
# 1 0.013081 -0.002171 -0.001875 0.000000 0.000000 0.000000
# 2 -0.002171 0.014525 -0.004170 0.000000 0.000000 0.000000
# 3 -0.001875 -0.004170 0.015913 0.000000 0.000000 0.000000
# 4 0.000000 0.000000 0.000000 0.068072 0.000000 0.000000
# 5 0.000000 0.000000 0.000000 0.000000 0.028732 0.000000
# 6 0.000000 0.000000 0.000000 0.000000 0.000000 0.070337
#
#
# Mechanical properties :
#
#
# Convention : Reuss Voigt Hill
#
# Bulk Modulus (GPa) = 36.91804 37.01812 36.96808
# Shear Modulus (GPa) = 21.17577 24.53846 22.85712
#
# Velocity S-wave (km/s) = 3.41276 3.67375 3.54566
# Velocity P-wave (km/s) = 5.98620 6.19319 6.09057
#
# Compressibility (1/GPa) = 0.02708703
#
# Stress axis : x y z
#
# Youngs Moduli (GPa) = 76.44817 68.84894 62.84304
#
# Poissons Ratio (x) = 0.14949 0.11780
# Poissons Ratio (y) = 0.16599 0.26203
# Poissons Ratio (z) = 0.14331 0.28707
#
# Static dielectric constant tensor:
#      x y z
#    x 3.624780 0.000000 0.000000 
#    y 0.000000 2.945260 0.000000 
#    z 0.000000 0.000000 3.705920 
# 
# 
# High freq. dielectric constant tensor:
#      x y z
#    x 1.717880 0.000000 0.000000 
#    y 0.000000 1.638550 0.000000 
#    z 0.000000 0.000000 1.723590 
# 
# From -- ./inp_files/24158.got.cif
#   From: 2010.03.12/outbox.cif.g09.slc.cpg/sg60_13_cif.got.tgz:24158.got - 2010.04.10 18:46:24.
