data_PCOD8246476
_publ_section_title
;
Structure prediction by ZEFSAII (Michael W. Deem and Ramdas Pophale) SiO2 
 PCOD8246476
Probable space group: P B C N
;
_chemical_formula_sum "Si O2"
_cell_formula_units_Z 64
_cell_length_a 14.792391
_cell_length_b 11.413117
_cell_length_c 17.265042
_cell_angle_alpha 90.000000
_cell_angle_beta 90.000000
_cell_angle_gamma 90.000000
_cell_volume 2914.810239
_symmetry_space_group_name_H-M "P B C N"
_symmetry_group_IT_number 60
_symmetry_cell_setting 'orthorhombic'
loop_
_space_group_symop_operation_xyz
x,y,z
1/2-x,1/2-y,1/2+z
1/2+x,1/2-y,-z
-x,y,1/2-z
-x,-y,-z
1/2+x,1/2+y,1/2-z
1/2-x,1/2+y,z
x,-y,1/2+z
loop_
_atom_site_type_symbol
_atom_site_label
_atom_site_fract_x
_atom_site_fract_y
_atom_site_fract_z
Si Si1 0.365207 0.659058 0.847019
Si Si2 0.987373 0.383795 0.101226
Si Si3 0.252951 0.356908 0.019868
Si Si4 0.397586 0.544210 0.002283
Si Si5 0.937873 0.367843 0.560562
Si Si6 0.359480 0.723826 0.127409
Si Si7 0.897349 0.064458 0.236376
Si Si8 0.319856 0.254846 0.871411
O O1 0.433663 0.761830 0.876110
O O2 0.393397 0.578012 0.772736
O O3 0.268982 0.714781 0.824571
O O4 0.358522 0.568307 0.917590
O O5 0.069429 0.326511 0.151334
O O6 0.983193 0.524307 0.106804
O O7 0.895005 0.342690 0.140437
O O8 0.995908 0.340786 0.011578
O O9 0.325134 0.456934 0.041749
O O10 0.232483 0.289034 0.100619
O O11 0.160682 0.401525 0.976719
O O12 0.299412 0.265203 0.962119
O O13 0.400491 0.663300 0.050775
O O14 0.500000 0.500000 0.000000
O O15 0.342094 0.624568 0.192551
O O16 0.856786 0.120793 0.158776
O O17 0.000000 0.102032 0.250000
#
# Coordination Sequence:
#
# PCOD8246476 Si02
#       8
#     8   8   8   8   8   8   8   8
#     4  11  23  40  66 100 136 184 239 281 354 437
#     4  10  18  36  64  98 132 168 223 286 347 414
#     4  10  21  37  62  99 132 173 230 288 345 421
#     4  12  21  38  65 101 134 177 233 295 352 423
#     4   9  20  35  63 101 132 169 227 289 340 415
#     4  11  23  41  61 103 137 171 237 298 357 421
#     4  12  25  44  68  99 140 189 233 295 367 438
#     4  11  21  38  70  93 126 185 230 278 354 426
#
# _framework density 21.956831999999999
#
# number of rings (size 3 to 8) (size 9 to 14) (size 15 to 20)
#    0.000    1.250    6.250    2.250    1.750    1.000 
#    0.000    0.000    2.750    0.000    0.000    0.000 
#    0.000    0.000    0.000    0.000    0.000    0.000 
#
# Total GULP energy -792960.990845 kJ/mol
# GULP energy per Si atom -12390.015482 kJ/mol
# Density = 2.190686 g / cm^3
# Si number density = 21.956832 Si / 1000 Ang^3
#
#
#
# Elastic Constant Matrix: (Units=GPa)
#
#
# Indices 1 2 3 4 5 6 
#
# 1 94.1000 45.5088 21.3282 0.0000 0.0000 0.0000
# 2 45.5088 141.3261 44.2134 0.0000 0.0000 0.0000
# 3 21.3282 44.2134 57.0391 0.0000 0.0000 0.0000
# 4 0.0000 0.0000 0.0000 47.0603 0.0000 0.0000
# 5 0.0000 0.0000 0.0000 0.0000 16.4742 0.0000
# 6 0.0000 0.0000 0.0000 0.0000 0.0000 37.9034
#
#
#
# Elastic Compliance Matrix: (Units=1/GPa)
#
#
# Indices 1 2 3 4 5 6 
#
# 1 0.012774 -0.003458 -0.002096 0.000000 0.000000 0.000000
# 2 -0.003458 0.010277 -0.006673 0.000000 0.000000 0.000000
# 3 -0.002096 -0.006673 0.023488 0.000000 0.000000 0.000000
# 4 0.000000 0.000000 0.000000 0.021249 0.000000 0.000000
# 5 0.000000 0.000000 0.000000 0.000000 0.060701 0.000000
# 6 0.000000 0.000000 0.000000 0.000000 0.000000 0.026383
#
#
# Mechanical properties :
#
#
# Convention : Reuss Voigt Hill
#
# Bulk Modulus (GPa) = 45.27934 57.17400 51.22667
# Shear Modulus (GPa) = 26.78246 32.38188 29.58217
#
# Velocity S-wave (km/s) = 3.49632 3.84448 3.67452
# Velocity P-wave (km/s) = 6.07995 6.76775 6.43305
#
# Compressibility (1/GPa) = 0.02208513
#
# Stress axis : x y z
#
# Youngs Moduli (GPa) = 78.28188 97.30542 42.57416
#
# Poissons Ratio (x) = 0.33645 0.08926
# Poissons Ratio (y) = 0.27067 0.28411
# Poissons Ratio (z) = 0.16412 0.64934
#
# Static dielectric constant tensor:
#      x y z
#    x 3.677500 0.000000 0.000000 
#    y 0.000000 4.113310 0.000000 
#    z 0.000000 0.000000 3.931080 
# 
# 
# High freq. dielectric constant tensor:
#      x y z
#    x 1.854700 0.000000 0.000000 
#    y 0.000000 1.872460 0.000000 
#    z 0.000000 0.000000 1.826120 
# 
# From -- ./inp_files/20650.got.cif
#   From: 2010.03.12/outbox.cif.g09.slc.cpg/sg60_11_cif.got.tgz:20650.got - 2010.04.10 18:46:24.
