data_PCOD8246341
_publ_section_title
;
Structure prediction by ZEFSAII (Michael W. Deem and Ramdas Pophale) SiO2 
 PCOD8246341
Probable space group: P B C N
;
_chemical_formula_sum "Si O2"
_cell_formula_units_Z 44
_cell_length_a 6.496783
_cell_length_b 22.661403
_cell_length_c 15.159934
_cell_angle_alpha 90.000000
_cell_angle_beta 90.000000
_cell_angle_gamma 90.000000
_cell_volume 2231.939744
_symmetry_space_group_name_H-M "P B C N"
_symmetry_group_IT_number 60
_symmetry_cell_setting 'orthorhombic'
loop_
_space_group_symop_operation_xyz
x,y,z
1/2-x,1/2-y,1/2+z
1/2+x,1/2-y,-z
-x,y,1/2-z
-x,-y,-z
1/2+x,1/2+y,1/2-z
1/2-x,1/2+y,z
x,-y,1/2+z
loop_
_atom_site_type_symbol
_atom_site_label
_atom_site_fract_x
_atom_site_fract_y
_atom_site_fract_z
Si Si1 0.387576 0.449351 0.901722
Si Si2 0.256400 0.695728 0.105263
Si Si3 0.418317 0.313366 0.050555
Si Si4 0.500000 0.636796 0.250000
Si Si5 0.458493 0.113550 0.489708
Si Si6 0.349774 0.577133 0.931043
O O1 0.386757 0.406216 0.818558
O O2 0.168507 0.441184 0.950217
O O3 0.402403 0.518521 0.874299
O O4 0.572779 0.432311 0.967562
O O5 0.121463 0.755675 0.109562
O O6 0.342037 0.680847 0.201987
O O7 0.106405 0.642149 0.082640
O O8 0.442182 0.702374 0.034635
O O9 0.533047 0.364976 0.107332
O O10 0.194719 0.336121 0.022908
O O11 0.604268 0.088808 0.568312
#
# Coordination Sequence:
#
# PCOD8246341 Si02
#       6
#     8   8   8   4   8   8
#     4  10  20  35  56  85 119 145 195 247 301 350
#     4  11  21  35  58  91 122 151 202 251 300 359
#     4  10  19  35  60  83 115 161 202 233 288 377
#     4  12  22  38  56  94 124 150 196 274 306 334
#     4  10  17  34  59  84 109 156 200 236 290 348
#     4   9  19  36  58  84 109 156 199 239 287 370
#
# _framework density 19.713792999999999
#
# number of rings (size 3 to 8) (size 9 to 14) (size 15 to 20)
#    0.000    1.818    7.273    0.545    0.000    0.727 
#    0.000    0.000    4.000    0.000    0.000    0.000 
#    0.000    0.000    0.000    0.000    0.000    0.000 
#
# Total GULP energy -545282.347135 kJ/mol
# GULP energy per Si atom -12392.780617 kJ/mol
# Density = 1.966892 g / cm^3
# Si number density = 19.713793 Si / 1000 Ang^3
#
#
#
# Elastic Constant Matrix: (Units=GPa)
#
#
# Indices 1 2 3 4 5 6 
#
# 1 105.6559 34.4360 12.9567 0.0000 0.0000 0.0000
# 2 34.4360 152.0338 31.3505 0.0000 0.0000 0.0000
# 3 12.9567 31.3505 46.3060 0.0000 0.0000 0.0000
# 4 0.0000 0.0000 0.0000 32.0021 0.0000 0.0000
# 5 0.0000 0.0000 0.0000 0.0000 14.6379 0.0000
# 6 0.0000 0.0000 0.0000 0.0000 0.0000 27.8432
#
#
#
# Elastic Compliance Matrix: (Units=1/GPa)
#
#
# Indices 1 2 3 4 5 6 
#
# 1 0.010310 -0.002023 -0.001515 0.000000 0.000000 0.000000
# 2 -0.002023 0.008042 -0.004878 0.000000 0.000000 0.000000
# 3 -0.001515 -0.004878 0.025322 0.000000 0.000000 0.000000
# 4 0.000000 0.000000 0.000000 0.031248 0.000000 0.000000
# 5 0.000000 0.000000 0.000000 0.000000 0.068316 0.000000
# 6 0.000000 0.000000 0.000000 0.000000 0.000000 0.035915
#
#
# Mechanical properties :
#
#
# Convention : Reuss Voigt Hill
#
# Bulk Modulus (GPa) = 37.25674 51.27579 44.26627
# Shear Modulus (GPa) = 24.39827 29.91348 27.15588
#
# Velocity S-wave (km/s) = 3.52181 3.89959 3.71550
# Velocity P-wave (km/s) = 5.95628 6.80752 6.39608
#
# Compressibility (1/GPa) = 0.02684078
#
# Stress axis : x y z
#
# Youngs Moduli (GPa) = 96.99546 124.35335 39.49087
#
# Poissons Ratio (x) = 0.25153 0.05984
# Poissons Ratio (y) = 0.19619 0.19265
# Poissons Ratio (z) = 0.14698 0.60665
#
# Static dielectric constant tensor:
#      x y z
#    x 3.803300 0.000000 0.000000 
#    y 0.000000 3.997350 0.000000 
#    z 0.000000 0.000000 2.977660 
# 
# 
# High freq. dielectric constant tensor:
#      x y z
#    x 1.783180 0.000000 0.000000 
#    y 0.000000 1.792260 0.000000 
#    z 0.000000 0.000000 1.692790 
# 
# From -- ./inp_files/18656.got.cif
#   From: 2010.03.12/outbox.cif.g09.slc.cpg/sg60_10_cif.got.tgz:18656.got - 2010.04.10 18:46:24.
