data_PCOD8246775
_publ_section_title
;
Structure prediction by ZEFSAII (Michael W. Deem and Ramdas Pophale) SiO2 
 PCOD8246775
Probable space group: P B C N
;
_chemical_formula_sum "Si O2"
_cell_formula_units_Z 40
_cell_length_a 8.752847
_cell_length_b 13.884938
_cell_length_c 13.903977
_cell_angle_alpha 90.000000
_cell_angle_beta 90.000000
_cell_angle_gamma 90.000000
_cell_volume 1689.788393
_symmetry_space_group_name_H-M "P B C N"
_symmetry_group_IT_number 60
_symmetry_cell_setting 'orthorhombic'
loop_
_space_group_symop_operation_xyz
x,y,z
1/2-x,1/2-y,1/2+z
1/2+x,1/2-y,-z
-x,y,1/2-z
-x,-y,-z
1/2+x,1/2+y,1/2-z
1/2-x,1/2+y,z
x,-y,1/2+z
loop_
_atom_site_type_symbol
_atom_site_label
_atom_site_fract_x
_atom_site_fract_y
_atom_site_fract_z
Si Si1 0.749927 0.003301 0.508171
Si Si2 0.177591 0.179896 0.393447
Si Si3 0.354696 0.290508 0.541496
Si Si4 0.357637 0.190165 0.205246
Si Si5 0.527316 0.017431 0.853631
O O1 0.849310 0.094770 0.476786
O O2 0.675582 0.948775 0.414529
O O3 0.853475 0.925842 0.562715
O O4 0.619577 0.038339 0.581711
O O5 0.322157 0.232363 0.443987
O O6 0.221736 0.169107 0.281772
O O7 0.019508 0.237756 0.412797
O O8 0.222979 0.257092 0.616427
O O9 0.500000 0.252495 0.250000
O O10 0.444299 0.095574 0.165182
O O11 0.500000 0.070127 0.750000
#
# Coordination Sequence:
#
# PCOD8246775 Si02
#       5
#     8   8   8   8   8
#     4  10  21  39  66  91 127 170 213 268 318 385
#     4  12  23  43  65  92 133 172 214 271 324 383
#     4  11  26  40  64  98 127 170 223 263 323 385
#     4  10  19  41  66  92 123 167 206 268 324 382
#     4   9  17  35  67  93 120 164 212 257 328 375
#
# _framework density 23.671603000000001
#
# number of rings (size 3 to 8) (size 9 to 14) (size 15 to 20)
#    0.000    1.600    4.000    2.400    5.600    0.000 
#    3.600    0.000    0.000    0.000    0.000    0.000 
#    0.000    0.000    0.000    0.000    0.000    0.000 
#
# Total GULP energy -495674.265878 kJ/mol
# GULP energy per Si atom -12391.856647 kJ/mol
# Density = 2.361773 g / cm^3
# Si number density = 23.671603 Si / 1000 Ang^3
#
#
#
# Elastic Constant Matrix: (Units=GPa)
#
#
# Indices 1 2 3 4 5 6 
#
# 1 71.2592 4.0177 -0.7390 0.0000 0.0000 0.0000
# 2 4.0177 21.3938 0.7204 0.0000 0.0000 0.0000
# 3 -0.7390 0.7204 109.5693 0.0000 0.0000 0.0000
# 4 0.0000 0.0000 0.0000 20.8680 0.0000 0.0000
# 5 0.0000 0.0000 0.0000 0.0000 36.5822 0.0000
# 6 0.0000 0.0000 0.0000 0.0000 0.0000 27.7709
#
#
#
# Elastic Compliance Matrix: (Units=1/GPa)
#
#
# Indices 1 2 3 4 5 6 
#
# 1 0.014185 -0.002668 0.000113 0.000000 0.000000 0.000000
# 2 -0.002668 0.047254 -0.000329 0.000000 0.000000 0.000000
# 3 0.000113 -0.000329 0.009130 0.000000 0.000000 0.000000
# 4 0.000000 0.000000 0.000000 0.047920 0.000000 0.000000
# 5 0.000000 0.000000 0.000000 0.000000 0.027336 0.000000
# 6 0.000000 0.000000 0.000000 0.000000 0.000000 0.036009
#
#
# Mechanical properties :
#
#
# Convention : Reuss Voigt Hill
#
# Bulk Modulus (GPa) = 15.43149 23.35785 19.39467
# Shear Modulus (GPa) = 23.90047 30.25911 27.07979
#
# Velocity S-wave (km/s) = 3.18098 3.57919 3.38594
# Velocity P-wave (km/s) = 4.47489 5.19324 4.84739
#
# Compressibility (1/GPa) = 0.06480255
#
# Stress axis : x y z
#
# Youngs Moduli (GPa) = 70.49773 21.16201 109.53421
#
# Poissons Ratio (x) = 0.05645 -0.01240
# Poissons Ratio (y) = 0.18807 0.03600
# Poissons Ratio (z) = -0.00798 0.00696
#
# Static dielectric constant tensor:
#      x y z
#    x 4.331200 0.000000 0.000000 
#    y 0.000000 3.669200 0.000000 
#    z 0.000000 0.000000 4.818150 
# 
# 
# High freq. dielectric constant tensor:
#      x y z
#    x 1.937710 0.000000 0.000000 
#    y 0.000000 1.891050 0.000000 
#    z 0.000000 0.000000 1.956040 
# 
# From -- ./inp_files/14808.got.cif
#   From: 2010.03.12/outbox.cif.g09.slc.cpg/sg60_8_cif.got.tgz:14808.got - 2010.04.10 18:46:24.
