data_PCOD8246253
_publ_section_title
;
Structure prediction by ZEFSAII (Michael W. Deem and Ramdas Pophale) SiO2 
 PCOD8246253
Probable space group: P M M N
;
_chemical_formula_sum "Si O2"
_cell_formula_units_Z 64
_cell_length_a 9.000000
_cell_length_b 30.000000
_cell_length_c 12.000000
_cell_angle_alpha 90.000000
_cell_angle_beta 90.000000
_cell_angle_gamma 90.000000
_cell_volume 3240.000000
_symmetry_space_group_name_H-M "P M M N"
_symmetry_group_IT_number 59
_space_group.IT_coordinate_system_code '2'
_symmetry_cell_setting 'orthorhombic'
loop_
_space_group_symop_operation_xyz
x,y,z
1/2-x,1/2-y,z
1/2+x,-y,-z
-x,1/2+y,-z
-x,-y,-z
1/2+x,1/2+y,-z
1/2-x,y,z
x,1/2-y,z
loop_
_atom_site_type_symbol
_atom_site_label
_atom_site_fract_x
_atom_site_fract_y
_atom_site_fract_z
Si Si1 0.583054 0.200318 0.977407
Si Si2 0.926410 0.044348 0.957414
Si Si3 0.577557 0.920662 0.249729
Si Si4 0.575367 0.622621 0.906079
Si Si5 0.580410 0.331140 0.739315
Si Si6 0.923128 0.199581 0.495742
Si Si7 0.077303 0.453164 0.506103
Si Si8 0.925232 0.874796 0.648941
O O1 0.750000 0.183661 0.007178
O O2 0.556935 0.250000 0.022731
O O3 0.462818 0.169733 0.038400
O O4 0.565384 0.202256 0.843237
O O5 0.750000 0.041249 0.963758
O O6 0.977545 0.048830 0.829753
O O7 0.982214 0.085103 0.031686
O O8 0.000000 0.000000 0.000000
O O9 0.750000 0.927770 0.220385
O O10 0.533444 0.869961 0.230081
O O11 0.539030 0.931815 0.375959
O O12 0.750000 0.612858 0.918802
O O13 0.526102 0.623413 0.777236
O O14 0.750000 0.349121 0.729247
O O15 0.530452 0.308085 0.624414
O O16 0.750000 0.190441 0.480401
O O17 0.965148 0.250000 0.464309
O O18 0.008586 0.168240 0.410589
O O19 0.250000 0.461458 0.489629
O O20 0.015903 0.419738 0.411219
O O21 0.000000 0.500000 0.500000
O O22 0.750000 0.871242 0.635322
#
# Coordination Sequence:
#
# PCOD8246253 Si02
#       8
#     8   8   8   8   8   8   8   8
#     4  10  21  38  61  89 122 161 204 251 307 366
#     4  12  26  44  66  93 125 160 202 249 304 365
#     4  11  22  39  64  94 126 158 198 251 302 359
#     4  11  24  42  63  88 122 162 207 256 305 362
#     4  10  19  35  60  90 123 160 199 249 306 360
#     4  10  21  37  60  91 123 158 204 253 302 361
#     4  10  23  41  62  90 122 157 201 248 299 357
#     4  10  23  43  61  84 120 162 203 250 304 358
#
# _framework density 19.753086
#
# number of rings (size 3 to 8) (size 9 to 14) (size 15 to 20)
#    0.000    1.500    2.500    2.250    1.750    5.000 
#    0.000    2.500    0.000    2.250    0.000    0.000 
#    0.000    0.000    0.000    0.000    0.000    0.000 
#
# Total GULP energy -793718.248606 kJ/mol
# GULP energy per Si atom -12401.847634 kJ/mol
# Density = 1.970813 g / cm^3
# Si number density = 19.753086 Si / 1000 Ang^3
#
#
#
# Elastic Constant Matrix: (Units=GPa)
#
#
# Indices 1 2 3 4 5 6 
#
# 1 78.6160 32.4421 40.8673 0.0000 0.0000 0.0000
# 2 32.4421 91.0507 20.7901 0.0000 0.0000 0.0000
# 3 40.8673 20.7901 98.7309 0.0000 0.0000 0.0000
# 4 0.0000 0.0000 0.0000 19.5458 0.0000 0.0000
# 5 0.0000 0.0000 0.0000 0.0000 32.5005 0.0000
# 6 0.0000 0.0000 0.0000 0.0000 0.0000 36.1393
#
#
#
# Elastic Compliance Matrix: (Units=1/GPa)
#
#
# Indices 1 2 3 4 5 6 
#
# 1 0.018134 -0.004987 -0.006456 0.000000 0.000000 0.000000
# 2 -0.004987 0.012909 -0.000654 0.000000 0.000000 0.000000
# 3 -0.006456 -0.000654 0.012939 0.000000 0.000000 0.000000
# 4 0.000000 0.000000 0.000000 0.051162 0.000000 0.000000
# 5 0.000000 0.000000 0.000000 0.000000 0.030769 0.000000
# 6 0.000000 0.000000 0.000000 0.000000 0.000000 0.027671
#
#
# Mechanical properties :
#
#
# Convention : Reuss Voigt Hill
#
# Bulk Modulus (GPa) = 50.53703 50.73295 50.63499
# Shear Modulus (GPa) = 27.11883 29.25698 28.18791
#
# Velocity S-wave (km/s) = 3.70927 3.85273 3.78168
# Velocity P-wave (km/s) = 6.63211 6.74764 6.69012
#
# Compressibility (1/GPa) = 0.01978747
#
# Stress axis : x y z
#
# Youngs Moduli (GPa) = 55.14445 77.46408 77.28822
#
# Poissons Ratio (x) = 0.38633 0.49898
# Poissons Ratio (y) = 0.27502 0.05055
# Poissons Ratio (z) = 0.35601 0.05066
#
# Static dielectric constant tensor:
#      x y z
#    x 3.606750 0.000000 0.000000 
#    y 0.000000 4.365600 0.000000 
#    z 0.000000 0.000000 4.242910 
# 
# 
# High freq. dielectric constant tensor:
#      x y z
#    x 1.766590 0.000000 0.000000 
#    y 0.000000 1.771150 0.000000 
#    z 0.000000 0.000000 1.781720 
# 
# From -- ./inp_files/14947.got.cif
#   From: 2010.03.12/outbox.ucp.g09.slc.cvg/sg59_8_cif.got.tgz:14947.got - 2010.05.04 19:30:51.
