data_PCOD8246443
_publ_section_title
;
Structure prediction by ZEFSAII (Michael W. Deem and Ramdas Pophale) SiO2 
 PCOD8246443
Probable space group: P B C N
;
_chemical_formula_sum "Si O2"
_cell_formula_units_Z 52
_cell_length_a 10.464877
_cell_length_b 16.448527
_cell_length_c 14.927072
_cell_angle_alpha 90.000000
_cell_angle_beta 90.000000
_cell_angle_gamma 90.000000
_cell_volume 2569.423950
_symmetry_space_group_name_H-M "P B C N"
_symmetry_group_IT_number 60
_symmetry_cell_setting 'orthorhombic'
loop_
_space_group_symop_operation_xyz
x,y,z
1/2-x,1/2-y,1/2+z
1/2+x,1/2-y,-z
-x,y,1/2-z
-x,-y,-z
1/2+x,1/2+y,1/2-z
1/2-x,1/2+y,z
x,-y,1/2+z
loop_
_atom_site_type_symbol
_atom_site_label
_atom_site_fract_x
_atom_site_fract_y
_atom_site_fract_z
Si Si1 0.000000 0.456069 0.750000
Si Si2 0.158931 0.613716 0.594123
Si Si3 0.000000 0.695792 0.750000
Si Si4 0.500000 0.415541 0.250000
Si Si5 0.236308 0.014115 0.214579
Si Si6 0.108030 0.213030 0.630725
Si Si7 0.563243 0.148358 0.091455
Si Si8 0.763514 0.191914 0.230083
O O1 0.869110 0.504586 0.731682
O O2 0.024337 0.403383 0.660003
O O3 0.056738 0.639289 0.670925
O O4 0.235936 0.530613 0.619143
O O5 0.264044 0.684922 0.578740
O O6 0.084263 0.600684 0.501371
O O7 0.110747 0.754955 0.787778
O O8 0.623109 0.471429 0.231015
O O9 0.478036 0.363393 0.160547
O O10 0.206187 0.110646 0.210467
O O11 0.153313 0.256364 0.722031
O O12 0.018879 0.270342 0.569846
O O13 0.702034 0.166274 0.135141
#
# Coordination Sequence:
#
# PCOD8246443 Si02
#       8
#     4   8   4   4   8   8   8   8
#     4  10  20  38  62  82 122 158 206 236 312 360
#     4  10  24  34  60  89 124 145 205 253 302 338
#     4  10  22  40  57  93 120 152 192 262 292 350
#     4  10  18  34  63  81 118 154 200 246 298 340
#     4  10  20  37  57  89 114 160 196 251 287 363
#     4  10  18  38  57  84 112 160 194 242 295 369
#     4  11  19  37  61  87 113 164 196 244 290 378
#     4  10  19  37  64  80 118 160 200 230 308 362
#
# _framework density 20.238
#
# number of rings (size 3 to 8) (size 9 to 14) (size 15 to 20)
#    0.000    1.846    4.615    0.923    2.154    0.615 
#    0.000    0.000   10.154    8.308    0.000    0.000 
#    0.000    0.000    0.000    0.000    0.000    0.000 
#
# Total GULP energy -644239.161828 kJ/mol
# GULP energy per Si atom -12389.214651 kJ/mol
# Density = 2.019194 g / cm^3
# Si number density = 20.238000 Si / 1000 Ang^3
#
#
#
# Elastic Constant Matrix: (Units=GPa)
#
#
# Indices 1 2 3 4 5 6 
#
# 1 119.5199 35.3035 25.1758 0.0000 0.0000 0.0000
# 2 35.3035 83.1315 29.3072 0.0000 0.0000 0.0000
# 3 25.1758 29.3072 95.1264 0.0000 0.0000 0.0000
# 4 0.0000 0.0000 0.0000 10.6504 0.0000 0.0000
# 5 0.0000 0.0000 0.0000 0.0000 23.3934 0.0000
# 6 0.0000 0.0000 0.0000 0.0000 0.0000 37.9805
#
#
#
# Elastic Compliance Matrix: (Units=1/GPa)
#
#
# Indices 1 2 3 4 5 6 
#
# 1 0.009745 -0.003623 -0.001463 0.000000 0.000000 0.000000
# 2 -0.003623 0.014842 -0.003614 0.000000 0.000000 0.000000
# 3 -0.001463 -0.003614 0.012013 0.000000 0.000000 0.000000
# 4 0.000000 0.000000 0.000000 0.093893 0.000000 0.000000
# 5 0.000000 0.000000 0.000000 0.000000 0.042747 0.000000
# 6 0.000000 0.000000 0.000000 0.000000 0.000000 0.026329
#
#
# Mechanical properties :
#
#
# Convention : Reuss Voigt Hill
#
# Bulk Modulus (GPa) = 52.08147 53.03897 52.56022
# Shear Modulus (GPa) = 22.38460 28.27095 25.32777
#
# Velocity S-wave (km/s) = 3.32937 3.74160 3.54149
# Velocity P-wave (km/s) = 6.36945 6.70303 6.53837
#
# Compressibility (1/GPa) = 0.01920069
#
# Stress axis : x y z
#
# Youngs Moduli (GPa) = 102.61644 67.37840 83.24411
#
# Poissons Ratio (x) = 0.24409 0.12179
# Poissons Ratio (y) = 0.37174 0.30082
# Poissons Ratio (z) = 0.15013 0.24349
#
# Static dielectric constant tensor:
#      x y z
#    x 3.844990 0.000000 0.000000 
#    y 0.000000 3.927390 0.000000 
#    z 0.000000 0.000000 3.137770 
# 
# 
# High freq. dielectric constant tensor:
#      x y z
#    x 1.807680 0.000000 0.000000 
#    y 0.000000 1.799590 0.000000 
#    z 0.000000 0.000000 1.735590 
# 
# From -- ./inp_files/16317.got.cif
#   From: 2010.03.12/outbox.cif.g09.slc.cpg/sg60_9_cif.got.tgz:16317.got - 2010.04.10 18:46:24.
