data_PCOD8246579
_publ_section_title
;
Structure prediction by ZEFSAII (Michael W. Deem and Ramdas Pophale) SiO2 
 PCOD8246579
Probable space group: P B C N
;
_chemical_formula_sum "Si O2"
_cell_formula_units_Z 56
_cell_length_a 16.014412
_cell_length_b 5.201078
_cell_length_c 25.907934
_cell_angle_alpha 90.000000
_cell_angle_beta 90.000000
_cell_angle_gamma 90.000000
_cell_volume 2157.928974
_symmetry_space_group_name_H-M "P B C N"
_symmetry_group_IT_number 60
_symmetry_cell_setting 'orthorhombic'
loop_
_space_group_symop_operation_xyz
x,y,z
1/2-x,1/2-y,1/2+z
1/2+x,1/2-y,-z
-x,y,1/2-z
-x,-y,-z
1/2+x,1/2+y,1/2-z
1/2-x,1/2+y,z
x,-y,1/2+z
loop_
_atom_site_type_symbol
_atom_site_label
_atom_site_fract_x
_atom_site_fract_y
_atom_site_fract_z
Si Si1 0.974875 0.249198 0.032450
Si Si2 0.794628 0.340210 0.744842
Si Si3 0.701810 0.131864 0.511894
Si Si4 0.058112 0.688340 0.184926
Si Si5 0.525032 0.299364 0.648487
Si Si6 0.281696 0.350168 0.866291
Si Si7 0.199460 0.308099 0.604242
O O1 0.012839 0.227016 0.090201
O O2 0.876049 0.269281 0.046325
O O3 0.000000 0.500000 0.000000
O O4 0.000000 0.000000 0.000000
O O5 0.754264 0.597060 0.769551
O O6 0.893092 0.320917 0.759867
O O7 0.781343 0.339319 0.683140
O O8 0.776971 0.333165 0.521031
O O9 0.666888 0.162331 0.453901
O O10 0.123535 0.625897 0.140690
O O11 0.989717 0.461296 0.180819
O O12 0.017728 0.966399 0.178209
O O13 0.623446 0.360548 0.650637
O O14 0.247637 0.597645 0.899017
O O15 0.271679 0.516723 0.614678
#
# Coordination Sequence:
#
# PCOD8246579 Si02
#       7
#     8   8   8   8   8   8   8
#     4  12  25  43  65  93 136 179 218 275 340 390
#     4  10  21  42  68  96 132 173 215 262 332 400
#     4  10  21  36  57  86 117 160 215 262 308 372
#     4  12  23  40  64  99 132 169 217 272 334 394
#     4  12  26  42  67  99 131 173 224 277 329 395
#     4  10  23  46  69  95 132 174 217 272 332 398
#     4  10  19  33  56  86 123 164 208 258 312 377
#
# _framework density 25.950810000000001
#
# number of rings (size 3 to 8) (size 9 to 14) (size 15 to 20)
#    0.000    1.143    0.000    6.857    0.000    3.429 
#    0.000   17.143    0.000    0.000    0.000    0.000 
#    0.000    0.000    0.000    0.000    0.000    0.000 
#
# Total GULP energy -694396.678884 kJ/mol
# GULP energy per Si atom -12399.940694 kJ/mol
# Density = 2.589174 g / cm^3
# Si number density = 25.950810 Si / 1000 Ang^3
#
#
#
# Elastic Constant Matrix: (Units=GPa)
#
#
# Indices 1 2 3 4 5 6 
#
# 1 77.3714 27.0093 3.7808 0.0000 0.0000 0.0000
# 2 27.0093 199.6766 22.9670 0.0000 0.0000 0.0000
# 3 3.7808 22.9670 108.6430 0.0000 0.0000 0.0000
# 4 0.0000 0.0000 0.0000 15.9068 0.0000 0.0000
# 5 0.0000 0.0000 0.0000 0.0000 31.9508 0.0000
# 6 0.0000 0.0000 0.0000 0.0000 0.0000 46.3350
#
#
#
# Elastic Compliance Matrix: (Units=1/GPa)
#
#
# Indices 1 2 3 4 5 6 
#
# 1 0.013566 -0.001825 -0.000086 0.000000 0.000000 0.000000
# 2 -0.001825 0.005378 -0.001073 0.000000 0.000000 0.000000
# 3 -0.000086 -0.001073 0.009434 0.000000 0.000000 0.000000
# 4 0.000000 0.000000 0.000000 0.062866 0.000000 0.000000
# 5 0.000000 0.000000 0.000000 0.000000 0.031298 0.000000
# 6 0.000000 0.000000 0.000000 0.000000 0.000000 0.021582
#
#
# Mechanical properties :
#
#
# Convention : Reuss Voigt Hill
#
# Bulk Modulus (GPa) = 44.62463 54.80058 49.71261
# Shear Modulus (GPa) = 31.73303 40.96743 36.35023
#
# Velocity S-wave (km/s) = 3.50067 3.97754 3.74670
# Velocity P-wave (km/s) = 5.79420 6.50057 6.15752
#
# Compressibility (1/GPa) = 0.02240915
#
# Stress axis : x y z
#
# Youngs Moduli (GPa) = 73.71364 185.92746 105.99512
#
# Poissons Ratio (x) = 0.33933 0.00915
# Poissons Ratio (y) = 0.13453 0.11378
# Poissons Ratio (z) = 0.00636 0.19959
#
# Static dielectric constant tensor:
#      x y z
#    x 4.756030 0.000000 0.000000 
#    y 0.000000 6.197220 0.000000 
#    z 0.000000 0.000000 4.969650 
# 
# 
# High freq. dielectric constant tensor:
#      x y z
#    x 2.031790 0.000000 0.000000 
#    y 0.000000 2.064010 0.000000 
#    z 0.000000 0.000000 2.062460 
# 
# From -- ./inp_files/26154.got.cif
#   From: 2010.03.12/outbox.cif.g09.slc.cpg/sg60_14_cif.got.tgz:26154.got - 2010.04.10 18:46:24.
