data_PCOD8246088
_publ_section_title
;
Structure prediction by ZEFSAII (Michael W. Deem and Ramdas Pophale) SiO2 
 PCOD8246088
Probable space group: P M M N
;
_chemical_formula_sum "Si O2"
_cell_formula_units_Z 64
_cell_length_a 24.838251
_cell_length_b 8.746284
_cell_length_c 14.867372
_cell_angle_alpha 90.000000
_cell_angle_beta 90.000000
_cell_angle_gamma 90.000000
_cell_volume 3229.823535
_symmetry_space_group_name_H-M "P M M N"
_symmetry_group_IT_number 59
_space_group.IT_coordinate_system_code '2'
_symmetry_cell_setting 'orthorhombic'
loop_
_space_group_symop_operation_xyz
x,y,z
1/2-x,1/2-y,z
1/2+x,-y,-z
-x,1/2+y,-z
-x,-y,-z
1/2+x,1/2+y,-z
1/2-x,y,z
x,1/2-y,z
loop_
_atom_site_type_symbol
_atom_site_label
_atom_site_fract_x
_atom_site_fract_y
_atom_site_fract_z
Si Si1 0.604555 0.929895 0.226263
Si Si2 0.506734 0.574136 0.767736
Si Si3 0.189178 0.572337 0.438905
Si Si4 0.123028 0.075858 0.285211
Si Si5 0.456287 0.573493 0.060560
Si Si6 0.859808 0.571670 0.028648
Si Si7 0.189732 0.574304 0.126468
Si Si8 0.187591 0.925294 0.645598
O O1 0.592031 0.750000 0.221587
O O2 0.552295 0.020083 0.265930
O O3 0.653308 0.960245 0.293766
O O4 0.623451 0.992490 0.127278
O O5 0.502156 0.750000 0.801978
O O6 0.557878 0.560256 0.700520
O O7 0.521376 0.447621 0.840727
O O8 0.250000 0.516176 0.420368
O O9 0.184398 0.750000 0.415509
O O10 0.147994 0.481150 0.377823
O O11 0.173656 0.541485 0.542084
O O12 0.139454 0.250000 0.269929
O O13 0.146558 0.989443 0.198187
O O14 0.445803 0.750000 0.037950
O O15 0.404107 0.471597 0.045530
O O16 0.500000 0.500000 0.000000
O O17 0.850356 0.750000 0.037682
O O18 0.809294 0.498304 0.975465
O O19 0.250000 0.552797 0.165929
O O20 0.174222 0.750000 0.114402
O O21 0.250000 0.958835 0.664905
O O22 0.173805 0.750000 0.669775
#
# Coordination Sequence:
#
# PCOD8246088 Si02
#       8
#     8   8   8   8   8   8   8   8
#     4  11  24  39  60  89 120 154 197 247 297 351
#     4  11  23  38  57  83 119 159 199 243 291 350
#     4   9  19  38  64  91 117 150 194 241 293 355
#     4  11  23  37  58  88 120 154 194 241 296 355
#     4  12  22  34  56  82 111 151 198 245 290 339
#     4  11  23  38  55  80 114 152 196 245 294 344
#     4  11  24  39  56  81 115 157 202 246 296 357
#     4   9  20  41  67  91 117 151 192 241 296 354
#
# _framework density 19.815325000000001
#
# number of rings (size 3 to 8) (size 9 to 14) (size 15 to 20)
#    0.000    1.375    2.500    4.125    0.000    7.000 
#    0.000    4.375    0.000    0.000    0.000    0.000 
#    0.000    0.000    0.000    0.000    0.000    0.000 
#
# Total GULP energy -793043.249307 kJ/mol
# GULP energy per Si atom -12391.300770 kJ/mol
# Density = 1.977022 g / cm^3
# Si number density = 19.815325 Si / 1000 Ang^3
#
#
#
# Elastic Constant Matrix: (Units=GPa)
#
#
# Indices 1 2 3 4 5 6 
#
# 1 104.5230 39.8433 51.2118 0.0000 0.0000 0.0000
# 2 39.8433 85.3200 39.8946 0.0000 0.0000 0.0000
# 3 51.2118 39.8946 81.5510 0.0000 0.0000 0.0000
# 4 0.0000 0.0000 0.0000 31.9717 0.0000 0.0000
# 5 0.0000 0.0000 0.0000 0.0000 34.0473 0.0000
# 6 0.0000 0.0000 0.0000 0.0000 0.0000 33.3123
#
#
#
# Elastic Compliance Matrix: (Units=1/GPa)
#
#
# Indices 1 2 3 4 5 6 
#
# 1 0.014485 -0.003256 -0.007503 0.000000 0.000000 0.000000
# 2 -0.003256 0.015929 -0.005748 0.000000 0.000000 0.000000
# 3 -0.007503 -0.005748 0.019786 0.000000 0.000000 0.000000
# 4 0.000000 0.000000 0.000000 0.031278 0.000000 0.000000
# 5 0.000000 0.000000 0.000000 0.000000 0.029371 0.000000
# 6 0.000000 0.000000 0.000000 0.000000 0.000000 0.030019
#
#
# Mechanical properties :
#
#
# Convention : Reuss Voigt Hill
#
# Bulk Modulus (GPa) = 58.18801 59.25482 58.72142
# Shear Modulus (GPa) = 27.83835 29.22921 28.53378
#
# Velocity S-wave (km/s) = 3.75225 3.84484 3.79883
# Velocity P-wave (km/s) = 6.94273 7.04833 6.99572
#
# Compressibility (1/GPa) = 0.01718567
#
# Stress axis : x y z
#
# Youngs Moduli (GPa) = 69.03888 62.78051 50.54110
#
# Poissons Ratio (x) = 0.20439 0.37922
# Poissons Ratio (y) = 0.22477 0.29050
# Poissons Ratio (z) = 0.51802 0.36084
#
# Static dielectric constant tensor:
#      x y z
#    x 3.788950 0.000000 0.000000 
#    y 0.000000 3.527440 0.000000 
#    z 0.000000 0.000000 3.458210 
# 
# 
# High freq. dielectric constant tensor:
#      x y z
#    x 1.782710 0.000000 0.000000 
#    y 0.000000 1.776730 0.000000 
#    z 0.000000 0.000000 1.754360 
# 
# From -- ./inp_files/24762.got.cif
#   From: 2010.03.12/outbox.cif.g09.slc.cpg/sg59_13_cif.got.tgz:24762.got - 2010.04.16 16:29:54.
