data_PCOD8246185
_publ_section_title
;
Structure prediction by ZEFSAII (Michael W. Deem and Ramdas Pophale) SiO2 
 PCOD8246185
Probable space group: P M M N
;
_chemical_formula_sum "Si O2"
_cell_formula_units_Z 64
_cell_length_a 25.101373
_cell_length_b 9.335577
_cell_length_c 17.703438
_cell_angle_alpha 90.000000
_cell_angle_beta 90.000000
_cell_angle_gamma 90.000000
_cell_volume 4148.549314
_symmetry_space_group_name_H-M "P M M N"
_symmetry_group_IT_number 59
_space_group.IT_coordinate_system_code '2'
_symmetry_cell_setting 'orthorhombic'
loop_
_space_group_symop_operation_xyz
x,y,z
1/2-x,1/2-y,z
1/2+x,-y,-z
-x,1/2+y,-z
-x,-y,-z
1/2+x,1/2+y,-z
1/2-x,y,z
x,1/2-y,z
loop_
_atom_site_type_symbol
_atom_site_label
_atom_site_fract_x
_atom_site_fract_y
_atom_site_fract_z
Si Si1 0.813374 0.911842 0.858682
Si Si2 0.495068 0.084657 0.422931
Si Si3 0.811028 0.415457 0.713531
Si Si4 0.186699 0.090651 0.858244
Si Si5 0.887053 0.412580 0.416452
Si Si6 0.189923 0.080437 0.690738
Si Si7 0.313596 0.588499 0.998519
Si Si8 0.897155 0.415929 0.590702
O O1 0.750000 0.911544 0.861523
O O2 0.835757 0.750000 0.860273
O O3 0.832851 0.989903 0.782693
O O4 0.835863 0.997948 0.930751
O O5 0.480788 0.250000 0.438242
O O6 0.552833 0.072214 0.382839
O O7 0.500000 0.000000 0.500000
O O8 0.446895 0.009477 0.376884
O O9 0.750000 0.453418 0.693910
O O10 0.816597 0.250000 0.737411
O O11 0.845265 0.452004 0.639735
O O12 0.250000 0.098811 0.862663
O O13 0.163567 0.250000 0.873406
O O14 0.170362 0.035239 0.774817
O O15 0.164242 0.982757 0.921509
O O16 0.867016 0.250000 0.407515
O O17 0.848389 0.514618 0.371106
O O18 0.884619 0.458070 0.504356
O O19 0.250000 0.024887 0.676441
O O20 0.188012 0.250000 0.683387
O O21 0.250000 0.588762 0.998921
O O22 0.335701 0.750000 0.003663
O O23 0.913442 0.250000 0.596464
#
# Coordination Sequence:
#
# PCOD8246185 Si02
#       8
#     8   8   8   8   8   8   8   8
#     4   9  16  25  37  54  78 108 140 172 206 244
#     4   9  17  30  47  65  83 103 133 176 221 258
#     4   9  17  29  43  59  84 116 145 174 208 248
#     4   8  14  25  38  52  75 106 137 169 204 241
#     4   9  18  30  44  63  84 108 140 176 214 254
#     4   9  18  30  42  59  85 116 146 174 207 248
#     4   9  15  22  35  55  76 101 136 172 205 243
#     4   9  18  31  46  64  84 109 142 177 215 255
#
# _framework density 15.42708
#
# number of rings (size 3 to 8) (size 9 to 14) (size 15 to 20)
#    0.000    3.125    0.000    2.625    0.000    7.250 
#    0.000    2.500    0.000    1.500    0.000    0.000 
#    0.000    1.000    0.000    3.250    0.000    5.125 
#
# Total GULP energy -793238.472126 kJ/mol
# GULP energy per Si atom -12394.351127 kJ/mol
# Density = 1.539197 g / cm^3
# Si number density = 15.427080 Si / 1000 Ang^3
#
#
#
# Elastic Constant Matrix: (Units=GPa)
#
#
# Indices 1 2 3 4 5 6 
#
# 1 57.9712 39.2364 44.1803 0.0000 0.0000 0.0000
# 2 39.2364 92.2909 56.3956 0.0000 0.0000 0.0000
# 3 44.1803 56.3956 103.2092 0.0000 0.0000 0.0000
# 4 0.0000 0.0000 0.0000 29.8399 0.0000 0.0000
# 5 0.0000 0.0000 0.0000 0.0000 0.4481 0.0000
# 6 0.0000 0.0000 0.0000 0.0000 0.0000 21.2819
#
#
#
# Elastic Compliance Matrix: (Units=1/GPa)
#
#
# Indices 1 2 3 4 5 6 
#
# 1 0.028287 -0.006946 -0.008313 0.000000 0.000000 0.000000
# 2 -0.006946 0.017972 -0.006847 0.000000 0.000000 0.000000
# 3 -0.008313 -0.006847 0.016989 0.000000 0.000000 0.000000
# 4 0.000000 0.000000 0.000000 0.033512 0.000000 0.000000
# 5 0.000000 0.000000 0.000000 0.000000 2.231686 0.000000
# 6 0.000000 0.000000 0.000000 0.000000 0.000000 0.046988
#
#
# Mechanical properties :
#
#
# Convention : Reuss Voigt Hill
#
# Bulk Modulus (GPa) = 52.53308 59.23287 55.88297
# Shear Modulus (GPa) = 2.06101 17.89125 9.97613
#
# Velocity S-wave (km/s) = 1.15710 3.40918 2.54572
# Velocity P-wave (km/s) = 5.99263 7.34679 6.70399
#
# Compressibility (1/GPa) = 0.01903563
#
# Stress axis : x y z
#
# Youngs Moduli (GPa) = 35.35247 55.64121 58.86146
#
# Poissons Ratio (x) = 0.38648 0.48932
# Poissons Ratio (y) = 0.24555 0.40303
# Poissons Ratio (z) = 0.29389 0.38098
#
# Static dielectric constant tensor:
#      x y z
#    x 2.846340 0.000000 0.000000 
#    y 0.000000 3.144710 0.000000 
#    z 0.000000 0.000000 2.987940 
# 
# 
# High freq. dielectric constant tensor:
#      x y z
#    x 1.541980 0.000000 0.000000 
#    y 0.000000 1.601590 0.000000 
#    z 0.000000 0.000000 1.582440 
# 
# From -- ./inp_files/26617.got.cif
#   From: 2010.03.12/outbox.cif.g09.slc.cpg/sg59_14_cif.got.tgz:26617.got - 2010.04.16 16:29:54.
