data_PCOD8246798
_publ_section_title
;
Structure prediction by ZEFSAII (Michael W. Deem and Ramdas Pophale) SiO2 
 PCOD8246798
Probable space group: P B C N
;
_chemical_formula_sum "Si O2"
_cell_formula_units_Z 48
_cell_length_a 15.273949
_cell_length_b 20.224739
_cell_length_c 8.758568
_cell_angle_alpha 90.000000
_cell_angle_beta 90.000000
_cell_angle_gamma 90.000000
_cell_volume 2705.623535
_symmetry_space_group_name_H-M "P B C N"
_symmetry_group_IT_number 60
_symmetry_cell_setting 'orthorhombic'
loop_
_space_group_symop_operation_xyz
x,y,z
1/2-x,1/2-y,1/2+z
1/2+x,1/2-y,-z
-x,y,1/2-z
-x,-y,-z
1/2+x,1/2+y,1/2-z
1/2-x,1/2+y,z
x,-y,1/2+z
loop_
_atom_site_type_symbol
_atom_site_label
_atom_site_fract_x
_atom_site_fract_y
_atom_site_fract_z
Si Si1 0.556872 0.250141 0.613669
Si Si2 0.322106 0.927215 0.553963
Si Si3 0.734856 0.193803 0.625821
Si Si4 0.202130 0.182254 0.545933
Si Si5 0.005945 0.633628 0.426638
Si Si6 0.811980 0.431777 0.587176
O O1 0.500000 0.282120 0.750000
O O2 0.634690 0.204304 0.683729
O O3 0.601141 0.307688 0.509759
O O4 0.494043 0.203266 0.514139
O O5 0.260508 0.870640 0.481536
O O6 0.424291 0.912145 0.525326
O O7 0.300715 0.930642 0.732027
O O8 0.297465 0.994795 0.472190
O O9 0.762031 0.258197 0.524864
O O10 0.798087 0.185817 0.770509
O O11 0.236659 0.112315 0.488524
O O12 0.000000 0.651676 0.250000
O O13 0.093583 0.594017 0.467656
#
# Coordination Sequence:
#
# PCOD8246798 Si02
#       6
#     8   8   8   8   8   8
#     4   9  19  33  50  74 106 141 178 216 271 314
#     4  10  20  34  50  77 111 145 177 213 272 327
#     4   9  19  33  52  74 106 136 179 222 269 316
#     4  10  20  32  53  75 105 137 183 224 265 311
#     4   9  19  32  49  75 110 145 175 210 258 329
#     4  11  20  32  52  78 107 144 180 219 263 323
#
# _framework density 17.740825999999998
#
# number of rings (size 3 to 8) (size 9 to 14) (size 15 to 20)
#    1.000    1.333    0.000    3.500    2.333    1.333 
#    0.000    0.833    0.000    0.000    0.000    4.667 
#    0.000    0.000    0.000    0.000    0.000    0.000 
#
# Total GULP energy -594964.860494 kJ/mol
# GULP energy per Si atom -12395.101260 kJ/mol
# Density = 1.770045 g / cm^3
# Si number density = 17.740826 Si / 1000 Ang^3
#
#
#
# Elastic Constant Matrix: (Units=GPa)
#
#
# Indices 1 2 3 4 5 6 
#
# 1 25.2231 28.4879 23.4279 0.0000 0.0000 0.0000
# 2 28.4879 96.2867 47.4516 0.0000 0.0000 0.0000
# 3 23.4279 47.4516 100.8096 0.0000 0.0000 0.0000
# 4 0.0000 0.0000 0.0000 35.2896 0.0000 0.0000
# 5 0.0000 0.0000 0.0000 0.0000 31.3052 0.0000
# 6 0.0000 0.0000 0.0000 0.0000 0.0000 18.6146
#
#
#
# Elastic Compliance Matrix: (Units=1/GPa)
#
#
# Indices 1 2 3 4 5 6 
#
# 1 0.063873 -0.015081 -0.007745 0.000000 0.000000 0.000000
# 2 -0.015081 0.017083 -0.004536 0.000000 0.000000 0.000000
# 3 -0.007745 -0.004536 0.013855 0.000000 0.000000 0.000000
# 4 0.000000 0.000000 0.000000 0.028337 0.000000 0.000000
# 5 0.000000 0.000000 0.000000 0.000000 0.031944 0.000000
# 6 0.000000 0.000000 0.000000 0.000000 0.000000 0.053721
#
#
# Mechanical properties :
#
#
# Convention : Reuss Voigt Hill
#
# Bulk Modulus (GPa) = 24.94625 46.78380 35.86502
# Shear Modulus (GPa) = 18.05705 25.23868 21.64786
#
# Velocity S-wave (km/s) = 3.19380 3.77587 3.49697
# Velocity P-wave (km/s) = 5.26236 6.74074 6.04690
#
# Compressibility (1/GPa) = 0.04008619
#
# Stress axis : x y z
#
# Youngs Moduli (GPa) = 15.65605 58.53725 72.17631
#
# Poissons Ratio (x) = 0.88279 0.55903
# Poissons Ratio (y) = 0.23611 0.32742
# Poissons Ratio (z) = 0.12126 0.26555
#
# Static dielectric constant tensor:
#      x y z
#    x 2.991750 0.000000 0.000000 
#    y 0.000000 3.151930 0.000000 
#    z 0.000000 0.000000 3.267830 
# 
# 
# High freq. dielectric constant tensor:
#      x y z
#    x 1.647660 0.000000 0.000000 
#    y 0.000000 1.671930 0.000000 
#    z 0.000000 0.000000 1.697240 
# 
# From -- ./inp_files/6019.got.cif
#   From: 2010.03.12/outbox.cif.g09.slc.cpg/sg60_4_cif.got.tgz:6019.got - 2010.04.10 18:46:24.
