data_PCOD8246478
_publ_section_title
;
Structure prediction by ZEFSAII (Michael W. Deem and Ramdas Pophale) SiO2 
 PCOD8246478
Probable space group: P B C N
;
_chemical_formula_sum "Si O2"
_cell_formula_units_Z 52
_cell_length_a 20.230841
_cell_length_b 7.938831
_cell_length_c 16.718300
_cell_angle_alpha 90.000000
_cell_angle_beta 90.000000
_cell_angle_gamma 90.000000
_cell_volume 2685.113251
_symmetry_space_group_name_H-M "P B C N"
_symmetry_group_IT_number 60
_symmetry_cell_setting 'orthorhombic'
loop_
_space_group_symop_operation_xyz
x,y,z
1/2-x,1/2-y,1/2+z
1/2+x,1/2-y,-z
-x,y,1/2-z
-x,-y,-z
1/2+x,1/2+y,1/2-z
1/2-x,1/2+y,z
x,-y,1/2+z
loop_
_atom_site_type_symbol
_atom_site_label
_atom_site_fract_x
_atom_site_fract_y
_atom_site_fract_z
Si Si1 0.500000 0.957736 0.750000
Si Si2 0.460560 0.354826 0.669068
Si Si3 0.318721 0.744308 0.734520
Si Si4 0.539540 0.855640 0.041278
Si Si5 0.627729 0.056050 0.677389
Si Si6 0.056586 0.778072 0.125716
Si Si7 0.679652 0.641322 0.263551
O O1 0.565596 0.070259 0.739510
O O2 0.494721 0.850547 0.668004
O O3 0.500000 0.320593 0.750000
O O4 0.489291 0.231039 0.602686
O O5 0.476156 0.543422 0.642724
O O6 0.380908 0.335407 0.675022
O O7 0.335761 0.877383 0.805868
O O8 0.371507 0.751194 0.663697
O O9 0.249070 0.804168 0.695807
O O10 0.316783 0.552115 0.768567
O O11 0.603490 0.932498 0.086027
O O12 0.563696 0.735152 0.969812
O O13 0.500000 0.000000 0.000000
O O14 0.671461 0.223895 0.691225
#
# Coordination Sequence:
#
# PCOD8246478 Si02
#       7
#     4   8   8   8   8   8   8
#     4  10  18  36  66  90 116 168 204 258 310 376
#     4  11  22  39  65  95 124 165 214 267 319 382
#     4  10  23  39  67  88 120 167 218 257 307 377
#     4  12  24  36  61  95 132 164 200 265 333 371
#     4  11  21  37  62  91 126 157 209 256 308 380
#     4  10  22  39  62  92 128 162 213 262 318 382
#     4  11  21  39  68  91 116 166 219 257 306 378
#
# _framework density 19.366035
#
# number of rings (size 3 to 8) (size 9 to 14) (size 15 to 20)
#    0.000    1.231    5.385    1.385    2.154    0.000 
#    2.769    0.000   10.154    0.000    0.000    0.000 
#    0.000    0.000    0.000    0.000    0.000    0.000 
#
# Total GULP energy -644436.229738 kJ/mol
# GULP energy per Si atom -12393.004418 kJ/mol
# Density = 1.932196 g / cm^3
# Si number density = 19.366035 Si / 1000 Ang^3
#
#
#
# Elastic Constant Matrix: (Units=GPa)
#
#
# Indices 1 2 3 4 5 6 
#
# 1 103.3037 44.6004 31.7410 0.0000 0.0000 0.0000
# 2 44.6004 149.0634 40.6887 0.0000 0.0000 0.0000
# 3 31.7410 40.6887 113.9512 0.0000 0.0000 0.0000
# 4 0.0000 0.0000 0.0000 33.4130 0.0000 0.0000
# 5 0.0000 0.0000 0.0000 0.0000 21.2050 0.0000
# 6 0.0000 0.0000 0.0000 0.0000 0.0000 33.3601
#
#
#
# Elastic Compliance Matrix: (Units=1/GPa)
#
#
# Indices 1 2 3 4 5 6 
#
# 1 0.011596 -0.002867 -0.002206 0.000000 0.000000 0.000000
# 2 -0.002867 0.008142 -0.002109 0.000000 0.000000 0.000000
# 3 -0.002206 -0.002109 0.010143 0.000000 0.000000 0.000000
# 4 0.000000 0.000000 0.000000 0.029928 0.000000 0.000000
# 5 0.000000 0.000000 0.000000 0.000000 0.047159 0.000000
# 6 0.000000 0.000000 0.000000 0.000000 0.000000 0.029976
#
#
# Mechanical properties :
#
#
# Convention : Reuss Voigt Hill
#
# Bulk Modulus (GPa) = 64.44590 66.70872 65.57731
# Shear Modulus (GPa) = 31.95279 34.21483 33.08381
#
# Velocity S-wave (km/s) = 4.06635 4.20783 4.13769
# Velocity P-wave (km/s) = 7.44292 7.62422 7.53411
#
# Compressibility (1/GPa) = 0.01551689
#
# Stress axis : x y z
#
# Youngs Moduli (GPa) = 86.23639 122.81917 98.58874
#
# Poissons Ratio (x) = 0.35217 0.21751
# Poissons Ratio (y) = 0.24727 0.20788
# Poissons Ratio (z) = 0.19026 0.25898
#
# Static dielectric constant tensor:
#      x y z
#    x 2.900920 0.000000 0.000000 
#    y 0.000000 3.996670 0.000000 
#    z 0.000000 0.000000 3.392640 
# 
# 
# High freq. dielectric constant tensor:
#      x y z
#    x 1.755750 0.000000 0.000000 
#    y 0.000000 1.787990 0.000000 
#    z 0.000000 0.000000 1.713710 
# 
# From -- ./inp_files/17668.got.cif
#   From: 2010.03.12/outbox.cif.g09.slc.cpg/sg60_9_cif.got.tgz:17668.got - 2010.04.10 18:46:24.
