data_PCOD8246762
_publ_section_title
;
Structure prediction by ZEFSAII (Michael W. Deem and Ramdas Pophale) SiO2 
 PCOD8246762
Probable space group: P B C N
;
_chemical_formula_sum "Si O2"
_cell_formula_units_Z 56
_cell_length_a 13.573167
_cell_length_b 9.603424
_cell_length_c 19.259684
_cell_angle_alpha 90.000000
_cell_angle_beta 90.000000
_cell_angle_gamma 90.000000
_cell_volume 2510.478195
_symmetry_space_group_name_H-M "P B C N"
_symmetry_group_IT_number 60
_symmetry_cell_setting 'orthorhombic'
loop_
_space_group_symop_operation_xyz
x,y,z
1/2-x,1/2-y,1/2+z
1/2+x,1/2-y,-z
-x,y,1/2-z
-x,-y,-z
1/2+x,1/2+y,1/2-z
1/2-x,1/2+y,z
x,-y,1/2+z
loop_
_atom_site_type_symbol
_atom_site_label
_atom_site_fract_x
_atom_site_fract_y
_atom_site_fract_z
Si Si1 0.022022 0.250338 0.076310
Si Si2 0.161521 0.898125 0.385656
Si Si3 0.667467 0.824235 0.304581
Si Si4 0.471796 0.251505 0.070292
Si Si5 0.165549 0.798606 0.838980
Si Si6 0.687061 0.104018 0.354012
Si Si7 0.653519 0.492571 0.960716
O O1 0.093753 0.325349 0.129907
O O2 0.058243 0.091977 0.065819
O O3 0.911723 0.249703 0.103815
O O4 0.022303 0.317892 0.998538
O O5 0.231770 0.775712 0.357486
O O6 0.188311 0.947894 0.462922
O O7 0.051251 0.835209 0.383642
O O8 0.173307 0.033394 0.336311
O O9 0.624543 0.752250 0.235872
O O10 0.768722 0.746426 0.324095
O O11 0.685050 0.989088 0.292082
O O12 0.423208 0.132804 0.117967
O O13 0.381229 0.347892 0.042824
O O14 0.752237 0.034154 0.413747
#
# Coordination Sequence:
#
# PCOD8246762 Si02
#       7
#     8   8   8   8   8   8   8
#     4  10  21  39  65  93 126 172 216 276 339 394
#     4  11  24  38  68  98 132 176 224 278 335 398
#     4  11  25  41  63  92 132 178 225 270 328 407
#     4  11  20  42  69 101 133 163 224 287 345 397
#     4  12  23  43  61  91 134 184 224 268 325 406
#     4  11  23  41  67  97 131 172 217 281 340 398
#     4  10  19  39  68  99 131 162 217 282 346 397
#
# _framework density 22.306505999999999
#
# number of rings (size 3 to 8) (size 9 to 14) (size 15 to 20)
#    0.000    1.143    4.286    3.000    0.000    2.857 
#    0.000    2.143    0.000    0.000    0.000    0.000 
#    0.000    0.000    0.000    0.000    0.000    0.000 
#
# Total GULP energy -694305.421846 kJ/mol
# GULP energy per Si atom -12398.311104 kJ/mol
# Density = 2.225574 g / cm^3
# Si number density = 22.306506 Si / 1000 Ang^3
#
#
#
# Elastic Constant Matrix: (Units=GPa)
#
#
# Indices 1 2 3 4 5 6 
#
# 1 97.5685 54.5515 34.4581 0.0000 0.0000 0.0000
# 2 54.5515 120.6692 54.7057 0.0000 0.0000 0.0000
# 3 34.4581 54.7057 90.3123 0.0000 0.0000 0.0000
# 4 0.0000 0.0000 0.0000 33.3206 0.0000 0.0000
# 5 0.0000 0.0000 0.0000 0.0000 27.4958 0.0000
# 6 0.0000 0.0000 0.0000 0.0000 0.0000 24.8509
#
#
#
# Elastic Compliance Matrix: (Units=1/GPa)
#
#
# Indices 1 2 3 4 5 6 
#
# 1 0.013993 -0.005384 -0.002078 0.000000 0.000000 0.000000
# 2 -0.005384 0.013496 -0.006121 0.000000 0.000000 0.000000
# 3 -0.002078 -0.006121 0.015573 0.000000 0.000000 0.000000
# 4 0.000000 0.000000 0.000000 0.030011 0.000000 0.000000
# 5 0.000000 0.000000 0.000000 0.000000 0.036369 0.000000
# 6 0.000000 0.000000 0.000000 0.000000 0.000000 0.040240
#
#
# Mechanical properties :
#
#
# Convention : Reuss Voigt Hill
#
# Bulk Modulus (GPa) = 62.90429 66.22004 64.56216
# Shear Modulus (GPa) = 27.45035 28.12246 27.78640
#
# Velocity S-wave (km/s) = 3.51179 3.55453 3.53323
# Velocity P-wave (km/s) = 6.68616 6.82621 6.75655
#
# Compressibility (1/GPa) = 0.01589717
#
# Stress axis : x y z
#
# Youngs Moduli (GPa) = 71.46289 74.09608 64.21363
#
# Poissons Ratio (x) = 0.39894 0.13342
# Poissons Ratio (y) = 0.38476 0.39304
# Poissons Ratio (z) = 0.14848 0.45353
#
# Static dielectric constant tensor:
#      x y z
#    x 3.925960 0.000000 0.000000 
#    y 0.000000 4.018120 0.000000 
#    z 0.000000 0.000000 4.051020 
# 
# 
# High freq. dielectric constant tensor:
#      x y z
#    x 1.873540 0.000000 0.000000 
#    y 0.000000 1.874270 0.000000 
#    z 0.000000 0.000000 1.873470 
# 
# From -- ./inp_files/22902.got.cif
#   From: 2010.03.12/outbox.cif.g09.slc.cpg/sg60_12_cif.got.tgz:22902.got - 2010.04.10 18:46:24.
