data_PCOD8246839
_publ_section_title
;
Structure prediction by ZEFSAII (Michael W. Deem and Ramdas Pophale) SiO2 
 PCOD8246839
Probable space group: P B C N
;
_chemical_formula_sum "Si O2"
_cell_formula_units_Z 48
_cell_length_a 23.406160
_cell_length_b 22.942161
_cell_length_c 5.214738
_cell_angle_alpha 90.000000
_cell_angle_beta 90.000000
_cell_angle_gamma 90.000000
_cell_volume 2800.251161
_symmetry_space_group_name_H-M "P B C N"
_symmetry_group_IT_number 60
_symmetry_cell_setting 'orthorhombic'
loop_
_space_group_symop_operation_xyz
x,y,z
1/2-x,1/2-y,1/2+z
1/2+x,1/2-y,-z
-x,y,1/2-z
-x,-y,-z
1/2+x,1/2+y,1/2-z
1/2-x,1/2+y,z
x,-y,1/2+z
loop_
_atom_site_type_symbol
_atom_site_label
_atom_site_fract_x
_atom_site_fract_y
_atom_site_fract_z
Si Si1 0.875900 0.245947 0.693654
Si Si2 0.000000 0.793002 0.250000
Si Si3 0.703975 0.468319 0.896313
Si Si4 0.712907 0.666225 0.492078
Si Si5 0.816575 0.726610 0.707214
Si Si6 0.069866 0.030376 0.119495
Si Si7 0.500000 0.364319 0.750000
O O1 0.845659 0.181893 0.650747
O O2 0.853590 0.287949 0.462760
O O3 0.944445 0.244147 0.672886
O O4 0.858780 0.272545 0.965667
O O5 0.980257 0.828247 0.502164
O O6 0.730555 0.501574 0.142777
O O7 0.716755 0.399857 0.900338
O O8 0.636865 0.477941 0.892540
O O9 0.767847 0.678251 0.670713
O O10 0.714851 0.710085 0.245674
O O11 0.054242 0.097913 0.158211
O O12 0.042911 0.995281 0.359519
#
# Coordination Sequence:
#
# PCOD8246839 Si02
#       7
#     8   4   8   8   8   8   4
#     4  10  21  34  50  77 100 133 170 218 260 311
#     4  12  24  33  48  72 106 130 166 213 276 310
#     4  10  23  32  48  72 102 135 159 209 269 309
#     4  10  20  36  56  77 101 128 183 211 255 314
#     4  10  20  34  58  78  94 131 178 219 258 292
#     4  10  20  35  46  63  90 128 180 223 255 290
#     4  12  22  33  48  66  82 142 178 223 258 284
#
# _framework density 17.141318999999999
#
# number of rings (size 3 to 8) (size 9 to 14) (size 15 to 20)
#    1.000    0.667    1.667    3.500    4.667    1.333 
#    0.000    0.000    0.000    0.000    0.000    0.000 
#    0.000    0.000    0.000   15.000    0.000    0.000 
#
# Total GULP energy -594849.933147 kJ/mol
# GULP energy per Si atom -12392.706941 kJ/mol
# Density = 1.710230 g / cm^3
# Si number density = 17.141319 Si / 1000 Ang^3
#
#
#
# Elastic Constant Matrix: (Units=GPa)
#
#
# Indices 1 2 3 4 5 6 
#
# 1 81.5491 14.5953 32.9461 0.0000 0.0000 0.0000
# 2 14.5953 41.8184 26.4054 0.0000 0.0000 0.0000
# 3 32.9461 26.4054 134.9455 0.0000 0.0000 0.0000
# 4 0.0000 0.0000 0.0000 15.6925 0.0000 0.0000
# 5 0.0000 0.0000 0.0000 0.0000 20.1493 0.0000
# 6 0.0000 0.0000 0.0000 0.0000 0.0000 13.1843
#
#
#
# Elastic Compliance Matrix: (Units=1/GPa)
#
#
# Indices 1 2 3 4 5 6 
#
# 1 0.013948 -0.003101 -0.002799 0.000000 0.000000 0.000000
# 2 -0.003101 0.027973 -0.004717 0.000000 0.000000 0.000000
# 3 -0.002799 -0.004717 0.009017 0.000000 0.000000 0.000000
# 4 0.000000 0.000000 0.000000 0.063725 0.000000 0.000000
# 5 0.000000 0.000000 0.000000 0.000000 0.049629 0.000000
# 6 0.000000 0.000000 0.000000 0.000000 0.000000 0.075848
#
#
# Mechanical properties :
#
#
# Convention : Reuss Voigt Hill
#
# Bulk Modulus (GPa) = 33.66349 45.13408 39.39878
# Shear Modulus (GPa) = 18.43152 22.09630 20.26391
#
# Velocity S-wave (km/s) = 3.28269 3.59425 3.44200
# Velocity P-wave (km/s) = 5.83519 6.60398 6.23146
#
# Compressibility (1/GPa) = 0.02970578
#
# Stress axis : x y z
#
# Youngs Moduli (GPa) = 71.69391 35.74825 110.90688
#
# Poissons Ratio (x) = 0.11086 0.31038
# Poissons Ratio (y) = 0.22232 0.52310
# Poissons Ratio (z) = 0.20064 0.16861
#
# Static dielectric constant tensor:
#      x y z
#    x 2.990200 0.000000 0.000000 
#    y 0.000000 2.744660 0.000000 
#    z 0.000000 0.000000 3.604970 
# 
# 
# High freq. dielectric constant tensor:
#      x y z
#    x 1.638980 0.000000 0.000000 
#    y 0.000000 1.604790 0.000000 
#    z 0.000000 0.000000 1.689620 
# 
# From -- ./inp_files/2370.got.cif
#   From: 2010.03.12/outbox.cif.g09.slc.cpg/sg60_2_cif.got.tgz:2370.got - 2010.04.10 18:46:24.
