data_PCOD8246447
_publ_section_title
;
Structure prediction by ZEFSAII (Michael W. Deem and Ramdas Pophale) SiO2 
 PCOD8246447
Probable space group: P B C N
;
_chemical_formula_sum "Si O2"
_cell_formula_units_Z 56
_cell_length_a 11.299271
_cell_length_b 19.327804
_cell_length_c 11.280839
_cell_angle_alpha 90.000000
_cell_angle_beta 90.000000
_cell_angle_gamma 90.000000
_cell_volume 2463.623503
_symmetry_space_group_name_H-M "P B C N"
_symmetry_group_IT_number 60
_symmetry_cell_setting 'orthorhombic'
loop_
_space_group_symop_operation_xyz
x,y,z
1/2-x,1/2-y,1/2+z
1/2+x,1/2-y,-z
-x,y,1/2-z
-x,-y,-z
1/2+x,1/2+y,1/2-z
1/2-x,1/2+y,z
x,-y,1/2+z
loop_
_atom_site_type_symbol
_atom_site_label
_atom_site_fract_x
_atom_site_fract_y
_atom_site_fract_z
Si Si1 0.000000 0.032562 0.250000
Si Si2 0.880618 0.444605 0.704996
Si Si3 0.203152 0.110411 0.126394
Si Si4 0.619365 0.188364 0.068624
Si Si5 0.539761 0.723224 0.377892
Si Si6 0.172778 0.997765 0.432933
Si Si7 0.365534 0.354561 0.029647
Si Si8 0.000000 0.788375 0.250000
O O1 0.110462 0.080534 0.220801
O O2 0.048832 0.987279 0.360907
O O3 0.831496 0.400774 0.817055
O O4 0.915049 0.389078 0.604682
O O5 0.785567 0.498607 0.655521
O O6 0.000000 0.483188 0.750000
O O7 0.174194 0.192245 0.117619
O O8 0.192131 0.073265 0.000854
O O9 0.595080 0.242099 0.176660
O O10 0.531193 0.210028 0.962099
O O11 0.752119 0.190270 0.013907
O O12 0.500000 0.748455 0.250000
O O13 0.461489 0.659612 0.427245
O O14 0.166071 0.063428 0.522841
O O15 0.418354 0.334530 0.159614
#
# Coordination Sequence:
#
# PCOD8246447 Si02
#       8
#     4   8   8   8   8   8   8   4
#     4  10  18  35  58  84 130 154 195 248 310 384
#     4  10  22  42  64  82 120 167 215 262 310 376
#     4  11  21  36  62  93 121 166 201 252 320 382
#     4  10  22  38  64  87 123 167 212 261 315 377
#     4  11  21  37  61  97 126 164 205 254 323 381
#     4  10  21  38  60  94 121 169 205 260 328 378
#     4  10  22  37  60  89 131 164 209 267 320 382
#     4  10  22  39  56  98 120 168 215 266 316 386
#
# _framework density 22.730744999999999
#
# number of rings (size 3 to 8) (size 9 to 14) (size 15 to 20)
#    0.000    1.714    2.857    2.143    4.000    1.143 
#    7.714    0.000    0.000    3.429    0.000    0.000 
#    0.000    0.000    0.000    0.000    0.000    0.000 
#
# Total GULP energy -693988.849074 kJ/mol
# GULP energy per Si atom -12392.658019 kJ/mol
# Density = 2.267901 g / cm^3
# Si number density = 22.730745 Si / 1000 Ang^3
#
#
#
# Elastic Constant Matrix: (Units=GPa)
#
#
# Indices 1 2 3 4 5 6 
#
# 1 97.9959 11.6877 34.5234 0.0000 0.0000 0.0000
# 2 11.6877 43.1660 34.8641 0.0000 0.0000 0.0000
# 3 34.5234 34.8641 139.8011 0.0000 0.0000 0.0000
# 4 0.0000 0.0000 0.0000 19.0204 0.0000 0.0000
# 5 0.0000 0.0000 0.0000 0.0000 34.1832 0.0000
# 6 0.0000 0.0000 0.0000 0.0000 0.0000 17.0584
#
#
#
# Elastic Compliance Matrix: (Units=1/GPa)
#
#
# Indices 1 2 3 4 5 6 
#
# 1 0.011211 -0.001001 -0.002519 0.000000 0.000000 0.000000
# 2 -0.001001 0.029099 -0.007010 0.000000 0.000000 0.000000
# 3 -0.002519 -0.007010 0.009523 0.000000 0.000000 0.000000
# 4 0.000000 0.000000 0.000000 0.052575 0.000000 0.000000
# 5 0.000000 0.000000 0.000000 0.000000 0.029254 0.000000
# 6 0.000000 0.000000 0.000000 0.000000 0.000000 0.058622
#
#
# Mechanical properties :
#
#
# Convention : Reuss Voigt Hill
#
# Bulk Modulus (GPa) = 34.75343 49.23481 41.99412
# Shear Modulus (GPa) = 22.63107 27.37827 25.00467
#
# Velocity S-wave (km/s) = 3.15876 3.47430 3.32028
# Velocity P-wave (km/s) = 5.35033 6.14828 5.76313
#
# Compressibility (1/GPa) = 0.02877413
#
# Stress axis : x y z
#
# Youngs Moduli (GPa) = 89.19559 34.36554 105.00751
#
# Poissons Ratio (x) = 0.03440 0.26451
# Poissons Ratio (y) = 0.08930 0.73606
# Poissons Ratio (z) = 0.22468 0.24089
#
# Static dielectric constant tensor:
#      x y z
#    x 4.241540 0.000000 0.000000 
#    y 0.000000 3.656670 0.000000 
#    z 0.000000 0.000000 4.276930 
# 
# 
# High freq. dielectric constant tensor:
#      x y z
#    x 1.896300 0.000000 0.000000 
#    y 0.000000 1.860840 0.000000 
#    z 0.000000 0.000000 1.907350 
# 
# From -- ./inp_files/11221.got.cif
#   From: 2010.03.12/outbox.cif.g09.slc.cpg/sg60_6_cif.got.tgz:11221.got - 2010.04.10 18:46:24.
