data_PCOD8246120
_publ_section_title
;
Structure prediction by ZEFSAII (Michael W. Deem and Ramdas Pophale) SiO2 
 PCOD8246120
Probable space group: P M M N
;
_chemical_formula_sum "Si O2"
_cell_formula_units_Z 30
_cell_length_a 9.850759
_cell_length_b 14.648802
_cell_length_c 10.293915
_cell_angle_alpha 90.000000
_cell_angle_beta 90.000000
_cell_angle_gamma 90.000000
_cell_volume 1485.430650
_symmetry_space_group_name_H-M "P M M N"
_symmetry_group_IT_number 59
_space_group.IT_coordinate_system_code '2'
_symmetry_cell_setting 'orthorhombic'
loop_
_space_group_symop_operation_xyz
x,y,z
1/2-x,1/2-y,z
1/2+x,-y,-z
-x,1/2+y,-z
-x,-y,-z
1/2+x,1/2+y,-z
1/2-x,y,z
x,1/2-y,z
loop_
_atom_site_type_symbol
_atom_site_label
_atom_site_fract_x
_atom_site_fract_y
_atom_site_fract_z
Si Si1 0.750000 0.750000 0.025782
Si Si2 0.003437 0.585778 0.406742
Si Si3 0.969020 0.250000 0.128252
Si Si4 0.750000 0.362570 0.764752
Si Si5 0.250000 0.605590 0.941764
Si Si6 0.084210 0.750000 0.578238
Si Si7 0.250000 0.418776 0.780502
O O1 0.750000 0.661364 0.115193
O O2 0.616457 0.750000 0.936646
O O3 0.874204 0.590279 0.316033
O O4 0.000000 0.500000 0.500000
O O5 0.124828 0.592451 0.306444
O O6 0.018271 0.665988 0.507554
O O7 0.887132 0.340146 0.089133
O O8 0.981833 0.250000 0.281462
O O9 0.750000 0.250000 0.765945
O O10 0.750000 0.408974 0.904978
O O11 0.250000 0.513202 0.859421
O O12 0.250000 0.750000 0.578609
#
# Coordination Sequence:
#
# PCOD8246120 Si02
#       7
#     2   8   4   4   4   4   4
#     4  12  28  46  66 106 148 188 230 300 360 404
#     4  12  25  42  72 103 141 186 233 286 355 412
#     4  11  24  43  76  99 137 181 245 284 354 407
#     4  12  23  46  74 101 134 191 246 278 339 432
#     4  11  24  45  73 101 135 194 235 286 346 426
#     4  12  23  46  74  97 138 188 240 296 337 424
#     4  12  28  45  67 106 154 177 227 302 354 417
#
# _framework density 20.196162999999999
#
# number of rings (size 3 to 8) (size 9 to 14) (size 15 to 20)
#    0.000    0.267    5.333    4.800    0.000    7.467 
#    0.000    0.000    0.000    0.000    0.000    0.000 
#    0.000    0.000    0.000    0.000    0.000    0.000 
#
# Total GULP energy -371825.195474 kJ/mol
# GULP energy per Si atom -12394.173182 kJ/mol
# Density = 2.015020 g / cm^3
# Si number density = 20.196163 Si / 1000 Ang^3
#
#
#
# Elastic Constant Matrix: (Units=GPa)
#
#
# Indices 1 2 3 4 5 6 
#
# 1 200.4917 83.2934 114.2225 0.0000 0.0000 0.0000
# 2 83.2934 156.1718 91.4424 0.0000 0.0000 0.0000
# 3 114.2225 91.4424 229.0327 0.0000 0.0000 0.0000
# 4 0.0000 0.0000 0.0000 66.2454 0.0000 0.0000
# 5 0.0000 0.0000 0.0000 0.0000 53.4153 0.0000
# 6 0.0000 0.0000 0.0000 0.0000 0.0000 23.8020
#
#
#
# Elastic Compliance Matrix: (Units=1/GPa)
#
#
# Indices 1 2 3 4 5 6 
#
# 1 0.007596 -0.002392 -0.002833 0.000000 0.000000 0.000000
# 2 -0.002392 0.009110 -0.002444 0.000000 0.000000 0.000000
# 3 -0.002833 -0.002444 0.006755 0.000000 0.000000 0.000000
# 4 0.000000 0.000000 0.000000 0.015095 0.000000 0.000000
# 5 0.000000 0.000000 0.000000 0.000000 0.018721 0.000000
# 6 0.000000 0.000000 0.000000 0.000000 0.000000 0.042013
#
#
# Mechanical properties :
#
#
# Convention : Reuss Voigt Hill
#
# Bulk Modulus (GPa) = 123.12502 129.29033 126.20767
# Shear Modulus (GPa) = 42.61242 48.47507 45.54375
#
# Velocity S-wave (km/s) = 4.59838 4.90451 4.75391
# Velocity P-wave (km/s) = 9.44936 9.80962 9.63117
#
# Compressibility (1/GPa) = 0.00812183
#
# Stress axis : x y z
#
# Youngs Moduli (GPa) = 131.65620 109.76588 148.04141
#
# Poissons Ratio (x) = 0.26260 0.41938
# Poissons Ratio (y) = 0.31496 0.36185
# Poissons Ratio (z) = 0.37297 0.26829
#
# Static dielectric constant tensor:
#      x y z
#    x 3.838760 0.000000 0.000000 
#    y 0.000000 3.879850 0.000000 
#    z 0.000000 0.000000 4.111560 
# 
# 
# High freq. dielectric constant tensor:
#      x y z
#    x 1.800190 0.000000 0.000000 
#    y 0.000000 1.797000 0.000000 
#    z 0.000000 0.000000 1.825430 
# 
# From -- ./inp_files/13602.got.cif
#   From: 2010.03.12/outbox.cif.g09.slc.cpg/sg59_7_cif.got.tgz:13602.got - 2010.04.16 16:29:54.
