data_PCOD8246442
_publ_section_title
;
Structure prediction by ZEFSAII (Michael W. Deem and Ramdas Pophale) SiO2 
 PCOD8246442
Probable space group: P B C N
;
_chemical_formula_sum "Si O2"
_cell_formula_units_Z 60
_cell_length_a 11.914842
_cell_length_b 12.391762
_cell_length_c 19.863424
_cell_angle_alpha 90.000000
_cell_angle_beta 90.000000
_cell_angle_gamma 90.000000
_cell_volume 2932.752842
_symmetry_space_group_name_H-M "P B C N"
_symmetry_group_IT_number 60
_symmetry_cell_setting 'orthorhombic'
loop_
_space_group_symop_operation_xyz
x,y,z
1/2-x,1/2-y,1/2+z
1/2+x,1/2-y,-z
-x,y,1/2-z
-x,-y,-z
1/2+x,1/2+y,1/2-z
1/2-x,1/2+y,z
x,-y,1/2+z
loop_
_atom_site_type_symbol
_atom_site_label
_atom_site_fract_x
_atom_site_fract_y
_atom_site_fract_z
Si Si1 0.373449 0.019202 0.141114
Si Si2 0.946490 0.609476 0.975642
Si Si3 0.366079 0.588677 0.168530
Si Si4 0.041305 0.252899 0.371108
Si Si5 0.299140 0.586211 0.320074
Si Si6 0.000000 0.597003 0.750000
Si Si7 0.580199 0.829665 0.617249
Si Si8 0.040046 0.901683 0.323576
O O1 0.253802 0.074245 0.135442
O O2 0.463003 0.109456 0.122029
O O3 0.367629 0.919965 0.088070
O O4 0.400603 0.974988 0.216262
O O5 0.041804 0.688055 0.943733
O O6 0.881185 0.664040 0.038589
O O7 0.000000 0.500000 0.000000
O O8 0.421713 0.693836 0.136873
O O9 0.348010 0.615571 0.246998
O O10 0.443004 0.484074 0.152457
O O11 0.059665 0.335480 0.309107
O O12 0.141581 0.167069 0.372603
O O13 0.167003 0.608159 0.332663
O O14 0.338726 0.462139 0.330143
O O15 0.557294 0.705163 0.633097
O O16 0.000000 0.863652 0.250000
#
# Coordination Sequence:
#
# PCOD8246442 Si02
#       8
#     8   8   8   8   8   4   8   8
#     4  10  22  36  60  91 126 159 204 264 307 376
#     4   9  22  43  56  83 125 165 217 254 294 374
#     4  10  20  40  62  94 127 153 205 262 324 376
#     4  10  19  40  64  87 119 168 206 259 315 368
#     4  10  21  39  63  93 126 158 204 267 319 381
#     4  10  18  34  62  88 114 156 210 248 316 360
#     4  11  23  40  60  89 126 169 207 252 320 370
#     4   9  22  40  61  92 127 155 204 267 315 375
#
# _framework density 20.458594000000002
#
# number of rings (size 3 to 8) (size 9 to 14) (size 15 to 20)
#    0.000    2.133    1.333    1.600    2.800    7.467 
#    9.600    1.333    0.000    0.000    0.000    0.000 
#    0.000    0.000    0.000    0.000    0.000    0.000 
#
# Total GULP energy -743494.990482 kJ/mol
# GULP energy per Si atom -12391.583175 kJ/mol
# Density = 2.041203 g / cm^3
# Si number density = 20.458594 Si / 1000 Ang^3
#
#
#
# Elastic Constant Matrix: (Units=GPa)
#
#
# Indices 1 2 3 4 5 6 
#
# 1 97.5345 31.1908 23.8664 0.0000 0.0000 0.0000
# 2 31.1908 115.0100 59.5806 0.0000 0.0000 0.0000
# 3 23.8664 59.5806 103.1405 0.0000 0.0000 0.0000
# 4 0.0000 0.0000 0.0000 41.8679 0.0000 0.0000
# 5 0.0000 0.0000 0.0000 0.0000 17.4359 0.0000
# 6 0.0000 0.0000 0.0000 0.0000 0.0000 19.7870
#
#
#
# Elastic Compliance Matrix: (Units=1/GPa)
#
#
# Indices 1 2 3 4 5 6 
#
# 1 0.011331 -0.002447 -0.001208 0.000000 0.000000 0.000000
# 2 -0.002447 0.012937 -0.006907 0.000000 0.000000 0.000000
# 3 -0.001208 -0.006907 0.013965 0.000000 0.000000 0.000000
# 4 0.000000 0.000000 0.000000 0.023885 0.000000 0.000000
# 5 0.000000 0.000000 0.000000 0.000000 0.057353 0.000000
# 6 0.000000 0.000000 0.000000 0.000000 0.000000 0.050538
#
#
# Mechanical properties :
#
#
# Convention : Reuss Voigt Hill
#
# Bulk Modulus (GPa) = 58.45164 60.55120 59.50142
# Shear Modulus (GPa) = 25.40193 29.22129 27.31161
#
# Velocity S-wave (km/s) = 3.52749 3.78340 3.65769
# Velocity P-wave (km/s) = 6.72486 6.98189 6.85458
#
# Compressibility (1/GPa) = 0.01710816
#
# Stress axis : x y z
#
# Youngs Moduli (GPa) = 88.25347 77.30037 71.60790
#
# Poissons Ratio (x) = 0.18915 0.08653
# Poissons Ratio (y) = 0.21595 0.49458
# Poissons Ratio (z) = 0.10665 0.53390
#
# Static dielectric constant tensor:
#      x y z
#    x 3.521080 0.000000 0.000000 
#    y 0.000000 3.788230 0.000000 
#    z 0.000000 0.000000 4.064280 
# 
# 
# High freq. dielectric constant tensor:
#      x y z
#    x 1.780620 0.000000 0.000000 
#    y 0.000000 1.812040 0.000000 
#    z 0.000000 0.000000 1.788750 
# 
# From -- ./inp_files/22681.got.cif
#   From: 2010.03.12/outbox.cif.g09.slc.cpg/sg60_12_cif.got.tgz:22681.got - 2010.04.10 18:46:24.
