data_PCOD8246595
_publ_section_title
;
Structure prediction by ZEFSAII (Michael W. Deem and Ramdas Pophale) SiO2 
 PCOD8246595
Probable space group: P B C N
;
_chemical_formula_sum "Si O2"
_cell_formula_units_Z 52
_cell_length_a 21.703817
_cell_length_b 5.559256
_cell_length_c 22.172354
_cell_angle_alpha 90.000000
_cell_angle_beta 90.000000
_cell_angle_gamma 90.000000
_cell_volume 2675.251377
_symmetry_space_group_name_H-M "P B C N"
_symmetry_group_IT_number 60
_symmetry_cell_setting 'orthorhombic'
loop_
_space_group_symop_operation_xyz
x,y,z
1/2-x,1/2-y,1/2+z
1/2+x,1/2-y,-z
-x,y,1/2-z
-x,-y,-z
1/2+x,1/2+y,1/2-z
1/2-x,1/2+y,z
x,-y,1/2+z
loop_
_atom_site_type_symbol
_atom_site_label
_atom_site_fract_x
_atom_site_fract_y
_atom_site_fract_z
Si Si1 0.284978 0.500302 0.627936
Si Si2 0.000000 0.678936 0.250000
Si Si3 0.973887 0.262790 0.944286
Si Si4 0.785332 0.002970 0.012452
Si Si5 0.082839 0.079967 0.444134
Si Si6 0.490064 0.858091 0.356342
Si Si7 0.082229 0.014778 0.669469
O O1 0.248487 0.253642 0.643142
O O2 0.303580 0.500382 0.557777
O O3 0.344456 0.491103 0.671088
O O4 0.033387 0.541165 0.305467
O O5 0.057978 0.825854 0.224624
O O6 0.984366 0.527546 0.918294
O O7 0.937472 0.108263 0.895665
O O8 0.931750 0.279256 0.004048
O O9 0.040845 0.150862 0.958730
O O10 0.750868 0.751427 0.028037
O O11 0.846085 0.004979 0.054039
O O12 0.065294 0.180953 0.377193
O O13 0.548601 0.739836 0.323100
#
# Coordination Sequence:
#
# PCOD8246595 Si02
#       7
#     8   4   8   8   8   8   8
#     4  10  22  37  58  88 122 165 200 241 297 364
#     4  10  22  38  58  86 112 154 200 266 316 356
#     4   9  19  32  54  88 116 153 184 246 302 358
#     4  10  22  36  56  84 124 170 201 237 292 366
#     4  10  19  34  53  87 122 151 198 238 298 363
#     4  10  21  34  60  85 113 156 195 254 312 357
#     4  10  20  37  57  86 119 151 204 253 307 363
#
# _framework density 19.437427
#
# number of rings (size 3 to 8) (size 9 to 14) (size 15 to 20)
#    0.000    2.154    1.538    0.923    6.462    1.231 
#    0.000    0.000    0.000    1.846    0.000    0.000 
#    0.000    0.000    0.000    0.000    0.000    0.000 
#
# Total GULP energy -644369.425514 kJ/mol
# GULP energy per Si atom -12391.719721 kJ/mol
# Density = 1.939319 g / cm^3
# Si number density = 19.437427 Si / 1000 Ang^3
#
#
#
# Elastic Constant Matrix: (Units=GPa)
#
#
# Indices 1 2 3 4 5 6 
#
# 1 136.5367 49.5750 34.3206 0.0000 0.0000 0.0000
# 2 49.5750 115.4233 25.7022 0.0000 0.0000 0.0000
# 3 34.3206 25.7022 56.6469 0.0000 0.0000 0.0000
# 4 0.0000 0.0000 0.0000 12.7556 0.0000 0.0000
# 5 0.0000 0.0000 0.0000 0.0000 23.7048 0.0000
# 6 0.0000 0.0000 0.0000 0.0000 0.0000 12.0132
#
#
#
# Elastic Compliance Matrix: (Units=1/GPa)
#
#
# Indices 1 2 3 4 5 6 
#
# 1 0.009560 -0.003133 -0.004371 0.000000 0.000000 0.000000
# 2 -0.003133 0.010664 -0.002940 0.000000 0.000000 0.000000
# 3 -0.004371 -0.002940 0.021636 0.000000 0.000000 0.000000
# 4 0.000000 0.000000 0.000000 0.078397 0.000000 0.000000
# 5 0.000000 0.000000 0.000000 0.000000 0.042186 0.000000
# 6 0.000000 0.000000 0.000000 0.000000 0.000000 0.083242
#
#
# Mechanical properties :
#
#
# Convention : Reuss Voigt Hill
#
# Bulk Modulus (GPa) = 47.68358 58.64472 53.16415
# Shear Modulus (GPa) = 18.27733 22.96199 20.61966
#
# Velocity S-wave (km/s) = 3.06978 3.44077 3.26056
# Velocity P-wave (km/s) = 6.09507 6.78393 6.44871
#
# Compressibility (1/GPa) = 0.02097158
#
# Stress axis : x y z
#
# Youngs Moduli (GPa) = 104.60014 93.77219 46.22032
#
# Poissons Ratio (x) = 0.29378 0.20202
# Poissons Ratio (y) = 0.32770 0.13591
# Poissons Ratio (z) = 0.45718 0.27574
#
# Static dielectric constant tensor:
#      x y z
#    x 3.364540 0.000000 0.000000 
#    y 0.000000 3.816040 0.000000 
#    z 0.000000 0.000000 3.417580 
# 
# 
# High freq. dielectric constant tensor:
#      x y z
#    x 1.733460 0.000000 0.000000 
#    y 0.000000 1.770960 0.000000 
#    z 0.000000 0.000000 1.735360 
# 
# From -- ./inp_files/23195.got.cif
#   From: 2010.03.12/outbox.cif.g09.slc.cpg/sg60_12_cif.got.tgz:23195.got - 2010.04.10 18:46:24.
