data_PCOD8246578
_publ_section_title
;
Structure prediction by ZEFSAII (Michael W. Deem and Ramdas Pophale) SiO2 
 PCOD8246578
Probable space group: P B C N
;
_chemical_formula_sum "Si O2"
_cell_formula_units_Z 64
_cell_length_a 8.256763
_cell_length_b 18.274973
_cell_length_c 20.518343
_cell_angle_alpha 90.000000
_cell_angle_beta 90.000000
_cell_angle_gamma 90.000000
_cell_volume 3096.056292
_symmetry_space_group_name_H-M "P B C N"
_symmetry_group_IT_number 60
_symmetry_cell_setting 'orthorhombic'
loop_
_space_group_symop_operation_xyz
x,y,z
1/2-x,1/2-y,1/2+z
1/2+x,1/2-y,-z
-x,y,1/2-z
-x,-y,-z
1/2+x,1/2+y,1/2-z
1/2-x,1/2+y,z
x,-y,1/2+z
loop_
_atom_site_type_symbol
_atom_site_label
_atom_site_fract_x
_atom_site_fract_y
_atom_site_fract_z
Si Si1 0.202973 0.751715 0.977051
Si Si2 0.371458 0.443532 0.690757
Si Si3 0.489024 0.385669 0.932003
Si Si4 0.528290 0.260997 0.400926
Si Si5 0.725149 0.993536 0.609547
Si Si6 0.054844 0.395922 0.643892
Si Si7 0.982394 0.910665 0.175669
Si Si8 0.187787 0.594550 0.001223
O O1 0.090382 0.806609 0.937680
O O2 0.385556 0.757327 0.951942
O O3 0.131480 0.670381 0.968455
O O4 0.192202 0.767745 0.055580
O O5 0.500000 0.436408 0.750000
O O6 0.422174 0.383738 0.637504
O O7 0.180895 0.423496 0.700599
O O8 0.381718 0.526582 0.662315
O O9 0.354994 0.448127 0.931863
O O10 0.615618 0.401297 0.990497
O O11 0.535754 0.192341 0.350610
O O12 0.504308 0.337789 0.365639
O O13 0.809282 0.050965 0.659580
O O14 0.630874 0.034825 0.551499
O O15 0.613491 0.939937 0.653281
O O16 0.109345 0.419466 0.571313
O O17 0.000000 0.885743 0.250000
#
# Coordination Sequence:
#
# PCOD8246578 Si02
#       8
#     8   8   8   8   8   8   8   8
#     4  11  19  35  57  87 124 163 196 250 315 373
#     4   9  21  44  63  80 119 164 210 260 317 372
#     4  10  19  33  56  82 114 161 203 239 312 378
#     4  11  22  40  61  92 130 166 208 256 318 380
#     4  11  19  35  59  89 121 153 203 262 305 366
#     4  10  22  37  60  98 123 153 213 264 310 371
#     4  10  22  44  63  81 118 174 214 247 318 390
#     4  10  20  34  53  87 128 163 193 246 314 380
#
# _framework density 20.67146
#
# number of rings (size 3 to 8) (size 9 to 14) (size 15 to 20)
#    0.000    1.750    3.750    0.750    0.000    2.000 
#    6.750    5.625    0.000    0.000    0.000    0.000 
#    0.000    0.000    0.000    0.000    0.000    0.000 
#
# Total GULP energy -792850.363831 kJ/mol
# GULP energy per Si atom -12388.286935 kJ/mol
# Density = 2.062441 g / cm^3
# Si number density = 20.671460 Si / 1000 Ang^3
#
#
#
# Elastic Constant Matrix: (Units=GPa)
#
#
# Indices 1 2 3 4 5 6 
#
# 1 69.7015 54.3785 24.9133 0.0000 0.0000 0.0000
# 2 54.3785 141.1049 47.7783 0.0000 0.0000 0.0000
# 3 24.9133 47.7783 65.6242 0.0000 0.0000 0.0000
# 4 0.0000 0.0000 0.0000 24.7174 0.0000 0.0000
# 5 0.0000 0.0000 0.0000 0.0000 22.9964 0.0000
# 6 0.0000 0.0000 0.0000 0.0000 0.0000 29.8534
#
#
#
# Elastic Compliance Matrix: (Units=1/GPa)
#
#
# Indices 1 2 3 4 5 6 
#
# 1 0.020881 -0.007117 -0.002745 0.000000 0.000000 0.000000
# 2 -0.007117 0.011832 -0.005912 0.000000 0.000000 0.000000
# 3 -0.002745 -0.005912 0.020585 0.000000 0.000000 0.000000
# 4 0.000000 0.000000 0.000000 0.040457 0.000000 0.000000
# 5 0.000000 0.000000 0.000000 0.000000 0.043485 0.000000
# 6 0.000000 0.000000 0.000000 0.000000 0.000000 0.033497
#
#
# Mechanical properties :
#
#
# Convention : Reuss Voigt Hill
#
# Bulk Modulus (GPa) = 45.98160 58.95233 52.46696
# Shear Modulus (GPa) = 23.86227 25.47079 24.66653
#
# Velocity S-wave (km/s) = 3.40127 3.51404 3.45811
# Velocity P-wave (km/s) = 6.14143 6.71158 6.43282
#
# Compressibility (1/GPa) = 0.02174783
#
# Stress axis : x y z
#
# Youngs Moduli (GPa) = 47.89061 84.51880 48.57942
#
# Poissons Ratio (x) = 0.60156 0.13336
# Poissons Ratio (y) = 0.34086 0.28721
# Poissons Ratio (z) = 0.13147 0.49968
#
# Static dielectric constant tensor:
#      x y z
#    x 3.932420 0.000000 0.000000 
#    y 0.000000 3.883310 0.000000 
#    z 0.000000 0.000000 3.543370 
# 
# 
# High freq. dielectric constant tensor:
#      x y z
#    x 1.801680 0.000000 0.000000 
#    y 0.000000 1.817940 0.000000 
#    z 0.000000 0.000000 1.785790 
# 
# From -- ./inp_files/22342.got.cif
#   From: 2010.03.12/outbox.cif.g09.slc.cpg/sg60_12_cif.got.tgz:22342.got - 2010.04.10 18:46:24.
