data_PCOD8246251
_publ_section_title
;
Structure prediction by ZEFSAII (Michael W. Deem and Ramdas Pophale) SiO2 
 PCOD8246251
Probable space group: P M M N
;
_chemical_formula_sum "Si O2"
_cell_formula_units_Z 64
_cell_length_a 18.000000
_cell_length_b 9.000000
_cell_length_c 21.000000
_cell_angle_alpha 90.000000
_cell_angle_beta 90.000000
_cell_angle_gamma 90.000000
_cell_volume 3402.000000
_symmetry_space_group_name_H-M "P M M N"
_symmetry_group_IT_number 59
_space_group.IT_coordinate_system_code '2'
_symmetry_cell_setting 'orthorhombic'
loop_
_space_group_symop_operation_xyz
x,y,z
1/2-x,1/2-y,z
1/2+x,-y,-z
-x,1/2+y,-z
-x,-y,-z
1/2+x,1/2+y,-z
1/2-x,y,z
x,1/2-y,z
loop_
_atom_site_type_symbol
_atom_site_label
_atom_site_fract_x
_atom_site_fract_y
_atom_site_fract_z
Si Si1 0.919484 0.072756 0.998248
Si Si2 0.162494 0.423992 0.119117
Si Si3 0.166079 0.073044 0.374712
Si Si4 0.333650 0.926305 0.875421
Si Si5 0.085219 0.573185 0.748103
Si Si6 0.084203 0.426268 0.248852
Si Si7 0.420137 0.074255 0.499988
Si Si8 0.163827 0.075495 0.628601
O O1 0.927016 0.250000 0.995345
O O2 0.877153 0.019421 0.061983
O O3 0.873305 0.016893 0.937826
O O4 0.000000 0.000000 0.000000
O O5 0.250000 0.456023 0.121882
O O6 0.145887 0.250000 0.108203
O O7 0.126220 0.480690 0.185195
O O8 0.250000 0.011006 0.375729
O O9 0.166939 0.250000 0.373425
O O10 0.125231 0.010038 0.311620
O O11 0.124091 0.016450 0.437900
O O12 0.250000 0.991134 0.877189
O O13 0.331512 0.750000 0.874103
O O14 0.374312 0.985641 0.811924
O O15 0.088626 0.750000 0.743645
O O16 0.125409 0.508629 0.686569
O O17 0.000434 0.515846 0.751055
O O18 0.085926 0.250000 0.250877
O O19 0.430573 0.250000 0.497286
O O20 0.374815 0.026072 0.562757
O O21 0.500000 0.000000 0.500000
O O22 0.250000 0.029479 0.625006
O O23 0.154743 0.250000 0.639834
#
# Coordination Sequence:
#
# PCOD8246251 Si02
#       8
#     8   8   8   8   8   8   8   8
#     4  11  22  37  57  79 106 140 179 222 268 318
#     4  10  20  35  56  82 111 141 174 215 265 320
#     4   9  16  28  49  75 100 131 174 215 247 290
#     4   9  18  33  53  76 102 134 172 214 259 306
#     4  10  19  33  55  79 102 132 174 218 255 299
#     4   9  17  30  50  78 109 137 169 214 262 303
#     4  10  20  34  53  76 102 133 170 212 257 305
#     4  10  21  36  52  74 107 141 170 208 263 318
#
# _framework density 18.812463000000001
#
# number of rings (size 3 to 8) (size 9 to 14) (size 15 to 20)
#    0.000    2.250    0.000    3.375    0.000    8.000 
#    0.000    3.125    0.000    4.875    0.000    0.000 
#    0.000    0.000    0.000    0.000    0.000    0.000 
#
# Total GULP energy -793696.119317 kJ/mol
# GULP energy per Si atom -12401.501864 kJ/mol
# Density = 1.876965 g / cm^3
# Si number density = 18.812463 Si / 1000 Ang^3
#
#
#
# Elastic Constant Matrix: (Units=GPa)
#
#
# Indices 1 2 3 4 5 6 
#
# 1 205.1022 35.3082 111.7111 0.0000 0.0000 0.0000
# 2 35.3082 34.4449 36.6844 0.0000 0.0000 0.0000
# 3 111.7111 36.6844 216.8504 0.0000 0.0000 0.0000
# 4 0.0000 0.0000 0.0000 28.1656 0.0000 0.0000
# 5 0.0000 0.0000 0.0000 0.0000 50.1303 0.0000
# 6 0.0000 0.0000 0.0000 0.0000 0.0000 27.5350
#
#
#
# Elastic Compliance Matrix: (Units=1/GPa)
#
#
# Indices 1 2 3 4 5 6 
#
# 1 0.007245 -0.004210 -0.003020 0.000000 0.000000 0.000000
# 2 -0.004210 0.037859 -0.004236 0.000000 0.000000 0.000000
# 3 -0.003020 -0.004236 0.006884 0.000000 0.000000 0.000000
# 4 0.000000 0.000000 0.000000 0.035504 0.000000 0.000000
# 5 0.000000 0.000000 0.000000 0.000000 0.019948 0.000000
# 6 0.000000 0.000000 0.000000 0.000000 0.000000 0.036317
#
#
# Mechanical properties :
#
#
# Convention : Reuss Voigt Hill
#
# Bulk Modulus (GPa) = 34.41665 91.53386 62.97526
# Shear Modulus (GPa) = 28.34864 39.34579 33.84721
#
# Velocity S-wave (km/s) = 3.88610 4.57823 4.24629
# Velocity P-wave (km/s) = 6.20242 8.75834 7.58876
#
# Compressibility (1/GPa) = 0.02905570
#
# Stress axis : x y z
#
# Youngs Moduli (GPa) = 138.01785 26.41397 145.26703
#
# Poissons Ratio (x) = 0.11121 0.43874
# Poissons Ratio (y) = 0.58111 0.61528
# Poissons Ratio (z) = 0.41685 0.11188
#
# Static dielectric constant tensor:
#      x y z
#    x 3.805770 0.000000 0.000000 
#    y 0.000000 3.046320 0.000000 
#    z 0.000000 0.000000 3.814090 
# 
# 
# High freq. dielectric constant tensor:
#      x y z
#    x 1.757670 0.000000 0.000000 
#    y 0.000000 1.686270 0.000000 
#    z 0.000000 0.000000 1.760040 
# 
# From -- ./inp_files/30700.got.cif
#   From: 2010.03.12/outbox.ucp.g09.slc.cvg/sg59_16_cif.got.tgz:30700.got - 2010.05.04 19:30:51.
