data_PCOD8246446
_publ_section_title
;
Structure prediction by ZEFSAII (Michael W. Deem and Ramdas Pophale) SiO2 
 PCOD8246446
Probable space group: P B C N
;
_chemical_formula_sum "Si O2"
_cell_formula_units_Z 52
_cell_length_a 11.502139
_cell_length_b 17.359143
_cell_length_c 15.278087
_cell_angle_alpha 90.000000
_cell_angle_beta 90.000000
_cell_angle_gamma 90.000000
_cell_volume 3050.534009
_symmetry_space_group_name_H-M "P B C N"
_symmetry_group_IT_number 60
_symmetry_cell_setting 'orthorhombic'
loop_
_space_group_symop_operation_xyz
x,y,z
1/2-x,1/2-y,1/2+z
1/2+x,1/2-y,-z
-x,y,1/2-z
-x,-y,-z
1/2+x,1/2+y,1/2-z
1/2-x,1/2+y,z
x,-y,1/2+z
loop_
_atom_site_type_symbol
_atom_site_label
_atom_site_fract_x
_atom_site_fract_y
_atom_site_fract_z
Si Si1 0.755886 0.265324 0.923714
Si Si2 0.373916 0.271625 0.744540
Si Si3 0.500000 0.579952 0.250000
Si Si4 0.612429 0.456908 0.584866
Si Si5 0.492321 0.749590 0.853323
Si Si6 0.911847 0.879811 0.017291
Si Si7 0.268111 0.822419 0.901349
O O1 0.697060 0.233104 0.834640
O O2 0.889534 0.280495 0.897819
O O3 0.685810 0.340598 0.956391
O O4 0.748928 0.201274 0.998134
O O5 0.500000 0.229425 0.750000
O O6 0.393400 0.362908 0.722958
O O7 0.307471 0.266034 0.837624
O O8 0.461482 0.524089 0.328022
O O9 0.643725 0.537624 0.541409
O O10 0.465773 0.603267 0.470440
O O11 0.730823 0.411605 0.606494
O O12 0.500000 0.733383 0.750000
O O13 0.441863 0.672544 0.898925
O O14 0.401491 0.818385 0.871267
#
# Coordination Sequence:
#
# PCOD8246446 Si02
#       7
#     8   8   4   8   8   8   8
#     4  11  19  35  51  79 112 143 175 229 266 320
#     4   9  17  31  51  75 105 139 179 212 266 316
#     4   8  16  28  52  74 102 132 170 210 262 316
#     4  10  18  35  53  80 103 139 178 221 266 323
#     4  11  22  34  53  83 111 140 180 228 272 314
#     4  10  21  34  55  78 108 136 181 224 273 309
#     4  10  20  33  53  79 108 145 178 218 267 326
#
# _framework density 17.046195999999998
#
# number of rings (size 3 to 8) (size 9 to 14) (size 15 to 20)
#    0.462    1.538    4.615    0.000    3.231    0.000 
#    0.000    0.769    0.000    0.000    0.000    0.000 
#    0.000    0.000    0.000    0.000    0.000    0.000 
#
# Total GULP energy -644267.160520 kJ/mol
# GULP energy per Si atom -12389.753087 kJ/mol
# Density = 1.700740 g / cm^3
# Si number density = 17.046196 Si / 1000 Ang^3
#
#
#
# Elastic Constant Matrix: (Units=GPa)
#
#
# Indices 1 2 3 4 5 6 
#
# 1 116.8157 32.0355 38.2562 0.0000 0.0000 0.0000
# 2 32.0355 61.3073 22.7626 0.0000 0.0000 0.0000
# 3 38.2562 22.7626 107.9024 0.0000 0.0000 0.0000
# 4 0.0000 0.0000 0.0000 18.6392 0.0000 0.0000
# 5 0.0000 0.0000 0.0000 0.0000 32.4339 0.0000
# 6 0.0000 0.0000 0.0000 0.0000 0.0000 21.3214
#
#
#
# Elastic Compliance Matrix: (Units=1/GPa)
#
#
# Indices 1 2 3 4 5 6 
#
# 1 0.010743 -0.004556 -0.002848 0.000000 0.000000 0.000000
# 2 -0.004556 0.019630 -0.002526 0.000000 0.000000 0.000000
# 3 -0.002848 -0.002526 0.010810 0.000000 0.000000 0.000000
# 4 0.000000 0.000000 0.000000 0.053651 0.000000 0.000000
# 5 0.000000 0.000000 0.000000 0.000000 0.030832 0.000000
# 6 0.000000 0.000000 0.000000 0.000000 0.000000 0.046901
#
#
# Mechanical properties :
#
#
# Convention : Reuss Voigt Hill
#
# Bulk Modulus (GPa) = 46.89634 52.45932 49.67783
# Shear Modulus (GPa) = 25.05858 27.34365 26.20111
#
# Velocity S-wave (km/s) = 3.83827 4.00946 3.92480
# Velocity P-wave (km/s) = 6.87125 7.23021 7.05301
#
# Compressibility (1/GPa) = 0.02132362
#
# Stress axis : x y z
#
# Youngs Moduli (GPa) = 93.08813 50.94307 92.50682
#
# Poissons Ratio (x) = 0.23210 0.26342
# Poissons Ratio (y) = 0.42412 0.23364
# Poissons Ratio (z) = 0.26507 0.12866
#
# Static dielectric constant tensor:
#      x y z
#    x 3.282010 0.000000 0.000000 
#    y 0.000000 2.731490 0.000000 
#    z 0.000000 0.000000 3.375290 
# 
# 
# High freq. dielectric constant tensor:
#      x y z
#    x 1.657230 0.000000 0.000000 
#    y 0.000000 1.608130 0.000000 
#    z 0.000000 0.000000 1.679150 
# 
# From -- ./inp_files/16417.got.cif
#   From: 2010.03.12/outbox.cif.g09.slc.cpg/sg60_9_cif.got.tgz:16417.got - 2010.04.10 18:46:24.
