data_PCOD8246034
_publ_section_title
;
Structure prediction by ZEFSAII (Michael W. Deem and Ramdas Pophale) SiO2 
 PCOD8246034
Probable space group: P M M N
;
_chemical_formula_sum "Si O2"
_cell_formula_units_Z 48
_cell_length_a 8.795832
_cell_length_b 23.605223
_cell_length_c 11.422290
_cell_angle_alpha 90.000000
_cell_angle_beta 90.000000
_cell_angle_gamma 90.000000
_cell_volume 2371.582383
_symmetry_space_group_name_H-M "P M M N"
_symmetry_group_IT_number 59
_space_group.IT_coordinate_system_code '2'
_symmetry_cell_setting 'orthorhombic'
loop_
_space_group_symop_operation_xyz
x,y,z
1/2-x,1/2-y,z
1/2+x,-y,-z
-x,1/2+y,-z
-x,-y,-z
1/2+x,1/2+y,-z
1/2-x,y,z
x,1/2-y,z
loop_
_atom_site_type_symbol
_atom_site_label
_atom_site_fract_x
_atom_site_fract_y
_atom_site_fract_z
Si Si1 0.570347 0.811065 0.186436
Si Si2 0.070528 0.684745 0.636779
Si Si3 0.430650 0.085281 0.951278
Si Si4 0.929808 0.906664 0.786779
Si Si5 0.427312 0.125311 0.582071
Si Si6 0.570462 0.982762 0.270915
O O1 0.750000 0.807854 0.172223
O O2 0.494390 0.750000 0.164872
O O3 0.503335 0.854263 0.091295
O O4 0.531634 0.830555 0.316943
O O5 0.250000 0.684874 0.648326
O O6 0.010506 0.750000 0.627331
O O7 0.999638 0.653936 0.750450
O O8 0.023562 0.645413 0.528178
O O9 0.250000 0.086434 0.946554
O O10 0.487268 0.038507 0.857712
O O11 0.488901 0.076498 0.083074
O O12 0.750000 0.901406 0.779902
O O13 0.986839 0.957713 0.702525
O O14 0.250000 0.126857 0.548297
O O15 0.473013 0.062371 0.627722
O O16 0.750000 0.992451 0.269821
#
# Coordination Sequence:
#
# PCOD8246034 Si02
#       6
#     8   8   8   8   8   8
#     4   8  13  24  47  78 107 133 167 218 273 316
#     4  11  25  42  57  75 105 145 182 219 269 322
#     4   8  16  30  49  78 112 144 178 216 263 315
#     4  11  22  35  55  82 110 144 185 222 257 309
#     4   9  18  34  58  84 106 134 176 223 269 319
#     4   9  18  35  58  84 114 142 171 216 273 324
#
# _framework density 20.239650000000001
#
# number of rings (size 3 to 8) (size 9 to 14) (size 15 to 20)
#    0.000    2.667    0.000    4.000    0.000    4.000 
#    0.000    2.500    0.000    2.000    0.000    9.333 
#    0.000    0.000    0.000    0.000    0.000    0.000 
#
# Total GULP energy -594854.663225 kJ/mol
# GULP energy per Si atom -12392.805484 kJ/mol
# Density = 2.019358 g / cm^3
# Si number density = 20.239650 Si / 1000 Ang^3
#
#
#
# Elastic Constant Matrix: (Units=GPa)
#
#
# Indices 1 2 3 4 5 6 
#
# 1 45.6923 29.9434 23.5251 0.0000 0.0000 0.0000
# 2 29.9434 130.5134 36.3822 0.0000 0.0000 0.0000
# 3 23.5251 36.3822 68.7838 0.0000 0.0000 0.0000
# 4 0.0000 0.0000 0.0000 19.6348 0.0000 0.0000
# 5 0.0000 0.0000 0.0000 0.0000 16.8675 0.0000
# 6 0.0000 0.0000 0.0000 0.0000 0.0000 27.7004
#
#
#
# Elastic Compliance Matrix: (Units=1/GPa)
#
#
# Indices 1 2 3 4 5 6 
#
# 1 0.028658 -0.004507 -0.007417 0.000000 0.000000 0.000000
# 2 -0.004507 0.009696 -0.003587 0.000000 0.000000 0.000000
# 3 -0.007417 -0.003587 0.018973 0.000000 0.000000 0.000000
# 4 0.000000 0.000000 0.000000 0.050930 0.000000 0.000000
# 5 0.000000 0.000000 0.000000 0.000000 0.059285 0.000000
# 6 0.000000 0.000000 0.000000 0.000000 0.000000 0.036101
#
#
# Mechanical properties :
#
#
# Convention : Reuss Voigt Hill
#
# Bulk Modulus (GPa) = 38.01815 47.18786 42.60300
# Shear Modulus (GPa) = 20.53943 23.18313 21.86128
#
# Velocity S-wave (km/s) = 3.18907 3.38809 3.29009
# Velocity P-wave (km/s) = 5.69078 6.21858 5.96053
#
# Compressibility (1/GPa) = 0.02630322
#
# Stress axis : x y z
#
# Youngs Moduli (GPa) = 34.89397 103.13445 52.70782
#
# Poissons Ratio (x) = 0.46486 0.39096
# Poissons Ratio (y) = 0.15728 0.18907
# Poissons Ratio (z) = 0.25883 0.36995
#
# Static dielectric constant tensor:
#      x y z
#    x 3.165190 0.000000 0.000000 
#    y 0.000000 3.688970 0.000000 
#    z 0.000000 0.000000 3.754970 
# 
# 
# High freq. dielectric constant tensor:
#      x y z
#    x 1.747930 0.000000 0.000000 
#    y 0.000000 1.806600 0.000000 
#    z 0.000000 0.000000 1.786700 
# 
# From -- ./inp_files/14343.got.cif
#   From: 2010.03.12/outbox.cif.g09.slc.cpg/sg59_8_cif.got.tgz:14343.got - 2010.04.16 16:29:54.
