data_PCOD8246150
_publ_section_title
;
Structure prediction by ZEFSAII (Michael W. Deem and Ramdas Pophale) SiO2 
 PCOD8246150
Probable space group: P M M N
;
_chemical_formula_sum "Si O2"
_cell_formula_units_Z 64
_cell_length_a 25.708839
_cell_length_b 9.318899
_cell_length_c 17.847216
_cell_angle_alpha 90.000000
_cell_angle_beta 90.000000
_cell_angle_gamma 90.000000
_cell_volume 4275.801636
_symmetry_space_group_name_H-M "P M M N"
_symmetry_group_IT_number 59
_space_group.IT_coordinate_system_code '2'
_symmetry_cell_setting 'orthorhombic'
loop_
_space_group_symop_operation_xyz
x,y,z
1/2-x,1/2-y,z
1/2+x,-y,-z
-x,1/2+y,-z
-x,-y,-z
1/2+x,1/2+y,-z
1/2-x,y,z
x,1/2-y,z
loop_
_atom_site_type_symbol
_atom_site_label
_atom_site_fract_x
_atom_site_fract_y
_atom_site_fract_z
Si Si1 0.188255 0.409823 0.630113
Si Si2 0.111590 0.418589 0.917075
Si Si3 0.810250 0.082968 0.796991
Si Si4 0.688164 0.912120 0.651570
Si Si5 0.312096 0.911886 0.490488
Si Si6 0.191958 0.421019 0.795313
Si Si7 0.613812 0.082867 0.926996
Si Si8 0.500946 0.413099 0.925579
O O1 0.250000 0.400283 0.624421
O O2 0.165035 0.250000 0.617263
O O3 0.166144 0.515929 0.566571
O O4 0.173251 0.470687 0.712457
O O5 0.121285 0.250000 0.929444
O O6 0.152443 0.482606 0.857351
O O7 0.053254 0.448034 0.882252
O O8 0.120079 0.495165 0.996464
O O9 0.750000 0.052059 0.814110
O O10 0.819901 0.250000 0.779162
O O11 0.842496 0.030831 0.869065
O O12 0.830595 0.992554 0.726351
O O13 0.750000 0.910507 0.648480
O O14 0.666133 0.750000 0.650871
O O15 0.666242 0.997707 0.579850
O O16 0.250000 0.911237 0.490076
O O17 0.333662 0.750000 0.485481
O O18 0.250000 0.479558 0.813035
O O19 0.192555 0.250000 0.795755
O O20 0.621248 0.250000 0.946416
O O21 0.556954 0.055551 0.886691
O O22 0.499138 0.250000 0.951199
O O23 0.500000 0.500000 0.000000
#
# Coordination Sequence:
#
# PCOD8246150 Si02
#       8
#     8   8   8   8   8   8   8   8
#     4   8  13  22  35  49  68  96 126 152 179 213
#     4   9  16  26  41  58  74  96 128 161 189 221
#     4   9  17  28  39  51  72 102 130 154 184 224
#     4   9  16  25  37  53  73  97 125 155 185 218
#     4   9  15  22  34  52  73  97 125 154 182 214
#     4   8  14  24  37  54  77 103 128 155 187 220
#     4   9  17  28  40  54  74  99 125 156 194 229
#     4   8  14  25  40  56  72  91 119 156 194 227
#
# _framework density 14.967953
#
# number of rings (size 3 to 8) (size 9 to 14) (size 15 to 20)
#    0.000    3.375    0.000    1.500    0.000    4.000 
#    0.000    0.625    0.000    0.750    0.000    0.000 
#    0.000    1.000    0.000    1.750    0.000    2.500 
#
# Total GULP energy -792835.428067 kJ/mol
# GULP energy per Si atom -12388.053564 kJ/mol
# Density = 1.493389 g / cm^3
# Si number density = 14.967953 Si / 1000 Ang^3
#
#
#
# Elastic Constant Matrix: (Units=GPa)
#
#
# Indices 1 2 3 4 5 6 
#
# 1 64.7768 26.8699 53.7405 0.0000 0.0000 0.0000
# 2 26.8699 64.5805 49.7024 0.0000 0.0000 0.0000
# 3 53.7405 49.7024 121.6632 0.0000 0.0000 0.0000
# 4 0.0000 0.0000 0.0000 22.0810 0.0000 0.0000
# 5 0.0000 0.0000 0.0000 0.0000 1.6758 0.0000
# 6 0.0000 0.0000 0.0000 0.0000 0.0000 10.1282
#
#
#
# Elastic Compliance Matrix: (Units=1/GPa)
#
#
# Indices 1 2 3 4 5 6 
#
# 1 0.024696 -0.002742 -0.009788 0.000000 0.000000 0.000000
# 2 -0.002742 0.022890 -0.008140 0.000000 0.000000 0.000000
# 3 -0.009788 -0.008140 0.015869 0.000000 0.000000 0.000000
# 4 0.000000 0.000000 0.000000 0.045288 0.000000 0.000000
# 5 0.000000 0.000000 0.000000 0.000000 0.596716 0.000000
# 6 0.000000 0.000000 0.000000 0.000000 0.000000 0.098734
#
#
# Mechanical properties :
#
#
# Convention : Reuss Voigt Hill
#
# Bulk Modulus (GPa) = 45.22059 56.84954 51.03507
# Shear Modulus (GPa) = 5.86233 14.82417 10.34325
#
# Velocity S-wave (km/s) = 1.98118 3.15047 2.63159
# Velocity P-wave (km/s) = 5.95908 7.16221 6.58817
#
# Compressibility (1/GPa) = 0.02211382
#
# Stress axis : x y z
#
# Youngs Moduli (GPa) = 40.49304 43.68705 63.01787
#
# Poissons Ratio (x) = 0.11978 0.61684
# Poissons Ratio (y) = 0.11102 0.51297
# Poissons Ratio (z) = 0.39636 0.35562
#
# Static dielectric constant tensor:
#      x y z
#    x 3.071450 0.000000 0.000000 
#    y 0.000000 2.905580 0.000000 
#    z 0.000000 0.000000 2.903270 
# 
# 
# High freq. dielectric constant tensor:
#      x y z
#    x 1.530890 0.000000 0.000000 
#    y 0.000000 1.569210 0.000000 
#    z 0.000000 0.000000 1.563380 
# 
# From -- ./inp_files/25056.got.cif
#   From: 2010.03.12/outbox.cif.g09.slc.cpg/sg59_13_cif.got.tgz:25056.got - 2010.04.16 16:29:54.
