data_PCOD8246452
_publ_section_title
;
Structure prediction by ZEFSAII (Michael W. Deem and Ramdas Pophale) SiO2 
 PCOD8246452
Probable space group: P B C N
;
_chemical_formula_sum "Si O2"
_cell_formula_units_Z 64
_cell_length_a 9.570623
_cell_length_b 31.846525
_cell_length_c 10.184052
_cell_angle_alpha 90.000000
_cell_angle_beta 90.000000
_cell_angle_gamma 90.000000
_cell_volume 3104.008255
_symmetry_space_group_name_H-M "P B C N"
_symmetry_group_IT_number 60
_symmetry_cell_setting 'orthorhombic'
loop_
_space_group_symop_operation_xyz
x,y,z
1/2-x,1/2-y,1/2+z
1/2+x,1/2-y,-z
-x,y,1/2-z
-x,-y,-z
1/2+x,1/2+y,1/2-z
1/2-x,1/2+y,z
x,-y,1/2+z
loop_
_atom_site_type_symbol
_atom_site_label
_atom_site_fract_x
_atom_site_fract_y
_atom_site_fract_z
Si Si1 0.664709 0.014538 0.727705
Si Si2 0.517873 0.225563 0.402065
Si Si3 0.201449 0.574087 0.988495
Si Si4 0.264726 0.160710 0.085938
Si Si5 0.802777 0.346047 0.615079
Si Si6 0.983610 0.198509 0.099825
Si Si7 0.922881 0.568529 0.118674
Si Si8 0.906438 0.017679 0.380582
O O1 0.500000 0.021469 0.750000
O O2 0.730476 0.054422 0.653456
O O3 0.768126 0.011608 0.853947
O O4 0.680261 0.970848 0.645150
O O5 0.500000 0.240257 0.250000
O O6 0.670171 0.206929 0.438048
O O7 0.414705 0.187460 0.435298
O O8 0.493735 0.263920 0.498635
O O9 0.185794 0.624594 0.985060
O O10 0.334138 0.562203 0.081367
O O11 0.051447 0.553812 0.027163
O O12 0.312065 0.146789 0.229865
O O13 0.099825 0.163931 0.071829
O O14 0.656366 0.326902 0.570386
O O15 0.835302 0.392391 0.555746
O O16 0.000000 0.215385 0.250000
O O17 0.000000 0.584475 0.250000
O O18 0.000000 0.022908 0.250000
O O19 0.000000 0.000000 0.500000
#
# Coordination Sequence:
#
# PCOD8246452 Si02
#       8
#     8   8   8   8   8   8   8   8
#     4  11  24  41  66  93 129 177 229 275 335 396
#     4  10  19  37  65  85 118 162 205 249 316 397
#     4  12  22  40  66  93 131 169 220 283 322 386
#     4  10  20  36  59  91 121 160 206 263 322 370
#     4  10  18  35  60  91 121 153 211 267 307 385
#     4  10  22  36  58  94 124 155 203 262 319 385
#     4  11  18  35  63  94 118 159 225 273 314 375
#     4  12  25  42  64  98 133 176 220 270 339 392
#
# _framework density 20.618501999999999
#
# number of rings (size 3 to 8) (size 9 to 14) (size 15 to 20)
#    0.000    1.250    6.250    1.500    0.000    2.500 
#    0.000    0.625    5.500    0.000    0.000    0.000 
#    0.000    0.000    0.000    0.000    0.000    0.000 
#
# Total GULP energy -792996.776834 kJ/mol
# GULP energy per Si atom -12390.574638 kJ/mol
# Density = 2.057157 g / cm^3
# Si number density = 20.618502 Si / 1000 Ang^3
#
#
#
# Elastic Constant Matrix: (Units=GPa)
#
#
# Indices 1 2 3 4 5 6 
#
# 1 95.6225 28.1849 37.0719 0.0000 0.0000 0.0000
# 2 28.1849 108.0271 49.4444 0.0000 0.0000 0.0000
# 3 37.0719 49.4444 80.8532 0.0000 0.0000 0.0000
# 4 0.0000 0.0000 0.0000 24.5058 0.0000 0.0000
# 5 0.0000 0.0000 0.0000 0.0000 26.9011 0.0000
# 6 0.0000 0.0000 0.0000 0.0000 0.0000 17.8321
#
#
#
# Elastic Compliance Matrix: (Units=1/GPa)
#
#
# Indices 1 2 3 4 5 6 
#
# 1 0.012782 -0.000906 -0.005307 0.000000 0.000000 0.000000
# 2 -0.000906 0.012919 -0.007485 0.000000 0.000000 0.000000
# 3 -0.005307 -0.007485 0.019379 0.000000 0.000000 0.000000
# 4 0.000000 0.000000 0.000000 0.040807 0.000000 0.000000
# 5 0.000000 0.000000 0.000000 0.000000 0.037173 0.000000
# 6 0.000000 0.000000 0.000000 0.000000 0.000000 0.056079
#
#
# Mechanical properties :
#
#
# Convention : Reuss Voigt Hill
#
# Bulk Modulus (GPa) = 56.54697 57.10060 56.82379
# Shear Modulus (GPa) = 23.53725 25.16791 24.35258
#
# Velocity S-wave (km/s) = 3.38236 3.49757 3.44045
# Velocity P-wave (km/s) = 6.53749 6.63812 6.58799
#
# Compressibility (1/GPa) = 0.01768441
#
# Stress axis : x y z
#
# Youngs Moduli (GPa) = 78.23386 77.40352 51.60321
#
# Poissons Ratio (x) = 0.07013 0.27384
# Poissons Ratio (y) = 0.07089 0.38626
# Poissons Ratio (z) = 0.41516 0.57938
#
# Static dielectric constant tensor:
#      x y z
#    x 4.081770 0.000000 0.000000 
#    y 0.000000 3.523230 0.000000 
#    z 0.000000 0.000000 3.623070 
# 
# 
# High freq. dielectric constant tensor:
#      x y z
#    x 1.825920 0.000000 0.000000 
#    y 0.000000 1.796110 0.000000 
#    z 0.000000 0.000000 1.769810 
# 
# From -- ./inp_files/10380.got.cif
#   From: 2010.03.12/outbox.cif.g09.slc.cpg/sg60_6_cif.got.tgz:10380.got - 2010.04.10 18:46:24.
