data_PCOD8246418
_publ_section_title
;
Structure prediction by ZEFSAII (Michael W. Deem and Ramdas Pophale) SiO2 
 PCOD8246418
Probable space group: P B C N
;
_chemical_formula_sum "Si O2"
_cell_formula_units_Z 52
_cell_length_a 8.199435
_cell_length_b 18.266691
_cell_length_c 17.725550
_cell_angle_alpha 90.000000
_cell_angle_beta 90.000000
_cell_angle_gamma 90.000000
_cell_volume 2654.871646
_symmetry_space_group_name_H-M "P B C N"
_symmetry_group_IT_number 60
_symmetry_cell_setting 'orthorhombic'
loop_
_space_group_symop_operation_xyz
x,y,z
1/2-x,1/2-y,1/2+z
1/2+x,1/2-y,-z
-x,y,1/2-z
-x,-y,-z
1/2+x,1/2+y,1/2-z
1/2-x,1/2+y,z
x,-y,1/2+z
loop_
_atom_site_type_symbol
_atom_site_label
_atom_site_fract_x
_atom_site_fract_y
_atom_site_fract_z
Si Si1 0.207592 0.216719 0.714279
Si Si2 0.152621 0.586581 0.950086
Si Si3 0.500000 0.147973 0.250000
Si Si4 0.543608 0.068952 0.093620
Si Si5 0.892689 0.825163 0.133891
Si Si6 0.440922 0.775030 0.089047
Si Si7 0.752277 0.803356 0.548559
O O1 0.219792 0.168377 0.790405
O O2 0.382153 0.226858 0.675299
O O3 0.153398 0.298624 0.737860
O O4 0.082302 0.173512 0.657968
O O5 0.100437 0.514753 0.904814
O O6 0.338548 0.610944 0.926068
O O7 0.044934 0.652814 0.920882
O O8 0.119107 0.577472 0.040266
O O9 0.510815 0.094669 0.178153
O O10 0.696099 0.112973 0.057534
O O11 0.865912 0.744114 0.101300
O O12 0.556813 0.705680 0.068968
O O13 0.279932 0.774949 0.036627
#
# Coordination Sequence:
#
# PCOD8246418 Si02
#       7
#     8   8   4   8   8   8   8
#     4  10  19  34  56  83 115 143 194 241 292 332
#     4   9  21  35  60  82 113 153 196 232 274 355
#     4  10  20  34  56  82 116 152 180 242 296 336
#     4  10  19  38  56  83 118 154 189 231 294 339
#     4   9  18  34  55  79 108 150 184 242 276 334
#     4  10  21  32  57  85 107 147 191 237 282 335
#     4  10  18  33  54  79 110 143 191 235 278 336
#
# _framework density 19.586632999999999
#
# number of rings (size 3 to 8) (size 9 to 14) (size 15 to 20)
#    0.000    2.462    3.077    0.923    4.308    3.692 
#    0.000    0.000   10.154    6.462    0.000    0.000 
#    0.000    0.000    0.000    0.000    0.000    0.000 
#
# Total GULP energy -644214.713175 kJ/mol
# GULP energy per Si atom -12388.744484 kJ/mol
# Density = 1.954205 g / cm^3
# Si number density = 19.586633 Si / 1000 Ang^3
#
#
#
# Elastic Constant Matrix: (Units=GPa)
#
#
# Indices 1 2 3 4 5 6 
#
# 1 28.0432 16.1418 21.3603 0.0000 0.0000 0.0000
# 2 16.1418 65.3295 24.0082 0.0000 0.0000 0.0000
# 3 21.3603 24.0082 96.8019 0.0000 0.0000 0.0000
# 4 0.0000 0.0000 0.0000 25.3850 0.0000 0.0000
# 5 0.0000 0.0000 0.0000 0.0000 40.2798 0.0000
# 6 0.0000 0.0000 0.0000 0.0000 0.0000 11.9980
#
#
#
# Elastic Compliance Matrix: (Units=1/GPa)
#
#
# Indices 1 2 3 4 5 6 
#
# 1 0.046840 -0.008555 -0.008214 0.000000 0.000000 0.000000
# 2 -0.008555 0.018405 -0.002677 0.000000 0.000000 0.000000
# 3 -0.008214 -0.002677 0.012807 0.000000 0.000000 0.000000
# 4 0.000000 0.000000 0.000000 0.039393 0.000000 0.000000
# 5 0.000000 0.000000 0.000000 0.000000 0.024826 0.000000
# 6 0.000000 0.000000 0.000000 0.000000 0.000000 0.083347
#
#
# Mechanical properties :
#
#
# Convention : Reuss Voigt Hill
#
# Bulk Modulus (GPa) = 25.53630 34.79947 30.16788
# Shear Modulus (GPa) = 18.01394 24.11019 21.06206
#
# Velocity S-wave (km/s) = 3.03596 3.51230 3.28278
# Velocity P-wave (km/s) = 5.03540 5.85268 5.45936
#
# Compressibility (1/GPa) = 0.03915994
#
# Stress axis : x y z
#
# Youngs Moduli (GPa) = 21.34928 54.33452 78.08364
#
# Poissons Ratio (x) = 0.46482 0.64138
# Poissons Ratio (y) = 0.18264 0.20902
# Poissons Ratio (z) = 0.17536 0.14545
#
# Static dielectric constant tensor:
#      x y z
#    x 3.422900 0.000000 0.000000 
#    y 0.000000 3.370030 0.000000 
#    z 0.000000 0.000000 3.989140 
# 
# 
# High freq. dielectric constant tensor:
#      x y z
#    x 1.740080 0.000000 0.000000 
#    y 0.000000 1.734530 0.000000 
#    z 0.000000 0.000000 1.782110 
# 
# From -- ./inp_files/19522.got.cif
#   From: 2010.03.12/outbox.cif.g09.slc.cpg/sg60_10_cif.got.tgz:19522.got - 2010.04.10 18:46:24.
