data_PCOD8246836
_publ_section_title
;
Structure prediction by ZEFSAII (Michael W. Deem and Ramdas Pophale) SiO2 
 PCOD8246836
Probable space group: P B C N
;
_chemical_formula_sum "Si O2"
_cell_formula_units_Z 44
_cell_length_a 21.754561
_cell_length_b 21.780908
_cell_length_c 5.176069
_cell_angle_alpha 90.000000
_cell_angle_beta 90.000000
_cell_angle_gamma 90.000000
_cell_volume 2452.597953
_symmetry_space_group_name_H-M "P B C N"
_symmetry_group_IT_number 60
_symmetry_cell_setting 'orthorhombic'
loop_
_space_group_symop_operation_xyz
x,y,z
1/2-x,1/2-y,1/2+z
1/2+x,1/2-y,-z
-x,y,1/2-z
-x,-y,-z
1/2+x,1/2+y,1/2-z
1/2-x,1/2+y,z
x,-y,1/2+z
loop_
_atom_site_type_symbol
_atom_site_label
_atom_site_fract_x
_atom_site_fract_y
_atom_site_fract_z
Si Si1 0.528569 0.743103 0.502916
Si Si2 0.672004 0.730320 0.577275
Si Si3 0.092794 0.536156 0.335877
Si Si4 0.500000 0.860004 0.750000
Si Si5 0.774410 0.827055 0.580680
Si Si6 0.762722 0.536632 0.138540
O O1 0.500000 0.707129 0.750000
O O2 0.601518 0.743105 0.518318
O O3 0.502940 0.813790 0.504069
O O4 0.500000 0.710890 0.250000
O O5 0.707650 0.795127 0.560719
O O6 0.696811 0.685149 0.359026
O O7 0.681292 0.698414 0.855219
O O8 0.072002 0.513324 0.618743
O O9 0.061218 0.599377 0.253205
O O10 0.164863 0.547692 0.343265
O O11 0.768882 0.899922 0.559844
O O12 0.742193 0.511819 0.418563
#
# Coordination Sequence:
#
# PCOD8246836 Si02
#       6
#     8   8   8   4   8   8
#     4  10  22  34  51  74 104 139 169 223 255 325
#     4  10  20  36  53  80 107 137 188 212 280 320
#     4  10  21  32  47  67 100 139 183 222 246 292
#     4  10  22  32  50  68 100 142 184 210 262 286
#     4  10  20  34  57  77 106 144 171 234 263 329
#     4  10  20  35  51  77 107 138 178 219 267 309
#
# _framework density 17.940159000000001
#
# number of rings (size 3 to 8) (size 9 to 14) (size 15 to 20)
#    0.545    1.455    0.000    3.818    2.545    0.000 
#    3.273    0.000    0.000    0.000    0.000    0.000 
#    0.000   50.909    0.000    0.000    0.000    0.000 
#
# Total GULP energy -545304.230572 kJ/mol
# GULP energy per Si atom -12393.277968 kJ/mol
# Density = 1.789933 g / cm^3
# Si number density = 17.940159 Si / 1000 Ang^3
#
#
#
# Elastic Constant Matrix: (Units=GPa)
#
#
# Indices 1 2 3 4 5 6 
#
# 1 71.7880 14.1393 31.5123 0.0000 0.0000 0.0000
# 2 14.1393 76.1901 20.7741 0.0000 0.0000 0.0000
# 3 31.5123 20.7741 105.8815 0.0000 0.0000 0.0000
# 4 0.0000 0.0000 0.0000 16.5643 0.0000 0.0000
# 5 0.0000 0.0000 0.0000 0.0000 18.9239 0.0000
# 6 0.0000 0.0000 0.0000 0.0000 0.0000 16.2752
#
#
#
# Elastic Compliance Matrix: (Units=1/GPa)
#
#
# Indices 1 2 3 4 5 6 
#
# 1 0.016252 -0.001793 -0.004485 0.000000 0.000000 0.000000
# 2 -0.001793 0.014065 -0.002226 0.000000 0.000000 0.000000
# 3 -0.004485 -0.002226 0.011216 0.000000 0.000000 0.000000
# 4 0.000000 0.000000 0.000000 0.060371 0.000000 0.000000
# 5 0.000000 0.000000 0.000000 0.000000 0.052843 0.000000
# 6 0.000000 0.000000 0.000000 0.000000 0.000000 0.061443
#
#
# Mechanical properties :
#
#
# Convention : Reuss Voigt Hill
#
# Bulk Modulus (GPa) = 40.77532 42.96788 41.87160
# Shear Modulus (GPa) = 20.71485 22.84827 21.78156
#
# Velocity S-wave (km/s) = 3.40172 3.57260 3.48821
# Velocity P-wave (km/s) = 6.18116 6.40473 6.29394
#
# Compressibility (1/GPa) = 0.02452464
#
# Stress axis : x y z
#
# Youngs Moduli (GPa) = 61.53147 71.09982 89.15776
#
# Poissons Ratio (x) = 0.12749 0.39988
# Poissons Ratio (y) = 0.11033 0.19845
# Poissons Ratio (z) = 0.27597 0.15826
#
# Static dielectric constant tensor:
#      x y z
#    x 3.111950 0.000000 0.000000 
#    y 0.000000 3.008100 0.000000 
#    z 0.000000 0.000000 3.629080 
# 
# 
# High freq. dielectric constant tensor:
#      x y z
#    x 1.676220 0.000000 0.000000 
#    y 0.000000 1.664740 0.000000 
#    z 0.000000 0.000000 1.716290 
# 
# From -- ./inp_files/2325.got.cif
#   From: 2010.03.12/outbox.cif.g09.slc.cpg/sg60_2_cif.got.tgz:2325.got - 2010.04.10 18:46:24.
