data_PCOD8246951
_publ_section_title
;
Structure prediction by ZEFSAII (Michael W. Deem and Ramdas Pophale) SiO2 
 PCOD8246951
Probable space group: P B C N
;
_chemical_formula_sum "Si O2"
_cell_formula_units_Z 64
_cell_length_a 8.963226
_cell_length_b 22.750445
_cell_length_c 16.216543
_cell_angle_alpha 90.000000
_cell_angle_beta 90.000000
_cell_angle_gamma 90.000000
_cell_volume 3306.834963
_symmetry_space_group_name_H-M "P B C N"
_symmetry_group_IT_number 60
_symmetry_cell_setting 'orthorhombic'
loop_
_space_group_symop_operation_xyz
x,y,z
1/2-x,1/2-y,1/2+z
1/2+x,1/2-y,-z
-x,y,1/2-z
-x,-y,-z
1/2+x,1/2+y,1/2-z
1/2-x,1/2+y,z
x,-y,1/2+z
loop_
_atom_site_type_symbol
_atom_site_label
_atom_site_fract_x
_atom_site_fract_y
_atom_site_fract_z
Si Si1 0.824542 0.668029 0.935977
Si Si2 0.322514 0.965242 0.416471
Si Si3 0.827675 0.276685 0.893906
Si Si4 0.677486 0.965242 0.416470
Si Si5 0.671554 0.864655 0.750000
Si Si6 0.323672 0.514617 0.250000
Si Si7 0.172325 0.276685 0.893906
Si Si8 0.824542 0.331971 0.064024
O O1 0.755863 0.715273 0.871723
O O2 0.766279 0.601917 0.924019
O O3 0.000000 0.667990 0.926695
O O4 0.768567 0.692189 0.023582
O O5 0.500000 0.970429 0.405686
O O6 0.266279 0.898083 0.424019
O O7 0.273610 0.000000 0.500000
O O8 0.246356 0.988953 0.333790
O O9 0.792784 0.325155 0.827400
O O10 1.000000 0.260618 0.899369
O O11 0.768566 0.307811 0.976419
O O12 0.753644 0.988953 0.333790
O O13 0.500000 0.887766 0.750000
O O14 0.788554 0.916841 0.750000
O O15 0.707216 0.825154 0.672601
O O16 0.500000 0.503309 0.250000
O O17 0.255863 0.215273 0.871723
#
# Coordination Sequence:
#
# PCOD8246951 Si02
#       8
#     8   8   8   8   8   8   8   8
#     4   9  18  33  54  80 108 141 182 226 276 332
#     4  10  21  40  64  85 113 157 201 237 278 339
#     4   9  18  33  55  81 107 138 177 226 281 335
#     4  10  21  40  64  85 113 157 201 237 278 339
#     4  10  20  37  58  77 103 142 188 230 275 338
#     4  12  26  39  56  87 121 150 188 242 297 344
#     4   9  18  33  55  81 107 138 177 226 281 335
#     4   9  18  33  54  80 108 141 182 226 276 332
#
# _framework density 19.353853000000001
#
# number of rings (size 3 to 8) (size 9 to 14) (size 15 to 20)
#    0.000    2.250    0.000    2.625    0.000    7.500 
#    0.000    7.500    0.000    0.000    0.000    0.000 
#    0.000    0.000    0.000    0.000    0.000    0.000 
#
# Total GULP energy -793220.133828 kJ/mol
# GULP energy per Si atom -12394.064591 kJ/mol
# Density = 1.930980 g / cm^3
# Si number density = 19.353853 Si / 1000 Ang^3
#
#
#
# Elastic Constant Matrix: (Units=GPa)
#
#
# Indices 1 2 3 4 5 6 
#
# 1 43.0812 47.0835 42.5523 0.0000 0.0000 0.0000
# 2 47.0835 171.1837 62.7345 0.0000 0.0000 0.0000
# 3 42.5523 62.7345 114.8624 0.0000 0.0000 0.0000
# 4 0.0000 0.0000 0.0000 148.8698 0.0000 0.0000
# 5 0.0000 0.0000 0.0000 0.0000 22.9388 0.0000
# 6 0.0000 0.0000 0.0000 0.0000 0.0000 35.6808
#
#
#
# Elastic Compliance Matrix: (Units=1/GPa)
#
#
# Indices 1 2 3 4 5 6 
#
# 1 0.043168 -0.007517 -0.011887 0.000000 0.000000 0.000000
# 2 -0.007517 0.008613 -0.001919 0.000000 0.000000 0.000000
# 3 -0.011887 -0.001919 0.014158 0.000000 0.000000 0.000000
# 4 0.000000 0.000000 0.000000 0.006717 0.000000 0.000000
# 5 0.000000 0.000000 0.000000 0.000000 0.043594 0.000000
# 6 0.000000 0.000000 0.000000 0.000000 0.000000 0.028026
#
#
# Mechanical properties :
#
#
# Convention : Reuss Voigt Hill
#
# Bulk Modulus (GPa) = 42.93169 70.42978 56.68073
# Shear Modulus (GPa) = 25.68240 53.28169 39.48205
#
# Velocity S-wave (km/s) = 3.64674 5.25262 4.52155
# Velocity P-wave (km/s) = 6.32157 8.55899 7.52391
#
# Compressibility (1/GPa) = 0.02329282
#
# Stress axis : x y z
#
# Youngs Moduli (GPa) = 23.16529 116.10980 70.63267
#
# Poissons Ratio (x) = 0.87281 0.83958
# Poissons Ratio (y) = 0.17414 0.13555
# Poissons Ratio (z) = 0.27536 0.22283
#
# Static dielectric constant tensor:
#      x y z
#    x 3.372770 0.000000 0.000000 
#    y 0.000000 3.877160 0.000000 
#    z 0.000000 0.000000 3.646560 
# 
# 
# High freq. dielectric constant tensor:
#      x y z
#    x 1.734110 0.000000 0.000000 
#    y 0.000000 1.773590 0.000000 
#    z 0.000000 0.000000 1.753860 
# 
# From -- ./inp_files/19707.got.cif
#   From: 2010.03.12/outbox.cif.g09.slc.cpg/sg60_10_cif.got.tgz:19707.got - 2010.04.10 18:46:24.
