data_PCOD8246568
_publ_section_title
;
Structure prediction by ZEFSAII (Michael W. Deem and Ramdas Pophale) SiO2 
 PCOD8246568
Probable space group: P B C N
;
_chemical_formula_sum "Si O2"
_cell_formula_units_Z 64
_cell_length_a 33.820415
_cell_length_b 17.722330
_cell_length_c 5.223417
_cell_angle_alpha 90.000000
_cell_angle_beta 90.000000
_cell_angle_gamma 90.000000
_cell_volume 3130.793689
_symmetry_space_group_name_H-M "P B C N"
_symmetry_group_IT_number 60
_symmetry_cell_setting 'orthorhombic'
loop_
_space_group_symop_operation_xyz
x,y,z
1/2-x,1/2-y,1/2+z
1/2+x,1/2-y,-z
-x,y,1/2-z
-x,-y,-z
1/2+x,1/2+y,1/2-z
1/2-x,1/2+y,z
x,-y,1/2+z
loop_
_atom_site_type_symbol
_atom_site_label
_atom_site_fract_x
_atom_site_fract_y
_atom_site_fract_z
Si Si1 0.347975 0.190433 0.510469
Si Si2 0.667666 0.025947 0.063258
Si Si3 0.892346 0.726411 0.501991
Si Si4 0.356990 0.387094 0.007942
Si Si5 0.246157 0.037751 0.893948
Si Si6 0.813187 0.851264 0.980419
Si Si7 0.937901 0.955611 0.512552
Si Si8 0.025633 0.790677 0.002472
O O1 0.322371 0.114468 0.467613
O O2 0.377716 0.198841 0.273860
O O3 0.317284 0.260411 0.531468
O O4 0.373895 0.177207 0.766449
O O5 0.643342 0.009400 0.324553
O O6 0.706651 0.973383 0.112167
O O7 0.878604 0.810071 0.562661
O O8 0.939858 0.727479 0.507765
O O9 0.340028 0.385594 0.294060
O O10 0.390052 0.451987 0.992333
O O11 0.324310 0.393866 0.783792
O O12 0.227979 0.014510 0.619934
O O13 0.232279 0.124117 0.955461
O O14 0.957216 0.874491 0.473378
O O15 0.952305 0.990979 0.780488
O O16 0.000000 0.781754 0.750000
O O17 0.000000 0.771993 0.250000
#
# Coordination Sequence:
#
# PCOD8246568 Si02
#       8
#     8   8   8   8   8   8   8   8
#     4  10  19  36  60  80 107 143 183 232 272 316
#     4  10  21  38  56  81 114 143 172 221 279 329
#     4   9  19  35  55  81 104 132 182 228 264 316
#     4   9  19  32  48  71  99 130 180 241 278 297
#     4  10  21  35  49  73 108 141 177 224 275 331
#     4  10  19  33  53  76 100 141 188 228 279 332
#     4  11  22  33  46  69 101 145 193 229 265 322
#     4  11  22  36  53  75 111 147 175 225 280 319
#
# _framework density 20.442101999999998
#
# number of rings (size 3 to 8) (size 9 to 14) (size 15 to 20)
#    0.000    2.000    0.000    3.750    0.000    8.500 
#    0.000    5.000    0.000    0.000    0.000    0.000 
#    0.000   35.000    0.000    0.000    0.000    0.000 
#
# Total GULP energy -793067.674433 kJ/mol
# GULP energy per Si atom -12391.682413 kJ/mol
# Density = 2.039558 g / cm^3
# Si number density = 20.442102 Si / 1000 Ang^3
#
#
#
# Elastic Constant Matrix: (Units=GPa)
#
#
# Indices 1 2 3 4 5 6 
#
# 1 58.0838 22.6631 11.0278 0.0000 0.0000 0.0000
# 2 22.6631 59.6985 21.1420 0.0000 0.0000 0.0000
# 3 11.0278 21.1420 156.1113 0.0000 0.0000 0.0000
# 4 0.0000 0.0000 0.0000 23.8584 0.0000 0.0000
# 5 0.0000 0.0000 0.0000 0.0000 20.2574 0.0000
# 6 0.0000 0.0000 0.0000 0.0000 0.0000 10.4059
#
#
#
# Elastic Compliance Matrix: (Units=1/GPa)
#
#
# Indices 1 2 3 4 5 6 
#
# 1 0.020235 -0.007537 -0.000409 0.000000 0.000000 0.000000
# 2 -0.007537 0.020402 -0.002231 0.000000 0.000000 0.000000
# 3 -0.000409 -0.002231 0.006737 0.000000 0.000000 0.000000
# 4 0.000000 0.000000 0.000000 0.041914 0.000000 0.000000
# 5 0.000000 0.000000 0.000000 0.000000 0.049365 0.000000
# 6 0.000000 0.000000 0.000000 0.000000 0.000000 0.096099
#
#
# Mechanical properties :
#
#
# Convention : Reuss Voigt Hill
#
# Bulk Modulus (GPa) = 37.00821 42.61773 39.81297
# Shear Modulus (GPa) = 18.93144 25.50840 22.21992
#
# Velocity S-wave (km/s) = 3.04649 3.53630 3.30050
# Velocity P-wave (km/s) = 5.52431 6.12921 5.83461
#
# Compressibility (1/GPa) = 0.02702103
#
# Stress axis : x y z
#
# Youngs Moduli (GPa) = 49.41964 49.01473 148.44186
#
# Poissons Ratio (x) = 0.36942 0.06066
# Poissons Ratio (y) = 0.37247 0.33112
# Poissons Ratio (z) = 0.02020 0.10933
#
# Static dielectric constant tensor:
#      x y z
#    x 3.533670 0.000000 0.000000 
#    y 0.000000 3.465940 0.000000 
#    z 0.000000 0.000000 4.503800 
# 
# 
# High freq. dielectric constant tensor:
#      x y z
#    x 1.762050 0.000000 0.000000 
#    y 0.000000 1.767400 0.000000 
#    z 0.000000 0.000000 1.835870 
# 
# From -- ./inp_files/2737.got.cif
#   From: 2010.03.12/outbox.cif.g09.slc.cpg/sg60_2_cif.got.tgz:2737.got - 2010.04.10 18:46:24.
