data_PCOD8246624
_publ_section_title
;
Structure prediction by ZEFSAII (Michael W. Deem and Ramdas Pophale) SiO2 
 PCOD8246624
Probable space group: P B C N
;
_chemical_formula_sum "Si O2"
_cell_formula_units_Z 48
_cell_length_a 8.379223
_cell_length_b 15.524784
_cell_length_c 16.989133
_cell_angle_alpha 90.000000
_cell_angle_beta 90.000000
_cell_angle_gamma 90.000000
_cell_volume 2210.042021
_symmetry_space_group_name_H-M "P B C N"
_symmetry_group_IT_number 60
_symmetry_cell_setting 'orthorhombic'
loop_
_space_group_symop_operation_xyz
x,y,z
1/2-x,1/2-y,1/2+z
1/2+x,1/2-y,-z
-x,y,1/2-z
-x,-y,-z
1/2+x,1/2+y,1/2-z
1/2-x,1/2+y,z
x,-y,1/2+z
loop_
_atom_site_type_symbol
_atom_site_label
_atom_site_fract_x
_atom_site_fract_y
_atom_site_fract_z
Si Si1 0.726918 0.432286 0.308742
Si Si2 0.879839 0.929137 0.139252
Si Si3 0.000000 0.172275 0.250000
Si Si4 0.743641 0.106474 0.139518
Si Si5 0.000000 0.444250 0.750000
Si Si6 0.234234 0.720551 0.955897
Si Si7 0.608993 0.217954 0.895604
O O1 0.563091 0.461435 0.352041
O O2 0.686119 0.393475 0.222822
O O3 0.858039 0.504467 0.292547
O O4 0.801712 0.367092 0.370335
O O5 0.858228 0.847219 0.082021
O O6 0.778589 0.010665 0.104587
O O7 0.131914 0.111964 0.288357
O O8 0.077125 0.230607 0.183347
O O9 0.752865 0.181837 0.076572
O O10 0.569820 0.113140 0.179258
O O11 0.052798 0.690486 0.941682
O O12 0.277555 0.725259 0.047828
#
# Coordination Sequence:
#
# PCOD8246624 Si02
#       7
#     8   8   4   8   4   8   8
#     4  10  19  36  63  88 122 169 208 252 308 366
#     4  10  21  40  62  90 127 163 207 258 309 368
#     4  10  21  40  63  86 122 170 208 250 302 370
#     4  10  21  39  62  93 124 160 208 255 308 371
#     4  10  19  34  59  92 124 160 210 260 300 366
#     4  11  24  40  62  90 125 162 204 262 322 374
#     4  11  22  40  62  91 127 165 211 258 313 375
#
# _framework density 21.719042000000002
#
# number of rings (size 3 to 8) (size 9 to 14) (size 15 to 20)
#    0.000    1.667    0.000    7.500    0.000    4.000 
#    0.000   14.167    0.000    0.000    0.000    0.000 
#    0.000    0.000    0.000    0.000    0.000    0.000 
#
# Total GULP energy -594949.157693 kJ/mol
# GULP energy per Si atom -12394.774119 kJ/mol
# Density = 2.166961 g / cm^3
# Si number density = 21.719042 Si / 1000 Ang^3
#
#
#
# Elastic Constant Matrix: (Units=GPa)
#
#
# Indices 1 2 3 4 5 6 
#
# 1 102.3367 27.4972 27.2509 0.0000 0.0000 0.0000
# 2 27.4972 84.5291 35.3752 0.0000 0.0000 0.0000
# 3 27.2509 35.3752 93.8295 0.0000 0.0000 0.0000
# 4 0.0000 0.0000 0.0000 37.9966 0.0000 0.0000
# 5 0.0000 0.0000 0.0000 0.0000 35.1321 0.0000
# 6 0.0000 0.0000 0.0000 0.0000 0.0000 17.3800
#
#
#
# Elastic Compliance Matrix: (Units=1/GPa)
#
#
# Indices 1 2 3 4 5 6 
#
# 1 0.011080 -0.002680 -0.002207 0.000000 0.000000 0.000000
# 2 -0.002680 0.014695 -0.004762 0.000000 0.000000 0.000000
# 3 -0.002207 -0.004762 0.013094 0.000000 0.000000 0.000000
# 4 0.000000 0.000000 0.000000 0.026318 0.000000 0.000000
# 5 0.000000 0.000000 0.000000 0.000000 0.028464 0.000000
# 6 0.000000 0.000000 0.000000 0.000000 0.000000 0.057537
#
#
# Mechanical properties :
#
#
# Convention : Reuss Voigt Hill
#
# Bulk Modulus (GPa) = 51.09969 51.21576 51.15772
# Shear Modulus (GPa) = 28.24696 30.80655 29.52675
#
# Velocity S-wave (km/s) = 3.61024 3.77027 3.69112
# Velocity P-wave (km/s) = 6.39978 6.52575 6.46307
#
# Compressibility (1/GPa) = 0.01956959
#
# Stress axis : x y z
#
# Youngs Moduli (GPa) = 90.25547 68.05045 76.37123
#
# Poissons Ratio (x) = 0.18241 0.16857
# Poissons Ratio (y) = 0.24193 0.36366
# Poissons Ratio (z) = 0.19922 0.32404
#
# Static dielectric constant tensor:
#      x y z
#    x 4.476210 0.000000 0.000000 
#    y 0.000000 3.845770 0.000000 
#    z 0.000000 0.000000 3.847120 
# 
# 
# High freq. dielectric constant tensor:
#      x y z
#    x 1.871020 0.000000 0.000000 
#    y 0.000000 1.843560 0.000000 
#    z 0.000000 0.000000 1.840560 
# 
# From -- ./inp_files/15079.got.cif
#   From: 2010.03.12/outbox.cif.g09.slc.cpg/sg60_8_cif.got.tgz:15079.got - 2010.04.10 18:46:24.
