data_PCOD8246157
_publ_section_title
;
Structure prediction by ZEFSAII (Michael W. Deem and Ramdas Pophale) SiO2 
 PCOD8246157
Probable space group: P M M N
;
_chemical_formula_sum "Si O2"
_cell_formula_units_Z 64
_cell_length_a 9.335782
_cell_length_b 19.269205
_cell_length_c 20.868031
_cell_angle_alpha 90.000000
_cell_angle_beta 90.000000
_cell_angle_gamma 90.000000
_cell_volume 3754.014729
_symmetry_space_group_name_H-M "P M M N"
_symmetry_group_IT_number 59
_space_group.IT_coordinate_system_code '2'
_symmetry_cell_setting 'orthorhombic'
loop_
_space_group_symop_operation_xyz
x,y,z
1/2-x,1/2-y,z
1/2+x,-y,-z
-x,1/2+y,-z
-x,-y,-z
1/2+x,1/2+y,-z
1/2-x,y,z
x,1/2-y,z
loop_
_atom_site_type_symbol
_atom_site_label
_atom_site_fract_x
_atom_site_fract_y
_atom_site_fract_z
Si Si1 0.581114 0.330040 0.752865
Si Si2 0.588562 0.167358 0.509916
Si Si3 0.911123 0.832626 0.371298
Si Si4 0.410949 0.667589 0.631117
Si Si5 0.081719 0.928178 0.993207
Si Si6 0.084228 0.924053 0.133664
Si Si7 0.417145 0.170330 0.248679
Si Si8 0.919858 0.918606 0.873050
O O1 0.750000 0.340256 0.742334
O O2 0.544288 0.250000 0.766424
O O3 0.501296 0.358066 0.689810
O O4 0.516933 0.373618 0.812782
O O5 0.750000 0.140940 0.522960
O O6 0.587118 0.250000 0.512418
O O7 0.483829 0.136700 0.564257
O O8 0.536503 0.142034 0.439259
O O9 0.750000 0.861836 0.366752
O O10 0.911169 0.750000 0.374023
O O11 0.250000 0.641417 0.643301
O O12 0.417656 0.750000 0.632445
O O13 0.509502 0.637947 0.687978
O O14 0.250000 0.939241 0.978692
O O15 0.060659 0.891007 0.062534
O O16 0.004469 0.887215 0.934984
O O17 0.000000 0.000000 0.000000
O O18 0.250000 0.929054 0.149553
O O19 0.024580 0.002707 0.138602
O O20 0.250000 0.162882 0.260135
O O21 0.462259 0.250000 0.237030
O O22 0.467016 0.127026 0.187259
O O23 0.750000 0.914970 0.886348
#
# Coordination Sequence:
#
# PCOD8246157 Si02
#       8
#     8   8   8   8   8   8   8   8
#     4   9  16  27  43  60  80 108 138 167 203 248
#     4   8  13  22  36  54  77 107 141 171 201 242
#     4   9  16  24  35  55  83 110 135 167 206 244
#     4   8  14  24  38  57  82 110 139 173 210 246
#     4   9  16  28  46  66  86 108 138 175 212 249
#     4   8  15  28  45  63  81 104 136 171 205 243
#     4   9  17  28  42  61  86 115 143 171 208 253
#     4   9  17  30  46  63  85 112 142 175 208 248
#
# _framework density 17.048414000000001
#
# number of rings (size 3 to 8) (size 9 to 14) (size 15 to 20)
#    0.000    3.375    0.000    2.250    0.000    2.500 
#    0.000    6.250    0.000    0.750    0.000    0.875 
#    0.000    0.000    0.000    0.000    0.000    0.000 
#
# Total GULP energy -792989.754954 kJ/mol
# GULP energy per Si atom -12390.464921 kJ/mol
# Density = 1.700961 g / cm^3
# Si number density = 17.048414 Si / 1000 Ang^3
#
#
#
# Elastic Constant Matrix: (Units=GPa)
#
#
# Indices 1 2 3 4 5 6 
#
# 1 71.7501 19.2535 73.1593 0.0000 0.0000 0.0000
# 2 19.2535 31.6106 44.8936 0.0000 0.0000 0.0000
# 3 73.1593 44.8936 192.1038 0.0000 0.0000 0.0000
# 4 0.0000 0.0000 0.0000 7.7235 0.0000 0.0000
# 5 0.0000 0.0000 0.0000 0.0000 32.2098 0.0000
# 6 0.0000 0.0000 0.0000 0.0000 0.0000 9.6499
#
#
#
# Elastic Compliance Matrix: (Units=1/GPa)
#
#
# Indices 1 2 3 4 5 6 
#
# 1 0.022900 -0.002338 -0.008174 0.000000 0.000000 0.000000
# 2 -0.002338 0.047589 -0.010231 0.000000 0.000000 0.000000
# 3 -0.008174 -0.010231 0.010709 0.000000 0.000000 0.000000
# 4 0.000000 0.000000 0.000000 0.129475 0.000000 0.000000
# 5 0.000000 0.000000 0.000000 0.000000 0.031046 0.000000
# 6 0.000000 0.000000 0.000000 0.000000 0.000000 0.103628
#
#
# Mechanical properties :
#
#
# Convention : Reuss Voigt Hill
#
# Bulk Modulus (GPa) = 25.18197 63.34192 44.26194
# Shear Modulus (GPa) = 12.49776 20.46051 16.47914
#
# Velocity S-wave (km/s) = 2.71047 3.46806 3.11241
# Velocity P-wave (km/s) = 4.95968 7.29873 6.23979
#
# Compressibility (1/GPa) = 0.03971096
#
# Stress axis : x y z
#
# Youngs Moduli (GPa) = 43.66851 21.01328 93.37513
#
# Poissons Ratio (x) = 0.04914 0.76329
# Poissons Ratio (y) = 0.10212 0.95529
# Poissons Ratio (z) = 0.35697 0.21498
#
# Static dielectric constant tensor:
#      x y z
#    x 3.207160 0.000000 0.000000 
#    y 0.000000 2.759180 0.000000 
#    z 0.000000 0.000000 3.789060 
# 
# 
# High freq. dielectric constant tensor:
#      x y z
#    x 1.646750 0.000000 0.000000 
#    y 0.000000 1.591060 0.000000 
#    z 0.000000 0.000000 1.679540 
# 
# From -- ./inp_files/29725.got.cif
#   From: 2010.03.12/outbox.cif.g09.slc.cpg/sg59_15_cif.got.tgz:29725.got - 2010.04.16 16:29:54.
