data_PCOD8246359
_publ_section_title
;
Structure prediction by ZEFSAII (Michael W. Deem and Ramdas Pophale) SiO2 
 PCOD8246359
Probable space group: P B C N
;
_chemical_formula_sum "Si O2"
_cell_formula_units_Z 64
_cell_length_a 19.154483
_cell_length_b 25.434860
_cell_length_c 7.951704
_cell_angle_alpha 90.000000
_cell_angle_beta 90.000000
_cell_angle_gamma 90.000000
_cell_volume 3874.003343
_symmetry_space_group_name_H-M "P B C N"
_symmetry_group_IT_number 60
_symmetry_cell_setting 'orthorhombic'
loop_
_space_group_symop_operation_xyz
x,y,z
1/2-x,1/2-y,1/2+z
1/2+x,1/2-y,-z
-x,y,1/2-z
-x,-y,-z
1/2+x,1/2+y,1/2-z
1/2-x,1/2+y,z
x,-y,1/2+z
loop_
_atom_site_type_symbol
_atom_site_label
_atom_site_fract_x
_atom_site_fract_y
_atom_site_fract_z
Si Si1 0.296918 0.688755 0.680844
Si Si2 0.184905 0.733353 0.904909
Si Si3 0.071387 0.290367 0.162765
Si Si4 0.559097 0.932502 0.997258
Si Si5 0.637268 0.837527 0.826128
Si Si6 0.572237 0.733090 0.677739
Si Si7 0.681117 0.872748 0.476341
Si Si8 0.911838 0.544011 0.877551
O O1 0.249521 0.730448 0.779290
O O2 0.310159 0.711875 0.498318
O O3 0.369581 0.686669 0.786920
O O4 0.252232 0.636276 0.634162
O O5 0.112142 0.738573 0.810040
O O6 0.188282 0.681645 0.024910
O O7 0.000000 0.310678 0.250000
O O8 0.061973 0.246594 0.018023
O O9 0.116020 0.340009 0.100152
O O10 0.588280 0.937409 0.185011
O O11 0.475176 0.932445 0.009758
O O12 0.583908 0.880423 0.901110
O O13 0.586244 0.981079 0.884251
O O14 0.592343 0.786588 0.774388
O O15 0.685889 0.858759 0.674221
O O16 0.500000 0.710840 0.750000
O O17 0.660106 0.933827 0.457136
#
# Coordination Sequence:
#
# PCOD8246359 Si02
#       8
#     8   8   8   8   8   8   8   8
#     4  10  18  32  45  63  88 114 155 193 236 281
#     4  10  18  29  44  63  85 117 147 193 233 275
#     4  10  19  29  44  64  88 117 155 197 233 275
#     4  10  20  33  46  64  93 121 157 204 230 277
#     4  10  20  31  46  66  90 119 159 191 236 275
#     4  10  21  32  46  67  88 120 155 198 236 282
#     4  10  21  30  47  64  87 123 157 198 233 278
#     4  10  21  32  46  65  89 125 161 194 246 265
#
# _framework density 16.520378000000001
#
# number of rings (size 3 to 8) (size 9 to 14) (size 15 to 20)
#    0.000    2.000    0.000    6.750    7.000    1.000 
#    0.000    0.000    0.000    0.000    0.000    0.000 
#    0.000    0.000    0.000   10.125    0.000   10.125 
#
# Total GULP energy -793063.171988 kJ/mol
# GULP energy per Si atom -12391.612062 kJ/mol
# Density = 1.648278 g / cm^3
# Si number density = 16.520378 Si / 1000 Ang^3
#
#
#
# Elastic Constant Matrix: (Units=GPa)
#
#
# Indices 1 2 3 4 5 6 
#
# 1 78.0555 23.0526 20.9515 0.0000 0.0000 0.0000
# 2 23.0526 48.1263 13.8236 0.0000 0.0000 0.0000
# 3 20.9515 13.8236 78.4037 0.0000 0.0000 0.0000
# 4 0.0000 0.0000 0.0000 17.0542 0.0000 0.0000
# 5 0.0000 0.0000 0.0000 0.0000 26.5227 0.0000
# 6 0.0000 0.0000 0.0000 0.0000 0.0000 23.5568
#
#
#
# Elastic Compliance Matrix: (Units=1/GPa)
#
#
# Indices 1 2 3 4 5 6 
#
# 1 0.015563 -0.006594 -0.002996 0.000000 0.000000 0.000000
# 2 -0.006594 0.024681 -0.002589 0.000000 0.000000 0.000000
# 3 -0.002996 -0.002589 0.014012 0.000000 0.000000 0.000000
# 4 0.000000 0.000000 0.000000 0.058637 0.000000 0.000000
# 5 0.000000 0.000000 0.000000 0.000000 0.037704 0.000000
# 6 0.000000 0.000000 0.000000 0.000000 0.000000 0.042451
#
#
# Mechanical properties :
#
#
# Convention : Reuss Voigt Hill
#
# Bulk Modulus (GPa) = 33.44903 35.58231 34.51567
# Shear Modulus (GPa) = 21.99042 23.21060 22.60051
#
# Velocity S-wave (km/s) = 3.65239 3.75236 3.70271
# Velocity P-wave (km/s) = 6.17072 6.35286 6.26245
#
# Compressibility (1/GPa) = 0.02989623
#
# Stress axis : x y z
#
# Youngs Moduli (GPa) = 64.25440 40.51687 71.36881
#
# Poissons Ratio (x) = 0.26717 0.21384
# Poissons Ratio (y) = 0.42370 0.18481
# Poissons Ratio (z) = 0.19252 0.10492
#
# Static dielectric constant tensor:
#      x y z
#    x 3.140880 0.000000 0.000000 
#    y 0.000000 2.829410 0.000000 
#    z 0.000000 0.000000 3.491110 
# 
# 
# High freq. dielectric constant tensor:
#      x y z
#    x 1.612370 0.000000 0.000000 
#    y 0.000000 1.584540 0.000000 
#    z 0.000000 0.000000 1.665500 
# 
# From -- ./inp_files/7104.got.cif
#   From: 2010.03.12/outbox.cif.g09.slc.cpg/sg60_4_cif.got.tgz:7104.got - 2010.04.10 18:46:24.
