data_PCOD8246091
_publ_section_title
;
Structure prediction by ZEFSAII (Michael W. Deem and Ramdas Pophale) SiO2 
 PCOD8246091
Probable space group: P M M N
;
_chemical_formula_sum "Si O2"
_cell_formula_units_Z 64
_cell_length_a 9.130347
_cell_length_b 25.254263
_cell_length_c 14.206902
_cell_angle_alpha 90.000000
_cell_angle_beta 90.000000
_cell_angle_gamma 90.000000
_cell_volume 3275.830083
_symmetry_space_group_name_H-M "P M M N"
_symmetry_group_IT_number 59
_space_group.IT_coordinate_system_code '2'
_symmetry_cell_setting 'orthorhombic'
loop_
_space_group_symop_operation_xyz
x,y,z
1/2-x,1/2-y,z
1/2+x,-y,-z
-x,1/2+y,-z
-x,-y,-z
1/2+x,1/2+y,-z
1/2-x,y,z
x,1/2-y,z
loop_
_atom_site_type_symbol
_atom_site_label
_atom_site_fract_x
_atom_site_fract_y
_atom_site_fract_z
Si Si1 0.581809 0.604494 0.078289
Si Si2 0.079852 0.811001 0.607749
Si Si3 0.420607 0.405411 0.706996
Si Si4 0.914228 0.090619 0.098021
Si Si5 0.583018 0.003776 0.596395
Si Si6 0.078971 0.810961 0.390884
Si Si7 0.586521 0.308233 0.999030
Si Si8 0.583627 0.900795 0.717835
O O1 0.750000 0.603420 0.048517
O O2 0.556741 0.582936 0.182498
O O3 0.522808 0.665339 0.077005
O O4 0.492131 0.570250 0.999311
O O5 0.250000 0.822706 0.625399
O O6 0.042836 0.750000 0.630624
O O7 0.039558 0.823535 0.499419
O O8 0.988028 0.847762 0.677320
O O9 0.250000 0.406531 0.679730
O O10 0.505397 0.452658 0.658936
O O11 0.484627 0.348697 0.676396
O O12 0.750000 0.066600 0.103153
O O13 0.002132 0.075442 0.190950
O O14 0.910965 0.155138 0.092872
O O15 0.750000 0.021655 0.580146
O O16 0.500000 0.000000 0.500000
O O17 0.574505 0.946038 0.640600
O O18 0.250000 0.821394 0.372838
O O19 0.039788 0.750000 0.367393
O O20 0.750000 0.306096 0.955084
O O21 0.530041 0.250000 0.026352
O O22 0.750000 0.887573 0.745710
#
# Coordination Sequence:
#
# PCOD8246091 Si02
#       8
#     8   8   8   8   8   8   8   8
#     4   9  19  35  53  78 113 147 186 237 285 337
#     4   9  19  36  57  82 113 150 191 234 284 348
#     4  11  23  38  59  87 120 157 198 244 297 355
#     4   9  19  35  56  80 109 147 189 233 282 341
#     4  11  25  43  64  90 120 154 197 248 299 355
#     4   9  19  36  58  84 115 154 197 241 294 355
#     4   8  16  31  51  77 109 147 192 237 282 337
#     4  11  23  38  58  87 118 149 191 242 296 350
#
# _framework density 19.537033000000001
#
# number of rings (size 3 to 8) (size 9 to 14) (size 15 to 20)
#    0.750    1.625    0.000    3.000    0.000    8.250 
#    0.000    5.625    0.000    0.000    0.000    0.000 
#    0.000    0.000    0.000    0.000    0.000    0.000 
#
# Total GULP energy -793208.020600 kJ/mol
# GULP energy per Si atom -12393.875322 kJ/mol
# Density = 1.949257 g / cm^3
# Si number density = 19.537033 Si / 1000 Ang^3
#
#
#
# Elastic Constant Matrix: (Units=GPa)
#
#
# Indices 1 2 3 4 5 6 
#
# 1 145.1645 36.1811 74.3647 0.0000 0.0000 0.0000
# 2 36.1811 54.8399 21.0809 0.0000 0.0000 0.0000
# 3 74.3647 21.0809 107.4301 0.0000 0.0000 0.0000
# 4 0.0000 0.0000 0.0000 15.3043 0.0000 0.0000
# 5 0.0000 0.0000 0.0000 0.0000 36.4188 0.0000
# 6 0.0000 0.0000 0.0000 0.0000 0.0000 27.5237
#
#
#
# Elastic Compliance Matrix: (Units=1/GPa)
#
#
# Indices 1 2 3 4 5 6 
#
# 1 0.011835 -0.005039 -0.007203 0.000000 0.000000 0.000000
# 2 -0.005039 0.021868 -0.000803 0.000000 0.000000 0.000000
# 3 -0.007203 -0.000803 0.014452 0.000000 0.000000 0.000000
# 4 0.000000 0.000000 0.000000 0.065341 0.000000 0.000000
# 5 0.000000 0.000000 0.000000 0.000000 0.027458 0.000000
# 6 0.000000 0.000000 0.000000 0.000000 0.000000 0.036332
#
#
# Mechanical properties :
#
#
# Convention : Reuss Voigt Hill
#
# Bulk Modulus (GPa) = 45.32233 63.40975 54.36604
# Shear Modulus (GPa) = 23.72672 27.56989 25.64831
#
# Velocity S-wave (km/s) = 3.48867 3.76062 3.62720
# Velocity P-wave (km/s) = 6.28302 7.16819 6.74015
#
# Compressibility (1/GPa) = 0.02206418
#
# Stress axis : x y z
#
# Youngs Moduli (GPa) = 84.49621 45.72856 69.19326
#
# Poissons Ratio (x) = 0.23043 0.49843
# Poissons Ratio (y) = 0.42578 0.05556
# Poissons Ratio (z) = 0.60866 0.03672
#
# Static dielectric constant tensor:
#      x y z
#    x 3.294620 0.000000 0.000000 
#    y 0.000000 3.404260 0.000000 
#    z 0.000000 0.000000 3.444370 
# 
# 
# High freq. dielectric constant tensor:
#      x y z
#    x 1.768100 0.000000 0.000000 
#    y 0.000000 1.750990 0.000000 
#    z 0.000000 0.000000 1.755400 
# 
# From -- ./inp_files/21551.got.cif
#   From: 2010.03.12/outbox.cif.g09.slc.cpg/sg59_11_cif.got.tgz:21551.got - 2010.04.16 16:29:54.
