data_PCOD8246865
_publ_section_title
;
Structure prediction by ZEFSAII (Michael W. Deem and Ramdas Pophale) SiO2 
 PCOD8246865
Probable space group: P B C N
;
_chemical_formula_sum "Si O2"
_cell_formula_units_Z 36
_cell_length_a 21.101058
_cell_length_b 5.113516
_cell_length_c 19.016348
_cell_angle_alpha 90.000000
_cell_angle_beta 90.000000
_cell_angle_gamma 90.000000
_cell_volume 2051.875315
_symmetry_space_group_name_H-M "P B C N"
_symmetry_group_IT_number 60
_symmetry_cell_setting 'orthorhombic'
loop_
_space_group_symop_operation_xyz
x,y,z
1/2-x,1/2-y,1/2+z
1/2+x,1/2-y,-z
-x,y,1/2-z
-x,-y,-z
1/2+x,1/2+y,1/2-z
1/2-x,1/2+y,z
x,-y,1/2+z
loop_
_atom_site_type_symbol
_atom_site_label
_atom_site_fract_x
_atom_site_fract_y
_atom_site_fract_z
Si Si1 0.000000 0.967079 0.750000
Si Si2 0.878840 0.725532 0.793343
Si Si3 0.621272 0.294691 0.207819
Si Si4 0.291062 0.780945 0.919261
Si Si5 0.208929 0.238786 0.078926
O O1 0.954680 0.783969 0.798537
O O2 0.954653 0.150353 0.701481
O O3 0.864304 0.456090 0.754852
O O4 0.851330 0.716166 0.871541
O O5 0.846040 0.957651 0.747388
O O6 0.648431 0.260948 0.130086
O O7 0.237465 0.565697 0.904039
O O8 0.315869 0.760040 0.999067
O O9 0.262574 0.453863 0.093937
#
# Coordination Sequence:
#
# PCOD8246865 Si02
#       5
#     4   8   8   8   8
#     4   8  22  36  52  80 106 136 184 226 250 300
#     4  10  20  35  57  77 108 140 177 220 261 305
#     4  10  20  35  57  77 108 140 177 220 261 305
#     4  10  21  36  54  81 113 138 169 216 269 320
#     4  10  21  36  54  81 113 138 169 216 269 320
#
# _framework density 17.544927000000001
#
# number of rings (size 3 to 8) (size 9 to 14) (size 15 to 20)
#    1.333    0.889    0.000    3.333    0.000    5.333 
#    0.000    1.111    0.000    2.667    0.000    0.000 
#    0.000    0.000    0.000    0.000    0.000    0.000 
#
# Total GULP energy -446165.693986 kJ/mol
# GULP energy per Si atom -12393.491500 kJ/mol
# Density = 1.750499 g / cm^3
# Si number density = 17.544927 Si / 1000 Ang^3
#
#
#
# Elastic Constant Matrix: (Units=GPa)
#
#
# Indices 1 2 3 4 5 6 
#
# 1 83.0007 8.3464 69.5866 0.0000 0.0000 0.0000
# 2 8.3464 97.3476 25.7941 0.0000 0.0000 0.0000
# 3 69.5866 25.7941 112.5082 0.0000 0.0000 0.0000
# 4 0.0000 0.0000 0.0000 23.7262 0.0000 0.0000
# 5 0.0000 0.0000 0.0000 0.0000 21.0958 0.0000
# 6 0.0000 0.0000 0.0000 0.0000 0.0000 9.4737
#
#
#
# Elastic Compliance Matrix: (Units=1/GPa)
#
#
# Indices 1 2 3 4 5 6 
#
# 1 0.025427 0.002116 -0.016212 0.000000 0.000000 0.000000
# 2 0.002116 0.011113 -0.003856 0.000000 0.000000 0.000000
# 3 -0.016212 -0.003856 0.019799 0.000000 0.000000 0.000000
# 4 0.000000 0.000000 0.000000 0.042148 0.000000 0.000000
# 5 0.000000 0.000000 0.000000 0.000000 0.047403 0.000000
# 6 0.000000 0.000000 0.000000 0.000000 0.000000 0.105555
#
#
# Mechanical properties :
#
#
# Convention : Reuss Voigt Hill
#
# Bulk Modulus (GPa) = 48.93714 55.59008 52.26361
# Shear Modulus (GPa) = 16.99751 23.46777 20.23264
#
# Velocity S-wave (km/s) = 3.11593 3.66126 3.39955
# Velocity P-wave (km/s) = 6.39519 7.04460 6.72773
#
# Compressibility (1/GPa) = 0.02043438
#
# Stress axis : x y z
#
# Youngs Moduli (GPa) = 39.32835 89.98573 50.50691
#
# Poissons Ratio (x) = -0.19037 0.81880
# Poissons Ratio (y) = -0.08320 0.19477
# Poissons Ratio (z) = 0.63758 0.34701
#
# Static dielectric constant tensor:
#      x y z
#    x 2.967930 0.000000 0.000000 
#    y 0.000000 3.482010 0.000000 
#    z 0.000000 0.000000 3.157740 
# 
# 
# High freq. dielectric constant tensor:
#      x y z
#    x 1.653290 0.000000 0.000000 
#    y 0.000000 1.702500 0.000000 
#    z 0.000000 0.000000 1.664250 
# 
# From -- ./inp_files/17583.got.cif
#   From: 2010.03.12/outbox.cif.g09.slc.cpg/sg60_9_cif.got.tgz:17583.got - 2010.04.10 18:46:24.
