data_PCOD8246954
_publ_section_title
;
Structure prediction by ZEFSAII (Michael W. Deem and Ramdas Pophale) SiO2 
 PCOD8246954
Probable space group: P B C N
;
_chemical_formula_sum "Si O2"
_cell_formula_units_Z 48
_cell_length_a 8.955373
_cell_length_b 8.973145
_cell_length_c 30.922975
_cell_angle_alpha 90.000000
_cell_angle_beta 90.000000
_cell_angle_gamma 90.000000
_cell_volume 2484.904110
_symmetry_space_group_name_H-M "P B C N"
_symmetry_group_IT_number 60
_symmetry_cell_setting 'orthorhombic'
loop_
_space_group_symop_operation_xyz
x,y,z
1/2-x,1/2-y,1/2+z
1/2+x,1/2-y,-z
-x,y,1/2-z
-x,-y,-z
1/2+x,1/2+y,1/2-z
1/2-x,1/2+y,z
x,-y,1/2+z
loop_
_atom_site_type_symbol
_atom_site_label
_atom_site_fract_x
_atom_site_fract_y
_atom_site_fract_z
Si Si1 0.326853 0.324759 0.333506
Si Si2 0.159625 0.346533 0.423241
Si Si3 0.092568 0.041263 0.457897
Si Si4 0.610786 0.143819 0.867026
Si Si5 0.569318 0.010019 0.203100
Si Si6 0.079321 0.007612 0.128062
O O1 0.250627 0.294868 0.380306
O O2 0.380671 0.168404 0.315309
O O3 0.210335 0.397936 0.299733
O O4 0.467552 0.436274 0.336764
O O5 0.127847 0.214940 0.456736
O O6 0.246059 0.463425 0.453104
O O7 0.000181 0.407002 0.405918
O O8 0.992668 0.991873 0.418361
O O9 0.000000 0.000000 0.500000
O O10 0.609744 0.321636 0.859282
O O11 0.565689 0.059024 0.823781
O O12 0.775463 0.092093 0.877541
O O13 0.500000 0.030009 0.250000
#
# Coordination Sequence:
#
# PCOD8246954 Si02
#       6
#     8   8   8   8   8   8
#     4  10  20  40  61  80 113 154 189 227 282 346
#     4   9  19  38  59  78 110 152 187 224 279 343
#     4  10  21  36  56  84 112 145 188 235 282 327
#     4  10  20  37  58  84 112 149 191 227 278 344
#     4  11  23  38  59  86 113 147 189 237 285 329
#     4  10  21  37  60  84 113 151 191 228 277 345
#
# _framework density 19.316642000000002
#
# number of rings (size 3 to 8) (size 9 to 14) (size 15 to 20)
#    0.000    2.000    0.000    6.000    0.000    6.667 
#    0.000    3.333    0.000    0.000    0.000    0.000 
#    0.000    0.000    0.000    0.000    0.000    0.000 
#
# Total GULP energy -595064.946747 kJ/mol
# GULP energy per Si atom -12397.186391 kJ/mol
# Density = 1.927268 g / cm^3
# Si number density = 19.316642 Si / 1000 Ang^3
#
#
#
# Elastic Constant Matrix: (Units=GPa)
#
#
# Indices 1 2 3 4 5 6 
#
# 1 109.7424 32.4107 12.0774 0.0000 0.0000 0.0000
# 2 32.4107 77.9053 18.5866 0.0000 0.0000 0.0000
# 3 12.0774 18.5866 53.4648 0.0000 0.0000 0.0000
# 4 0.0000 0.0000 0.0000 18.6572 0.0000 0.0000
# 5 0.0000 0.0000 0.0000 0.0000 28.4564 0.0000
# 6 0.0000 0.0000 0.0000 0.0000 0.0000 39.4471
#
#
#
# Elastic Compliance Matrix: (Units=1/GPa)
#
#
# Indices 1 2 3 4 5 6 
#
# 1 0.010430 -0.004119 -0.000924 0.000000 0.000000 0.000000
# 2 -0.004119 0.015623 -0.004501 0.000000 0.000000 0.000000
# 3 -0.000924 -0.004501 0.020477 0.000000 0.000000 0.000000
# 4 0.000000 0.000000 0.000000 0.053599 0.000000 0.000000
# 5 0.000000 0.000000 0.000000 0.000000 0.035142 0.000000
# 6 0.000000 0.000000 0.000000 0.000000 0.000000 0.025350
#
#
# Mechanical properties :
#
#
# Convention : Reuss Voigt Hill
#
# Bulk Modulus (GPa) = 36.43900 40.80690 38.62295
# Shear Modulus (GPa) = 26.47498 29.18132 27.82815
#
# Velocity S-wave (km/s) = 3.70615 3.89097 3.79968
# Velocity P-wave (km/s) = 6.10074 6.43096 6.26803
#
# Compressibility (1/GPa) = 0.02744313
#
# Stress axis : x y z
#
# Youngs Moduli (GPa) = 95.87373 64.00633 48.83433
#
# Poissons Ratio (x) = 0.26363 0.04514
# Poissons Ratio (y) = 0.39488 0.21980
# Poissons Ratio (z) = 0.08862 0.28809
#
# Static dielectric constant tensor:
#      x y z
#    x 3.875810 0.000000 0.000000 
#    y 0.000000 3.677590 0.000000 
#    z 0.000000 0.000000 3.310380 
# 
# 
# High freq. dielectric constant tensor:
#      x y z
#    x 1.769230 0.000000 0.000000 
#    y 0.000000 1.762810 0.000000 
#    z 0.000000 0.000000 1.726390 
# 
# From -- ./inp_files/25927.got.cif
#   From: 2010.03.12/outbox.cif.g09.slc.cpg/sg60_13_cif.got.tgz:25927.got - 2010.04.10 18:46:24.
