data_PCOD8246969
_publ_section_title
;
Structure prediction by ZEFSAII (Michael W. Deem and Ramdas Pophale) SiO2 
 PCOD8246969
Probable space group: P B C N
;
_chemical_formula_sum "Si O2"
_cell_formula_units_Z 40
_cell_length_a 9.187904
_cell_length_b 10.144743
_cell_length_c 20.666862
_cell_angle_alpha 90.000000
_cell_angle_beta 90.000000
_cell_angle_gamma 90.000000
_cell_volume 1926.335986
_symmetry_space_group_name_H-M "P B C N"
_symmetry_group_IT_number 60
_symmetry_cell_setting 'orthorhombic'
loop_
_space_group_symop_operation_xyz
x,y,z
1/2-x,1/2-y,1/2+z
1/2+x,1/2-y,-z
-x,y,1/2-z
-x,-y,-z
1/2+x,1/2+y,1/2-z
1/2-x,1/2+y,z
x,-y,1/2+z
loop_
_atom_site_type_symbol
_atom_site_label
_atom_site_fract_x
_atom_site_fract_y
_atom_site_fract_z
Si Si1 0.363326 0.481392 0.924691
Si Si2 0.709101 0.829208 0.859289
Si Si3 0.918223 0.060660 0.816807
Si Si4 0.592135 0.683725 0.473503
Si Si5 0.950049 0.418589 0.562150
O O1 0.460864 0.562174 0.873467
O O2 0.437912 0.337205 0.935952
O O3 0.195984 0.470665 0.902206
O O4 0.357526 0.544541 0.996535
O O5 0.666334 0.701479 0.816537
O O6 0.788420 0.767650 0.922222
O O7 0.569162 0.913355 0.881595
O O8 0.810703 0.934562 0.822299
O O9 0.000000 0.043838 0.750000
O O10 0.582259 0.774934 0.535336
O O11 0.000000 0.500000 0.500000
#
# Coordination Sequence:
#
# PCOD8246969 Si02
#       5
#     8   8   8   8   8
#     4  10  22  37  61  92 135 172 206 276 332 390
#     4  11  23  43  70  97 132 175 224 278 332 400
#     4  11  26  49  67  92 134 184 229 275 328 396
#     4  10  20  37  60  95 134 163 208 270 345 386
#     4  12  21  33  63 103 132 166 212 266 344 411
#
# _framework density 20.764811000000002
#
# number of rings (size 3 to 8) (size 9 to 14) (size 15 to 20)
#    0.000    1.200    4.000    2.400    2.800    1.600 
#    0.000    1.000    0.000    0.000    0.000    0.000 
#    0.000    0.000    0.000    0.000    0.000    0.000 
#
# Total GULP energy -495779.665949 kJ/mol
# GULP energy per Si atom -12394.491649 kJ/mol
# Density = 2.071755 g / cm^3
# Si number density = 20.764811 Si / 1000 Ang^3
#
#
#
# Elastic Constant Matrix: (Units=GPa)
#
#
# Indices 1 2 3 4 5 6 
#
# 1 152.9709 53.1002 51.2921 0.0000 0.0000 0.0000
# 2 53.1002 100.8874 37.2208 0.0000 0.0000 0.0000
# 3 51.2921 37.2208 88.1024 0.0000 0.0000 0.0000
# 4 0.0000 0.0000 0.0000 26.9716 0.0000 0.0000
# 5 0.0000 0.0000 0.0000 0.0000 38.3324 0.0000
# 6 0.0000 0.0000 0.0000 0.0000 0.0000 20.6688
#
#
#
# Elastic Compliance Matrix: (Units=1/GPa)
#
#
# Indices 1 2 3 4 5 6 
#
# 1 0.008968 -0.003310 -0.003823 0.000000 0.000000 0.000000
# 2 -0.003310 0.012964 -0.003550 0.000000 0.000000 0.000000
# 3 -0.003823 -0.003550 0.015076 0.000000 0.000000 0.000000
# 4 0.000000 0.000000 0.000000 0.037076 0.000000 0.000000
# 5 0.000000 0.000000 0.000000 0.000000 0.026088 0.000000
# 6 0.000000 0.000000 0.000000 0.000000 0.000000 0.048382
#
#
# Mechanical properties :
#
#
# Convention : Reuss Voigt Hill
#
# Bulk Modulus (GPa) = 63.92813 69.46522 66.69667
# Shear Modulus (GPa) = 28.54989 30.55106 29.55047
#
# Velocity S-wave (km/s) = 3.71201 3.83990 3.77650
# Velocity P-wave (km/s) = 7.01610 7.29286 7.15581
#
# Compressibility (1/GPa) = 0.01564257
#
# Stress axis : x y z
#
# Youngs Moduli (GPa) = 111.50918 77.13811 66.33184
#
# Poissons Ratio (x) = 0.25531 0.25357
# Poissons Ratio (y) = 0.36907 0.23547
# Poissons Ratio (z) = 0.42627 0.27384
#
# Static dielectric constant tensor:
#      x y z
#    x 4.166380 0.000000 0.000000 
#    y 0.000000 4.116860 0.000000 
#    z 0.000000 0.000000 3.375220 
# 
# 
# High freq. dielectric constant tensor:
#      x y z
#    x 1.830780 0.000000 0.000000 
#    y 0.000000 1.812370 0.000000 
#    z 0.000000 0.000000 1.776510 
# 
# From -- ./inp_files/19021.got.cif
#   From: 2010.03.12/outbox.cif.g09.slc.cpg/sg60_10_cif.got.tgz:19021.got - 2010.04.10 18:46:24.
