data_PCOD8246895
_publ_section_title
;
Structure prediction by ZEFSAII (Michael W. Deem and Ramdas Pophale) SiO2 
 PCOD8246895
Probable space group: P B C N
;
_chemical_formula_sum "Si O2"
_cell_formula_units_Z 64
_cell_length_a 13.198980
_cell_length_b 30.540354
_cell_length_c 9.744571
_cell_angle_alpha 90.000000
_cell_angle_beta 90.000000
_cell_angle_gamma 90.000000
_cell_volume 3928.051398
_symmetry_space_group_name_H-M "P B C N"
_symmetry_group_IT_number 60
_symmetry_cell_setting 'orthorhombic'
loop_
_space_group_symop_operation_xyz
x,y,z
1/2-x,1/2-y,1/2+z
1/2+x,1/2-y,-z
-x,y,1/2-z
-x,-y,-z
1/2+x,1/2+y,1/2-z
1/2-x,1/2+y,z
x,-y,1/2+z
loop_
_atom_site_type_symbol
_atom_site_label
_atom_site_fract_x
_atom_site_fract_y
_atom_site_fract_z
Si Si1 0.378148 0.868516 0.760737
Si Si2 0.310507 0.815386 0.007735
Si Si3 0.797502 0.679457 0.483212
Si Si4 0.619408 0.864943 0.236886
Si Si5 0.606981 0.273853 0.067143
Si Si6 0.070340 0.453900 0.876476
Si Si7 0.071374 0.548386 0.875110
Si Si8 0.121426 0.769952 0.112921
O O1 0.500000 0.862539 0.750000
O O2 0.326736 0.832076 0.854525
O O3 0.323598 0.862420 0.613167
O O4 0.351558 0.915978 0.828210
O O5 0.378343 0.771408 0.017491
O O6 0.338277 0.854285 0.112767
O O7 0.194240 0.802651 0.031225
O O8 0.836788 0.671321 0.636191
O O9 0.676893 0.689683 0.490934
O O10 0.862789 0.720035 0.429915
O O11 0.500000 0.862514 0.250000
O O12 0.649067 0.913268 0.174501
O O13 0.642592 0.271197 0.224925
O O14 0.489380 0.286501 0.066821
O O15 0.123719 0.501031 0.914542
O O16 0.000000 0.463831 0.750000
O O17 0.999560 0.435426 0.999309
O O18 0.000000 0.537902 0.750000
#
# Coordination Sequence:
#
# PCOD8246895 Si02
#       8
#     8   8   8   8   8   8   8   8
#     4  11  19  31  49  70 100 131 161 191 234 283
#     4  11  21  32  49  72  91 125 164 199 237 284
#     4  11  21  32  49  72  91 125 166 201 232 291
#     4  11  19  29  45  72 100 123 159 203 229 269
#     4  10  20  36  51  66  94 128 159 203 249 280
#     4   9  17  29  45  65  93 138 161 182 233 288
#     4   9  17  29  43  65  99 128 163 192 227 280
#     4  10  20  36  51  66  94 128 159 203 249 282
#
# _framework density 16.293064999999999
#
# number of rings (size 3 to 8) (size 9 to 14) (size 15 to 20)
#    0.000    1.750    2.500    5.250    0.000    0.000 
#    0.000    1.875    0.000    0.000    0.000    0.000 
#    0.000    6.000    0.000    0.000    0.000    0.000 
#
# Total GULP energy -792849.552242 kJ/mol
# GULP energy per Si atom -12388.274254 kJ/mol
# Density = 1.625598 g / cm^3
# Si number density = 16.293065 Si / 1000 Ang^3
#
#
#
# Elastic Constant Matrix: (Units=GPa)
#
#
# Indices 1 2 3 4 5 6 
#
# 1 71.9005 36.1226 23.2474 0.0000 0.0000 0.0000
# 2 36.1226 83.5032 16.8793 0.0000 0.0000 0.0000
# 3 23.2474 16.8793 71.3018 0.0000 0.0000 0.0000
# 4 0.0000 0.0000 0.0000 23.8136 0.0000 0.0000
# 5 0.0000 0.0000 0.0000 0.0000 25.5728 0.0000
# 6 0.0000 0.0000 0.0000 0.0000 0.0000 14.1895
#
#
#
# Elastic Compliance Matrix: (Units=1/GPa)
#
#
# Indices 1 2 3 4 5 6 
#
# 1 0.019037 -0.007331 -0.004471 0.000000 0.000000 0.000000
# 2 -0.007331 0.015401 -0.001256 0.000000 0.000000 0.000000
# 3 -0.004471 -0.001256 0.015780 0.000000 0.000000 0.000000
# 4 0.000000 0.000000 0.000000 0.041993 0.000000 0.000000
# 5 0.000000 0.000000 0.000000 0.000000 0.039104 0.000000
# 6 0.000000 0.000000 0.000000 0.000000 0.000000 0.070475
#
#
# Mechanical properties :
#
#
# Convention : Reuss Voigt Hill
#
# Bulk Modulus (GPa) = 41.49134 42.13380 41.81257
# Shear Modulus (GPa) = 21.19185 22.74559 21.96872
#
# Velocity S-wave (km/s) = 3.61039 3.74040 3.67597
# Velocity P-wave (km/s) = 6.54987 6.67609 6.61328
#
# Compressibility (1/GPa) = 0.02410142
#
# Stress axis : x y z
#
# Youngs Moduli (GPa) = 52.52912 64.93148 63.37162
#
# Poissons Ratio (x) = 0.47604 0.28335
# Poissons Ratio (y) = 0.38511 0.07956
# Poissons Ratio (z) = 0.23487 0.08152
#
# Static dielectric constant tensor:
#      x y z
#    x 2.764620 0.000000 0.000000 
#    y 0.000000 3.505820 0.000000 
#    z 0.000000 0.000000 3.194700 
# 
# 
# High freq. dielectric constant tensor:
#      x y z
#    x 1.570680 0.000000 0.000000 
#    y 0.000000 1.628030 0.000000 
#    z 0.000000 0.000000 1.649280 
# 
# From -- ./inp_files/6403.got.cif
#   From: 2010.03.12/outbox.cif.g09.slc.cpg/sg60_4_cif.got.tgz:6403.got - 2010.04.10 18:46:24.
