data_PCOD8246900
_publ_section_title
;
Structure prediction by ZEFSAII (Michael W. Deem and Ramdas Pophale) SiO2 
 PCOD8246900
Probable space group: P B C N
;
_chemical_formula_sum "Si O2"
_cell_formula_units_Z 60
_cell_length_a 28.151433
_cell_length_b 8.751541
_cell_length_c 12.041842
_cell_angle_alpha 90.000000
_cell_angle_beta 90.000000
_cell_angle_gamma 90.000000
_cell_volume 2966.729589
_symmetry_space_group_name_H-M "P B C N"
_symmetry_group_IT_number 60
_symmetry_cell_setting 'orthorhombic'
loop_
_space_group_symop_operation_xyz
x,y,z
1/2-x,1/2-y,1/2+z
1/2+x,1/2-y,-z
-x,y,1/2-z
-x,-y,-z
1/2+x,1/2+y,1/2-z
1/2-x,1/2+y,z
x,-y,1/2+z
loop_
_atom_site_type_symbol
_atom_site_label
_atom_site_fract_x
_atom_site_fract_y
_atom_site_fract_z
Si Si1 0.257443 0.009847 0.060178
Si Si2 0.580520 0.698174 0.801623
Si Si3 0.806845 0.218764 0.817939
Si Si4 0.591827 0.229813 0.053449
Si Si5 0.000000 0.680669 0.750000
Si Si6 0.547005 0.012965 0.424534
Si Si7 0.473404 0.577635 0.097384
Si Si8 0.199146 0.237618 0.929587
O O1 0.221841 0.934404 0.149566
O O2 0.293660 0.136192 0.106739
O O3 0.289140 0.879727 0.006591
O O4 0.225731 0.084639 0.964942
O O5 0.637026 0.682025 0.821991
O O6 0.568685 0.756151 0.676555
O O7 0.551853 0.539973 0.816973
O O8 0.560172 0.814837 0.893743
O O9 0.788637 0.270637 0.697588
O O10 0.644014 0.294926 0.060007
O O11 0.588101 0.056728 0.004594
O O12 0.568164 0.328093 0.958340
O O13 0.040997 0.574944 0.695392
O O14 0.988048 0.804962 0.652819
O O15 0.500000 0.000000 0.500000
O O16 0.500000 0.500000 0.000000
#
# Coordination Sequence:
#
# PCOD8246900 Si02
#       8
#     8   8   8   8   4   8   8   8
#     4  10  20  36  58  82 112 144 180 222 272 330
#     4  11  22  37  58  83 110 144 188 230 273 328
#     4  10  21  36  57  84 112 145 182 225 275 329
#     4  10  22  37  55  80 112 143 179 227 274 322
#     4  10  22  36  52  76 104 138 178 220 270 318
#     4  11  22  37  56  79 108 144 184 226 273 324
#     4  11  22  37  56  79 108 144 184 226 273 324
#     4  10  20  36  56  81 110 143 180 222 271 324
#
# _framework density 20.224291000000001
#
# number of rings (size 3 to 8) (size 9 to 14) (size 15 to 20)
#    0.000    1.600    0.000    5.600    0.000    1.600 
#    0.000    0.000    0.000   22.400    0.000    0.000 
#    0.000    0.000    0.000    0.000    0.000    0.000 
#
# Total GULP energy -743337.097362 kJ/mol
# GULP energy per Si atom -12388.951623 kJ/mol
# Density = 2.017826 g / cm^3
# Si number density = 20.224291 Si / 1000 Ang^3
#
#
#
# Elastic Constant Matrix: (Units=GPa)
#
#
# Indices 1 2 3 4 5 6 
#
# 1 58.1770 13.8652 27.2542 0.0000 0.0000 0.0000
# 2 13.8652 74.9986 17.8046 0.0000 0.0000 0.0000
# 3 27.2542 17.8046 97.9825 0.0000 0.0000 0.0000
# 4 0.0000 0.0000 0.0000 36.9133 0.0000 0.0000
# 5 0.0000 0.0000 0.0000 0.0000 33.0609 0.0000
# 6 0.0000 0.0000 0.0000 0.0000 0.0000 27.2382
#
#
#
# Elastic Compliance Matrix: (Units=1/GPa)
#
#
# Indices 1 2 3 4 5 6 
#
# 1 0.020206 -0.002510 -0.005164 0.000000 0.000000 0.000000
# 2 -0.002510 0.014246 -0.001891 0.000000 0.000000 0.000000
# 3 -0.005164 -0.001891 0.011986 0.000000 0.000000 0.000000
# 4 0.000000 0.000000 0.000000 0.027091 0.000000 0.000000
# 5 0.000000 0.000000 0.000000 0.000000 0.030247 0.000000
# 6 0.000000 0.000000 0.000000 0.000000 0.000000 0.036713
#
#
# Mechanical properties :
#
#
# Convention : Reuss Voigt Hill
#
# Bulk Modulus (GPa) = 36.61753 38.77844 37.69798
# Shear Modulus (GPa) = 29.63449 30.92474 30.27961
#
# Velocity S-wave (km/s) = 3.83207 3.91460 3.87355
# Velocity P-wave (km/s) = 6.14204 6.29666 6.21983
#
# Compressibility (1/GPa) = 0.02730933
#
# Stress axis : x y z
#
# Youngs Moduli (GPa) = 49.48917 70.19331 83.43074
#
# Poissons Ratio (x) = 0.17615 0.43088
# Poissons Ratio (y) = 0.12420 0.15774
# Poissons Ratio (z) = 0.25559 0.13271
#
# Static dielectric constant tensor:
#      x y z
#    x 3.588080 0.000000 0.000000 
#    y 0.000000 3.768060 0.000000 
#    z 0.000000 0.000000 4.167580 
# 
# 
# High freq. dielectric constant tensor:
#      x y z
#    x 1.774730 0.000000 0.000000 
#    y 0.000000 1.801330 0.000000 
#    z 0.000000 0.000000 1.806730 
# 
# From -- ./inp_files/13287.got.cif
#   From: 2010.03.12/outbox.cif.g09.slc.cpg/sg60_7_cif.got.tgz:13287.got - 2010.04.10 18:46:24.
