data_PCOD8246987
_publ_section_title
;
Structure prediction by ZEFSAII (Michael W. Deem and Ramdas Pophale) SiO2 
 PCOD8246987
Probable space group: P B C N
;
_chemical_formula_sum "Si O2"
_cell_formula_units_Z 52
_cell_length_a 5.145457
_cell_length_b 19.235478
_cell_length_c 24.423663
_cell_angle_alpha 90.000000
_cell_angle_beta 90.000000
_cell_angle_gamma 90.000000
_cell_volume 2417.339981
_symmetry_space_group_name_H-M "P B C N"
_symmetry_group_IT_number 60
_symmetry_cell_setting 'orthorhombic'
loop_
_space_group_symop_operation_xyz
x,y,z
1/2-x,1/2-y,1/2+z
1/2+x,1/2-y,-z
-x,y,1/2-z
-x,-y,-z
1/2+x,1/2+y,1/2-z
1/2-x,1/2+y,z
x,-y,1/2+z
loop_
_atom_site_type_symbol
_atom_site_label
_atom_site_fract_x
_atom_site_fract_y
_atom_site_fract_z
Si Si1 0.323522 0.437220 0.020123
Si Si2 0.357912 0.012817 0.117541
Si Si3 0.997199 0.169008 0.604930
Si Si4 0.000000 0.302329 0.250000
Si Si5 0.352300 0.416323 0.201483
Si Si6 0.661976 0.595940 0.098140
Si Si7 0.483499 0.251798 0.867003
O O1 0.096204 0.466471 0.061517
O O2 0.478265 0.375705 0.050097
O O3 0.500000 0.500000 0.000000
O O4 0.227711 0.401055 0.964165
O O5 0.580381 0.069393 0.129867
O O6 0.068782 0.042186 0.109575
O O7 0.361506 0.964412 0.171729
O O8 0.960073 0.114252 0.654496
O O9 0.237332 0.221890 0.615043
O O10 0.732914 0.211238 0.598454
O O11 0.237154 0.350645 0.233258
O O12 0.070778 0.254240 0.301986
O O13 0.500000 0.458846 0.250000
O O14 0.548098 0.668082 0.118437
#
# Coordination Sequence:
#
# PCOD8246987 Si02
#       7
#     8   8   8   4   8   8   8
#     4   9  21  39  65  90 127 161 202 257 319 363
#     4  10  23  39  62  89 119 156 206 249 312 370
#     4  10  22  38  62  95 115 161 209 251 298 374
#     4  10  22  38  62  86 116 164 196 256 308 354
#     4  10  20  37  64  86 116 148 206 261 302 349
#     4  11  23  41  59  89 127 165 194 251 309 376
#     4  11  23  40  61  86 126 160 211 246 303 376
#
# _framework density 21.511247999999998
#
# number of rings (size 3 to 8) (size 9 to 14) (size 15 to 20)
#    0.000    1.846    1.538    1.385    2.154   11.077 
#    1.385    0.000    0.000    0.000    0.000    0.000 
#    0.000    0.000    0.000    0.000    0.000    0.000 
#
# Total GULP energy -644358.557449 kJ/mol
# GULP energy per Si atom -12391.510720 kJ/mol
# Density = 2.146229 g / cm^3
# Si number density = 21.511248 Si / 1000 Ang^3
#
#
#
# Elastic Constant Matrix: (Units=GPa)
#
#
# Indices 1 2 3 4 5 6 
#
# 1 80.4694 17.5204 19.4588 0.0000 0.0000 0.0000
# 2 17.5204 102.4403 59.5486 0.0000 0.0000 0.0000
# 3 19.4588 59.5486 118.0860 0.0000 0.0000 0.0000
# 4 0.0000 0.0000 0.0000 24.2257 0.0000 0.0000
# 5 0.0000 0.0000 0.0000 0.0000 14.8730 0.0000
# 6 0.0000 0.0000 0.0000 0.0000 0.0000 30.4840
#
#
#
# Elastic Compliance Matrix: (Units=1/GPa)
#
#
# Indices 1 2 3 4 5 6 
#
# 1 0.013082 -0.001392 -0.001453 0.000000 0.000000 0.000000
# 2 -0.001392 0.013958 -0.006809 0.000000 0.000000 0.000000
# 3 -0.001453 -0.006809 0.012142 0.000000 0.000000 0.000000
# 4 0.000000 0.000000 0.000000 0.041279 0.000000 0.000000
# 5 0.000000 0.000000 0.000000 0.000000 0.067236 0.000000
# 6 0.000000 0.000000 0.000000 0.000000 0.000000 0.032804
#
#
# Mechanical properties :
#
#
# Convention : Reuss Voigt Hill
#
# Bulk Modulus (GPa) = 50.32453 54.89459 52.60956
# Shear Modulus (GPa) = 24.22074 27.54773 25.88423
#
# Velocity S-wave (km/s) = 3.35917 3.58246 3.47261
# Velocity P-wave (km/s) = 6.20408 6.53348 6.37091
#
# Compressibility (1/GPa) = 0.01987102
#
# Stress axis : x y z
#
# Youngs Moduli (GPa) = 76.44241 71.64210 82.36019
#
# Poissons Ratio (x) = 0.09976 0.11971
# Poissons Ratio (y) = 0.10644 0.56083
# Poissons Ratio (z) = 0.11111 0.48784
#
# Static dielectric constant tensor:
#      x y z
#    x 3.636320 0.000000 0.000000 
#    y 0.000000 3.848740 0.000000 
#    z 0.000000 0.000000 4.548260 
# 
# 
# High freq. dielectric constant tensor:
#      x y z
#    x 1.834200 0.000000 0.000000 
#    y 0.000000 1.832800 0.000000 
#    z 0.000000 0.000000 1.853780 
# 
# From -- ./inp_files/24967.got.cif
#   From: 2010.03.12/outbox.cif.g09.slc.cpg/sg60_13_cif.got.tgz:24967.got - 2010.04.10 18:46:24.
