data_PCOD8246597
_publ_section_title
;
Structure prediction by ZEFSAII (Michael W. Deem and Ramdas Pophale) SiO2 
 PCOD8246597
Probable space group: P B C N
;
_chemical_formula_sum "Si O2"
_cell_formula_units_Z 60
_cell_length_a 6.008408
_cell_length_b 17.676957
_cell_length_c 27.532694
_cell_angle_alpha 90.000000
_cell_angle_beta 90.000000
_cell_angle_gamma 90.000000
_cell_volume 2924.257613
_symmetry_space_group_name_H-M "P B C N"
_symmetry_group_IT_number 60
_symmetry_cell_setting 'orthorhombic'
loop_
_space_group_symop_operation_xyz
x,y,z
1/2-x,1/2-y,1/2+z
1/2+x,1/2-y,-z
-x,y,1/2-z
-x,-y,-z
1/2+x,1/2+y,1/2-z
1/2-x,1/2+y,z
x,-y,1/2+z
loop_
_atom_site_type_symbol
_atom_site_label
_atom_site_fract_x
_atom_site_fract_y
_atom_site_fract_z
Si Si1 0.283978 0.757639 0.334176
Si Si2 0.659306 0.639488 0.318108
Si Si3 0.085962 0.001576 0.626197
Si Si4 0.386295 0.137085 0.619737
Si Si5 0.160438 0.583878 0.042495
Si Si6 0.591522 0.778285 0.900171
Si Si7 0.000000 0.707239 0.250000
Si Si8 0.312784 0.036826 0.940470
O O1 0.435290 0.687223 0.320032
O O2 0.439218 0.832173 0.339599
O O3 0.161486 0.745284 0.386292
O O4 0.096415 0.763842 0.291816
O O5 0.581015 0.552434 0.326185
O O6 0.832358 0.663023 0.359218
O O7 0.796639 0.653444 0.268246
O O8 0.223544 0.075010 0.643703
O O9 0.848995 0.029442 0.605822
O O10 0.181071 0.952705 0.582212
O O11 0.247315 0.205519 0.596766
O O12 0.500899 0.097053 0.574511
O O13 0.112653 0.673655 0.050133
O O14 0.919487 0.543836 0.045715
O O15 0.285255 0.571493 0.990609
#
# Coordination Sequence:
#
# PCOD8246597 Si02
#       8
#     8   8   8   8   8   8   4   8
#     4  10  19  36  60  84 112 147 193 235 292 349
#     4   9  19  34  60  85 106 142 190 235 286 340
#     4  10  19  35  58  80 114 156 191 237 290 345
#     4  10  21  35  51  81 118 153 189 229 293 350
#     4   9  19  34  55  82 109 150 205 242 282 331
#     4   9  18  35  53  79 110 150 190 237 283 340
#     4  10  20  36  62  90 110 138 188 252 280 348
#     4  10  19  34  54  82 114 155 196 242 284 337
#
# _framework density 20.518027
#
# number of rings (size 3 to 8) (size 9 to 14) (size 15 to 20)
#    0.000    2.400    0.000    2.400    0.000    1.067 
#    4.800    0.000   11.733    0.000    0.000    0.000 
#    0.000    0.000    0.000    0.000    0.000    0.000 
#
# Total GULP energy -743493.536482 kJ/mol
# GULP energy per Si atom -12391.558941 kJ/mol
# Density = 2.047133 g / cm^3
# Si number density = 20.518027 Si / 1000 Ang^3
#
#
#
# Elastic Constant Matrix: (Units=GPa)
#
#
# Indices 1 2 3 4 5 6 
#
# 1 92.9805 37.9862 19.8707 0.0000 0.0000 0.0000
# 2 37.9862 129.6371 32.5126 0.0000 0.0000 0.0000
# 3 19.8707 32.5126 53.9996 0.0000 0.0000 0.0000
# 4 0.0000 0.0000 0.0000 17.2138 0.0000 0.0000
# 5 0.0000 0.0000 0.0000 0.0000 25.4336 0.0000
# 6 0.0000 0.0000 0.0000 0.0000 0.0000 20.2088
#
#
#
# Elastic Compliance Matrix: (Units=1/GPa)
#
#
# Indices 1 2 3 4 5 6 
#
# 1 0.012576 -0.002973 -0.002837 0.000000 0.000000 0.000000
# 2 -0.002973 0.009789 -0.004800 0.000000 0.000000 0.000000
# 3 -0.002837 -0.004800 0.022453 0.000000 0.000000 0.000000
# 4 0.000000 0.000000 0.000000 0.058093 0.000000 0.000000
# 5 0.000000 0.000000 0.000000 0.000000 0.039318 0.000000
# 6 0.000000 0.000000 0.000000 0.000000 0.000000 0.049483
#
#
# Mechanical properties :
#
#
# Convention : Reuss Voigt Hill
#
# Bulk Modulus (GPa) = 42.37913 50.81736 46.59825
# Shear Modulus (GPa) = 22.64512 24.98777 23.81645
#
# Velocity S-wave (km/s) = 3.32576 3.49355 3.41068
# Velocity P-wave (km/s) = 5.95374 6.41047 6.18632
#
# Compressibility (1/GPa) = 0.02359652
#
# Stress axis : x y z
#
# Youngs Moduli (GPa) = 79.51601 102.15722 44.53837
#
# Poissons Ratio (x) = 0.30376 0.12638
# Poissons Ratio (y) = 0.23643 0.21377
# Poissons Ratio (z) = 0.22562 0.49031
#
# Static dielectric constant tensor:
#      x y z
#    x 3.786270 0.000000 0.000000 
#    y 0.000000 3.839490 0.000000 
#    z 0.000000 0.000000 3.603840 
# 
# 
# High freq. dielectric constant tensor:
#      x y z
#    x 1.807190 0.000000 0.000000 
#    y 0.000000 1.795620 0.000000 
#    z 0.000000 0.000000 1.774410 
# 
# From -- ./inp_files/25779.got.cif
#   From: 2010.03.12/outbox.cif.g09.slc.cpg/sg60_13_cif.got.tgz:25779.got - 2010.04.10 18:46:24.
