data_PCOD8246006
_publ_section_title
;
Structure prediction by ZEFSAII (Michael W. Deem and Ramdas Pophale) SiO2 
 PCOD8246006
Probable space group: P M M N
;
_chemical_formula_sum "Si O2"
_cell_formula_units_Z 48
_cell_length_a 8.450039
_cell_length_b 14.788533
_cell_length_c 18.224365
_cell_angle_alpha 90.000000
_cell_angle_beta 90.000000
_cell_angle_gamma 90.000000
_cell_volume 2277.383727
_symmetry_space_group_name_H-M "P M M N"
_symmetry_group_IT_number 59
_space_group.IT_coordinate_system_code '2'
_symmetry_cell_setting 'orthorhombic'
loop_
_space_group_symop_operation_xyz
x,y,z
1/2-x,1/2-y,z
1/2+x,-y,-z
-x,1/2+y,-z
-x,-y,-z
1/2+x,1/2+y,-z
1/2-x,y,z
x,1/2-y,z
loop_
_atom_site_type_symbol
_atom_site_label
_atom_site_fract_x
_atom_site_fract_y
_atom_site_fract_z
Si Si1 0.078895 0.250000 0.242902
Si Si2 0.062532 0.593902 0.525624
Si Si3 0.936734 0.577076 0.683477
Si Si4 0.564319 0.940713 0.209259
Si Si5 0.078900 0.250000 0.073771
Si Si6 0.561017 0.551816 0.929973
Si Si7 0.062145 0.750000 0.251611
Si Si8 0.562630 0.250000 0.581798
O O1 0.250000 0.250000 0.284388
O O2 0.992992 0.157579 0.265863
O O3 0.110706 0.250000 0.158788
O O4 0.250000 0.597304 0.534541
O O5 0.002914 0.663874 0.464147
O O6 0.000000 0.500000 0.500000
O O7 0.981801 0.610753 0.603163
O O8 0.750000 0.559718 0.690456
O O9 0.020821 0.485621 0.711986
O O10 0.750000 0.934943 0.198615
O O11 0.496633 0.838812 0.208157
O O12 0.493988 0.001683 0.143772
O O13 0.250000 0.250000 0.032713
O O14 0.989709 0.345560 0.058575
O O15 0.750000 0.557635 0.927162
O O16 0.500000 0.500000 0.000000
O O17 0.250000 0.750000 0.251948
O O18 0.993408 0.750000 0.335342
O O19 0.750000 0.250000 0.587412
#
# Coordination Sequence:
#
# PCOD8246006 Si02
#       8
#     4   8   8   8   4   8   4   4
#     4   9  17  33  60  90 117 154 202 251 307 367
#     4  11  22  38  58  85 120 160 206 260 322 385
#     4  11  21  37  61  90 123 162 209 262 319 382
#     4  12  25  42  63  94 129 166 213 266 323 388
#     4   9  18  38  66  93 124 165 208 253 303 361
#     4  11  23  43  69  98 133 173 216 265 320 380
#     4  11  23  43  69  92 119 168 221 270 322 382
#     4   9  21  40  61  85 120 161 207 260 322 382
#
# _framework density 21.076816000000001
#
# number of rings (size 3 to 8) (size 9 to 14) (size 15 to 20)
#    0.000    1.333    1.667    4.750    0.000    2.000 
#    0.000   10.000    0.000    0.000    0.000    0.000 
#    0.000    0.000    0.000    0.000    0.000    0.000 
#
# Total GULP energy -594836.049403 kJ/mol
# GULP energy per Si atom -12392.417696 kJ/mol
# Density = 2.102884 g / cm^3
# Si number density = 21.076816 Si / 1000 Ang^3
#
#
#
# Elastic Constant Matrix: (Units=GPa)
#
#
# Indices 1 2 3 4 5 6 
#
# 1 80.7154 42.2076 23.8442 0.0000 0.0000 0.0000
# 2 42.2076 194.0530 53.2593 0.0000 0.0000 0.0000
# 3 23.8442 53.2593 98.5385 0.0000 0.0000 0.0000
# 4 0.0000 0.0000 0.0000 41.1755 0.0000 0.0000
# 5 0.0000 0.0000 0.0000 0.0000 34.4152 0.0000
# 6 0.0000 0.0000 0.0000 0.0000 0.0000 15.5044
#
#
#
# Elastic Compliance Matrix: (Units=1/GPa)
#
#
# Indices 1 2 3 4 5 6 
#
# 1 0.014338 -0.002544 -0.002095 0.000000 0.000000 0.000000
# 2 -0.002544 0.006502 -0.002899 0.000000 0.000000 0.000000
# 3 -0.002095 -0.002899 0.012222 0.000000 0.000000 0.000000
# 4 0.000000 0.000000 0.000000 0.024286 0.000000 0.000000
# 5 0.000000 0.000000 0.000000 0.000000 0.029057 0.000000
# 6 0.000000 0.000000 0.000000 0.000000 0.000000 0.064498
#
#
# Mechanical properties :
#
#
# Convention : Reuss Voigt Hill
#
# Bulk Modulus (GPa) = 55.59316 67.99214 61.79265
# Shear Modulus (GPa) = 29.07421 35.15206 32.11313
#
# Velocity S-wave (km/s) = 3.71811 4.08831 3.90760
# Velocity P-wave (km/s) = 6.69822 7.39019 7.05270
#
# Compressibility (1/GPa) = 0.01798782
#
# Stress axis : x y z
#
# Youngs Moduli (GPa) = 69.74393 153.79624 81.81991
#
# Poissons Ratio (x) = 0.39122 0.17138
# Poissons Ratio (y) = 0.17741 0.23718
# Poissons Ratio (z) = 0.14609 0.44583
#
# Static dielectric constant tensor:
#      x y z
#    x 3.631570 0.000000 0.000000 
#    y 0.000000 3.958150 0.000000 
#    z 0.000000 0.000000 2.690940 
# 
# 
# High freq. dielectric constant tensor:
#      x y z
#    x 1.804300 0.000000 0.000000 
#    y 0.000000 1.851600 0.000000 
#    z 0.000000 0.000000 1.826820 
# 
# From -- ./inp_files/25670.got.cif
#   From: 2010.03.12/outbox.cif.g09.slc.cpg/sg59_13_cif.got.tgz:25670.got - 2010.04.16 16:29:54.
