data_PCOD8246158
_publ_section_title
;
Structure prediction by ZEFSAII (Michael W. Deem and Ramdas Pophale) SiO2 
 PCOD8246158
Probable space group: P M M N
;
_chemical_formula_sum "Si O2"
_cell_formula_units_Z 56
_cell_length_a 9.305331
_cell_length_b 19.402652
_cell_length_c 18.085600
_cell_angle_alpha 90.000000
_cell_angle_beta 90.000000
_cell_angle_gamma 90.000000
_cell_volume 3265.320702
_symmetry_space_group_name_H-M "P M M N"
_symmetry_group_IT_number 59
_space_group.IT_coordinate_system_code '2'
_symmetry_cell_setting 'orthorhombic'
loop_
_space_group_symop_operation_xyz
x,y,z
1/2-x,1/2-y,z
1/2+x,-y,-z
-x,1/2+y,-z
-x,-y,-z
1/2+x,1/2+y,-z
1/2-x,y,z
x,1/2-y,z
loop_
_atom_site_type_symbol
_atom_site_label
_atom_site_fract_x
_atom_site_fract_y
_atom_site_fract_z
Si Si1 0.581750 0.422124 0.075194
Si Si2 0.916721 0.830023 0.209430
Si Si3 0.917222 0.580567 0.070353
Si Si4 0.078871 0.673141 0.793589
Si Si5 0.412388 0.667998 0.352519
Si Si6 0.089753 0.668041 0.631054
Si Si7 0.412084 0.332281 0.507085
O O1 0.750000 0.409347 0.064254
O O2 0.546398 0.501801 0.090635
O O3 0.520024 0.378890 0.144358
O O4 0.503704 0.395396 0.001660
O O5 0.750000 0.843417 0.227583
O O6 0.946419 0.750000 0.193425
O O7 0.967788 0.872253 0.138084
O O8 0.008323 0.857552 0.278560
O O9 0.750000 0.590706 0.053289
O O10 0.250000 0.674987 0.793756
O O11 0.018844 0.750000 0.809901
O O12 0.029338 0.646988 0.712194
O O13 0.250000 0.639180 0.353742
O O14 0.412247 0.750000 0.354907
O O15 0.497949 0.639006 0.423343
O O16 0.250000 0.637873 0.617827
O O17 0.097822 0.750000 0.626843
O O18 0.984159 0.638888 0.568020
O O19 0.250000 0.360723 0.512011
O O20 0.412186 0.250000 0.507381
#
# Coordination Sequence:
#
# PCOD8246158 Si02
#       7
#     8   8   8   8   8   8   8
#     4   9  17  30  47  64  83 109 141 174 207 248
#     4   9  17  29  43  59  83 113 141 171 210 253
#     4   9  18  31  45  62  84 110 140 173 210 251
#     4   8  14  25  42  64  87 110 138 173 211 248
#     4   9  16  25  38  58  83 109 139 174 209 245
#     4   8  13  22  36  54  78 107 137 168 201 238
#     4   9  15  22  34  54  82 114 142 166 199 244
#
# _framework density 17.149923999999999
#
# number of rings (size 3 to 8) (size 9 to 14) (size 15 to 20)
#    0.000    3.286    0.000    1.714    0.000    4.571 
#    0.000    0.714    0.000    0.857    0.000    1.000 
#    0.000    0.000    0.000    0.000    0.000    0.000 
#
# Total GULP energy -694219.633777 kJ/mol
# GULP energy per Si atom -12396.779175 kJ/mol
# Density = 1.711089 g / cm^3
# Si number density = 17.149924 Si / 1000 Ang^3
#
#
#
# Elastic Constant Matrix: (Units=GPa)
#
#
# Indices 1 2 3 4 5 6 
#
# 1 86.8125 24.4724 78.9268 0.0000 0.0000 0.0000
# 2 24.4724 35.0709 53.2222 0.0000 0.0000 0.0000
# 3 78.9268 53.2222 193.0195 0.0000 0.0000 0.0000
# 4 0.0000 0.0000 0.0000 3.4605 0.0000 0.0000
# 5 0.0000 0.0000 0.0000 0.0000 32.5903 0.0000
# 6 0.0000 0.0000 0.0000 0.0000 0.0000 10.6610
#
#
#
# Elastic Compliance Matrix: (Units=1/GPa)
#
#
# Indices 1 2 3 4 5 6 
#
# 1 0.018457 -0.002452 -0.006871 0.000000 0.000000 0.000000
# 2 -0.002452 0.049356 -0.012606 0.000000 0.000000 0.000000
# 3 -0.006871 -0.012606 0.011467 0.000000 0.000000 0.000000
# 4 0.000000 0.000000 0.000000 0.288977 0.000000 0.000000
# 5 0.000000 0.000000 0.000000 0.000000 0.030684 0.000000
# 6 0.000000 0.000000 0.000000 0.000000 0.000000 0.093800
#
#
# Mechanical properties :
#
#
# Convention : Reuss Voigt Hill
#
# Bulk Modulus (GPa) = 28.23243 69.79396 49.01320
# Shear Modulus (GPa) = 9.11732 19.89446 14.50589
#
# Velocity S-wave (km/s) = 2.30820 3.40962 2.91147
# Velocity P-wave (km/s) = 4.85815 7.50236 6.32009
#
# Compressibility (1/GPa) = 0.03542026
#
# Stress axis : x y z
#
# Youngs Moduli (GPa) = 54.17886 20.26109 87.21017
#
# Poissons Ratio (x) = 0.04968 0.59924
# Poissons Ratio (y) = 0.13285 1.09941
# Poissons Ratio (z) = 0.37228 0.25542
#
# Static dielectric constant tensor:
#      x y z
#    x 3.171860 0.000000 0.000000 
#    y 0.000000 2.800850 0.000000 
#    z 0.000000 0.000000 3.516200 
# 
# 
# High freq. dielectric constant tensor:
#      x y z
#    x 1.649390 0.000000 0.000000 
#    y 0.000000 1.604980 0.000000 
#    z 0.000000 0.000000 1.677490 
# 
# From -- ./inp_files/26000.got.cif
#   From: 2010.03.12/outbox.cif.g09.slc.cpg/sg59_13_cif.got.tgz:26000.got - 2010.04.16 16:29:54.
