data_PCOD8246074
_publ_section_title
;
Structure prediction by ZEFSAII (Michael W. Deem and Ramdas Pophale) SiO2 
 PCOD8246074
Probable space group: P M M N
;
_chemical_formula_sum "Si O2"
_cell_formula_units_Z 48
_cell_length_a 15.463284
_cell_length_b 9.245868
_cell_length_c 17.159487
_cell_angle_alpha 90.000000
_cell_angle_beta 90.000000
_cell_angle_gamma 90.000000
_cell_volume 2453.317299
_symmetry_space_group_name_H-M "P M M N"
_symmetry_group_IT_number 59
_space_group.IT_coordinate_system_code '2'
_symmetry_cell_setting 'orthorhombic'
loop_
_space_group_symop_operation_xyz
x,y,z
1/2-x,1/2-y,z
1/2+x,-y,-z
-x,1/2+y,-z
-x,-y,-z
1/2+x,1/2+y,-z
1/2-x,y,z
x,1/2-y,z
loop_
_atom_site_type_symbol
_atom_site_label
_atom_site_fract_x
_atom_site_fract_y
_atom_site_fract_z
Si Si1 0.149159 0.419639 0.819787
Si Si2 0.349846 0.093604 0.646888
Si Si3 0.994431 0.078089 0.081843
Si Si4 0.588895 0.079591 0.495261
Si Si5 0.349704 0.907516 0.339124
Si Si6 0.151137 0.081561 0.192792
O O1 0.250000 0.462538 0.832344
O O2 0.136157 0.250000 0.838849
O O3 0.115600 0.454255 0.731780
O O4 0.089844 0.517295 0.874800
O O5 0.250000 0.119559 0.659644
O O6 0.391277 0.250000 0.622132
O O7 0.363021 0.972300 0.582103
O O8 0.984289 0.250000 0.071969
O O9 0.084713 0.038919 0.124841
O O10 0.000000 0.000000 0.000000
O O11 0.578197 0.250000 0.488929
O O12 0.638850 0.031504 0.573501
O O13 0.500000 0.000000 0.500000
O O14 0.250000 0.890144 0.322303
O O15 0.395416 0.750000 0.332378
O O16 0.386611 0.011551 0.272434
O O17 0.250000 0.031700 0.171680
O O18 0.150374 0.250000 0.209198
#
# Coordination Sequence:
#
# PCOD8246074 Si02
#       6
#     8   8   8   8   8   8
#     4   9  20  40  64  88 118 157 197 241 297 355
#     4   9  19  37  59  82 110 149 194 237 289 349
#     4  11  24  40  61  91 121 153 194 239 293 355
#     4  11  23  35  50  78 115 153 194 239 287 337
#     4   9  19  36  56  78 106 144 189 235 283 334
#     4   9  20  39  61  85 115 151 191 236 287 344
#
# _framework density 19.565345000000001
#
# number of rings (size 3 to 8) (size 9 to 14) (size 15 to 20)
#    0.000    2.333    0.000    2.500    2.333    5.333 
#    0.000    5.000    0.000    0.000    0.000    0.000 
#    0.000    0.000    0.000    0.000    0.000    0.000 
#
# Total GULP energy -594857.997991 kJ/mol
# GULP energy per Si atom -12392.874958 kJ/mol
# Density = 1.952081 g / cm^3
# Si number density = 19.565345 Si / 1000 Ang^3
#
#
#
# Elastic Constant Matrix: (Units=GPa)
#
#
# Indices 1 2 3 4 5 6 
#
# 1 83.6673 48.2059 59.1165 0.0000 0.0000 0.0000
# 2 48.2059 93.6661 84.5864 0.0000 0.0000 0.0000
# 3 59.1165 84.5864 173.1429 0.0000 0.0000 0.0000
# 4 0.0000 0.0000 0.0000 38.1474 0.0000 0.0000
# 5 0.0000 0.0000 0.0000 0.0000 32.0004 0.0000
# 6 0.0000 0.0000 0.0000 0.0000 0.0000 28.3338
#
#
#
# Elastic Compliance Matrix: (Units=1/GPa)
#
#
# Indices 1 2 3 4 5 6 
#
# 1 0.017747 -0.006552 -0.002858 0.000000 0.000000 0.000000
# 2 -0.006552 0.021524 -0.008278 0.000000 0.000000 0.000000
# 3 -0.002858 -0.008278 0.010796 0.000000 0.000000 0.000000
# 4 0.000000 0.000000 0.000000 0.026214 0.000000 0.000000
# 5 0.000000 0.000000 0.000000 0.000000 0.031250 0.000000
# 6 0.000000 0.000000 0.000000 0.000000 0.000000 0.035294
#
#
# Mechanical properties :
#
#
# Convention : Reuss Voigt Hill
#
# Bulk Modulus (GPa) = 68.07754 81.58819 74.83287
# Shear Modulus (GPa) = 27.30783 30.26748 28.78765
#
# Velocity S-wave (km/s) = 3.73999 3.93745 3.83999
# Velocity P-wave (km/s) = 7.31577 7.90331 7.61521
#
# Compressibility (1/GPa) = 0.01468913
#
# Stress axis : x y z
#
# Youngs Moduli (GPa) = 56.34787 46.45963 92.63009
#
# Poissons Ratio (x) = 0.30442 0.26477
# Poissons Ratio (y) = 0.36921 0.76680
# Poissons Ratio (z) = 0.16106 0.38460
#
# Static dielectric constant tensor:
#      x y z
#    x 3.509470 0.000000 0.000000 
#    y 0.000000 3.597040 0.000000 
#    z 0.000000 0.000000 -3.304980 
# 
# 
# High freq. dielectric constant tensor:
#      x y z
#    x 1.762670 0.000000 0.000000 
#    y 0.000000 1.759690 0.000000 
#    z 0.000000 0.000000 1.766310 
# 
# From -- ./inp_files/23649.got.cif
#   From: 2010.03.12/outbox.cif.g09.slc.cpg/sg59_12_cif.got.tgz:23649.got - 2010.04.16 16:29:54.
