data_PCOD8246803
_publ_section_title
;
Structure prediction by ZEFSAII (Michael W. Deem and Ramdas Pophale) SiO2 
 PCOD8246803
Probable space group: P B C N
;
_chemical_formula_sum "Si O2"
_cell_formula_units_Z 44
_cell_length_a 11.344197
_cell_length_b 24.242726
_cell_length_c 8.632908
_cell_angle_alpha 90.000000
_cell_angle_beta 90.000000
_cell_angle_gamma 90.000000
_cell_volume 2374.172801
_symmetry_space_group_name_H-M "P B C N"
_symmetry_group_IT_number 60
_symmetry_cell_setting 'orthorhombic'
loop_
_space_group_symop_operation_xyz
x,y,z
1/2-x,1/2-y,1/2+z
1/2+x,1/2-y,-z
-x,y,1/2-z
-x,-y,-z
1/2+x,1/2+y,1/2-z
1/2-x,1/2+y,z
x,-y,1/2+z
loop_
_atom_site_type_symbol
_atom_site_label
_atom_site_fract_x
_atom_site_fract_y
_atom_site_fract_z
Si Si1 0.591218 0.009345 0.133164
Si Si2 0.864761 0.387419 0.223603
Si Si3 0.298009 0.116150 0.437179
Si Si4 0.000000 0.326427 0.750000
Si Si5 0.184513 0.704886 0.011335
Si Si6 0.638059 0.698134 0.226382
O O1 0.500000 0.038002 0.250000
O O2 0.698687 0.049991 0.089252
O O3 0.649090 0.952427 0.191519
O O4 0.500000 0.000000 0.000000
O O5 0.792852 0.371290 0.379083
O O6 0.815936 0.353779 0.077037
O O7 0.000000 0.370847 0.250000
O O8 0.418534 0.138158 0.363285
O O9 0.185025 0.141534 0.350752
O O10 0.080270 0.288980 0.637536
O O11 0.175310 0.752791 0.886609
O O12 0.307347 0.708950 0.104051
O O13 0.500000 0.693683 0.250000
#
# Coordination Sequence:
#
# PCOD8246803 Si02
#       6
#     8   8   8   4   8   8
#     4  11  19  31  58  97 127 151 190 262 312 363
#     4  11  20  34  60  95 127 153 196 260 309 366
#     4  11  21  37  57  90 128 163 196 250 317 362
#     4  10  20  32  62  86 116 160 198 248 302 370
#     4  11  23  40  63  86 121 160 203 252 306 359
#     4  11  27  42  60  88 124 167 205 254 300 378
#
# _framework density 18.532769999999999
#
# number of rings (size 3 to 8) (size 9 to 14) (size 15 to 20)
#    0.000    1.091    6.364    1.636    7.636    0.000 
#    0.000    0.000    0.000    4.364    0.000    0.000 
#    0.000    0.000    0.000    0.000    0.000    0.000 
#
# Total GULP energy -545404.991174 kJ/mol
# GULP energy per Si atom -12395.567981 kJ/mol
# Density = 1.849059 g / cm^3
# Si number density = 18.532770 Si / 1000 Ang^3
#
#
#
# Elastic Constant Matrix: (Units=GPa)
#
#
# Indices 1 2 3 4 5 6 
#
# 1 116.8629 45.9444 54.0281 0.0000 0.0000 0.0000
# 2 45.9444 98.7750 45.0316 0.0000 0.0000 0.0000
# 3 54.0281 45.0316 129.1238 0.0000 0.0000 0.0000
# 4 0.0000 0.0000 0.0000 36.5819 0.0000 0.0000
# 5 0.0000 0.0000 0.0000 0.0000 28.5131 0.0000
# 6 0.0000 0.0000 0.0000 0.0000 0.0000 20.2526
#
#
#
# Elastic Compliance Matrix: (Units=1/GPa)
#
#
# Indices 1 2 3 4 5 6 
#
# 1 0.011708 -0.003820 -0.003567 0.000000 0.000000 0.000000
# 2 -0.003820 0.013284 -0.003035 0.000000 0.000000 0.000000
# 3 -0.003567 -0.003035 0.010295 0.000000 0.000000 0.000000
# 4 0.000000 0.000000 0.000000 0.027336 0.000000 0.000000
# 5 0.000000 0.000000 0.000000 0.000000 0.035072 0.000000
# 6 0.000000 0.000000 0.000000 0.000000 0.000000 0.049376
#
#
# Mechanical properties :
#
#
# Convention : Reuss Voigt Hill
#
# Bulk Modulus (GPa) = 69.22714 70.52999 69.87856
# Shear Modulus (GPa) = 28.94730 30.38671 29.66701
#
# Velocity S-wave (km/s) = 3.95644 4.05362 4.00532
# Velocity P-wave (km/s) = 7.63585 7.74910 7.69269
#
# Compressibility (1/GPa) = 0.01444520
#
# Stress axis : x y z
#
# Youngs Moduli (GPa) = 85.41407 75.27743 97.13308
#
# Poissons Ratio (x) = 0.28754 0.34644
# Poissons Ratio (y) = 0.32626 0.29476
# Poissons Ratio (z) = 0.30464 0.22844
#
# Static dielectric constant tensor:
#      x y z
#    x 3.102540 0.000000 0.000000 
#    y 0.000000 2.775030 0.000000 
#    z 0.000000 0.000000 3.739780 
# 
# 
# High freq. dielectric constant tensor:
#      x y z
#    x 1.674920 0.000000 0.000000 
#    y 0.000000 1.718470 0.000000 
#    z 0.000000 0.000000 1.751060 
# 
# From -- ./inp_files/5010.got.cif
#   From: 2010.03.12/outbox.cif.g09.slc.cpg/sg60_3_cif.got.tgz:5010.got - 2010.04.10 18:46:24.
