data_PCOD8246026
_publ_section_title
;
Structure prediction by ZEFSAII (Michael W. Deem and Ramdas Pophale) SiO2 
 PCOD8246026
Probable space group: P M M N
;
_chemical_formula_sum "Si O2"
_cell_formula_units_Z 64
_cell_length_a 13.802470
_cell_length_b 8.902108
_cell_length_c 30.798246
_cell_angle_alpha 90.000000
_cell_angle_beta 90.000000
_cell_angle_gamma 90.000000
_cell_volume 3784.213705
_symmetry_space_group_name_H-M "P M M N"
_symmetry_group_IT_number 59
_space_group.IT_coordinate_system_code '2'
_symmetry_cell_setting 'orthorhombic'
loop_
_space_group_symop_operation_xyz
x,y,z
1/2-x,1/2-y,z
1/2+x,-y,-z
-x,1/2+y,-z
-x,-y,-z
1/2+x,1/2+y,-z
1/2-x,y,z
x,1/2-y,z
loop_
_atom_site_type_symbol
_atom_site_label
_atom_site_fract_x
_atom_site_fract_y
_atom_site_fract_z
Si Si1 0.470334 0.072646 0.935201
Si Si2 0.517500 0.074402 0.546078
Si Si3 0.639825 0.071009 0.239185
Si Si4 0.524099 0.081617 0.319316
Si Si5 0.859358 0.572474 0.979191
Si Si6 0.861519 0.574519 0.150209
Si Si7 0.861001 0.928070 0.617677
Si Si8 0.140048 0.581504 0.597464
O O1 0.482133 0.250000 0.935248
O O2 0.425148 0.015973 0.890049
O O3 0.575879 0.999202 0.941087
O O4 0.399390 0.020409 0.973971
O O5 0.536721 0.250000 0.540558
O O6 0.500000 0.000000 0.500000
O O7 0.608413 0.002125 0.571873
O O8 0.420511 0.044526 0.572974
O O9 0.750000 0.013242 0.247650
O O10 0.638106 0.250000 0.240494
O O11 0.564792 0.003471 0.275346
O O12 0.602918 0.013643 0.192717
O O13 0.493385 0.250000 0.307132
O O14 0.429146 0.008049 0.342887
O O15 0.614826 0.078964 0.351854
O O16 0.750000 0.512619 0.974267
O O17 0.863477 0.750000 0.974602
O O18 0.750000 0.538443 0.139459
O O19 0.877093 0.750000 0.158449
O O20 0.750000 0.969153 0.628073
O O21 0.877257 0.750000 0.612735
O O22 0.250000 0.535624 0.590997
O O23 0.119137 0.750000 0.579085
#
# Coordination Sequence:
#
# PCOD8246026 Si02
#       8
#     8   8   8   8   8   8   8   8
#     4   9  17  29  45  64  87 118 153 187 226 274
#     4  11  22  35  50  69  96 126 156 190 227 270
#     4   9  16  26  43  68  95 122 152 186 226 273
#     4   8  14  27  48  72  95 119 148 183 224 269
#     4   9  17  29  45  65  88 114 147 189 234 275
#     4   9  17  29  44  63  90 123 155 185 221 269
#     4   9  18  34  55  75  94 120 157 198 236 274
#     4   9  17  31  51  72  94 121 151 182 220 267
#
# _framework density 16.912362999999999
#
# number of rings (size 3 to 8) (size 9 to 14) (size 15 to 20)
#    0.000    2.875    0.000    2.625    0.000    4.750 
#    0.000    2.500    0.000    6.000    0.000    1.750 
#    0.000    0.000    0.000    0.000    0.000    0.000 
#
# Total GULP energy -793234.050584 kJ/mol
# GULP energy per Si atom -12394.282040 kJ/mol
# Density = 1.687387 g / cm^3
# Si number density = 16.912363 Si / 1000 Ang^3
#
#
#
# Elastic Constant Matrix: (Units=GPa)
#
#
# Indices 1 2 3 4 5 6 
#
# 1 121.3285 27.0561 64.6001 0.0000 0.0000 0.0000
# 2 27.0561 36.4266 29.6273 0.0000 0.0000 0.0000
# 3 64.6001 29.6273 128.0559 0.0000 0.0000 0.0000
# 4 0.0000 0.0000 0.0000 24.3361 0.0000 0.0000
# 5 0.0000 0.0000 0.0000 0.0000 23.7036 0.0000
# 6 0.0000 0.0000 0.0000 0.0000 0.0000 22.0194
#
#
#
# Elastic Compliance Matrix: (Units=1/GPa)
#
#
# Indices 1 2 3 4 5 6 
#
# 1 0.011936 -0.004888 -0.004890 0.000000 0.000000 0.000000
# 2 -0.004888 0.035817 -0.005821 0.000000 0.000000 0.000000
# 3 -0.004890 -0.005821 0.011623 0.000000 0.000000 0.000000
# 4 0.000000 0.000000 0.000000 0.041091 0.000000 0.000000
# 5 0.000000 0.000000 0.000000 0.000000 0.042188 0.000000
# 6 0.000000 0.000000 0.000000 0.000000 0.000000 0.045414
#
#
# Mechanical properties :
#
#
# Convention : Reuss Voigt Hill
#
# Bulk Modulus (GPa) = 35.48914 58.70864 47.09889
# Shear Modulus (GPa) = 21.86645 24.98033 23.42339
#
# Velocity S-wave (km/s) = 3.59963 3.84740 3.72558
# Velocity P-wave (km/s) = 6.18920 7.38414 6.81292
#
# Compressibility (1/GPa) = 0.02817764
#
# Stress axis : x y z
#
# Youngs Moduli (GPa) = 83.78059 27.91935 86.03696
#
# Poissons Ratio (x) = 0.13647 0.42076
# Poissons Ratio (y) = 0.40951 0.50082
# Poissons Ratio (z) = 0.40972 0.16252
#
# Static dielectric constant tensor:
#      x y z
#    x 3.220870 0.000000 0.000000 
#    y 0.000000 3.102540 0.000000 
#    z 0.000000 0.000000 3.280090 
# 
# 
# High freq. dielectric constant tensor:
#      x y z
#    x 1.645260 0.000000 0.000000 
#    y 0.000000 1.629520 0.000000 
#    z 0.000000 0.000000 1.646130 
# 
# From -- ./inp_files/33349.got.cif
#   From: 2010.03.12/outbox.cif.g09.slc.cpg/sg59_17_cif.got.tgz:33349.got - 2010.04.16 16:29:54.
