data_PCOD8246941
_publ_section_title
;
Structure prediction by ZEFSAII (Michael W. Deem and Ramdas Pophale) SiO2 
 PCOD8246941
Probable space group: P B C N
;
_chemical_formula_sum "Si O2"
_cell_formula_units_Z 60
_cell_length_a 23.367294
_cell_length_b 9.432266
_cell_length_c 13.374826
_cell_angle_alpha 90.000000
_cell_angle_beta 90.000000
_cell_angle_gamma 90.000000
_cell_volume 2947.899024
_symmetry_space_group_name_H-M "P B C N"
_symmetry_group_IT_number 60
_symmetry_cell_setting 'orthorhombic'
loop_
_space_group_symop_operation_xyz
x,y,z
1/2-x,1/2-y,1/2+z
1/2+x,1/2-y,-z
-x,y,1/2-z
-x,-y,-z
1/2+x,1/2+y,1/2-z
1/2-x,1/2+y,z
x,-y,1/2+z
loop_
_atom_site_type_symbol
_atom_site_label
_atom_site_fract_x
_atom_site_fract_y
_atom_site_fract_z
Si Si1 0.863810 0.420070 0.466281
Si Si2 0.810897 0.193574 0.114320
Si Si3 0.749190 0.942347 0.020377
Si Si4 0.916080 0.710036 0.493121
Si Si5 0.416855 0.501295 0.603388
Si Si6 0.000000 0.101995 0.750000
Si Si7 0.813562 0.179353 0.345259
Si Si8 0.539387 0.724820 0.543631
O O1 0.806436 0.458232 0.525344
O O2 0.897101 0.564382 0.438800
O O3 0.842807 0.331720 0.369411
O O4 0.905577 0.326184 0.535575
O O5 0.761752 0.308124 0.091103
O O6 0.874752 0.253764 0.088359
O O7 0.800364 0.167798 0.230132
O O8 0.801505 0.041914 0.058055
O O9 0.758782 0.866302 0.912103
O O10 0.984636 0.704991 0.515077
O O11 0.907302 0.832853 0.413484
O O12 0.454300 0.492587 0.704013
O O13 0.355907 0.442814 0.625110
O O14 0.447588 0.425238 0.509600
O O15 0.026449 0.199587 0.839035
#
# Coordination Sequence:
#
# PCOD8246941 Si02
#       8
#     8   8   8   8   8   4   8   8
#     4  10  23  43  63  87 131 169 206 266 322 374
#     4  11  25  40  66  96 121 172 214 264 329 386
#     4  11  23  46  62  90 135 161 216 275 317 381
#     4  10  20  42  65  91 128 165 206 265 323 371
#     4  10  22  38  65  92 129 167 207 268 309 386
#     4  10  20  36  64  98 124 164 216 250 318 382
#     4  11  24  41  66  92 125 171 220 259 328 386
#     4  10  22  41  64  93 130 168 209 262 321 383
#
# _framework density 20.353479
#
# number of rings (size 3 to 8) (size 9 to 14) (size 15 to 20)
#    0.000    1.600    2.667    2.000    5.600    0.000 
#    9.600    0.000    0.000    0.000    0.000    0.000 
#    0.000    0.000    0.000    0.000    0.000    0.000 
#
# Total GULP energy -743348.245759 kJ/mol
# GULP energy per Si atom -12389.137429 kJ/mol
# Density = 2.030715 g / cm^3
# Si number density = 20.353479 Si / 1000 Ang^3
#
#
#
# Elastic Constant Matrix: (Units=GPa)
#
#
# Indices 1 2 3 4 5 6 
#
# 1 89.5833 32.9397 35.2398 0.0000 0.0000 0.0000
# 2 32.9397 118.0600 41.7700 0.0000 0.0000 0.0000
# 3 35.2398 41.7700 124.3333 0.0000 0.0000 0.0000
# 4 0.0000 0.0000 0.0000 -56.6292 0.0000 0.0000
# 5 0.0000 0.0000 0.0000 0.0000 4.7053 0.0000
# 6 0.0000 0.0000 0.0000 0.0000 0.0000 -13.0323
#
#
#
# Elastic Compliance Matrix: (Units=1/GPa)
#
#
# Indices 1 2 3 4 5 6 
#
# 1 0.013278 -0.002693 -0.002858 0.000000 0.000000 0.000000
# 2 -0.002693 0.010159 -0.002650 0.000000 0.000000 0.000000
# 3 -0.002858 -0.002650 0.009743 0.000000 0.000000 0.000000
# 4 0.000000 0.000000 0.000000 -0.017659 0.000000 0.000000
# 5 0.000000 0.000000 0.000000 0.000000 0.212524 0.000000
# 6 0.000000 0.000000 0.000000 0.000000 0.000000 -0.076733
#
#
# Mechanical properties :
#
#
# Convention : Reuss Voigt Hill
#
# Bulk Modulus (GPa) = 59.60446 61.31951 60.46198
# Shear Modulus (GPa) = 28.85038 1.81059 15.33049
#
# Velocity S-wave (km/s) = 3.76901 0.94420 2.74745
# Velocity P-wave (km/s) = 6.94902 5.60191 6.31150
#
# Compressibility (1/GPa) = 0.01677727
#
# Stress axis : x y z
#
# Youngs Moduli (GPa) = 75.31524 98.43341 102.63546
#
# Poissons Ratio (x) = 0.26510 0.29338
# Poissons Ratio (y) = 0.20284 0.27195
# Poissons Ratio (z) = 0.21529 0.26081
#
# Static dielectric constant tensor:
#      x y z
#    x 4.132500 0.000000 0.000000 
#    y 0.000000 3.955960 0.000000 
#    z 0.000000 0.000000 2.715510 
# 
# 
# High freq. dielectric constant tensor:
#      x y z
#    x 1.810900 0.000000 0.000000 
#    y 0.000000 1.808420 0.000000 
#    z 0.000000 0.000000 1.764860 
# 
# From -- ./inp_files/13283.got.cif
#   From: 2010.03.12/outbox.cif.g09.slc.cpg/sg60_7_cif.got.tgz:13283.got - 2010.04.10 18:46:24.
