data_PCOD8246352
_publ_section_title
;
Structure prediction by ZEFSAII (Michael W. Deem and Ramdas Pophale) SiO2 
 PCOD8246352
Probable space group: P B C N
;
_chemical_formula_sum "Si O2"
_cell_formula_units_Z 60
_cell_length_a 13.753525
_cell_length_b 13.135804
_cell_length_c 17.460964
_cell_angle_alpha 90.000000
_cell_angle_beta 90.000000
_cell_angle_gamma 90.000000
_cell_volume 3154.560768
_symmetry_space_group_name_H-M "P B C N"
_symmetry_group_IT_number 60
_symmetry_cell_setting 'orthorhombic'
loop_
_space_group_symop_operation_xyz
x,y,z
1/2-x,1/2-y,1/2+z
1/2+x,1/2-y,-z
-x,y,1/2-z
-x,-y,-z
1/2+x,1/2+y,1/2-z
1/2-x,1/2+y,z
x,-y,1/2+z
loop_
_atom_site_type_symbol
_atom_site_label
_atom_site_fract_x
_atom_site_fract_y
_atom_site_fract_z
Si Si1 0.762523 0.205679 0.726259
Si Si2 0.901674 0.006486 0.544310
Si Si3 0.726634 0.853852 0.009332
Si Si4 0.343134 0.966802 0.349633
Si Si5 0.127658 0.702455 0.145887
Si Si6 0.724812 0.339728 0.600459
Si Si7 0.960756 0.846458 0.168976
Si Si8 0.500000 0.943308 0.750000
O O1 0.723704 0.089904 0.715511
O O2 0.780487 0.238133 0.814431
O O3 0.692464 0.283283 0.679675
O O4 0.866417 0.223228 0.683296
O O5 0.867167 0.892105 0.560247
O O6 0.820183 0.072827 0.499754
O O7 0.000000 0.000000 0.500000
O O8 0.925471 0.054641 0.625608
O O9 0.668328 0.851505 0.929648
O O10 0.652732 0.896421 0.074468
O O11 0.763429 0.742569 0.037548
O O12 0.302672 0.074851 0.377158
O O13 0.448622 0.984332 0.312754
O O14 0.043232 0.782960 0.123377
O O15 0.081501 0.622696 0.206038
O O16 0.000000 0.885754 0.250000
#
# Coordination Sequence:
#
# PCOD8246352 Si02
#       8
#     8   8   8   8   8   8   8   4
#     4  10  18  39  62  84 119 160 206 246 309 365
#     4  11  22  39  59  92 124 155 206 257 305 375
#     4  10  23  40  60  90 132 162 206 252 335 364
#     4  10  21  39  64  86 125 167 198 263 314 374
#     4  11  21  38  65  96 114 167 213 261 296 383
#     4  10  17  38  64  80 116 171 190 250 318 365
#     4  10  18  36  63  87 112 153 211 245 289 369
#     4  12  22  38  66  92 120 160 226 250 304 388
#
# _framework density 19.02008
#
# number of rings (size 3 to 8) (size 9 to 14) (size 15 to 20)
#    0.000    1.600    7.333    0.800    0.000    0.533 
#   12.000    4.000    1.467    0.000    0.000    0.000 
#    0.000    0.000    0.000    0.000    0.000    0.000 
#
# Total GULP energy -743463.930908 kJ/mol
# GULP energy per Si atom -12391.065515 kJ/mol
# Density = 1.897679 g / cm^3
# Si number density = 19.020080 Si / 1000 Ang^3
#
#
#
# Elastic Constant Matrix: (Units=GPa)
#
#
# Indices 1 2 3 4 5 6 
#
# 1 73.1196 27.7934 35.1113 0.0000 0.0000 0.0000
# 2 27.7934 92.9274 33.1375 0.0000 0.0000 0.0000
# 3 35.1113 33.1375 95.8794 0.0000 0.0000 0.0000
# 4 0.0000 0.0000 0.0000 6.3400 0.0000 0.0000
# 5 0.0000 0.0000 0.0000 0.0000 37.8459 0.0000
# 6 0.0000 0.0000 0.0000 0.0000 0.0000 17.8924
#
#
#
# Elastic Compliance Matrix: (Units=1/GPa)
#
#
# Indices 1 2 3 4 5 6 
#
# 1 0.017466 -0.003357 -0.005236 0.000000 0.000000 0.000000
# 2 -0.003357 0.012919 -0.003236 0.000000 0.000000 0.000000
# 3 -0.005236 -0.003236 0.013466 0.000000 0.000000 0.000000
# 4 0.000000 0.000000 0.000000 0.157730 0.000000 0.000000
# 5 0.000000 0.000000 0.000000 0.000000 0.026423 0.000000
# 6 0.000000 0.000000 0.000000 0.000000 0.000000 0.055890
#
#
# Mechanical properties :
#
#
# Convention : Reuss Voigt Hill
#
# Bulk Modulus (GPa) = 49.52045 50.44566 49.98305
# Shear Modulus (GPa) = 15.90928 23.47460 19.69194
#
# Velocity S-wave (km/s) = 2.89528 3.51693 3.22114
# Velocity P-wave (km/s) = 6.10485 6.56290 6.33801
#
# Compressibility (1/GPa) = 0.02019368
#
# Stress axis : x y z
#
# Youngs Moduli (GPa) = 57.25246 77.40591 74.26358
#
# Poissons Ratio (x) = 0.25984 0.38885
# Poissons Ratio (y) = 0.19219 0.24030
# Poissons Ratio (z) = 0.29978 0.25046
#
# Static dielectric constant tensor:
#      x y z
#    x 3.513180 0.000000 0.000000 
#    y 0.000000 3.176540 0.000000 
#    z 0.000000 0.000000 3.400570 
# 
# 
# High freq. dielectric constant tensor:
#      x y z
#    x 1.718590 0.000000 0.000000 
#    y 0.000000 1.746140 0.000000 
#    z 0.000000 0.000000 1.731860 
# 
# From -- ./inp_files/22721.got.cif
#   From: 2010.03.12/outbox.cif.g09.slc.cpg/sg60_12_cif.got.tgz:22721.got - 2010.04.10 18:46:24.
