data_PCOD8246707
_publ_section_title
;
Structure prediction by ZEFSAII (Michael W. Deem and Ramdas Pophale) SiO2 
 PCOD8246707
Probable space group: P B C N
;
_chemical_formula_sum "Si O2"
_cell_formula_units_Z 48
_cell_length_a 8.142172
_cell_length_b 20.471233
_cell_length_c 13.858215
_cell_angle_alpha 90.000000
_cell_angle_beta 90.000000
_cell_angle_gamma 90.000000
_cell_volume 2309.891436
_symmetry_space_group_name_H-M "P B C N"
_symmetry_group_IT_number 60
_symmetry_cell_setting 'orthorhombic'
loop_
_space_group_symop_operation_xyz
x,y,z
1/2-x,1/2-y,1/2+z
1/2+x,1/2-y,-z
-x,y,1/2-z
-x,-y,-z
1/2+x,1/2+y,1/2-z
1/2-x,1/2+y,z
x,-y,1/2+z
loop_
_atom_site_type_symbol
_atom_site_label
_atom_site_fract_x
_atom_site_fract_y
_atom_site_fract_z
Si Si1 0.584374 0.102120 0.474552
Si Si2 0.741177 0.203833 0.265647
Si Si3 0.436619 0.989287 0.354965
Si Si4 0.147761 0.077938 0.317787
Si Si5 0.555121 0.771944 0.594436
Si Si6 0.430822 0.668069 0.068416
O O1 0.558815 0.042202 0.401348
O O2 0.445080 0.157934 0.459347
O O3 0.762998 0.131594 0.456578
O O4 0.566341 0.077119 0.583713
O O5 0.731278 0.125806 0.242971
O O6 0.592282 0.228295 0.330059
O O7 0.723957 0.238019 0.158756
O O8 0.906395 0.211489 0.331542
O O9 0.500000 0.969831 0.250000
O O10 0.250224 0.016151 0.353701
O O11 0.000000 0.052810 0.250000
O O12 0.075070 0.116415 0.411413
O O13 0.522484 0.714124 0.520131
#
# Coordination Sequence:
#
# PCOD8246707 Si02
#       6
#     8   8   8   8   8   8
#     4  10  23  38  63  92 111 166 206 243 305 363
#     4   9  19  34  58  87 108 164 196 231 298 352
#     4  11  21  40  64  85 122 156 205 253 297 363
#     4  10  20  36  63  89 113 160 213 247 291 360
#     4  10  19  37  59  85 124 152 196 247 295 360
#     4  10  22  37  61  94 120 154 205 254 301 361
#
# _framework density 20.780199
#
# number of rings (size 3 to 8) (size 9 to 14) (size 15 to 20)
#    0.000    2.000    1.667    3.000    4.667    0.667 
#    3.000    0.000    7.333    0.000    0.000    0.000 
#    0.000    0.000    0.000    0.000    0.000    0.000 
#
# Total GULP energy -594634.822825 kJ/mol
# GULP energy per Si atom -12388.225476 kJ/mol
# Density = 2.073290 g / cm^3
# Si number density = 20.780199 Si / 1000 Ang^3
#
#
#
# Elastic Constant Matrix: (Units=GPa)
#
#
# Indices 1 2 3 4 5 6 
#
# 1 66.2115 26.1615 43.8157 0.0000 0.0000 0.0000
# 2 26.1615 66.6542 61.9453 0.0000 0.0000 0.0000
# 3 43.8157 61.9453 162.4872 0.0000 0.0000 0.0000
# 4 0.0000 0.0000 0.0000 23.9224 0.0000 0.0000
# 5 0.0000 0.0000 0.0000 0.0000 25.9220 0.0000
# 6 0.0000 0.0000 0.0000 0.0000 0.0000 14.2058
#
#
#
# Elastic Compliance Matrix: (Units=1/GPa)
#
#
# Indices 1 2 3 4 5 6 
#
# 1 0.019114 -0.004200 -0.003553 0.000000 0.000000 0.000000
# 2 -0.004200 0.024158 -0.008077 0.000000 0.000000 0.000000
# 3 -0.003553 -0.008077 0.010192 0.000000 0.000000 0.000000
# 4 0.000000 0.000000 0.000000 0.041802 0.000000 0.000000
# 5 0.000000 0.000000 0.000000 0.000000 0.038577 0.000000
# 6 0.000000 0.000000 0.000000 0.000000 0.000000 0.070394
#
#
# Mechanical properties :
#
#
# Convention : Reuss Voigt Hill
#
# Bulk Modulus (GPa) = 45.86548 62.13310 53.99929
# Shear Modulus (GPa) = 20.56220 23.70539 22.13379
#
# Velocity S-wave (km/s) = 3.14906 3.38119 3.26719
# Velocity P-wave (km/s) = 5.94489 6.72371 6.34626
#
# Compressibility (1/GPa) = 0.02180289
#
# Stress axis : x y z
#
# Youngs Moduli (GPa) = 52.31810 41.39433 98.11931
#
# Poissons Ratio (x) = 0.17386 0.34861
# Poissons Ratio (y) = 0.21974 0.79253
# Poissons Ratio (z) = 0.18588 0.33435
#
# Static dielectric constant tensor:
#      x y z
#    x 4.048250 0.000000 0.000000 
#    y 0.000000 3.375900 0.000000 
#    z 0.000000 0.000000 4.252350 
# 
# 
# High freq. dielectric constant tensor:
#      x y z
#    x 1.815370 0.000000 0.000000 
#    y 0.000000 1.765000 0.000000 
#    z 0.000000 0.000000 1.830840 
# 
# From -- ./inp_files/15323.got.cif
#   From: 2010.03.12/outbox.cif.g09.slc.cpg/sg60_8_cif.got.tgz:15323.got - 2010.04.10 18:46:24.
