data_PCOD8246165
_publ_section_title
;
Structure prediction by ZEFSAII (Michael W. Deem and Ramdas Pophale) SiO2 
 PCOD8246165
Probable space group: P M M N
;
_chemical_formula_sum "Si O2"
_cell_formula_units_Z 56
_cell_length_a 9.542116
_cell_length_b 25.194344
_cell_length_c 15.139315
_cell_angle_alpha 90.000000
_cell_angle_beta 90.000000
_cell_angle_gamma 90.000000
_cell_volume 3639.602645
_symmetry_space_group_name_H-M "P M M N"
_symmetry_group_IT_number 59
_space_group.IT_coordinate_system_code '2'
_symmetry_cell_setting 'orthorhombic'
loop_
_space_group_symop_operation_xyz
x,y,z
1/2-x,1/2-y,z
1/2+x,-y,-z
-x,1/2+y,-z
-x,-y,-z
1/2+x,1/2+y,-z
1/2-x,y,z
x,1/2-y,z
loop_
_atom_site_type_symbol
_atom_site_label
_atom_site_fract_x
_atom_site_fract_y
_atom_site_fract_z
Si Si1 0.586221 0.400237 0.114663
Si Si2 0.916608 0.308791 0.245138
Si Si3 0.405083 0.186934 0.594558
Si Si4 0.407402 0.613469 0.091244
Si Si5 0.915922 0.689728 0.209571
Si Si6 0.594924 0.186995 0.439238
Si Si7 0.587205 0.504092 0.911118
O O1 0.750000 0.413342 0.131080
O O2 0.532939 0.350314 0.171766
O O3 0.490940 0.450387 0.146037
O O4 0.557664 0.386914 0.012708
O O5 0.750000 0.305780 0.248557
O O6 0.975868 0.250000 0.221526
O O7 0.969142 0.327035 0.342654
O O8 0.250000 0.162979 0.582071
O O9 0.397926 0.250000 0.586697
O O10 0.463982 0.172216 0.691817
O O11 0.501180 0.162139 0.517502
O O12 0.250000 0.634854 0.105793
O O13 0.514731 0.652191 0.137890
O O14 0.421008 0.554252 0.133144
O O15 0.750000 0.684567 0.201539
O O16 0.963392 0.750000 0.190536
O O17 0.750000 0.162504 0.449720
O O18 0.602436 0.250000 0.448617
O O19 0.750000 0.519275 0.929040
O O20 0.500000 0.500000 0.000000
#
# Coordination Sequence:
#
# PCOD8246165 Si02
#       7
#     8   8   8   8   8   8   8
#     4   9  17  29  45  64  85 112 144 173 205 245
#     4   8  14  25  41  62  89 117 142 168 200 245
#     4   8  14  25  39  55  78 107 136 167 204 244
#     4   9  18  29  42  62  84 108 140 175 208 242
#     4   9  18  30  42  59  85 115 142 167 203 252
#     4   8  13  22  38  59  80 105 138 171 201 235
#     4   9  17  30  46  63  82 104 137 180 218 247
#
# _framework density 15.386295
#
# number of rings (size 3 to 8) (size 9 to 14) (size 15 to 20)
#    0.000    3.429    0.000    3.000    0.000    4.286 
#    0.000    3.571    0.000    1.286    0.000    1.000 
#    0.000    0.000    0.000    0.000    0.000    0.000 
#
# Total GULP energy -693851.167794 kJ/mol
# GULP energy per Si atom -12390.199425 kJ/mol
# Density = 1.535128 g / cm^3
# Si number density = 15.386295 Si / 1000 Ang^3
#
#
#
# Elastic Constant Matrix: (Units=GPa)
#
#
# Indices 1 2 3 4 5 6 
#
# 1 61.3016 39.1049 37.7759 0.0000 0.0000 0.0000
# 2 39.1049 73.9982 47.0678 0.0000 0.0000 0.0000
# 3 37.7759 47.0678 82.2175 0.0000 0.0000 0.0000
# 4 0.0000 0.0000 0.0000 0.8292 0.0000 0.0000
# 5 0.0000 0.0000 0.0000 0.0000 21.9611 0.0000
# 6 0.0000 0.0000 0.0000 0.0000 0.0000 23.7810
#
#
#
# Elastic Compliance Matrix: (Units=1/GPa)
#
#
# Indices 1 2 3 4 5 6 
#
# 1 0.026701 -0.009919 -0.006590 0.000000 0.000000 0.000000
# 2 -0.009919 0.024937 -0.009719 0.000000 0.000000 0.000000
# 3 -0.006590 -0.009719 0.020754 0.000000 0.000000 0.000000
# 4 0.000000 0.000000 0.000000 1.205969 0.000000 0.000000
# 5 0.000000 0.000000 0.000000 0.000000 0.045535 0.000000
# 6 0.000000 0.000000 0.000000 0.000000 0.000000 0.042050
#
#
# Mechanical properties :
#
#
# Convention : Reuss Voigt Hill
#
# Bulk Modulus (GPa) = 50.15561 51.71275 50.93418
# Shear Modulus (GPa) = 3.50865 15.55217 9.53041
#
# Velocity S-wave (km/s) = 1.51173 3.18273 2.49149
# Velocity P-wave (km/s) = 5.97624 6.86942 6.43834
#
# Compressibility (1/GPa) = 0.01993795
#
# Stress axis : x y z
#
# Youngs Moduli (GPa) = 37.45197 40.10066 48.18246
#
# Poissons Ratio (x) = 0.39775 0.31751
# Poissons Ratio (y) = 0.37148 0.46827
# Poissons Ratio (z) = 0.24680 0.38973
#
# Static dielectric constant tensor:
#      x y z
#    x 3.036140 0.000000 0.000000 
#    y 0.000000 3.030490 0.000000 
#    z 0.000000 0.000000 2.996720 
# 
# 
# High freq. dielectric constant tensor:
#      x y z
#    x 1.581680 0.000000 0.000000 
#    y 0.000000 1.558400 0.000000 
#    z 0.000000 0.000000 1.577000 
# 
# From -- ./inp_files/21759.got.cif
#   From: 2010.03.12/outbox.cif.g09.slc.cpg/sg59_11_cif.got.tgz:21759.got - 2010.04.16 16:29:54.
