data_PCOD8246894
_publ_section_title
;
Structure prediction by ZEFSAII (Michael W. Deem and Ramdas Pophale) SiO2 
 PCOD8246894
Probable space group: P B C N
;
_chemical_formula_sum "Si O2"
_cell_formula_units_Z 64
_cell_length_a 21.686395
_cell_length_b 18.733514
_cell_length_c 8.970227
_cell_angle_alpha 90.000000
_cell_angle_beta 90.000000
_cell_angle_gamma 90.000000
_cell_volume 3644.265809
_symmetry_space_group_name_H-M "P B C N"
_symmetry_group_IT_number 60
_symmetry_cell_setting 'orthorhombic'
loop_
_space_group_symop_operation_xyz
x,y,z
1/2-x,1/2-y,1/2+z
1/2+x,1/2-y,-z
-x,y,1/2-z
-x,-y,-z
1/2+x,1/2+y,1/2-z
1/2-x,1/2+y,z
x,-y,1/2+z
loop_
_atom_site_type_symbol
_atom_site_label
_atom_site_fract_x
_atom_site_fract_y
_atom_site_fract_z
Si Si1 0.384870 0.442773 0.393696
Si Si2 0.249985 0.911869 0.860348
Si Si3 0.429891 0.428202 0.715096
Si Si4 0.252099 0.553311 0.019415
Si Si5 0.631203 0.320487 0.597736
Si Si6 0.684168 0.224910 0.207266
Si Si7 0.929341 0.191031 0.783809
Si Si8 0.213484 0.700909 0.961842
O O1 0.425214 0.443021 0.541752
O O2 0.388083 0.518936 0.313267
O O3 0.314631 0.428284 0.433707
O O4 0.412613 0.384571 0.284746
O O5 0.236179 0.943848 0.696354
O O6 0.190108 0.872499 0.929104
O O7 0.306635 0.855680 0.853302
O O8 0.271568 0.975176 0.971055
O O9 0.500000 0.441655 0.750000
O O10 0.407440 0.348088 0.759365
O O11 0.203909 0.615047 0.967193
O O12 0.584288 0.317721 0.459110
O O13 0.658544 0.240828 0.629535
O O14 0.612023 0.245839 0.211209
O O15 0.713171 0.232291 0.371394
O O16 0.719671 0.281744 0.105063
O O17 0.000000 0.210998 0.750000
#
# Coordination Sequence:
#
# PCOD8246894 Si02
#       8
#     8   8   8   8   8   8   8   8
#     4  12  21  33  47  71 100 139 177 206 242 297
#     4  10  21  33  53  75 102 130 169 206 259 302
#     4  12  23  35  48  67 102 142 179 209 239 287
#     4  11  19  33  50  76 100 134 160 208 259 304
#     4  10  20  36  50  73 100 133 172 211 255 295
#     4   9  19  35  51  75 101 131 169 211 256 302
#     4  11  22  35  53  75 103 139 177 210 252 304
#     4   9  19  32  53  72  99 127 164 211 258 300
#
# _framework density 17.561836
#
# number of rings (size 3 to 8) (size 9 to 14) (size 15 to 20)
#    0.000    1.500    3.750    2.250    1.750    1.000 
#    0.000    0.000    0.000    0.000    0.000    8.750 
#    0.000    0.000    0.000    0.000    0.000    0.000 
#
# Total GULP energy -793406.260738 kJ/mol
# GULP energy per Si atom -12396.972824 kJ/mol
# Density = 1.752186 g / cm^3
# Si number density = 17.561836 Si / 1000 Ang^3
#
#
#
# Elastic Constant Matrix: (Units=GPa)
#
#
# Indices 1 2 3 4 5 6 
#
# 1 65.0887 24.4944 13.4733 0.0000 0.0000 0.0000
# 2 24.4944 78.2333 8.3911 0.0000 0.0000 0.0000
# 3 13.4733 8.3911 27.0571 0.0000 0.0000 0.0000
# 4 0.0000 0.0000 0.0000 28.7271 0.0000 0.0000
# 5 0.0000 0.0000 0.0000 0.0000 22.2533 0.0000
# 6 0.0000 0.0000 0.0000 0.0000 0.0000 30.0132
#
#
#
# Elastic Compliance Matrix: (Units=1/GPa)
#
#
# Indices 1 2 3 4 5 6 
#
# 1 0.018896 -0.005076 -0.007835 0.000000 0.000000 0.000000
# 2 -0.005076 0.014586 -0.001996 0.000000 0.000000 0.000000
# 3 -0.007835 -0.001996 0.041479 0.000000 0.000000 0.000000
# 4 0.000000 0.000000 0.000000 0.034810 0.000000 0.000000
# 5 0.000000 0.000000 0.000000 0.000000 0.044937 0.000000
# 6 0.000000 0.000000 0.000000 0.000000 0.000000 0.033319
#
#
# Mechanical properties :
#
#
# Convention : Reuss Voigt Hill
#
# Bulk Modulus (GPa) = 22.14980 29.23297 25.69139
# Shear Modulus (GPa) = 21.46944 24.46673 22.96808
#
# Velocity S-wave (km/s) = 3.50023 3.73658 3.62033
# Velocity P-wave (km/s) = 5.38287 5.94120 5.66891
#
# Compressibility (1/GPa) = 0.04514714
#
# Stress axis : x y z
#
# Youngs Moduli (GPa) = 52.92231 68.56105 24.10838
#
# Poissons Ratio (x) = 0.34800 0.18889
# Poissons Ratio (y) = 0.26862 0.04812
# Poissons Ratio (z) = 0.41465 0.13684
#
# Static dielectric constant tensor:
#      x y z
#    x 3.113480 0.000000 0.000000 
#    y 0.000000 3.471320 0.000000 
#    z 0.000000 0.000000 3.414280 
# 
# 
# High freq. dielectric constant tensor:
#      x y z
#    x 1.646960 0.000000 0.000000 
#    y 0.000000 1.675680 0.000000 
#    z 0.000000 0.000000 1.686220 
# 
# From -- ./inp_files/7630.got.cif
#   From: 2010.03.12/outbox.cif.g09.slc.cpg/sg60_4_cif.got.tgz:7630.got - 2010.04.10 18:46:24.
