data_PCOD8246623
_publ_section_title
;
Structure prediction by ZEFSAII (Michael W. Deem and Ramdas Pophale) SiO2 
 PCOD8246623
Probable space group: P B C N
;
_chemical_formula_sum "Si O2"
_cell_formula_units_Z 64
_cell_length_a 8.533794
_cell_length_b 15.770647
_cell_length_c 20.706156
_cell_angle_alpha 90.000000
_cell_angle_beta 90.000000
_cell_angle_gamma 90.000000
_cell_volume 2786.705968
_symmetry_space_group_name_H-M "P B C N"
_symmetry_group_IT_number 60
_symmetry_cell_setting 'orthorhombic'
loop_
_space_group_symop_operation_xyz
x,y,z
1/2-x,1/2-y,1/2+z
1/2+x,1/2-y,-z
-x,y,1/2-z
-x,-y,-z
1/2+x,1/2+y,1/2-z
1/2-x,1/2+y,z
x,-y,1/2+z
loop_
_atom_site_type_symbol
_atom_site_label
_atom_site_fract_x
_atom_site_fract_y
_atom_site_fract_z
Si Si1 0.077780 0.825747 0.315443
Si Si2 0.642289 0.919234 0.562830
Si Si3 0.048189 0.343719 0.453200
Si Si4 0.951161 0.152528 0.052552
Si Si5 0.640998 0.414976 0.057636
Si Si6 0.947008 0.641640 0.320258
Si Si7 0.080606 0.147879 0.185916
Si Si8 0.558848 0.169088 0.687554
O O1 0.060682 0.893571 0.373329
O O2 0.260194 0.804501 0.304075
O O3 0.000000 0.863703 0.250000
O O4 0.988418 0.739510 0.334326
O O5 0.533732 0.912057 0.499364
O O6 0.533341 0.915828 0.626109
O O7 0.762625 0.840452 0.557919
O O8 0.757067 0.999798 0.562176
O O9 0.235266 0.342909 0.465205
O O10 0.025519 0.379192 0.379592
O O11 0.985398 0.247738 0.460892
O O12 0.006715 0.111398 0.120153
O O13 0.005275 0.087181 0.996545
O O14 0.762558 0.627322 0.320567
O O15 0.000000 0.611773 0.250000
O O16 0.000000 0.105807 0.250000
O O17 0.049784 0.247911 0.187782
O O18 0.500000 0.114291 0.750000
#
# Coordination Sequence:
#
# PCOD8246623 Si02
#       8
#     8   8   8   8   8   8   8   8
#     4  10  20  37  63  91 122 164 218 272 325 398
#     4  12  24  40  60  91 133 172 214 274 342 402
#     4  10  21  38  63  87 118 165 218 270 323 396
#     4  11  22  39  62  89 119 166 221 269 324 399
#     4  11  24  41  59  91 132 170 213 272 341 400
#     4  11  21  37  64  92 122 166 219 274 328 395
#     4  10  19  34  59  92 123 153 203 271 329 378
#     4   9  17  32  55  89 121 150 200 268 327 378
#
# _framework density 22.966183999999998
#
# number of rings (size 3 to 8) (size 9 to 14) (size 15 to 20)
#    0.000    1.500    0.000    9.000    0.000    4.000 
#    0.000    4.375    0.000    1.500    0.000    0.000 
#    0.000    0.000    0.000    0.000    0.000    0.000 
#
# Total GULP energy -793066.769573 kJ/mol
# GULP energy per Si atom -12391.668275 kJ/mol
# Density = 2.291391 g / cm^3
# Si number density = 22.966184 Si / 1000 Ang^3
#
#
#
# Elastic Constant Matrix: (Units=GPa)
#
#
# Indices 1 2 3 4 5 6 
#
# 1 132.9174 16.0652 77.0610 0.0000 0.0000 0.0000
# 2 16.0652 62.0509 34.5822 0.0000 0.0000 0.0000
# 3 77.0610 34.5822 201.6836 0.0000 0.0000 0.0000
# 4 0.0000 0.0000 0.0000 11.4074 0.0000 0.0000
# 5 0.0000 0.0000 0.0000 0.0000 50.6923 0.0000
# 6 0.0000 0.0000 0.0000 0.0000 0.0000 29.7133
#
#
#
# Elastic Compliance Matrix: (Units=1/GPa)
#
#
# Indices 1 2 3 4 5 6 
#
# 1 0.009678 -0.000492 -0.003613 0.000000 0.000000 0.000000
# 2 -0.000492 0.017844 -0.002872 0.000000 0.000000 0.000000
# 3 -0.003613 -0.002872 0.006831 0.000000 0.000000 0.000000
# 4 0.000000 0.000000 0.000000 0.087662 0.000000 0.000000
# 5 0.000000 0.000000 0.000000 0.000000 0.019727 0.000000
# 6 0.000000 0.000000 0.000000 0.000000 0.000000 0.033655
#
#
# Mechanical properties :
#
#
# Convention : Reuss Voigt Hill
#
# Bulk Modulus (GPa) = 49.02227 72.45207 60.73717
# Shear Modulus (GPa) = 25.49068 36.29220 30.89144
#
# Velocity S-wave (km/s) = 3.33516 3.97954 3.67152
# Velocity P-wave (km/s) = 6.01854 7.26164 6.66912
#
# Compressibility (1/GPa) = 0.02039889
#
# Stress axis : x y z
#
# Youngs Moduli (GPa) = 103.32839 56.04263 146.38430
#
# Poissons Ratio (x) = 0.02756 0.52896
# Poissons Ratio (y) = 0.05081 0.42037
# Poissons Ratio (z) = 0.37338 0.16094
#
# Static dielectric constant tensor:
#      x y z
#    x 4.384700 0.000000 0.000000 
#    y 0.000000 3.629630 0.000000 
#    z 0.000000 0.000000 4.822520 
# 
# 
# High freq. dielectric constant tensor:
#      x y z
#    x 1.915310 0.000000 0.000000 
#    y 0.000000 1.869500 0.000000 
#    z 0.000000 0.000000 1.928560 
# 
# From -- ./inp_files/22361.got.cif
#   From: 2010.03.12/outbox.cif.g09.slc.cpg/sg60_12_cif.got.tgz:22361.got - 2010.04.10 18:46:24.
