data_PCOD8246773
_publ_section_title
;
Structure prediction by ZEFSAII (Michael W. Deem and Ramdas Pophale) SiO2 
 PCOD8246773
Probable space group: P B C N
;
_chemical_formula_sum "Si O2"
_cell_formula_units_Z 60
_cell_length_a 11.459000
_cell_length_b 26.650053
_cell_length_c 9.387561
_cell_angle_alpha 90.000000
_cell_angle_beta 90.000000
_cell_angle_gamma 90.000000
_cell_volume 2866.801140
_symmetry_space_group_name_H-M "P B C N"
_symmetry_group_IT_number 60
_symmetry_cell_setting 'orthorhombic'
loop_
_space_group_symop_operation_xyz
x,y,z
1/2-x,1/2-y,1/2+z
1/2+x,1/2-y,-z
-x,y,1/2-z
-x,-y,-z
1/2+x,1/2+y,1/2-z
1/2-x,1/2+y,z
x,-y,1/2+z
loop_
_atom_site_type_symbol
_atom_site_label
_atom_site_fract_x
_atom_site_fract_y
_atom_site_fract_z
Si Si1 0.380024 0.694905 0.915599
Si Si2 0.425066 0.279821 0.886529
Si Si3 0.103204 0.965255 0.053179
Si Si4 0.210231 0.639133 0.109017
Si Si5 0.974476 0.667108 0.594208
Si Si6 0.169854 0.695221 0.375563
Si Si7 0.360805 0.551831 0.247750
Si Si8 0.500000 0.383539 0.250000
O O1 0.342994 0.746082 0.838578
O O2 0.389874 0.649454 0.803715
O O3 0.509820 0.704362 0.971240
O O4 0.296387 0.681408 0.047146
O O5 0.500000 0.296556 0.750000
O O6 0.404753 0.219581 0.884691
O O7 0.307911 0.312649 0.896750
O O8 0.049384 0.915568 0.119938
O O9 0.168586 0.997988 0.174301
O O10 0.181217 0.950940 0.913803
O O11 0.000000 0.000000 0.000000
O O12 0.135022 0.662809 0.237982
O O13 0.284377 0.591227 0.158210
O O14 0.110590 0.628098 0.989177
O O15 0.096378 0.677393 0.512377
O O16 0.000000 0.643773 0.750000
O O17 0.500000 0.565203 0.250000
#
# Coordination Sequence:
#
# PCOD8246773 Si02
#       8
#     8   8   8   8   8   8   8   4
#     4  11  25  35  59  94 138 175 226 273 330 404
#     4  10  20  39  59  86 128 182 230 277 330 383
#     4  10  19  41  62  93 134 170 209 277 359 416
#     4  12  24  41  64  94 134 181 231 272 341 412
#     4  10  24  43  62  87 128 185 238 281 327 385
#     4  11  24  41  63  90 138 189 228 285 329 393
#     4  10  22  39  66  97 138 173 211 282 358 422
#     4  12  24  34  62  96 136 178 222 272 344 420
#
# _framework density 20.929251000000001
#
# number of rings (size 3 to 8) (size 9 to 14) (size 15 to 20)
#    0.000    1.333    4.667    2.000    7.467    1.067 
#    0.000    0.000    0.000    0.000    0.000    6.533 
#    0.000    0.000    0.000    0.000    0.000    0.000 
#
# Total GULP energy -743705.198844 kJ/mol
# GULP energy per Si atom -12395.086647 kJ/mol
# Density = 2.088161 g / cm^3
# Si number density = 20.929251 Si / 1000 Ang^3
#
#
#
# Elastic Constant Matrix: (Units=GPa)
#
#
# Indices 1 2 3 4 5 6 
#
# 1 96.5853 26.4791 49.1849 0.0000 0.0000 0.0000
# 2 26.4791 78.3837 38.8021 0.0000 0.0000 0.0000
# 3 49.1849 38.8021 135.1924 0.0000 0.0000 0.0000
# 4 0.0000 0.0000 0.0000 34.3338 0.0000 0.0000
# 5 0.0000 0.0000 0.0000 0.0000 35.4134 0.0000
# 6 0.0000 0.0000 0.0000 0.0000 0.0000 20.7063
#
#
#
# Elastic Compliance Matrix: (Units=1/GPa)
#
#
# Indices 1 2 3 4 5 6 
#
# 1 0.013086 -0.002406 -0.004070 0.000000 0.000000 0.000000
# 2 -0.002406 0.015313 -0.003520 0.000000 0.000000 0.000000
# 3 -0.004070 -0.003520 0.009888 0.000000 0.000000 0.000000
# 4 0.000000 0.000000 0.000000 0.029126 0.000000 0.000000
# 5 0.000000 0.000000 0.000000 0.000000 0.028238 0.000000
# 6 0.000000 0.000000 0.000000 0.000000 0.000000 0.048294
#
#
# Mechanical properties :
#
#
# Convention : Reuss Voigt Hill
#
# Bulk Modulus (GPa) = 54.65966 59.89929 57.27947
# Shear Modulus (GPa) = 29.40579 31.13707 30.27143
#
# Velocity S-wave (km/s) = 3.75241 3.86129 3.80724
# Velocity P-wave (km/s) = 6.70427 6.96861 6.83772
#
# Compressibility (1/GPa) = 0.01829503
#
# Stress axis : x y z
#
# Youngs Moduli (GPa) = 76.41849 65.30478 101.13321
#
# Poissons Ratio (x) = 0.15710 0.41165
# Poissons Ratio (y) = 0.18383 0.35597
# Poissons Ratio (z) = 0.31105 0.22986
#
# Static dielectric constant tensor:
#      x y z
#    x 3.568170 0.000000 0.000000 
#    y 0.000000 3.673800 0.000000 
#    z 0.000000 0.000000 4.370470 
# 
# 
# High freq. dielectric constant tensor:
#      x y z
#    x 1.791630 0.000000 0.000000 
#    y 0.000000 1.789140 0.000000 
#    z 0.000000 0.000000 1.840920 
# 
# From -- ./inp_files/5241.got.cif
#   From: 2010.03.12/outbox.cif.g09.slc.cpg/sg60_3_cif.got.tgz:5241.got - 2010.04.10 18:46:24.
