data_PCOD8246298
_publ_section_title
;
Structure prediction by ZEFSAII (Michael W. Deem and Ramdas Pophale) SiO2 
 PCOD8246298
Probable space group: P B C N
;
_chemical_formula_sum "Si O2"
_cell_formula_units_Z 48
_cell_length_a 10.771499
_cell_length_b 18.610482
_cell_length_c 10.762609
_cell_angle_alpha 90.000000
_cell_angle_beta 90.000000
_cell_angle_gamma 90.000000
_cell_volume 2157.502609
_symmetry_space_group_name_H-M "P B C N"
_symmetry_group_IT_number 60
_symmetry_cell_setting 'orthorhombic'
loop_
_space_group_symop_operation_xyz
x,y,z
1/2-x,1/2-y,1/2+z
1/2+x,1/2-y,-z
-x,y,1/2-z
-x,-y,-z
1/2+x,1/2+y,1/2-z
1/2-x,1/2+y,z
x,-y,1/2+z
loop_
_atom_site_type_symbol
_atom_site_label
_atom_site_fract_x
_atom_site_fract_y
_atom_site_fract_z
Si Si1 0.144496 0.618922 0.639798
Si Si2 0.180785 0.481251 0.938504
Si Si3 0.098669 0.362301 0.507243
Si Si4 0.000000 0.503763 0.250000
Si Si5 0.000000 0.706336 0.250000
Si Si6 0.434668 0.528955 0.874643
Si Si7 0.183239 0.822413 0.343189
O O1 0.220328 0.584491 0.526052
O O2 0.114554 0.549769 0.724031
O O3 0.237224 0.669635 0.715339
O O4 0.016334 0.654499 0.587992
O O5 0.060944 0.449539 0.860892
O O6 0.299674 0.495419 0.856332
O O7 0.133309 0.552913 0.009386
O O8 0.074724 0.340841 0.649674
O O9 0.217393 0.317096 0.455795
O O10 0.899338 0.751642 0.171187
O O11 0.500000 0.501940 0.750000
O O12 0.417082 0.615008 0.872751
O O13 0.500000 0.500000 0.000000
#
# Coordination Sequence:
#
# PCOD8246298 Si02
#       7
#     8   8   8   4   4   8   8
#     4  11  19  40  69  99 128 173 206 279 341 392
#     4  10  22  35  68  97 139 163 218 275 343 393
#     4  10  23  44  65  99 127 172 224 276 321 396
#     4  10  16  33  56  96 126 167 198 264 320 388
#     4  12  28  43  70  96 134 179 230 270 324 412
#     4  11  22  41  65  97 138 179 218 268 341 415
#     4  11  23  45  69  91 134 178 222 268 338 396
#
# _framework density 22.247945000000001
#
# number of rings (size 3 to 8) (size 9 to 14) (size 15 to 20)
#    0.000    1.333    5.833    3.000    2.333    2.667 
#    3.000    0.000    0.000    0.000    0.000    0.000 
#    0.000    0.000    0.000    0.000    0.000    0.000 
#
# Total GULP energy -594685.934646 kJ/mol
# GULP energy per Si atom -12389.290305 kJ/mol
# Density = 2.219731 g / cm^3
# Si number density = 22.247945 Si / 1000 Ang^3
#
#
#
# Elastic Constant Matrix: (Units=GPa)
#
#
# Indices 1 2 3 4 5 6 
#
# 1 121.0697 38.3807 63.1174 0.0000 0.0000 0.0000
# 2 38.3807 51.8066 38.6058 0.0000 0.0000 0.0000
# 3 63.1174 38.6058 152.3367 0.0000 0.0000 0.0000
# 4 0.0000 0.0000 0.0000 31.5273 0.0000 0.0000
# 5 0.0000 0.0000 0.0000 0.0000 46.5279 0.0000
# 6 0.0000 0.0000 0.0000 0.0000 0.0000 24.0369
#
#
#
# Elastic Compliance Matrix: (Units=1/GPa)
#
#
# Indices 1 2 3 4 5 6 
#
# 1 0.012049 -0.006418 -0.003366 0.000000 0.000000 0.000000
# 2 -0.006418 0.027216 -0.004238 0.000000 0.000000 0.000000
# 3 -0.003366 -0.004238 0.009033 0.000000 0.000000 0.000000
# 4 0.000000 0.000000 0.000000 0.031719 0.000000 0.000000
# 5 0.000000 0.000000 0.000000 0.000000 0.021492 0.000000
# 6 0.000000 0.000000 0.000000 0.000000 0.000000 0.041603
#
#
# Mechanical properties :
#
#
# Convention : Reuss Voigt Hill
#
# Bulk Modulus (GPa) = 49.37354 67.26899 58.32126
# Shear Modulus (GPa) = 28.10469 32.75901 30.43185
#
# Velocity S-wave (km/s) = 3.55808 3.84142 3.70246
# Velocity P-wave (km/s) = 6.25464 7.06944 6.67448
#
# Compressibility (1/GPa) = 0.02025376
#
# Stress axis : x y z
#
# Youngs Moduli (GPa) = 82.99398 36.74369 110.70689
#
# Poissons Ratio (x) = 0.23584 0.37261
# Poissons Ratio (y) = 0.53269 0.46915
# Poissons Ratio (z) = 0.27933 0.15571
#
# Static dielectric constant tensor:
#      x y z
#    x 4.223470 0.000000 0.000000 
#    y 0.000000 3.644860 0.000000 
#    z 0.000000 0.000000 4.663920 
# 
# 
# High freq. dielectric constant tensor:
#      x y z
#    x 1.891030 0.000000 0.000000 
#    y 0.000000 1.834430 0.000000 
#    z 0.000000 0.000000 1.890540 
# 
# From -- ./inp_files/11064.got.cif
#   From: 2010.03.12/outbox.cif.g09.slc.cpg/sg60_6_cif.got.tgz:11064.got - 2010.04.10 18:46:24.
