data_PCOD8246193
_publ_section_title
;
Structure prediction by ZEFSAII (Michael W. Deem and Ramdas Pophale) SiO2 
 PCOD8246193
Probable space group: P M M N
;
_chemical_formula_sum "Si O2"
_cell_formula_units_Z 48
_cell_length_a 9.939531
_cell_length_b 9.623716
_cell_length_c 30.040662
_cell_angle_alpha 90.000000
_cell_angle_beta 90.000000
_cell_angle_gamma 90.000000
_cell_volume 2873.546238
_symmetry_space_group_name_H-M "P M M N"
_symmetry_group_IT_number 59
_space_group.IT_coordinate_system_code '2'
_symmetry_cell_setting 'orthorhombic'
loop_
_space_group_symop_operation_xyz
x,y,z
1/2-x,1/2-y,z
1/2+x,-y,-z
-x,1/2+y,-z
-x,-y,-z
1/2+x,1/2+y,-z
1/2-x,y,z
x,1/2-y,z
loop_
_atom_site_type_symbol
_atom_site_label
_atom_site_fract_x
_atom_site_fract_y
_atom_site_fract_z
Si Si1 0.093368 0.911243 0.804883
Si Si2 0.903654 0.089397 0.969655
Si Si3 0.898603 0.585007 0.632112
Si Si4 0.398814 0.584842 0.704835
Si Si5 0.906262 0.588310 0.531765
Si Si6 0.096339 0.588818 0.132944
O O1 0.250000 0.940652 0.814260
O O2 0.060214 0.750000 0.812328
O O3 0.055879 0.956955 0.754557
O O4 0.004218 0.999191 0.838075
O O5 0.750000 0.053777 0.981842
O O6 0.933724 0.250000 0.978989
O O7 0.931800 0.053405 0.918377
O O8 0.000000 0.000000 0.000000
O O9 0.750000 0.525427 0.642243
O O10 0.895259 0.750000 0.636136
O O11 0.942833 0.544223 0.582255
O O12 0.000329 0.519809 0.668322
O O13 0.250000 0.525593 0.694872
O O14 0.395465 0.750000 0.701232
O O15 0.750000 0.556316 0.521866
O O16 0.937015 0.750000 0.524005
O O17 0.000000 0.500000 0.500000
O O18 0.250000 0.551247 0.145235
O O19 0.068641 0.750000 0.142419
#
# Coordination Sequence:
#
# PCOD8246193 Si02
#       6
#     8   8   8   8   8   8
#     4   9  18  31  47  71 100 124 150 189 233 274
#     4   9  19  35  52  71  96 124 155 193 234 274
#     4   8  14  25  41  62  88 116 147 185 227 270
#     4   8  14  25  41  63  91 118 145 182 226 270
#     4   9  18  31  46  67  94 121 152 191 232 275
#     4   9  19  35  51  68  94 127 160 192 227 271
#
# _framework density 16.7041
#
# number of rings (size 3 to 8) (size 9 to 14) (size 15 to 20)
#    0.000    3.333    0.000    3.000    0.000    4.000 
#    0.000    8.333    0.000    1.000    0.000    0.000 
#    0.000    0.000    0.000    0.000    0.000    0.000 
#
# Total GULP energy -594978.385380 kJ/mol
# GULP energy per Si atom -12395.383029 kJ/mol
# Density = 1.666608 g / cm^3
# Si number density = 16.704100 Si / 1000 Ang^3
#
#
#
# Elastic Constant Matrix: (Units=GPa)
#
#
# Indices 1 2 3 4 5 6 
#
# 1 123.5204 61.1007 105.8441 0.0000 0.0000 0.0000
# 2 61.1007 52.7870 62.5988 0.0000 0.0000 0.0000
# 3 105.8441 62.5988 139.6586 0.0000 0.0000 0.0000
# 4 0.0000 0.0000 0.0000 23.9987 0.0000 0.0000
# 5 0.0000 0.0000 0.0000 0.0000 42.2507 0.0000
# 6 0.0000 0.0000 0.0000 0.0000 0.0000 29.9542
#
#
#
# Elastic Compliance Matrix: (Units=1/GPa)
#
#
# Indices 1 2 3 4 5 6 
#
# 1 0.027965 -0.015446 -0.014271 0.000000 0.000000 0.000000
# 2 -0.015446 0.048970 -0.010244 0.000000 0.000000 0.000000
# 3 -0.014271 -0.010244 0.022567 0.000000 0.000000 0.000000
# 4 0.000000 0.000000 0.000000 0.041669 0.000000 0.000000
# 5 0.000000 0.000000 0.000000 0.000000 0.023668 0.000000
# 6 0.000000 0.000000 0.000000 0.000000 0.000000 0.033384
#
#
# Mechanical properties :
#
#
# Convention : Reuss Voigt Hill
#
# Bulk Modulus (GPa) = 51.06765 86.11701 68.59233
# Shear Modulus (GPa) = 17.56411 25.00221 21.28316
#
# Velocity S-wave (km/s) = 3.24618 3.87301 3.57337
# Velocity P-wave (km/s) = 6.68495 8.46561 7.62742
#
# Compressibility (1/GPa) = 0.01958187
#
# Stress axis : x y z
#
# Youngs Moduli (GPa) = 35.75944 20.42049 44.31215
#
# Poissons Ratio (x) = 0.31541 0.63236
# Poissons Ratio (y) = 0.55234 0.45393
# Poissons Ratio (z) = 0.51031 0.20918
#
# Static dielectric constant tensor:
#      x y z
#    x 3.222830 0.000000 0.000000 
#    y 0.000000 2.749190 0.000000 
#    z 0.000000 0.000000 3.237540 
# 
# 
# High freq. dielectric constant tensor:
#      x y z
#    x 1.649510 0.000000 0.000000 
#    y 0.000000 1.605260 0.000000 
#    z 0.000000 0.000000 1.650740 
# 
# From -- ./inp_files/32879.got.cif
#   From: 2010.03.12/outbox.cif.g09.slc.cpg/sg59_17_cif.got.tgz:32879.got - 2010.04.16 16:29:54.
