data_PCOD8246203
_publ_section_title
;
Structure prediction by ZEFSAII (Michael W. Deem and Ramdas Pophale) SiO2 
 PCOD8246203
Probable space group: P M M N
;
_chemical_formula_sum "Si O2"
_cell_formula_units_Z 64
_cell_length_a 19.198219
_cell_length_b 9.321438
_cell_length_c 20.887674
_cell_angle_alpha 90.000000
_cell_angle_beta 90.000000
_cell_angle_gamma 90.000000
_cell_volume 3737.953870
_symmetry_space_group_name_H-M "P M M N"
_symmetry_group_IT_number 59
_space_group.IT_coordinate_system_code '2'
_symmetry_cell_setting 'orthorhombic'
loop_
_space_group_symop_operation_xyz
x,y,z
1/2-x,1/2-y,z
1/2+x,-y,-z
-x,1/2+y,-z
-x,-y,-z
1/2+x,1/2+y,-z
1/2-x,y,z
x,1/2-y,z
loop_
_atom_site_type_symbol
_atom_site_label
_atom_site_fract_x
_atom_site_fract_y
_atom_site_fract_z
Si Si1 0.578763 0.418675 0.748794
Si Si2 0.332847 0.590630 0.507659
Si Si3 0.669302 0.582268 0.371240
Si Si4 0.916718 0.586262 0.872696
Si Si5 0.927630 0.419551 0.992596
Si Si6 0.082751 0.416838 0.748710
Si Si7 0.082689 0.591616 0.868475
Si Si8 0.327623 0.579300 0.367836
O O1 0.590290 0.250000 0.761473
O O2 0.609582 0.506885 0.808653
O O3 0.497866 0.454046 0.737300
O O4 0.619731 0.474910 0.686511
O O5 0.250000 0.596631 0.508856
O O6 0.363650 0.750000 0.518220
O O7 0.360846 0.490186 0.564475
O O8 0.355101 0.527972 0.437899
O O9 0.750000 0.544626 0.360077
O O10 0.656860 0.750000 0.379601
O O11 0.626490 0.521147 0.310823
O O12 0.888992 0.750000 0.874753
O O13 0.887045 0.496497 0.933854
O O14 0.999715 0.581367 0.873834
O O15 0.939162 0.250000 0.978319
O O16 0.886482 0.440485 0.060265
O O17 0.000000 0.500000 0.000000
O O18 0.096267 0.250000 0.755722
O O19 0.111323 0.483978 0.814890
O O20 0.105053 0.750000 0.846458
O O21 0.250000 0.518636 0.353690
O O22 0.324710 0.750000 0.369179
#
# Coordination Sequence:
#
# PCOD8246203 Si02
#       8
#     8   8   8   8   8   8   8   8
#     4   9  16  27  43  61  83 110 137 167 204 246
#     4   8  14  26  44  63  80 101 134 172 205 240
#     4   9  17  29  43  59  81 108 137 169 204 242
#     4   9  16  25  37  56  83 112 140 170 205 245
#     4   9  15  23  36  56  81 109 141 174 208 246
#     4   9  17  27  40  59  82 109 138 166 200 244
#     4   8  15  25  37  55  80 108 135 167 205 241
#     4   8  14  26  45  66  84 104 134 170 205 243
#
# _framework density 17.121665
#
# number of rings (size 3 to 8) (size 9 to 14) (size 15 to 20)
#    0.000    3.375    0.000    2.250    0.000    4.000 
#    0.000    1.250    0.000    1.125    0.000    0.875 
#    0.000    1.000    0.000    0.000    0.000    0.000 
#
# Total GULP energy -793043.552267 kJ/mol
# GULP energy per Si atom -12391.305504 kJ/mol
# Density = 1.708270 g / cm^3
# Si number density = 17.121665 Si / 1000 Ang^3
#
#
#
# Elastic Constant Matrix: (Units=GPa)
#
#
# Indices 1 2 3 4 5 6 
#
# 1 27.5817 21.8343 42.2761 0.0000 0.0000 0.0000
# 2 21.8343 72.3176 71.9846 0.0000 0.0000 0.0000
# 3 42.2761 71.9846 194.9582 0.0000 0.0000 0.0000
# 4 0.0000 0.0000 0.0000 32.7192 0.0000 0.0000
# 5 0.0000 0.0000 0.0000 0.0000 7.6097 0.0000
# 6 0.0000 0.0000 0.0000 0.0000 0.0000 8.8024
#
#
#
# Elastic Compliance Matrix: (Units=1/GPa)
#
#
# Indices 1 2 3 4 5 6 
#
# 1 0.056924 -0.007747 -0.009483 0.000000 0.000000 0.000000
# 2 -0.007747 0.022918 -0.006782 0.000000 0.000000 0.000000
# 3 -0.009483 -0.006782 0.009690 0.000000 0.000000 0.000000
# 4 0.000000 0.000000 0.000000 0.030563 0.000000 0.000000
# 5 0.000000 0.000000 0.000000 0.000000 0.131411 0.000000
# 6 0.000000 0.000000 0.000000 0.000000 0.000000 0.113605
#
#
# Mechanical properties :
#
#
# Convention : Reuss Voigt Hill
#
# Bulk Modulus (GPa) = 24.09228 63.00529 43.54879
# Shear Modulus (GPa) = 11.71039 20.41045 16.06042
#
# Velocity S-wave (km/s) = 2.61808 3.45640 3.06603
# Velocity P-wave (km/s) = 4.82088 7.26687 6.16637
#
# Compressibility (1/GPa) = 0.04150707
#
# Stress axis : x y z
#
# Youngs Moduli (GPa) = 17.56716 43.63458 103.20038
#
# Poissons Ratio (x) = 0.33803 0.97870
# Poissons Ratio (y) = 0.13609 0.69990
# Poissons Ratio (z) = 0.16660 0.29593
#
# Static dielectric constant tensor:
#      x y z
#    x 2.715160 0.000000 0.000000 
#    y 0.000000 3.170450 0.000000 
#    z 0.000000 0.000000 3.879010 
# 
# 
# High freq. dielectric constant tensor:
#      x y z
#    x 1.592700 0.000000 0.000000 
#    y 0.000000 1.649550 0.000000 
#    z 0.000000 0.000000 1.683770 
# 
# From -- ./inp_files/30925.got.cif
#   From: 2010.03.12/outbox.cif.g09.slc.cpg/sg59_16_cif.got.tgz:30925.got - 2010.04.16 16:29:54.
