data_PCOD8246571
_publ_section_title
;
Structure prediction by ZEFSAII (Michael W. Deem and Ramdas Pophale) SiO2 
 PCOD8246571
Probable space group: P B C N
;
_chemical_formula_sum "Si O2"
_cell_formula_units_Z 48
_cell_length_a 9.778565
_cell_length_b 16.760296
_cell_length_c 15.628448
_cell_angle_alpha 90.000000
_cell_angle_beta 90.000000
_cell_angle_gamma 90.000000
_cell_volume 2561.372034
_symmetry_space_group_name_H-M "P B C N"
_symmetry_group_IT_number 60
_symmetry_cell_setting 'orthorhombic'
loop_
_space_group_symop_operation_xyz
x,y,z
1/2-x,1/2-y,1/2+z
1/2+x,1/2-y,-z
-x,y,1/2-z
-x,-y,-z
1/2+x,1/2+y,1/2-z
1/2-x,1/2+y,z
x,-y,1/2+z
loop_
_atom_site_type_symbol
_atom_site_label
_atom_site_fract_x
_atom_site_fract_y
_atom_site_fract_z
Si Si1 0.294683 0.091529 0.433422
Si Si2 0.668233 0.565576 0.488445
Si Si3 0.415713 0.339700 0.057105
Si Si4 0.114937 0.971325 0.177545
Si Si5 0.915329 0.344202 0.920798
Si Si6 0.352412 0.067048 0.244823
O O1 0.196274 0.154438 0.481300
O O2 0.454219 0.106343 0.457123
O O3 0.288350 0.104361 0.331127
O O4 0.244230 0.003540 0.458456
O O5 0.551982 0.609186 0.541263
O O6 0.592542 0.530653 0.403814
O O7 0.782328 0.632448 0.473981
O O8 0.364100 0.380280 0.145492
O O9 0.451341 0.248376 0.070938
O O10 0.000000 0.981892 0.250000
O O11 0.259724 0.994523 0.215685
O O12 0.874684 0.361253 0.822474
O O13 0.500000 0.024814 0.250000
#
# Coordination Sequence:
#
# PCOD8246571 Si02
#       6
#     8   8   8   8   8   8
#     4  10  19  36  56  76 103 141 181 216 256 315
#     4  10  20  35  55  78 103 140 181 213 256 315
#     4  11  21  34  54  82 109 136 173 221 267 311
#     4  10  19  33  54  77 104 137 176 219 259 310
#     4  10  21  35  54  78 109 138 170 218 270 312
#     4   9  19  35  54  75 102 140 178 215 261 315
#
# _framework density 18.739955999999999
#
# number of rings (size 3 to 8) (size 9 to 14) (size 15 to 20)
#    0.000    2.000    0.000    5.500    0.000    3.333 
#    0.000    1.667    0.000    4.000    0.000    0.000 
#    0.000    0.000    0.000    0.000    0.000    0.000 
#
# Total GULP energy -594780.861932 kJ/mol
# GULP energy per Si atom -12391.267957 kJ/mol
# Density = 1.869730 g / cm^3
# Si number density = 18.739956 Si / 1000 Ang^3
#
#
#
# Elastic Constant Matrix: (Units=GPa)
#
#
# Indices 1 2 3 4 5 6 
#
# 1 116.6059 59.4132 60.1794 0.0000 0.0000 0.0000
# 2 59.4132 98.7039 33.3640 0.0000 0.0000 0.0000
# 3 60.1794 33.3640 97.2698 0.0000 0.0000 0.0000
# 4 0.0000 0.0000 0.0000 13.7662 0.0000 0.0000
# 5 0.0000 0.0000 0.0000 0.0000 31.2801 0.0000
# 6 0.0000 0.0000 0.0000 0.0000 0.0000 17.7567
#
#
#
# Elastic Compliance Matrix: (Units=1/GPa)
#
#
# Indices 1 2 3 4 5 6 
#
# 1 0.016091 -0.007150 -0.007503 0.000000 0.000000 0.000000
# 2 -0.007150 0.014637 -0.000597 0.000000 0.000000 0.000000
# 3 -0.007503 -0.000597 0.015127 0.000000 0.000000 0.000000
# 4 0.000000 0.000000 0.000000 0.072642 0.000000 0.000000
# 5 0.000000 0.000000 0.000000 0.000000 0.031969 0.000000
# 6 0.000000 0.000000 0.000000 0.000000 0.000000 0.056317
#
#
# Mechanical properties :
#
#
# Convention : Reuss Voigt Hill
#
# Bulk Modulus (GPa) = 65.12150 68.72144 66.92147
# Shear Modulus (GPa) = 20.62700 23.20212 21.91456
#
# Velocity S-wave (km/s) = 3.32127 3.52250 3.42336
# Velocity P-wave (km/s) = 7.03799 7.30032 7.17036
#
# Compressibility (1/GPa) = 0.01535591
#
# Stress axis : x y z
#
# Youngs Moduli (GPa) = 62.14679 68.32138 66.10496
#
# Poissons Ratio (x) = 0.48847 0.49598
# Poissons Ratio (y) = 0.44432 0.03947
# Poissons Ratio (z) = 0.46628 0.04080
#
# Static dielectric constant tensor:
#      x y z
#    x 3.727450 0.000000 0.000000 
#    y 0.000000 3.229750 0.000000 
#    z 0.000000 0.000000 3.706660 
# 
# 
# High freq. dielectric constant tensor:
#      x y z
#    x 1.747110 0.000000 0.000000 
#    y 0.000000 1.705730 0.000000 
#    z 0.000000 0.000000 1.729300 
# 
# From -- ./inp_files/19451.got.cif
#   From: 2010.03.12/outbox.cif.g09.slc.cpg/sg60_10_cif.got.tgz:19451.got - 2010.04.10 18:46:24.
