data_PCOD8246949
_publ_section_title
;
Structure prediction by ZEFSAII (Michael W. Deem and Ramdas Pophale) SiO2 
 PCOD8246949
Probable space group: P B C N
;
_chemical_formula_sum "Si O2"
_cell_formula_units_Z 64
_cell_length_a 19.915544
_cell_length_b 18.698362
_cell_length_c 9.213300
_cell_angle_alpha 90.000000
_cell_angle_beta 90.000000
_cell_angle_gamma 90.000000
_cell_volume 3430.922832
_symmetry_space_group_name_H-M "P B C N"
_symmetry_group_IT_number 60
_symmetry_cell_setting 'orthorhombic'
loop_
_space_group_symop_operation_xyz
x,y,z
1/2-x,1/2-y,1/2+z
1/2+x,1/2-y,-z
-x,y,1/2-z
-x,-y,-z
1/2+x,1/2+y,1/2-z
1/2-x,1/2+y,z
x,-y,1/2+z
loop_
_atom_site_type_symbol
_atom_site_label
_atom_site_fract_x
_atom_site_fract_y
_atom_site_fract_z
Si Si1 0.554868 0.124278 0.360463
Si Si2 0.536310 0.123951 0.884379
Si Si3 0.637942 0.006971 0.983961
Si Si4 0.724986 0.352706 0.828563
Si Si5 0.765030 0.497851 0.243743
Si Si6 0.768202 0.149546 0.663178
Si Si7 0.148476 0.281012 0.156969
Si Si8 0.847309 0.281315 0.681313
O O1 0.500000 0.089652 0.250000
O O2 0.515870 0.156215 0.499476
O O3 0.590928 0.190401 0.277604
O O4 0.608379 0.067607 0.422850
O O5 0.500000 0.083193 0.750000
O O6 0.582217 0.067792 0.971097
O O7 0.575800 0.188200 0.799794
O O8 0.705693 0.025144 0.898384
O O9 0.666205 0.005658 0.148242
O O10 0.716954 0.433080 0.767365
O O11 0.656993 0.304366 0.814265
O O12 0.779346 0.318463 0.726243
O O13 0.751084 0.345885 0.993445
O O14 0.716536 0.433975 0.191946
O O15 0.705369 0.175019 0.758742
O O16 0.835106 0.195553 0.700387
O O17 0.146595 0.300850 0.986546
#
# Coordination Sequence:
#
# PCOD8246949 Si02
#       8
#     8   8   8   8   8   8   8   8
#     4  12  22  37  54  78 112 154 191 218 263 319
#     4  12  24  36  52  78 114 155 189 221 259 319
#     4  12  23  35  52  78 118 150 188 214 255 329
#     4  10  21  36  57  77 108 139 182 228 279 325
#     4  12  20  35  56  81 110 148 177 225 276 323
#     4  10  21  35  56  78 108 137 183 230 282 321
#     4  10  21  38  54  78 104 145 184 230 272 319
#     4  10  20  37  55  79 103 143 186 232 268 322
#
# _framework density 18.653872
#
# number of rings (size 3 to 8) (size 9 to 14) (size 15 to 20)
#    0.000    1.000    5.000    3.000    1.750    0.000 
#    0.000    0.000    0.000    0.000    0.000    1.750 
#    0.000    0.000    0.000    0.000    0.000    0.000 
#
# Total GULP energy -792850.860003 kJ/mol
# GULP energy per Si atom -12388.294688 kJ/mol
# Density = 1.861142 g / cm^3
# Si number density = 18.653872 Si / 1000 Ang^3
#
#
#
# Elastic Constant Matrix: (Units=GPa)
#
#
# Indices 1 2 3 4 5 6 
#
# 1 41.1588 35.0939 19.2580 0.0000 0.0000 0.0000
# 2 35.0939 114.4898 34.7640 0.0000 0.0000 0.0000
# 3 19.2580 34.7640 58.8486 0.0000 0.0000 0.0000
# 4 0.0000 0.0000 0.0000 26.8143 0.0000 0.0000
# 5 0.0000 0.0000 0.0000 0.0000 26.5924 0.0000
# 6 0.0000 0.0000 0.0000 0.0000 0.0000 12.6892
#
#
#
# Elastic Compliance Matrix: (Units=1/GPa)
#
#
# Indices 1 2 3 4 5 6 
#
# 1 0.034639 -0.008744 -0.006170 0.000000 0.000000 0.000000
# 2 -0.008744 0.012851 -0.004730 0.000000 0.000000 0.000000
# 3 -0.006170 -0.004730 0.021806 0.000000 0.000000 0.000000
# 4 0.000000 0.000000 0.000000 0.037294 0.000000 0.000000
# 5 0.000000 0.000000 0.000000 0.000000 0.037605 0.000000
# 6 0.000000 0.000000 0.000000 0.000000 0.000000 0.078807
#
#
# Mechanical properties :
#
#
# Convention : Reuss Voigt Hill
#
# Bulk Modulus (GPa) = 33.32502 43.63658 38.48080
# Shear Modulus (GPa) = 18.36266 21.57793 19.97029
#
# Velocity S-wave (km/s) = 3.14090 3.40480 3.27551
# Velocity P-wave (km/s) = 5.57292 6.23702 5.91430
#
# Compressibility (1/GPa) = 0.03000749
#
# Stress axis : x y z
#
# Youngs Moduli (GPa) = 28.86943 77.81527 45.85885
#
# Poissons Ratio (x) = 0.68043 0.28295
# Poissons Ratio (y) = 0.25244 0.21691
# Poissons Ratio (z) = 0.17812 0.36807
#
# Static dielectric constant tensor:
#      x y z
#    x 3.396950 0.000000 0.000000 
#    y 0.000000 3.799310 0.000000 
#    z 0.000000 0.000000 3.694530 
# 
# 
# High freq. dielectric constant tensor:
#      x y z
#    x 1.680530 0.000000 0.000000 
#    y 0.000000 1.714310 0.000000 
#    z 0.000000 0.000000 1.751820 
# 
# From -- ./inp_files/8025.got.cif
#   From: 2010.03.12/outbox.cif.g09.slc.cpg/sg60_5_cif.got.tgz:8025.got - 2010.04.10 18:46:24.
