data_PCOD8246199
_publ_section_title
;
Structure prediction by ZEFSAII (Michael W. Deem and Ramdas Pophale) SiO2 
 PCOD8246199
Probable space group: P M M N
;
_chemical_formula_sum "Si O2"
_cell_formula_units_Z 48
_cell_length_a 19.562628
_cell_length_b 9.163411
_cell_length_c 15.696174
_cell_angle_alpha 90.000000
_cell_angle_beta 90.000000
_cell_angle_gamma 90.000000
_cell_volume 2813.702439
_symmetry_space_group_name_H-M "P M M N"
_symmetry_group_IT_number 59
_space_group.IT_coordinate_system_code '2'
_symmetry_cell_setting 'orthorhombic'
loop_
_space_group_symop_operation_xyz
x,y,z
1/2-x,1/2-y,z
1/2+x,-y,-z
-x,1/2+y,-z
-x,-y,-z
1/2+x,1/2+y,-z
1/2-x,y,z
x,1/2-y,z
loop_
_atom_site_type_symbol
_atom_site_label
_atom_site_fract_x
_atom_site_fract_y
_atom_site_fract_z
Si Si1 0.928395 0.578918 0.490752
Si Si2 0.078733 0.923763 0.672478
Si Si3 0.168738 0.587906 0.010773
Si Si4 0.423573 0.080480 0.322553
Si Si5 0.326234 0.576293 0.824750
Si Si6 0.827879 0.577103 0.824691
O O1 0.938154 0.750000 0.471812
O O2 0.889327 0.500835 0.412250
O O3 0.891625 0.555171 0.582660
O O4 0.000000 0.500000 0.500000
O O5 0.082778 0.750000 0.660279
O O6 0.122494 0.980676 0.752380
O O7 0.000954 0.980624 0.685356
O O8 0.250000 0.594632 0.010025
O O9 0.138645 0.750000 0.025920
O O10 0.142320 0.483971 0.086300
O O11 0.146037 0.525624 0.917924
O O12 0.428366 0.250000 0.302297
O O13 0.373328 0.010099 0.252260
O O14 0.250000 0.514145 0.806754
O O15 0.323410 0.750000 0.824671
O O16 0.750000 0.525032 0.809745
O O17 0.832013 0.750000 0.828895
#
# Coordination Sequence:
#
# PCOD8246199 Si02
#       6
#     8   8   8   8   8   8
#     4   9  16  28  45  63  84 111 142 172 205 250
#     4   9  16  28  46  64  83 109 140 174 209 247
#     4   8  14  26  43  61  81 106 137 171 206 247
#     4   8  15  27  42  60  81 107 137 167 203 246
#     4   8  14  26  45  65  83 108 141 171 204 252
#     4   9  16  27  43  60  79 107 141 171 200 242
#
# _framework density 17.059373999999998
#
# number of rings (size 3 to 8) (size 9 to 14) (size 15 to 20)
#    0.000    3.500    0.000    2.500    0.000    0.000 
#    0.000    6.667    0.000    2.500    0.000    0.000 
#    0.000    0.000    0.000    0.000    0.000    0.000 
#
# Total GULP energy -594638.254145 kJ/mol
# GULP energy per Si atom -12388.296961 kJ/mol
# Density = 1.702055 g / cm^3
# Si number density = 17.059374 Si / 1000 Ang^3
#
#
#
# Elastic Constant Matrix: (Units=GPa)
#
#
# Indices 1 2 3 4 5 6 
#
# 1 56.4534 15.1346 65.0784 0.0000 0.0000 0.0000
# 2 15.1346 35.2698 39.0252 0.0000 0.0000 0.0000
# 3 65.0784 39.0252 190.2867 0.0000 0.0000 0.0000
# 4 0.0000 0.0000 0.0000 30.2556 0.0000 0.0000
# 5 0.0000 0.0000 0.0000 0.0000 31.3748 0.0000
# 6 0.0000 0.0000 0.0000 0.0000 0.0000 10.3807
#
#
#
# Elastic Compliance Matrix: (Units=1/GPa)
#
#
# Indices 1 2 3 4 5 6 
#
# 1 0.029343 -0.001924 -0.009641 0.000000 0.000000 0.000000
# 2 -0.001924 0.036802 -0.006889 0.000000 0.000000 0.000000
# 3 -0.009641 -0.006889 0.009965 0.000000 0.000000 0.000000
# 4 0.000000 0.000000 0.000000 0.033052 0.000000 0.000000
# 5 0.000000 0.000000 0.000000 0.000000 0.031873 0.000000
# 6 0.000000 0.000000 0.000000 0.000000 0.000000 0.096332
#
#
# Mechanical properties :
#
#
# Convention : Reuss Voigt Hill
#
# Bulk Modulus (GPa) = 25.50925 57.83180 41.67053
# Shear Modulus (GPa) = 17.40080 25.25367 21.32723
#
# Velocity S-wave (km/s) = 3.19723 3.85169 3.53962
# Velocity P-wave (km/s) = 5.34933 7.33175 6.41755
#
# Compressibility (1/GPa) = 0.03920147
#
# Stress axis : x y z
#
# Youngs Moduli (GPa) = 34.07922 27.17277 100.34753
#
# Poissons Ratio (x) = 0.05228 0.96744
# Poissons Ratio (y) = 0.06557 0.69134
# Poissons Ratio (z) = 0.32855 0.18721
#
# Static dielectric constant tensor:
#      x y z
#    x 3.116600 0.000000 0.000000 
#    y 0.000000 2.982530 0.000000 
#    z 0.000000 0.000000 4.005370 
# 
# 
# High freq. dielectric constant tensor:
#      x y z
#    x 1.614240 0.000000 0.000000 
#    y 0.000000 1.623930 0.000000 
#    z 0.000000 0.000000 1.680580 
# 
# From -- ./inp_files/21260.got.cif
#   From: 2010.03.12/outbox.cif.g09.slc.cpg/sg59_11_cif.got.tgz:21260.got - 2010.04.16 16:29:54.
