data_PCOD8246892
_publ_section_title
;
Structure prediction by ZEFSAII (Michael W. Deem and Ramdas Pophale) SiO2 
 PCOD8246892
Probable space group: P B C N
;
_chemical_formula_sum "Si O2"
_cell_formula_units_Z 60
_cell_length_a 14.942822
_cell_length_b 8.619908
_cell_length_c 22.769000
_cell_angle_alpha 90.000000
_cell_angle_beta 90.000000
_cell_angle_gamma 90.000000
_cell_volume 2932.778142
_symmetry_space_group_name_H-M "P B C N"
_symmetry_group_IT_number 60
_symmetry_cell_setting 'orthorhombic'
loop_
_space_group_symop_operation_xyz
x,y,z
1/2-x,1/2-y,1/2+z
1/2+x,1/2-y,-z
-x,y,1/2-z
-x,-y,-z
1/2+x,1/2+y,1/2-z
1/2-x,1/2+y,z
x,-y,1/2+z
loop_
_atom_site_type_symbol
_atom_site_label
_atom_site_fract_x
_atom_site_fract_y
_atom_site_fract_z
Si Si1 0.863183 0.443012 0.423124
Si Si2 0.737954 0.317923 0.863098
Si Si3 0.500000 0.747949 0.750000
Si Si4 0.475706 0.425403 0.080076
Si Si5 0.863413 0.107560 0.029512
Si Si6 0.468270 0.107057 0.375826
Si Si7 0.825020 0.466376 0.048755
Si Si8 0.365805 0.433867 0.188772
O O1 0.836683 0.271401 0.401162
O O2 0.784781 0.562581 0.406854
O O3 0.871435 0.446121 0.493606
O O4 0.956580 0.482503 0.392928
O O5 0.810721 0.209399 0.835572
O O6 0.694622 0.411649 0.807081
O O7 0.518227 0.855405 0.693304
O O8 0.586287 0.632236 0.753257
O O9 0.545443 0.556366 0.061118
O O10 0.522578 0.258174 0.083467
O O11 0.444210 0.477438 0.143757
O O12 0.386355 0.411487 0.039538
O O13 0.839830 0.283109 0.045316
O O14 0.780992 0.999880 0.049517
O O15 0.371860 0.031476 0.391578
#
# Coordination Sequence:
#
# PCOD8246892 Si02
#       8
#     8   8   4   8   8   8   8   8
#     4  11  20  36  62  99 128 160 206 270 316 378
#     4  10  20  35  66  96 123 155 212 262 311 381
#     4  10  22  46  64  82 128 170 212 272 316 376
#     4  10  21  38  60  91 126 169 204 251 317 381
#     4  11  23  37  60  93 135 167 204 247 321 393
#     4  11  23  41  64  88 126 172 216 260 326 373
#     4  12  23  38  60  96 132 174 204 261 318 392
#     4  10  20  39  64  89 118 162 209 264 310 358
#
# _framework density 20.458417000000001
#
# number of rings (size 3 to 8) (size 9 to 14) (size 15 to 20)
#    0.000    1.333    4.000    3.600    1.867    1.067 
#    0.000    4.667    0.000    0.000    0.000    0.000 
#    0.000    0.000    0.000    0.000    0.000    0.000 
#
# Total GULP energy -743747.641968 kJ/mol
# GULP energy per Si atom -12395.794033 kJ/mol
# Density = 2.041185 g / cm^3
# Si number density = 20.458417 Si / 1000 Ang^3
#
#
#
# Elastic Constant Matrix: (Units=GPa)
#
#
# Indices 1 2 3 4 5 6 
#
# 1 98.4499 35.8993 37.1035 0.0000 0.0000 0.0000
# 2 35.8993 77.6078 24.5940 0.0000 0.0000 0.0000
# 3 37.1035 24.5940 73.3219 0.0000 0.0000 0.0000
# 4 0.0000 0.0000 0.0000 20.4219 0.0000 0.0000
# 5 0.0000 0.0000 0.0000 0.0000 16.8526 0.0000
# 6 0.0000 0.0000 0.0000 0.0000 0.0000 30.2289
#
#
#
# Elastic Compliance Matrix: (Units=1/GPa)
#
#
# Indices 1 2 3 4 5 6 
#
# 1 0.013939 -0.004713 -0.005472 0.000000 0.000000 0.000000
# 2 -0.004713 0.016012 -0.002986 0.000000 0.000000 0.000000
# 3 -0.005472 -0.002986 0.017409 0.000000 0.000000 0.000000
# 4 0.000000 0.000000 0.000000 0.048967 0.000000 0.000000
# 5 0.000000 0.000000 0.000000 0.000000 0.059338 0.000000
# 6 0.000000 0.000000 0.000000 0.000000 0.000000 0.033081
#
#
# Mechanical properties :
#
#
# Convention : Reuss Voigt Hill
#
# Bulk Modulus (GPa) = 47.58130 49.39703 48.48916
# Shear Modulus (GPa) = 22.51303 23.61956 23.06629
#
# Velocity S-wave (km/s) = 3.32087 3.40150 3.36143
# Velocity P-wave (km/s) = 6.16541 6.29480 6.23044
#
# Compressibility (1/GPa) = 0.02101666
#
# Stress axis : x y z
#
# Youngs Moduli (GPa) = 71.74319 62.45428 57.44097
#
# Poissons Ratio (x) = 0.29437 0.31434
# Poissons Ratio (y) = 0.33815 0.17149
# Poissons Ratio (z) = 0.39261 0.18646
#
# Static dielectric constant tensor:
#      x y z
#    x 3.897010 0.000000 0.000000 
#    y 0.000000 3.864220 0.000000 
#    z 0.000000 0.000000 3.628260 
# 
# 
# High freq. dielectric constant tensor:
#      x y z
#    x 1.810700 0.000000 0.000000 
#    y 0.000000 1.809880 0.000000 
#    z 0.000000 0.000000 1.763470 
# 
# From -- ./inp_files/24427.got.cif
#   From: 2010.03.12/outbox.cif.g09.slc.cpg/sg60_13_cif.got.tgz:24427.got - 2010.04.10 18:46:24.
