data_PCOD8246788
_publ_section_title
;
Structure prediction by ZEFSAII (Michael W. Deem and Ramdas Pophale) SiO2 
 PCOD8246788
Probable space group: P B C N
;
_chemical_formula_sum "Si O2"
_cell_formula_units_Z 44
_cell_length_a 12.142890
_cell_length_b 38.976493
_cell_length_c 5.369653
_cell_angle_alpha 90.000000
_cell_angle_beta 90.000000
_cell_angle_gamma 90.000000
_cell_volume 2541.388394
_symmetry_space_group_name_H-M "P B C N"
_symmetry_group_IT_number 60
_symmetry_cell_setting 'orthorhombic'
loop_
_space_group_symop_operation_xyz
x,y,z
1/2-x,1/2-y,1/2+z
1/2+x,1/2-y,-z
-x,y,1/2-z
-x,-y,-z
1/2+x,1/2+y,1/2-z
1/2-x,1/2+y,z
x,-y,1/2+z
loop_
_atom_site_type_symbol
_atom_site_label
_atom_site_fract_x
_atom_site_fract_y
_atom_site_fract_z
Si Si1 0.312137 0.202124 0.427693
Si Si2 0.500000 0.781151 0.250000
Si Si3 0.388377 0.266038 0.135960
Si Si4 0.630701 0.903964 0.257535
Si Si5 0.869038 0.366569 0.759109
Si Si6 0.868747 0.518486 0.751798
O O1 0.419324 0.193633 0.597992
O O2 0.329045 0.240625 0.328878
O O3 0.194555 0.202974 0.568798
O O4 0.314316 0.171553 0.226909
O O5 0.418742 0.756856 0.401235
O O6 0.500000 0.282376 0.250000
O O7 0.500000 0.904534 0.250000
O O8 0.674112 0.885376 0.508164
O O9 0.676139 0.942703 0.258160
O O10 0.674429 0.885452 0.006966
O O11 0.000000 0.364578 0.750000
O O12 0.824025 0.500576 0.499599
O O13 0.000000 0.517685 0.750000
#
# Coordination Sequence:
#
# PCOD8246788 Si02
#       6
#     8   4   8   8   8   8
#     4  11  21  33  52  68  92 124 159 203 258 295
#     4  10  20  34  50  68  92 112 158 208 242 302
#     4  10  21  35  50  71  90 119 159 210 249 300
#     4   9  18  29  40  62  90 119 155 200 234 280
#     4  10  20  30  45  64  93 122 157 196 247 294
#     4   9  15  24  40  57  80 115 157 194 228 265
#
# _framework density 17.313371
#
# number of rings (size 3 to 8) (size 9 to 14) (size 15 to 20)
#    0.000    2.182    1.818    2.727    6.364    4.364 
#    0.000    0.000    0.000    0.000    0.000    0.000 
#    0.000    0.000    0.000    0.000    0.000   18.182 
#
# Total GULP energy -545383.566823 kJ/mol
# GULP energy per Si atom -12395.081064 kJ/mol
# Density = 1.727396 g / cm^3
# Si number density = 17.313371 Si / 1000 Ang^3
#
#
#
# Elastic Constant Matrix: (Units=GPa)
#
#
# Indices 1 2 3 4 5 6 
#
# 1 51.8714 32.4207 26.7304 0.0000 0.0000 0.0000
# 2 32.4207 89.7059 40.9025 0.0000 0.0000 0.0000
# 3 26.7304 40.9025 122.1569 0.0000 0.0000 0.0000
# 4 0.0000 0.0000 0.0000 34.3582 0.0000 0.0000
# 5 0.0000 0.0000 0.0000 0.0000 15.5889 0.0000
# 6 0.0000 0.0000 0.0000 0.0000 0.0000 -0.0682
#
#
#
# Elastic Compliance Matrix: (Units=1/GPa)
#
#
# Indices 1 2 3 4 5 6 
#
# 1 0.025790 -0.007963 -0.002977 0.000000 0.000000 0.000000
# 2 -0.007963 0.015615 -0.003486 0.000000 0.000000 0.000000
# 3 -0.002977 -0.003486 0.010005 0.000000 0.000000 0.000000
# 4 0.000000 0.000000 0.000000 0.029105 0.000000 0.000000
# 5 0.000000 0.000000 0.000000 0.000000 0.064148 0.000000
# 6 0.000000 0.000000 0.000000 0.000000 0.000000-14.662458
#
#
# Mechanical properties :
#
#
# Convention : Reuss Voigt Hill
#
# Bulk Modulus (GPa) = 44.33166 51.53793 47.93480
# Shear Modulus (GPa) = -0.34527 20.88784 10.27128
#
# Velocity S-wave (km/s) = -0.44705 3.47718 2.43833
# Velocity P-wave (km/s) = 5.03930 6.77889 5.97277
#
# Compressibility (1/GPa) = 0.02255724
#
# Stress axis : x y z
#
# Youngs Moduli (GPa) = 38.77507 64.04086 99.95191
#
# Poissons Ratio (x) = 0.50998 0.29755
# Poissons Ratio (y) = 0.30878 0.34843
# Poissons Ratio (z) = 0.11543 0.22324
#
# Static dielectric constant tensor:
#      x y z
#    x 3.060630 0.000000 0.000000 
#    y 0.000000 3.166970 0.000000 
#    z 0.000000 0.000000 3.629440 
# 
# 
# High freq. dielectric constant tensor:
#      x y z
#    x 1.594870 0.000000 0.000000 
#    y 0.000000 1.655440 0.000000 
#    z 0.000000 0.000000 1.690880 
# 
# From -- ./inp_files/1410.got.cif
#   From: 2010.03.12/outbox.cif.g09.slc.cpg/sg60_1_cif.got.tgz:1410.got - 2010.04.10 18:46:24.
