data_PCOD8246797
_publ_section_title
;
Structure prediction by ZEFSAII (Michael W. Deem and Ramdas Pophale) SiO2 
 PCOD8246797
Probable space group: P B C N
;
_chemical_formula_sum "Si O2"
_cell_formula_units_Z 44
_cell_length_a 22.743957
_cell_length_b 12.104474
_cell_length_c 8.849428
_cell_angle_alpha 90.000000
_cell_angle_beta 90.000000
_cell_angle_gamma 90.000000
_cell_volume 2436.279706
_symmetry_space_group_name_H-M "P B C N"
_symmetry_group_IT_number 60
_symmetry_cell_setting 'orthorhombic'
loop_
_space_group_symop_operation_xyz
x,y,z
1/2-x,1/2-y,1/2+z
1/2+x,1/2-y,-z
-x,y,1/2-z
-x,-y,-z
1/2+x,1/2+y,1/2-z
1/2-x,1/2+y,z
x,-y,1/2+z
loop_
_atom_site_type_symbol
_atom_site_label
_atom_site_fract_x
_atom_site_fract_y
_atom_site_fract_z
Si Si1 0.195515 0.858357 0.626828
Si Si2 0.672846 0.785426 0.869206
Si Si3 0.000000 0.493342 0.250000
Si Si4 0.581787 0.938953 0.001777
Si Si5 0.663407 0.145847 0.035384
Si Si6 0.296584 0.576272 0.463108
O O1 0.264387 0.840189 0.608046
O O2 0.161025 0.746078 0.585114
O O3 0.179486 0.893126 0.797214
O O4 0.180352 0.955177 0.508030
O O5 0.650857 0.801428 0.698935
O O6 0.675705 0.657112 0.911597
O O7 0.629381 0.843410 0.987525
O O8 0.047457 0.419377 0.340830
O O9 0.965284 0.570943 0.367023
O O10 0.612412 0.059567 0.995978
O O11 0.725820 0.083245 0.031623
#
# Coordination Sequence:
#
# PCOD8246797 Si02
#       6
#     8   8   4   8   8   8
#     4  10  20  32  50  80 110 146 179 208 255 338
#     4  10  20  33  53  75 111 146 175 216 269 314
#     4  10  24  34  56  78 106 134 196 222 278 308
#     4  11  20  38  54  82 106 144 174 235 268 318
#     4  10  20  33  53  75 111 146 175 216 269 314
#     4  10  20  32  50  80 110 146 179 208 255 338
#
# _framework density 18.060324999999999
#
# number of rings (size 3 to 8) (size 9 to 14) (size 15 to 20)
#    0.000    1.818    3.636    1.091    2.545    1.455 
#    0.000    0.000    0.000    0.000    0.000    7.636 
#    0.000    0.000    0.000    0.000    0.000    0.000 
#
# Total GULP energy -545555.126176 kJ/mol
# GULP energy per Si atom -12398.980140 kJ/mol
# Density = 1.801922 g / cm^3
# Si number density = 18.060325 Si / 1000 Ang^3
#
#
#
# Elastic Constant Matrix: (Units=GPa)
#
#
# Indices 1 2 3 4 5 6 
#
# 1 52.2726 18.5386 18.6060 0.0000 0.0000 0.0000
# 2 18.5386 73.8739 25.8595 0.0000 0.0000 0.0000
# 3 18.6060 25.8595 79.1930 0.0000 0.0000 0.0000
# 4 0.0000 0.0000 0.0000 29.3878 0.0000 0.0000
# 5 0.0000 0.0000 0.0000 0.0000 29.7724 0.0000
# 6 0.0000 0.0000 0.0000 0.0000 0.0000 13.1907
#
#
#
# Elastic Compliance Matrix: (Units=1/GPa)
#
#
# Indices 1 2 3 4 5 6 
#
# 1 0.021965 -0.004184 -0.003794 0.000000 0.000000 0.000000
# 2 -0.004184 0.016080 -0.004268 0.000000 0.000000 0.000000
# 3 -0.003794 -0.004268 0.014912 0.000000 0.000000 0.000000
# 4 0.000000 0.000000 0.000000 0.034028 0.000000 0.000000
# 5 0.000000 0.000000 0.000000 0.000000 0.033588 0.000000
# 6 0.000000 0.000000 0.000000 0.000000 0.000000 0.075811
#
#
# Mechanical properties :
#
#
# Convention : Reuss Voigt Hill
#
# Bulk Modulus (GPa) = 35.13012 36.81640 35.97326
# Shear Modulus (GPa) = 21.70465 23.95921 22.83193
#
# Velocity S-wave (km/s) = 3.47044 3.64623 3.55942
# Velocity P-wave (km/s) = 5.96258 6.17707 6.07077
#
# Compressibility (1/GPa) = 0.02846561
#
# Stress axis : x y z
#
# Youngs Moduli (GPa) = 45.52724 62.18713 67.05791
#
# Poissons Ratio (x) = 0.26018 0.25444
# Poissons Ratio (y) = 0.19048 0.28620
# Poissons Ratio (z) = 0.17275 0.26541
#
# Static dielectric constant tensor:
#      x y z
#    x 3.143600 0.000000 0.000000 
#    y 0.000000 3.212090 0.000000 
#    z 0.000000 0.000000 3.573210 
# 
# 
# High freq. dielectric constant tensor:
#      x y z
#    x 1.664750 0.000000 0.000000 
#    y 0.000000 1.684140 0.000000 
#    z 0.000000 0.000000 1.718340 
# 
# From -- ./inp_files/7805.got.cif
#   From: 2010.03.12/outbox.cif.g09.slc.cpg/sg60_4_cif.got.tgz:7805.got - 2010.04.10 18:46:24.
