data_PCOD8246530
_publ_section_title
;
Structure prediction by ZEFSAII (Michael W. Deem and Ramdas Pophale) SiO2 
 PCOD8246530
Probable space group: P B C N
;
_chemical_formula_sum "Si O2"
_cell_formula_units_Z 48
_cell_length_a 17.934788
_cell_length_b 8.942262
_cell_length_c 15.451379
_cell_angle_alpha 90.000000
_cell_angle_beta 90.000000
_cell_angle_gamma 90.000000
_cell_volume 2478.054667
_symmetry_space_group_name_H-M "P B C N"
_symmetry_group_IT_number 60
_symmetry_cell_setting 'orthorhombic'
loop_
_space_group_symop_operation_xyz
x,y,z
1/2-x,1/2-y,1/2+z
1/2+x,1/2-y,-z
-x,y,1/2-z
-x,-y,-z
1/2+x,1/2+y,1/2-z
1/2-x,1/2+y,z
x,-y,1/2+z
loop_
_atom_site_type_symbol
_atom_site_label
_atom_site_fract_x
_atom_site_fract_y
_atom_site_fract_z
Si Si1 0.157014 0.767954 0.854871
Si Si2 0.829847 0.707811 0.834106
Si Si3 0.405084 0.350155 0.507785
Si Si4 0.568993 0.306705 0.481529
Si Si5 0.765811 0.052215 0.572531
Si Si6 0.308324 0.890608 0.605995
O O1 0.135172 0.777062 0.754257
O O2 0.205074 0.617526 0.862705
O O3 0.212796 0.894311 0.888547
O O4 0.084806 0.768977 0.916993
O O5 0.886487 0.750804 0.909510
O O6 0.747289 0.774816 0.847905
O O7 0.826862 0.527132 0.829563
O O8 0.480791 0.285303 0.465510
O O9 0.411063 0.521981 0.539241
O O10 0.339477 0.341841 0.436059
O O11 0.616398 0.198671 0.419385
O O12 0.730225 0.033646 0.477377
#
# Coordination Sequence:
#
# PCOD8246530 Si02
#       6
#     8   8   8   8   8   8
#     4  10  19  31  50  76 102 129 163 212 256 295
#     4  11  20  31  51  77 103 130 166 214 261 297
#     4   9  18  34  54  75  99 134 173 206 248 305
#     4   9  19  35  54  74 101 135 173 207 247 307
#     4   9  17  32  51  72  99 133 171 202 244 301
#     4  10  19  33  52  75 102 136 174 209 248 305
#
# _framework density 19.370032999999999
#
# number of rings (size 3 to 8) (size 9 to 14) (size 15 to 20)
#    0.000    2.333    0.000    6.000    0.000    1.333 
#    0.000    0.000    0.000    5.000    0.000    0.000 
#    0.000    0.000    0.000    0.000    0.000    0.000 
#
# Total GULP energy -595038.357262 kJ/mol
# GULP energy per Si atom -12396.632443 kJ/mol
# Density = 1.932595 g / cm^3
# Si number density = 19.370033 Si / 1000 Ang^3
#
#
#
# Elastic Constant Matrix: (Units=GPa)
#
#
# Indices 1 2 3 4 5 6 
#
# 1 82.8263 16.5265 6.3506 0.0000 0.0000 0.0000
# 2 16.5265 69.3127 13.2362 0.0000 0.0000 0.0000
# 3 6.3506 13.2362 51.7798 0.0000 0.0000 0.0000
# 4 0.0000 0.0000 0.0000 12.6796 0.0000 0.0000
# 5 0.0000 0.0000 0.0000 0.0000 13.7343 0.0000
# 6 0.0000 0.0000 0.0000 0.0000 0.0000 24.1486
#
#
#
# Elastic Compliance Matrix: (Units=1/GPa)
#
#
# Indices 1 2 3 4 5 6 
#
# 1 0.012710 -0.002873 -0.000824 0.000000 0.000000 0.000000
# 2 -0.002873 0.015817 -0.003691 0.000000 0.000000 0.000000
# 3 -0.000824 -0.003691 0.020357 0.000000 0.000000 0.000000
# 4 0.000000 0.000000 0.000000 0.078867 0.000000 0.000000
# 5 0.000000 0.000000 0.000000 0.000000 0.072811 0.000000
# 6 0.000000 0.000000 0.000000 0.000000 0.000000 0.041410
#
#
# Mechanical properties :
#
#
# Convention : Reuss Voigt Hill
#
# Bulk Modulus (GPa) = 29.31899 30.68283 30.00091
# Shear Modulus (GPa) = 18.64850 21.29952 19.97401
#
# Velocity S-wave (km/s) = 3.10619 3.31964 3.21468
# Velocity P-wave (km/s) = 5.29468 5.52884 5.41303
#
# Compressibility (1/GPa) = 0.03410759
#
# Stress axis : x y z
#
# Youngs Moduli (GPa) = 78.67861 63.22213 49.12278
#
# Poissons Ratio (x) = 0.18164 0.04050
# Poissons Ratio (y) = 0.22605 0.18131
# Poissons Ratio (z) = 0.06486 0.23335
#
# Static dielectric constant tensor:
#      x y z
#    x 3.554480 0.000000 0.000000 
#    y 0.000000 3.462000 0.000000 
#    z 0.000000 0.000000 3.400050 
# 
# 
# High freq. dielectric constant tensor:
#      x y z
#    x 1.746820 0.000000 0.000000 
#    y 0.000000 1.755250 0.000000 
#    z 0.000000 0.000000 1.728190 
# 
# From -- ./inp_files/17314.got.cif
#   From: 2010.03.12/outbox.cif.g09.slc.cpg/sg60_9_cif.got.tgz:17314.got - 2010.04.10 18:46:24.
