data_PCOD8246714
_publ_section_title
;
Structure prediction by ZEFSAII (Michael W. Deem and Ramdas Pophale) SiO2 
 PCOD8246714
Probable space group: P B C N
;
_chemical_formula_sum "Si O2"
_cell_formula_units_Z 48
_cell_length_a 12.158474
_cell_length_b 16.882921
_cell_length_c 12.164693
_cell_angle_alpha 90.000000
_cell_angle_beta 90.000000
_cell_angle_gamma 90.000000
_cell_volume 2497.053296
_symmetry_space_group_name_H-M "P B C N"
_symmetry_group_IT_number 60
_symmetry_cell_setting 'orthorhombic'
loop_
_space_group_symop_operation_xyz
x,y,z
1/2-x,1/2-y,1/2+z
1/2+x,1/2-y,-z
-x,y,1/2-z
-x,-y,-z
1/2+x,1/2+y,1/2-z
1/2-x,1/2+y,z
x,-y,1/2+z
loop_
_atom_site_type_symbol
_atom_site_label
_atom_site_fract_x
_atom_site_fract_y
_atom_site_fract_z
Si Si1 0.754093 0.905245 0.682031
Si Si2 0.611837 0.824694 0.068234
Si Si3 0.376022 0.945778 0.242666
Si Si4 0.633266 0.146659 0.966705
Si Si5 0.534875 0.660430 0.130821
Si Si6 0.199975 0.179891 0.096311
O O1 0.680883 0.869220 0.586036
O O2 0.881595 0.914170 0.640182
O O3 0.753533 0.843701 0.783859
O O4 0.711416 0.990884 0.715230
O O5 0.629395 0.865752 0.185749
O O6 0.497479 0.851640 0.014760
O O7 0.607398 0.729634 0.075696
O O8 0.712518 0.851350 0.991615
O O9 0.500000 0.981021 0.250000
O O10 0.341085 0.924487 0.118232
O O11 0.682015 0.226150 0.912833
O O12 0.500000 0.693610 0.250000
O O13 0.419807 0.638932 0.069981
#
# Coordination Sequence:
#
# PCOD8246714 Si02
#       6
#     8   8   8   8   8   8
#     4  11  22  36  60  86 119 154 193 238 297 348
#     4  10  19  37  62  87 114 154 192 245 298 343
#     4  10  23  37  58  87 122 157 191 242 301 353
#     4  10  22  38  60  88 118 149 198 246 293 346
#     4   9  18  38  59  82 113 158 194 230 289 361
#     4  10  21  36  64  85 112 154 198 240 287 351
#
# _framework density 19.222657999999999
#
# number of rings (size 3 to 8) (size 9 to 14) (size 15 to 20)
#    0.000    2.000    1.667    3.500    4.667    1.333 
#    0.000    0.833    3.667    0.000    0.000    0.000 
#    0.000    0.000    0.000    0.000    0.000    0.000 
#
# Total GULP energy -594888.939823 kJ/mol
# GULP energy per Si atom -12393.519580 kJ/mol
# Density = 1.917891 g / cm^3
# Si number density = 19.222658 Si / 1000 Ang^3
#
#
#
# Elastic Constant Matrix: (Units=GPa)
#
#
# Indices 1 2 3 4 5 6 
#
# 1 143.7869 52.4979 62.6471 0.0000 0.0000 0.0000
# 2 52.4979 70.7673 26.8361 0.0000 0.0000 0.0000
# 3 62.6471 26.8361 75.8465 0.0000 0.0000 0.0000
# 4 0.0000 0.0000 0.0000 24.2138 0.0000 0.0000
# 5 0.0000 0.0000 0.0000 0.0000 38.5179 0.0000
# 6 0.0000 0.0000 0.0000 0.0000 0.0000 27.2145
#
#
#
# Elastic Compliance Matrix: (Units=1/GPa)
#
#
# Indices 1 2 3 4 5 6 
#
# 1 0.012983 -0.006427 -0.008449 0.000000 0.000000 0.000000
# 2 -0.006427 0.019502 -0.001592 0.000000 0.000000 0.000000
# 3 -0.008449 -0.001592 0.020727 0.000000 0.000000 0.000000
# 4 0.000000 0.000000 0.000000 0.041299 0.000000 0.000000
# 5 0.000000 0.000000 0.000000 0.000000 0.025962 0.000000
# 6 0.000000 0.000000 0.000000 0.000000 0.000000 0.036745
#
#
# Mechanical properties :
#
#
# Convention : Reuss Voigt Hill
#
# Bulk Modulus (GPa) = 49.32098 63.81810 56.56954
# Shear Modulus (GPa) = 25.39210 27.88388 26.63799
#
# Velocity S-wave (km/s) = 3.63843 3.81277 3.72662
# Velocity P-wave (km/s) = 6.58516 7.25634 6.92888
#
# Compressibility (1/GPa) = 0.02027535
#
# Stress axis : x y z
#
# Youngs Moduli (GPa) = 77.02656 51.27628 48.24711
#
# Poissons Ratio (x) = 0.32955 0.40765
# Poissons Ratio (y) = 0.49504 0.07680
# Poissons Ratio (z) = 0.65082 0.08163
#
# Static dielectric constant tensor:
#      x y z
#    x 3.958340 0.000000 0.000000 
#    y 0.000000 3.226910 0.000000 
#    z 0.000000 0.000000 3.478110 
# 
# 
# High freq. dielectric constant tensor:
#      x y z
#    x 1.761840 0.000000 0.000000 
#    y 0.000000 1.720540 0.000000 
#    z 0.000000 0.000000 1.743900 
# 
# From -- ./inp_files/11023.got.cif
#   From: 2010.03.12/outbox.cif.g09.slc.cpg/sg60_6_cif.got.tgz:11023.got - 2010.04.10 18:46:24.
