data_PCOD8246845
_publ_section_title
;
Structure prediction by ZEFSAII (Michael W. Deem and Ramdas Pophale) SiO2 
 PCOD8246845
Probable space group: P B C N
;
_chemical_formula_sum "Si O2"
_cell_formula_units_Z 56
_cell_length_a 10.650244
_cell_length_b 12.699732
_cell_length_c 20.779298
_cell_angle_alpha 90.000000
_cell_angle_beta 90.000000
_cell_angle_gamma 90.000000
_cell_volume 2810.509032
_symmetry_space_group_name_H-M "P B C N"
_symmetry_group_IT_number 60
_symmetry_cell_setting 'orthorhombic'
loop_
_space_group_symop_operation_xyz
x,y,z
1/2-x,1/2-y,1/2+z
1/2+x,1/2-y,-z
-x,y,1/2-z
-x,-y,-z
1/2+x,1/2+y,1/2-z
1/2-x,1/2+y,z
x,-y,1/2+z
loop_
_atom_site_type_symbol
_atom_site_label
_atom_site_fract_x
_atom_site_fract_y
_atom_site_fract_z
Si Si1 0.065105 0.161789 0.685962
Si Si2 0.948190 0.553803 0.814795
Si Si3 0.196124 0.743008 0.735252
Si Si4 0.903488 0.891022 0.068861
Si Si5 0.688950 0.553087 0.327571
Si Si6 0.349354 0.178116 0.876036
Si Si7 0.999789 0.122279 0.429196
O O1 0.189650 0.232010 0.683984
O O2 0.000000 0.202916 0.750000
O O3 0.981741 0.173465 0.622491
O O4 0.105913 0.042237 0.696747
O O5 0.914257 0.673284 0.794435
O O6 0.832516 0.484829 0.841848
O O7 0.000000 0.495880 0.750000
O O8 0.057525 0.576404 0.867322
O O9 0.169648 0.867212 0.732274
O O10 0.219752 0.706330 0.808476
O O11 0.757735 0.858691 0.074293
O O12 0.915263 0.017193 0.076002
O O13 0.961022 0.852420 0.001925
O O14 0.631332 0.605018 0.391689
O O15 0.421424 0.279771 0.902737
#
# Coordination Sequence:
#
# PCOD8246845 Si02
#       7
#     8   8   8   8   8   8   8
#     4  10  20  36  58  86 117 155 196 250 300 351
#     4   9  20  36  55  91 122 152 196 258 302 356
#     4  10  20  34  59  90 120 155 200 244 309 363
#     4  10  23  43  61  90 122 160 213 249 295 372
#     4  10  21  36  61  84 123 157 196 246 307 368
#     4  11  21  39  65  89 121 160 206 258 305 358
#     4  10  23  42  65  86 121 174 205 243 304 376
#
# _framework density 19.925217
#
# number of rings (size 3 to 8) (size 9 to 14) (size 15 to 20)
#    0.000    2.000    2.857    0.000    4.000    1.714 
#    7.714    0.714    0.000    0.000    0.000    0.000 
#    0.000    0.000    0.000    0.000    0.000    0.000 
#
# Total GULP energy -693975.796094 kJ/mol
# GULP energy per Si atom -12392.424930 kJ/mol
# Density = 1.987987 g / cm^3
# Si number density = 19.925217 Si / 1000 Ang^3
#
#
#
# Elastic Constant Matrix: (Units=GPa)
#
#
# Indices 1 2 3 4 5 6 
#
# 1 128.0946 36.2353 45.2928 0.0000 0.0000 0.0000
# 2 36.2353 65.2335 26.1761 0.0000 0.0000 0.0000
# 3 45.2928 26.1761 89.7484 0.0000 0.0000 0.0000
# 4 0.0000 0.0000 0.0000 19.0503 0.0000 0.0000
# 5 0.0000 0.0000 0.0000 0.0000 32.5474 0.0000
# 6 0.0000 0.0000 0.0000 0.0000 0.0000 20.9849
#
#
#
# Elastic Compliance Matrix: (Units=1/GPa)
#
#
# Indices 1 2 3 4 5 6 
#
# 1 0.010413 -0.004163 -0.004041 0.000000 0.000000 0.000000
# 2 -0.004163 0.019025 -0.003448 0.000000 0.000000 0.000000
# 3 -0.004041 -0.003448 0.014187 0.000000 0.000000 0.000000
# 4 0.000000 0.000000 0.000000 0.052493 0.000000 0.000000
# 5 0.000000 0.000000 0.000000 0.000000 0.030724 0.000000
# 6 0.000000 0.000000 0.000000 0.000000 0.000000 0.047653
#
#
# Mechanical properties :
#
#
# Convention : Reuss Voigt Hill
#
# Bulk Modulus (GPa) = 49.20766 55.38723 52.29744
# Shear Modulus (GPa) = 24.44102 26.20801 25.32451
#
# Velocity S-wave (km/s) = 3.50614 3.63067 3.56895
# Velocity P-wave (km/s) = 6.41408 6.74044 6.57929
#
# Compressibility (1/GPa) = 0.02032204
#
# Stress axis : x y z
#
# Youngs Moduli (GPa) = 96.03268 52.56121 70.48533
#
# Poissons Ratio (x) = 0.21879 0.28483
# Poissons Ratio (y) = 0.39975 0.24305
# Poissons Ratio (z) = 0.38807 0.18124
#
# Static dielectric constant tensor:
#      x y z
#    x 3.750200 0.000000 0.000000 
#    y 0.000000 3.541650 0.000000 
#    z 0.000000 0.000000 3.516550 
# 
# 
# High freq. dielectric constant tensor:
#      x y z
#    x 1.789440 0.000000 0.000000 
#    y 0.000000 1.767030 0.000000 
#    z 0.000000 0.000000 1.757300 
# 
# From -- ./inp_files/24289.got.cif
#   From: 2010.03.12/outbox.cif.g09.slc.cpg/sg60_13_cif.got.tgz:24289.got - 2010.04.10 18:46:24.
