data_PCOD8246635
_publ_section_title
;
Structure prediction by ZEFSAII (Michael W. Deem and Ramdas Pophale) SiO2 
 PCOD8246635
Probable space group: P B C N
;
_chemical_formula_sum "Si O2"
_cell_formula_units_Z 64
_cell_length_a 13.870309
_cell_length_b 9.365499
_cell_length_c 27.649187
_cell_angle_alpha 90.000000
_cell_angle_beta 90.000000
_cell_angle_gamma 90.000000
_cell_volume 3591.694784
_symmetry_space_group_name_H-M "P B C N"
_symmetry_group_IT_number 60
_symmetry_cell_setting 'orthorhombic'
loop_
_space_group_symop_operation_xyz
x,y,z
1/2-x,1/2-y,1/2+z
1/2+x,1/2-y,-z
-x,y,1/2-z
-x,-y,-z
1/2+x,1/2+y,1/2-z
1/2-x,1/2+y,z
x,-y,1/2+z
loop_
_atom_site_type_symbol
_atom_site_label
_atom_site_fract_x
_atom_site_fract_y
_atom_site_fract_z
Si Si1 0.152423 0.056180 0.737702
Si Si2 0.971345 0.718452 0.675034
Si Si3 0.537507 0.609062 0.563587
Si Si4 0.972201 0.947771 0.172761
Si Si5 0.634669 0.884884 0.086610
Si Si6 0.205672 0.310786 0.941019
Si Si7 0.846434 0.277215 0.266229
Si Si8 0.392108 0.331235 0.986976
O O1 0.113095 0.100608 0.790874
O O2 0.247830 0.141311 0.724965
O O3 0.073563 0.093159 0.697042
O O4 0.175984 0.889683 0.736049
O O5 0.943934 0.625424 0.628701
O O6 0.897531 0.673494 0.717039
O O7 0.081297 0.684572 0.689849
O O8 0.962834 0.884858 0.663377
O O9 0.535638 0.631418 0.621286
O O10 0.617981 0.713195 0.540577
O O11 0.558816 0.447186 0.548632
O O12 0.434561 0.656942 0.540860
O O13 0.728610 0.782865 0.096659
O O14 0.586595 0.825801 0.036519
O O15 0.666271 0.048378 0.084509
O O16 0.275241 0.354457 0.986546
#
# Coordination Sequence:
#
# PCOD8246635 Si02
#       8
#     8   8   8   8   8   8   8   8
#     4   9  19  35  56  75 108 143 182 217 269 315
#     4   9  18  33  54  77 108 142 180 215 276 313
#     4  11  19  36  58  78 110 141 176 220 272 319
#     4   9  18  36  57  79 102 147 182 216 263 331
#     4  10  19  35  53  81 109 136 181 224 261 319
#     4  10  20  35  55  82 107 137 181 225 261 316
#     4   9  19  34  52  76 107 144 175 224 267 324
#     4   9  20  34  56  81 105 140 171 222 273 314
#
# _framework density 17.818885999999999
#
# number of rings (size 3 to 8) (size 9 to 14) (size 15 to 20)
#    0.750    1.750    2.500    1.500    1.750    1.500 
#    2.250    2.500    5.500    0.000    0.000    0.000 
#    0.000    0.000    0.000    0.000    0.000    0.000 
#
# Total GULP energy -793069.752311 kJ/mol
# GULP energy per Si atom -12391.714880 kJ/mol
# Density = 1.777833 g / cm^3
# Si number density = 17.818886 Si / 1000 Ang^3
#
#
#
# Elastic Constant Matrix: (Units=GPa)
#
#
# Indices 1 2 3 4 5 6 
#
# 1 119.9965 38.1185 43.6855 0.0000 0.0000 0.0000
# 2 38.1185 59.6820 22.7042 0.0000 0.0000 0.0000
# 3 43.6855 22.7042 85.8326 0.0000 0.0000 0.0000
# 4 0.0000 0.0000 0.0000 11.7586 0.0000 0.0000
# 5 0.0000 0.0000 0.0000 0.0000 25.4271 0.0000
# 6 0.0000 0.0000 0.0000 0.0000 0.0000 35.5576
#
#
#
# Elastic Compliance Matrix: (Units=1/GPa)
#
#
# Indices 1 2 3 4 5 6 
#
# 1 0.011818 -0.005848 -0.004468 0.000000 0.000000 0.000000
# 2 -0.005848 0.021524 -0.002717 0.000000 0.000000 0.000000
# 3 -0.004468 -0.002717 0.014643 0.000000 0.000000 0.000000
# 4 0.000000 0.000000 0.000000 0.085044 0.000000 0.000000
# 5 0.000000 0.000000 0.000000 0.000000 0.039328 0.000000
# 6 0.000000 0.000000 0.000000 0.000000 0.000000 0.028123
#
#
# Mechanical properties :
#
#
# Convention : Reuss Voigt Hill
#
# Bulk Modulus (GPa) = 45.62229 52.72528 49.17379
# Shear Modulus (GPa) = 21.38084 25.28219 23.33151
#
# Velocity S-wave (km/s) = 3.46771 3.77084 3.62245
# Velocity P-wave (km/s) = 6.45696 6.97228 6.71956
#
# Compressibility (1/GPa) = 0.02191911
#
# Stress axis : x y z
#
# Youngs Moduli (GPa) = 84.61703 46.45898 68.29085
#
# Poissons Ratio (x) = 0.27171 0.30512
# Poissons Ratio (y) = 0.49487 0.18554
# Poissons Ratio (z) = 0.37806 0.12623
#
# Static dielectric constant tensor:
#      x y z
#    x 3.312280 0.000000 0.000000 
#    y 0.000000 3.092130 0.000000 
#    z 0.000000 0.000000 3.090180 
# 
# 
# High freq. dielectric constant tensor:
#      x y z
#    x 1.688770 0.000000 0.000000 
#    y 0.000000 1.677930 0.000000 
#    z 0.000000 0.000000 1.665090 
# 
# From -- ./inp_files/26179.got.cif
#   From: 2010.03.12/outbox.cif.g09.slc.cpg/sg60_14_cif.got.tgz:26179.got - 2010.04.10 18:46:24.
