data_PCOD8246125
_publ_section_title
;
Structure prediction by ZEFSAII (Michael W. Deem and Ramdas Pophale) SiO2 
 PCOD8246125
Probable space group: P M M N
;
_chemical_formula_sum "Si O2"
_cell_formula_units_Z 24
_cell_length_a 9.952148
_cell_length_b 8.398232
_cell_length_c 13.453487
_cell_angle_alpha 90.000000
_cell_angle_beta 90.000000
_cell_angle_gamma 90.000000
_cell_volume 1124.448468
_symmetry_space_group_name_H-M "P M M N"
_symmetry_group_IT_number 59
_space_group.IT_coordinate_system_code '2'
_symmetry_cell_setting 'orthorhombic'
loop_
_space_group_symop_operation_xyz
x,y,z
1/2-x,1/2-y,z
1/2+x,-y,-z
-x,1/2+y,-z
-x,-y,-z
1/2+x,1/2+y,-z
1/2-x,y,z
x,1/2-y,z
loop_
_atom_site_type_symbol
_atom_site_label
_atom_site_fract_x
_atom_site_fract_y
_atom_site_fract_z
Si Si1 0.015404 0.434617 0.710169
Si Si2 0.250000 0.934828 0.581327
Si Si3 0.250000 0.067695 0.367846
Si Si4 0.902679 0.066855 0.083167
O O1 0.980757 0.250000 0.700055
O O2 0.879396 0.534543 0.699693
O O3 0.117521 0.482513 0.623593
O O4 0.080847 0.467888 0.816407
O O5 0.250000 0.750000 0.611190
O O6 0.250000 0.953086 0.463072
O O7 0.250000 0.250000 0.403354
O O8 0.750000 0.047487 0.045235
O O9 0.937383 0.250000 0.104773
O O10 0.000000 0.000000 0.000000
#
# Coordination Sequence:
#
# PCOD8246125 Si02
#       4
#     8   4   4   8
#     4  12  25  44  69  99 135 176 222 274 332 394
#     4  12  24  44  69  98 135 176 224 274 330 394
#     4  12  26  44  67  98 135 178 224 274 330 392
#     4  11  25  45  70  99 134 175 221 271 330 395
#
# _framework density 21.343798
#
# number of rings (size 3 to 8) (size 9 to 14) (size 15 to 20)
#    0.000    0.333    1.667    8.000    2.333    2.000 
#    0.000    0.000    0.000    0.000    0.000    0.000 
#    0.000    0.000    0.000    0.000    0.000    0.000 
#
# Total GULP energy -297853.292973 kJ/mol
# GULP energy per Si atom -12410.553874 kJ/mol
# Density = 2.129522 g / cm^3
# Si number density = 21.343798 Si / 1000 Ang^3
#
#
#
# Elastic Constant Matrix: (Units=GPa)
#
#
# Indices 1 2 3 4 5 6 
#
# 1 143.4809 37.2061 27.2530 0.0000 0.0000 0.0000
# 2 37.2061 120.7343 22.0111 0.0000 0.0000 0.0000
# 3 27.2530 22.0111 86.7497 0.0000 0.0000 0.0000
# 4 0.0000 0.0000 0.0000 40.0328 0.0000 0.0000
# 5 0.0000 0.0000 0.0000 0.0000 44.2777 0.0000
# 6 0.0000 0.0000 0.0000 0.0000 0.0000 53.1406
#
#
#
# Elastic Compliance Matrix: (Units=1/GPa)
#
#
# Indices 1 2 3 4 5 6 
#
# 1 0.007877 -0.002072 -0.001949 0.000000 0.000000 0.000000
# 2 -0.002072 0.009229 -0.001691 0.000000 0.000000 0.000000
# 3 -0.001949 -0.001691 0.012569 0.000000 0.000000 0.000000
# 4 0.000000 0.000000 0.000000 0.024980 0.000000 0.000000
# 5 0.000000 0.000000 0.000000 0.000000 0.022585 0.000000
# 6 0.000000 0.000000 0.000000 0.000000 0.000000 0.018818
#
#
# Mechanical properties :
#
#
# Convention : Reuss Voigt Hill
#
# Bulk Modulus (GPa) = 54.78986 58.21169 56.50078
# Shear Modulus (GPa) = 44.02764 45.12319 44.57542
#
# Velocity S-wave (km/s) = 4.54672 4.60294 4.57491
# Velocity P-wave (km/s) = 7.29996 7.45533 7.37805
#
# Compressibility (1/GPa) = 0.01825155
#
# Stress axis : x y z
#
# Youngs Moduli (GPa) = 126.95078 108.34860 79.56282
#
# Poissons Ratio (x) = 0.22451 0.15506
# Poissons Ratio (y) = 0.26306 0.13453
# Poissons Ratio (z) = 0.24741 0.18320
#
# Static dielectric constant tensor:
#      x y z
#    x 3.886110 0.000000 0.000000 
#    y 0.000000 3.969720 0.000000 
#    z 0.000000 0.000000 3.757410 
# 
# 
# High freq. dielectric constant tensor:
#      x y z
#    x 1.854720 0.000000 0.000000 
#    y 0.000000 1.854730 0.000000 
#    z 0.000000 0.000000 1.837720 
# 
# From -- ./inp_files/13452.got.cif
#   From: 2010.03.12/outbox.cif.g09.slc.cpg/sg59_7_cif.got.tgz:13452.got - 2010.04.16 16:29:54.
