data_PCOD8246988
_publ_section_title
;
Structure prediction by ZEFSAII (Michael W. Deem and Ramdas Pophale) SiO2 
 PCOD8246988
Probable space group: P B C N
;
_chemical_formula_sum "Si O2"
_cell_formula_units_Z 48
_cell_length_a 8.259138
_cell_length_b 21.654301
_cell_length_c 12.226888
_cell_angle_alpha 90.000000
_cell_angle_beta 90.000000
_cell_angle_gamma 90.000000
_cell_volume 2186.728303
_symmetry_space_group_name_H-M "P B C N"
_symmetry_group_IT_number 60
_symmetry_cell_setting 'orthorhombic'
loop_
_space_group_symop_operation_xyz
x,y,z
1/2-x,1/2-y,1/2+z
1/2+x,1/2-y,-z
-x,y,1/2-z
-x,-y,-z
1/2+x,1/2+y,1/2-z
1/2-x,1/2+y,z
x,-y,1/2+z
loop_
_atom_site_type_symbol
_atom_site_label
_atom_site_fract_x
_atom_site_fract_y
_atom_site_fract_z
Si Si1 0.585805 0.777375 0.863767
Si Si2 0.258018 0.996485 0.509286
Si Si3 0.483844 0.077603 0.875580
Si Si4 0.128744 0.109246 0.407211
Si Si5 0.353743 0.194685 0.546939
Si Si6 0.784065 0.107952 0.333545
O O1 0.500000 0.760299 0.750000
O O2 0.752609 0.738491 0.871267
O O3 0.634531 0.849780 0.872264
O O4 0.459714 0.764753 0.961969
O O5 0.306570 0.944291 0.418106
O O6 0.218707 0.961542 0.621184
O O7 0.399135 0.044288 0.538536
O O8 0.114678 0.040774 0.462925
O O9 0.500000 0.056709 0.750000
O O10 0.523181 0.150768 0.884909
O O11 0.214810 0.157470 0.484833
O O12 0.231683 0.102847 0.296489
O O13 0.952966 0.136347 0.377131
#
# Coordination Sequence:
#
# PCOD8246988 Si02
#       6
#     8   8   8   8   8   8
#     4  12  25  44  70  93 130 180 230 284 340 406
#     4  10  20  37  64  95 130 171 211 273 320 403
#     4  10  21  37  60  93 127 165 211 266 326 393
#     4  10  22  39  65  96 133 168 222 270 337 402
#     4  11  24  44  62  93 127 167 225 279 329 392
#     4  11  21  40  66  96 129 178 214 270 334 405
#
# _framework density 21.950600000000001
#
# number of rings (size 3 to 8) (size 9 to 14) (size 15 to 20)
#    0.000    1.333    3.333    2.500    0.000    2.000 
#    6.000    0.000    7.333    0.000    0.000    0.000 
#    0.000    0.000    0.000    0.000    0.000    0.000 
#
# Total GULP energy -594997.595412 kJ/mol
# GULP energy per Si atom -12395.783238 kJ/mol
# Density = 2.190064 g / cm^3
# Si number density = 21.950600 Si / 1000 Ang^3
#
#
#
# Elastic Constant Matrix: (Units=GPa)
#
#
# Indices 1 2 3 4 5 6 
#
# 1 49.6165 19.9409 13.9852 0.0000 0.0000 0.0000
# 2 19.9409 73.3102 18.6051 0.0000 0.0000 0.0000
# 3 13.9852 18.6051 88.6611 0.0000 0.0000 0.0000
# 4 0.0000 0.0000 0.0000 25.7415 0.0000 0.0000
# 5 0.0000 0.0000 0.0000 0.0000 39.1118 0.0000
# 6 0.0000 0.0000 0.0000 0.0000 0.0000 29.1466
#
#
#
# Elastic Compliance Matrix: (Units=1/GPa)
#
#
# Indices 1 2 3 4 5 6 
#
# 1 0.023125 -0.005666 -0.002459 0.000000 0.000000 0.000000
# 2 -0.005666 0.015796 -0.002421 0.000000 0.000000 0.000000
# 3 -0.002459 -0.002421 0.012175 0.000000 0.000000 0.000000
# 4 0.000000 0.000000 0.000000 0.038848 0.000000 0.000000
# 5 0.000000 0.000000 0.000000 0.000000 0.025568 0.000000
# 6 0.000000 0.000000 0.000000 0.000000 0.000000 0.034309
#
#
# Mechanical properties :
#
#
# Convention : Reuss Voigt Hill
#
# Bulk Modulus (GPa) = 33.32857 35.18337 34.25597
# Shear Modulus (GPa) = 27.63747 29.40375 28.52061
#
# Velocity S-wave (km/s) = 3.55220 3.66395 3.60850
# Velocity P-wave (km/s) = 5.66044 5.82774 5.74470
#
# Compressibility (1/GPa) = 0.03000429
#
# Stress axis : x y z
#
# Youngs Moduli (GPa) = 43.24354 63.30581 82.13716
#
# Poissons Ratio (x) = 0.35870 0.20195
# Poissons Ratio (y) = 0.24503 0.19886
# Poissons Ratio (z) = 0.10632 0.15326
#
# Static dielectric constant tensor:
#      x y z
#    x 3.922400 0.000000 0.000000 
#    y 0.000000 3.912530 0.000000 
#    z 0.000000 0.000000 3.775770 
# 
# 
# High freq. dielectric constant tensor:
#      x y z
#    x 1.859440 0.000000 0.000000 
#    y 0.000000 1.855350 0.000000 
#    z 0.000000 0.000000 1.860890 
# 
# From -- ./inp_files/10128.got.cif
#   From: 2010.03.12/outbox.cif.g09.slc.cpg/sg60_6_cif.got.tgz:10128.got - 2010.04.10 18:46:24.
