data_PCOD8246404
_publ_section_title
;
Structure prediction by ZEFSAII (Michael W. Deem and Ramdas Pophale) SiO2 
 PCOD8246404
Probable space group: P B C N
;
_chemical_formula_sum "Si O2"
_cell_formula_units_Z 64
_cell_length_a 9.208475
_cell_length_b 18.759310
_cell_length_c 18.741767
_cell_angle_alpha 90.000000
_cell_angle_beta 90.000000
_cell_angle_gamma 90.000000
_cell_volume 3237.539740
_symmetry_space_group_name_H-M "P B C N"
_symmetry_group_IT_number 60
_symmetry_cell_setting 'orthorhombic'
loop_
_space_group_symop_operation_xyz
x,y,z
1/2-x,1/2-y,1/2+z
1/2+x,1/2-y,-z
-x,y,1/2-z
-x,-y,-z
1/2+x,1/2+y,1/2-z
1/2-x,1/2+y,z
x,-y,1/2+z
loop_
_atom_site_type_symbol
_atom_site_label
_atom_site_fract_x
_atom_site_fract_y
_atom_site_fract_z
Si Si1 0.327995 0.252244 0.602093
Si Si2 0.343402 0.995738 0.964292
Si Si3 0.162793 0.239531 0.738132
Si Si4 0.860140 0.073229 0.788924
Si Si5 0.360903 0.804209 0.358313
Si Si6 0.166888 0.889377 0.055604
Si Si7 0.666913 0.637247 0.519376
Si Si8 0.113497 0.461957 0.306676
O O1 0.242471 0.277680 0.672510
O O2 0.497762 0.237174 0.615191
O O3 0.253002 0.183529 0.567574
O O4 0.314127 0.320705 0.553165
O O5 0.369346 0.991874 0.878814
O O6 0.247094 0.062459 0.987447
O O7 0.500000 0.000000 0.000000
O O8 0.253894 0.927479 0.991597
O O9 0.149569 0.157170 0.719831
O O10 0.272286 0.246838 0.804562
O O11 0.000000 0.271596 0.750000
O O12 0.839090 0.059610 0.873761
O O13 0.752196 0.028863 0.741495
O O14 0.000000 0.043110 0.750000
O O15 0.243004 0.817349 0.419215
O O16 0.417608 0.878913 0.325336
O O17 0.002085 0.873116 0.035355
O O18 0.000000 0.493003 0.250000
#
# Coordination Sequence:
#
# PCOD8246404 Si02
#       8
#     8   8   8   8   8   8   8   8
#     4  11  21  35  58  88 119 154 193 245 296 348
#     4  11  23  39  60  84 115 154 193 242 303 362
#     4   9  17  31  54  82 113 151 200 248 288 334
#     4   9  16  29  52  81 108 140 189 244 284 324
#     4  10  18  32  55  84 114 149 197 246 293 342
#     4  11  21  37  60  86 120 158 194 241 302 358
#     4  11  23  37  57  88 120 151 193 244 296 355
#     4  10  18  32  55  83 107 137 190 244 283 335
#
# _framework density 19.768097000000001
#
# number of rings (size 3 to 8) (size 9 to 14) (size 15 to 20)
#    0.000    1.750    0.000    9.750    0.000    0.000 
#    0.000    1.250    0.000   12.750    0.000    2.625 
#    0.000    0.000    0.000    0.000    0.000    0.000 
#
# Total GULP energy -793060.720033 kJ/mol
# GULP energy per Si atom -12391.573751 kJ/mol
# Density = 1.972310 g / cm^3
# Si number density = 19.768097 Si / 1000 Ang^3
#
#
#
# Elastic Constant Matrix: (Units=GPa)
#
#
# Indices 1 2 3 4 5 6 
#
# 1 167.1345 31.9919 69.1132 0.0000 0.0000 0.0000
# 2 31.9919 27.1074 25.8407 0.0000 0.0000 0.0000
# 3 69.1132 25.8407 127.0304 0.0000 0.0000 0.0000
# 4 0.0000 0.0000 0.0000 23.6005 0.0000 0.0000
# 5 0.0000 0.0000 0.0000 0.0000 44.7577 0.0000
# 6 0.0000 0.0000 0.0000 0.0000 0.0000 9.7925
#
#
#
# Elastic Compliance Matrix: (Units=1/GPa)
#
#
# Indices 1 2 3 4 5 6 
#
# 1 0.008710 -0.007148 -0.003285 0.000000 0.000000 0.000000
# 2 -0.007148 0.051631 -0.006614 0.000000 0.000000 0.000000
# 3 -0.003285 -0.006614 0.011005 0.000000 0.000000 0.000000
# 4 0.000000 0.000000 0.000000 0.042372 0.000000 0.000000
# 5 0.000000 0.000000 0.000000 0.000000 0.022343 0.000000
# 6 0.000000 0.000000 0.000000 0.000000 0.000000 0.102119
#
#
# Mechanical properties :
#
#
# Convention : Reuss Voigt Hill
#
# Bulk Modulus (GPa) = 26.84384 63.90709 45.37547
# Shear Modulus (GPa) = 17.56298 28.58524 23.07411
#
# Velocity S-wave (km/s) = 2.98392 3.80679 3.42020
# Velocity P-wave (km/s) = 5.04783 7.19172 6.21295
#
# Compressibility (1/GPa) = 0.03725250
#
# Stress axis : x y z
#
# Youngs Moduli (GPa) = 114.81482 19.36813 90.87125
#
# Poissons Ratio (x) = 0.13844 0.29848
# Poissons Ratio (y) = 0.82070 0.60101
# Poissons Ratio (z) = 0.37712 0.12810
#
# Static dielectric constant tensor:
#      x y z
#    x 3.813300 0.000000 0.000000 
#    y 0.000000 4.276130 0.000000 
#    z 0.000000 0.000000 3.967810 
# 
# 
# High freq. dielectric constant tensor:
#      x y z
#    x 1.799780 0.000000 0.000000 
#    y 0.000000 1.711570 0.000000 
#    z 0.000000 0.000000 1.787600 
# 
# From -- ./inp_files/19712.got.cif
#   From: 2010.03.12/outbox.cif.g09.slc.cpg/sg60_10_cif.got.tgz:19712.got - 2010.04.10 18:46:24.
