data_PCOD8246395
_publ_section_title
;
Structure prediction by ZEFSAII (Michael W. Deem and Ramdas Pophale) SiO2 
 PCOD8246395
Probable space group: P B C N
;
_chemical_formula_sum "Si O2"
_cell_formula_units_Z 52
_cell_length_a 8.744045
_cell_length_b 17.104140
_cell_length_c 18.462198
_cell_angle_alpha 90.000000
_cell_angle_beta 90.000000
_cell_angle_gamma 90.000000
_cell_volume 2761.194699
_symmetry_space_group_name_H-M "P B C N"
_symmetry_group_IT_number 60
_symmetry_cell_setting 'orthorhombic'
loop_
_space_group_symop_operation_xyz
x,y,z
1/2-x,1/2-y,1/2+z
1/2+x,1/2-y,-z
-x,y,1/2-z
-x,-y,-z
1/2+x,1/2+y,1/2-z
1/2-x,1/2+y,z
x,-y,1/2+z
loop_
_atom_site_type_symbol
_atom_site_label
_atom_site_fract_x
_atom_site_fract_y
_atom_site_fract_z
Si Si1 0.790196 0.747874 0.367182
Si Si2 0.444032 0.114797 0.041607
Si Si3 0.575955 0.356257 0.483776
Si Si4 0.184348 0.124506 0.876907
Si Si5 0.463534 0.224628 0.909919
Si Si6 0.000000 0.189495 0.750000
Si Si7 0.223320 0.515907 0.454581
O O1 0.849235 0.666134 0.400868
O O2 0.824031 0.820522 0.419387
O O3 0.606538 0.753745 0.357707
O O4 0.873835 0.756645 0.289765
O O5 0.598270 0.077844 0.074879
O O6 0.507304 0.167309 0.975791
O O7 0.339763 0.043992 0.014622
O O8 0.401467 0.356894 0.453523
O O9 0.591807 0.305989 0.556469
O O10 0.634413 0.442095 0.505874
O O11 0.326077 0.183944 0.865661
O O12 0.077431 0.132402 0.807799
O O13 0.231633 0.033564 0.882900
#
# Coordination Sequence:
#
# PCOD8246395 Si02
#       7
#     8   8   8   8   8   4   8
#     4  10  20  36  58  78 117 147 197 232 277 343
#     4   9  19  32  57  93 118 140 178 242 306 343
#     4  10  18  31  58  91 114 143 174 244 293 338
#     4  10  22  35  55  82 118 151 193 229 286 347
#     4  10  18  33  58  90 106 144 187 242 292 339
#     4  10  24  40  56  74 110 164 202 230 268 342
#     4  10  18  32  58  89 121 140 180 239 309 340
#
# _framework density 18.832428
#
# number of rings (size 3 to 8) (size 9 to 14) (size 15 to 20)
#    0.000    2.154    1.538    3.231    4.308    0.615 
#    0.000    0.000   10.154    0.000    0.000    0.000 
#    0.000    0.000    0.000    0.000    0.000    0.000 
#
# Total GULP energy -644477.458977 kJ/mol
# GULP energy per Si atom -12393.797288 kJ/mol
# Density = 1.878956 g / cm^3
# Si number density = 18.832428 Si / 1000 Ang^3
#
#
#
# Elastic Constant Matrix: (Units=GPa)
#
#
# Indices 1 2 3 4 5 6 
#
# 1 123.4118 53.3568 44.7208 0.0000 0.0000 0.0000
# 2 53.3568 105.2869 35.5786 0.0000 0.0000 0.0000
# 3 44.7208 35.5786 72.8523 0.0000 0.0000 0.0000
# 4 0.0000 0.0000 0.0000 16.9195 0.0000 0.0000
# 5 0.0000 0.0000 0.0000 0.0000 24.0459 0.0000
# 6 0.0000 0.0000 0.0000 0.0000 0.0000 37.8744
#
#
#
# Elastic Compliance Matrix: (Units=1/GPa)
#
#
# Indices 1 2 3 4 5 6 
#
# 1 0.011812 -0.004235 -0.005183 0.000000 0.000000 0.000000
# 2 -0.004235 0.012893 -0.003697 0.000000 0.000000 0.000000
# 3 -0.005183 -0.003697 0.018713 0.000000 0.000000 0.000000
# 4 0.000000 0.000000 0.000000 0.059103 0.000000 0.000000
# 5 0.000000 0.000000 0.000000 0.000000 0.041587 0.000000
# 6 0.000000 0.000000 0.000000 0.000000 0.000000 0.026403
#
#
# Mechanical properties :
#
#
# Convention : Reuss Voigt Hill
#
# Bulk Modulus (GPa) = 58.17515 63.20702 60.69109
# Shear Modulus (GPa) = 24.69492 26.96095 25.82794
#
# Velocity S-wave (km/s) = 3.62511 3.78779 3.70734
# Velocity P-wave (km/s) = 6.96275 7.26399 7.11496
#
# Compressibility (1/GPa) = 0.01718947
#
# Stress axis : x y z
#
# Youngs Moduli (GPa) = 84.66085 77.56031 53.43759
#
# Poissons Ratio (x) = 0.32844 0.27695
# Poissons Ratio (y) = 0.35850 0.19757
# Poissons Ratio (z) = 0.43877 0.28675
#
# Static dielectric constant tensor:
#      x y z
#    x 3.682850 0.000000 0.000000 
#    y 0.000000 3.650000 0.000000 
#    z 0.000000 0.000000 3.033500 
# 
# 
# High freq. dielectric constant tensor:
#      x y z
#    x 1.750580 0.000000 0.000000 
#    y 0.000000 1.734390 0.000000 
#    z 0.000000 0.000000 1.678960 
# 
# From -- ./inp_files/19528.got.cif
#   From: 2010.03.12/outbox.cif.g09.slc.cpg/sg60_10_cif.got.tgz:19528.got - 2010.04.10 18:46:24.
