data_PCOD8246669
_publ_section_title
;
Structure prediction by ZEFSAII (Michael W. Deem and Ramdas Pophale) SiO2 
 PCOD8246669
Probable space group: P B C N
;
_chemical_formula_sum "Si O2"
_cell_formula_units_Z 56
_cell_length_a 17.911816
_cell_length_b 12.816610
_cell_length_c 13.174875
_cell_angle_alpha 90.000000
_cell_angle_beta 90.000000
_cell_angle_gamma 90.000000
_cell_volume 3024.539718
_symmetry_space_group_name_H-M "P B C N"
_symmetry_group_IT_number 60
_symmetry_cell_setting 'orthorhombic'
loop_
_space_group_symop_operation_xyz
x,y,z
1/2-x,1/2-y,1/2+z
1/2+x,1/2-y,-z
-x,y,1/2-z
-x,-y,-z
1/2+x,1/2+y,1/2-z
1/2-x,1/2+y,z
x,-y,1/2+z
loop_
_atom_site_type_symbol
_atom_site_label
_atom_site_fract_x
_atom_site_fract_y
_atom_site_fract_z
Si Si1 0.877088 0.387392 0.894613
Si Si2 0.000000 0.432091 0.750000
Si Si3 0.281240 0.808701 0.318664
Si Si4 0.652103 0.351745 0.818120
Si Si5 0.000000 0.778482 0.750000
Si Si6 0.747358 0.242126 0.967264
Si Si7 0.567242 0.105949 0.614720
Si Si8 0.751506 0.954144 0.358263
O O1 0.819465 0.293692 0.912866
O O2 0.829141 0.490386 0.865277
O O3 0.932926 0.363368 0.799542
O O4 0.929491 0.402842 0.993081
O O5 0.029953 0.502138 0.842292
O O6 0.304898 0.694057 0.279732
O O7 0.234434 0.784173 0.419481
O O8 0.349504 0.884370 0.343711
O O9 0.236397 0.874209 0.235235
O O10 0.564711 0.354035 0.792240
O O11 0.670706 0.271921 0.909720
O O12 0.680302 0.465701 0.849645
O O13 0.022486 0.707612 0.846342
O O14 0.758996 0.116831 0.960322
#
# Coordination Sequence:
#
# PCOD8246669 Si02
#       8
#     8   4   8   8   4   8   8   8
#     4  10  20  34  52  81 109 139 178 221 274 320
#     4  11  18  32  51  80 108 142 169 218 271 330
#     4   9  17  34  53  76 105 135 174 222 271 314
#     4   9  19  33  56  79 102 145 183 221 266 318
#     4   9  18  36  55  78 110 148 189 220 265 326
#     4   9  20  35  52  77 108 140 173 225 273 320
#     4   9  18  31  53  76 108 139 173 222 266 318
#     4  10  19  36  54  78 107 137 186 223 265 331
#
# _framework density 18.515214
#
# number of rings (size 3 to 8) (size 9 to 14) (size 15 to 20)
#    0.000    2.571    1.429    0.429    2.000    3.429 
#    2.571    0.714    0.000   12.000    0.000    0.000 
#    0.000    0.000    0.000    0.000    0.000    0.000 
#
# Total GULP energy -693936.513689 kJ/mol
# GULP energy per Si atom -12391.723459 kJ/mol
# Density = 1.847307 g / cm^3
# Si number density = 18.515214 Si / 1000 Ang^3
#
#
#
# Elastic Constant Matrix: (Units=GPa)
#
#
# Indices 1 2 3 4 5 6 
#
# 1 75.4832 20.4575 39.4991 0.0000 0.0000 0.0000
# 2 20.4575 72.3777 25.7251 0.0000 0.0000 0.0000
# 3 39.4991 25.7251 93.5060 0.0000 0.0000 0.0000
# 4 0.0000 0.0000 0.0000 20.3705 0.0000 0.0000
# 5 0.0000 0.0000 0.0000 0.0000 31.0762 0.0000
# 6 0.0000 0.0000 0.0000 0.0000 0.0000 13.5798
#
#
#
# Elastic Compliance Matrix: (Units=1/GPa)
#
#
# Indices 1 2 3 4 5 6 
#
# 1 0.017425 -0.002559 -0.006657 0.000000 0.000000 0.000000
# 2 -0.002559 0.015690 -0.003235 0.000000 0.000000 0.000000
# 3 -0.006657 -0.003235 0.014397 0.000000 0.000000 0.000000
# 4 0.000000 0.000000 0.000000 0.049091 0.000000 0.000000
# 5 0.000000 0.000000 0.000000 0.000000 0.032179 0.000000
# 6 0.000000 0.000000 0.000000 0.000000 0.000000 0.073639
#
#
# Mechanical properties :
#
#
# Convention : Reuss Voigt Hill
#
# Bulk Modulus (GPa) = 44.23081 45.85891 45.04486
# Shear Modulus (GPa) = 21.28944 23.38431 22.33687
#
# Velocity S-wave (km/s) = 3.39460 3.55770 3.47710
# Velocity P-wave (km/s) = 6.26938 6.45742 6.36410
#
# Compressibility (1/GPa) = 0.02260867
#
# Stress axis : x y z
#
# Youngs Moduli (GPa) = 57.38927 63.73593 69.46119
#
# Poissons Ratio (x) = 0.16311 0.46237
# Poissons Ratio (y) = 0.14687 0.22474
# Poissons Ratio (z) = 0.38202 0.20621
#
# Static dielectric constant tensor:
#      x y z
#    x 3.302540 0.000000 0.000000 
#    y 0.000000 3.236420 0.000000 
#    z 0.000000 0.000000 3.597170 
# 
# 
# High freq. dielectric constant tensor:
#      x y z
#    x 1.701630 0.000000 0.000000 
#    y 0.000000 1.698460 0.000000 
#    z 0.000000 0.000000 1.722640 
# 
# From -- ./inp_files/17523.got.cif
#   From: 2010.03.12/outbox.cif.g09.slc.cpg/sg60_9_cif.got.tgz:17523.got - 2010.04.10 18:46:24.
