data_PCOD8246140
_publ_section_title
;
Structure prediction by ZEFSAII (Michael W. Deem and Ramdas Pophale) SiO2 
 PCOD8246140
Probable space group: P M M N
;
_chemical_formula_sum "Si O2"
_cell_formula_units_Z 64
_cell_length_a 9.663204
_cell_length_b 25.109673
_cell_length_c 18.750558
_cell_angle_alpha 90.000000
_cell_angle_beta 90.000000
_cell_angle_gamma 90.000000
_cell_volume 4549.633379
_symmetry_space_group_name_H-M "P M M N"
_symmetry_group_IT_number 59
_space_group.IT_coordinate_system_code '2'
_symmetry_cell_setting 'orthorhombic'
loop_
_space_group_symop_operation_xyz
x,y,z
1/2-x,1/2-y,z
1/2+x,-y,-z
-x,1/2+y,-z
-x,-y,-z
1/2+x,1/2+y,-z
1/2-x,y,z
x,1/2-y,z
loop_
_atom_site_type_symbol
_atom_site_label
_atom_site_fract_x
_atom_site_fract_y
_atom_site_fract_z
Si Si1 0.914069 0.503737 0.734658
Si Si2 0.407426 0.689400 0.210986
Si Si3 0.595410 0.954429 0.589610
Si Si4 0.585403 0.393836 0.677329
Si Si5 0.412039 0.496451 0.106102
Si Si6 0.909712 0.577885 0.021957
Si Si7 0.590443 0.690538 0.074482
Si Si8 0.095374 0.573648 0.470446
O O1 0.750000 0.501371 0.730254
O O2 0.962346 0.544362 0.671662
O O3 0.975794 0.445425 0.717858
O O4 0.961292 0.520474 0.814296
O O5 0.250000 0.672644 0.191946
O O6 0.416097 0.750000 0.234655
O O7 0.465387 0.657170 0.278691
O O8 0.500671 0.677319 0.143239
O O9 0.750000 0.930368 0.587369
O O10 0.498024 0.917784 0.540516
O O11 0.596154 0.013613 0.558213
O O12 0.750000 0.397957 0.674735
O O13 0.534618 0.390640 0.594906
O O14 0.250000 0.511684 0.105043
O O15 0.495680 0.548533 0.080577
O O16 0.444355 0.445775 0.055973
O O17 0.750000 0.566797 0.041990
O O18 0.939229 0.641875 0.019473
O O19 0.750000 0.690159 0.097662
O O20 0.552484 0.750000 0.043393
O O21 0.250000 0.591167 0.491961
#
# Coordination Sequence:
#
# PCOD8246140 Si02
#       8
#     8   8   8   8   8   8   8   8
#     4   8  13  21  34  50  67  90 116 139 169 208
#     4   9  16  25  38  55  71  89 119 155 180 200
#     4   8  13  21  32  46  64  84 109 139 162 186
#     4   8  13  21  33  49  69  91 113 138 170 206
#     4   9  16  26  40  55  72  96 122 148 181 220
#     4   9  17  27  38  54  74  95 122 152 180 215
#     4   9  17  28  39  51  72 100 123 147 182 217
#     4   8  13  21  32  45  63  88 111 130 160 198
#
# _framework density 14.067067
#
# number of rings (size 3 to 8) (size 9 to 14) (size 15 to 20)
#    0.000    3.500    0.000    2.250    0.000    1.500 
#    0.000    1.250    0.000    4.500    0.000    0.000 
#    0.000    1.000    0.000    3.500    0.000    2.125 
#
# Total GULP energy -792835.212494 kJ/mol
# GULP energy per Si atom -12388.050195 kJ/mol
# Density = 1.403505 g / cm^3
# Si number density = 14.067067 Si / 1000 Ang^3
#
#
#
# Elastic Constant Matrix: (Units=GPa)
#
#
# Indices 1 2 3 4 5 6 
#
# 1 36.4230 22.4990 33.2835 0.0000 0.0000 0.0000
# 2 22.4990 69.8081 45.5011 0.0000 0.0000 0.0000
# 3 33.2835 45.5011 116.2307 0.0000 0.0000 0.0000
# 4 0.0000 0.0000 0.0000 20.6561 0.0000 0.0000
# 5 0.0000 0.0000 0.0000 0.0000 19.2305 0.0000
# 6 0.0000 0.0000 0.0000 0.0000 0.0000 12.6384
#
#
#
# Elastic Compliance Matrix: (Units=1/GPa)
#
#
# Indices 1 2 3 4 5 6 
#
# 1 0.039734 -0.007236 -0.008545 0.000000 0.000000 0.000000
# 2 -0.007236 0.020550 -0.005973 0.000000 0.000000 0.000000
# 3 -0.008545 -0.005973 0.013389 0.000000 0.000000 0.000000
# 4 0.000000 0.000000 0.000000 0.048412 0.000000 0.000000
# 5 0.000000 0.000000 0.000000 0.000000 0.052001 0.000000
# 6 0.000000 0.000000 0.000000 0.000000 0.000000 0.079124
#
#
# Mechanical properties :
#
#
# Convention : Reuss Voigt Hill
#
# Bulk Modulus (GPa) = 33.15180 47.22545 40.18862
# Shear Modulus (GPa) = 16.29873 18.58355 17.44114
#
# Velocity S-wave (km/s) = 3.40758 3.63859 3.52498
# Velocity P-wave (km/s) = 6.25302 7.16219 6.72299
#
# Compressibility (1/GPa) = 0.03016427
#
# Stress axis : x y z
#
# Youngs Moduli (GPa) = 25.16750 48.66119 74.68980
#
# Poissons Ratio (x) = 0.35213 0.63824
# Poissons Ratio (y) = 0.18212 0.44610
# Poissons Ratio (z) = 0.21506 0.29064
#
# Static dielectric constant tensor:
#      x y z
#    x 2.704530 0.000000 0.000000 
#    y 0.000000 2.656510 0.000000 
#    z 0.000000 0.000000 3.011700 
# 
# 
# High freq. dielectric constant tensor:
#      x y z
#    x 1.519370 0.000000 0.000000 
#    y 0.000000 1.500420 0.000000 
#    z 0.000000 0.000000 1.532600 
# 
# From -- ./inp_files/29859.got.cif
#   From: 2010.03.12/outbox.cif.g09.slc.cpg/sg59_15_cif.got.tgz:29859.got - 2010.04.16 16:29:54.
