data_PCOD8246438
_publ_section_title
;
Structure prediction by ZEFSAII (Michael W. Deem and Ramdas Pophale) SiO2 
 PCOD8246438
Probable space group: P B C N
;
_chemical_formula_sum "Si O2"
_cell_formula_units_Z 52
_cell_length_a 9.379213
_cell_length_b 19.475791
_cell_length_c 13.729858
_cell_angle_alpha 90.000000
_cell_angle_beta 90.000000
_cell_angle_gamma 90.000000
_cell_volume 2508.000101
_symmetry_space_group_name_H-M "P B C N"
_symmetry_group_IT_number 60
_symmetry_cell_setting 'orthorhombic'
loop_
_space_group_symop_operation_xyz
x,y,z
1/2-x,1/2-y,1/2+z
1/2+x,1/2-y,-z
-x,y,1/2-z
-x,-y,-z
1/2+x,1/2+y,1/2-z
1/2-x,1/2+y,z
x,-y,1/2+z
loop_
_atom_site_type_symbol
_atom_site_label
_atom_site_fract_x
_atom_site_fract_y
_atom_site_fract_z
Si Si1 0.885831 0.451459 0.401499
Si Si2 0.350612 0.200129 0.377161
Si Si3 0.000000 0.646905 0.750000
Si Si4 0.847560 0.858479 0.461121
Si Si5 0.850555 0.169843 0.490568
Si Si6 0.734467 0.246466 0.814346
Si Si7 0.574045 0.903698 0.933039
O O1 0.994089 0.403816 0.341148
O O2 0.723969 0.422556 0.404546
O O3 0.876512 0.531226 0.365484
O O4 0.949704 0.441407 0.508110
O O5 0.234875 0.157597 0.438459
O O6 0.355043 0.275450 0.422842
O O7 0.314517 0.205140 0.262754
O O8 0.505208 0.161926 0.379200
O O9 0.139039 0.694653 0.749628
O O10 0.842876 0.793894 0.385942
O O11 0.009254 0.876639 0.491097
O O12 0.863580 0.206399 0.384699
O O13 0.709390 0.122922 0.495345
#
# Coordination Sequence:
#
# PCOD8246438 Si02
#       7
#     8   8   4   8   8   8   8
#     4   9  20  38  55  75 104 150 190 219 267 328
#     4  10  19  35  55  80 112 142 182 229 277 332
#     4  10  18  34  58  80 108 144 186 224 270 336
#     4   9  20  35  52  78 111 144 184 226 271 336
#     4  11  21  33  53  84 114 140 180 234 284 326
#     4  10  20  33  56  84 112 147 182 230 289 329
#     4  10  21  36  56  78 109 145 183 228 273 326
#
# _framework density 20.733650999999998
#
# number of rings (size 3 to 8) (size 9 to 14) (size 15 to 20)
#    0.000    2.154    0.000    4.615    0.000    4.308 
#    0.000    0.000    0.000    0.000    0.000    4.308 
#    0.000    0.000    0.000    0.000    0.000    0.154 
#
# Total GULP energy -644224.086545 kJ/mol
# GULP energy per Si atom -12388.924741 kJ/mol
# Density = 2.068646 g / cm^3
# Si number density = 20.733651 Si / 1000 Ang^3
#
#
#
# Elastic Constant Matrix: (Units=GPa)
#
#
# Indices 1 2 3 4 5 6 
#
# 1 127.9340 42.4829 26.5840 0.0000 0.0000 0.0000
# 2 42.4829 111.0991 20.6188 0.0000 0.0000 0.0000
# 3 26.5840 20.6188 86.8524 0.0000 0.0000 0.0000
# 4 0.0000 0.0000 0.0000 15.5036 0.0000 0.0000
# 5 0.0000 0.0000 0.0000 0.0000 27.0385 0.0000
# 6 0.0000 0.0000 0.0000 0.0000 0.0000 11.8553
#
#
#
# Elastic Compliance Matrix: (Units=1/GPa)
#
#
# Indices 1 2 3 4 5 6 
#
# 1 0.009304 -0.003169 -0.002096 0.000000 0.000000 0.000000
# 2 -0.003169 0.010495 -0.001522 0.000000 0.000000 0.000000
# 3 -0.002096 -0.001522 0.012516 0.000000 0.000000 0.000000
# 4 0.000000 0.000000 0.000000 0.064501 0.000000 0.000000
# 5 0.000000 0.000000 0.000000 0.000000 0.036984 0.000000
# 6 0.000000 0.000000 0.000000 0.000000 0.000000 0.084351
#
#
# Mechanical properties :
#
#
# Convention : Reuss Voigt Hill
#
# Bulk Modulus (GPa) = 53.35139 56.13964 54.74552
# Shear Modulus (GPa) = 21.01087 26.62612 23.81849
#
# Velocity S-wave (km/s) = 3.18680 3.58746 3.39305
# Velocity P-wave (km/s) = 6.27125 6.65546 6.46621
#
# Compressibility (1/GPa) = 0.01874365
#
# Stress axis : x y z
#
# Youngs Moduli (GPa) = 107.47744 95.28242 79.89497
#
# Poissons Ratio (x) = 0.30194 0.16743
# Poissons Ratio (y) = 0.34059 0.12157
# Poissons Ratio (z) = 0.22523 0.14498
#
# Static dielectric constant tensor:
#      x y z
#    x 3.684230 0.000000 0.000000 
#    y 0.000000 3.923930 0.000000 
#    z 0.000000 0.000000 3.578220 
# 
# 
# High freq. dielectric constant tensor:
#      x y z
#    x 1.806870 0.000000 0.000000 
#    y 0.000000 1.801350 0.000000 
#    z 0.000000 0.000000 1.795860 
# 
# From -- ./inp_files/15211.got.cif
#   From: 2010.03.12/outbox.cif.g09.slc.cpg/sg60_8_cif.got.tgz:15211.got - 2010.04.10 18:46:24.
