data_PCOD8246028
_publ_section_title
;
Structure prediction by ZEFSAII (Michael W. Deem and Ramdas Pophale) SiO2 
 PCOD8246028
Probable space group: P M M N
;
_chemical_formula_sum "Si O2"
_cell_formula_units_Z 64
_cell_length_a 9.021321
_cell_length_b 13.788389
_cell_length_c 30.744624
_cell_angle_alpha 90.000000
_cell_angle_beta 90.000000
_cell_angle_gamma 90.000000
_cell_volume 3824.307892
_symmetry_space_group_name_H-M "P M M N"
_symmetry_group_IT_number 59
_space_group.IT_coordinate_system_code '2'
_symmetry_cell_setting 'orthorhombic'
loop_
_space_group_symop_operation_xyz
x,y,z
1/2-x,1/2-y,z
1/2+x,-y,-z
-x,1/2+y,-z
-x,-y,-z
1/2+x,1/2+y,-z
1/2-x,y,z
x,1/2-y,z
loop_
_atom_site_type_symbol
_atom_site_label
_atom_site_fract_x
_atom_site_fract_y
_atom_site_fract_z
Si Si1 0.924345 0.361326 0.616143
Si Si2 0.424891 0.543264 0.935621
Si Si3 0.916120 0.974152 0.681252
Si Si4 0.574717 0.139948 0.246353
Si Si5 0.425956 0.642032 0.850379
Si Si6 0.422802 0.141517 0.986272
Si Si7 0.416197 0.360281 0.402644
Si Si8 0.424323 0.483712 0.545961
O O1 0.750000 0.378014 0.608106
O O2 0.962037 0.250000 0.627120
O O3 0.976622 0.428690 0.656705
O O4 0.007704 0.391580 0.571724
O O5 0.250000 0.557108 0.937404
O O6 0.485398 0.567433 0.887148
O O7 0.492214 0.619648 0.969321
O O8 0.471817 0.433531 0.948352
O O9 0.750000 0.993837 0.697943
O O10 0.920459 0.884047 0.648262
O O11 0.013732 0.943678 0.722229
O O12 0.750000 0.136311 0.249386
O O13 0.520923 0.250000 0.257897
O O14 0.518367 0.112351 0.197767
O O15 0.250000 0.642226 0.849805
O O16 0.483600 0.750000 0.861834
O O17 0.250000 0.129942 0.996337
O O18 0.462007 0.250000 0.970339
O O19 0.250000 0.383557 0.420639
O O20 0.458477 0.250000 0.409962
O O21 0.542306 0.419994 0.426883
O O22 0.500000 0.500000 0.500000
O O23 0.250000 0.467965 0.540264
#
# Coordination Sequence:
#
# PCOD8246028 Si02
#       8
#     8   8   8   8   8   8   8   8
#     4   9  19  37  57  73  92 122 159 196 233 272
#     4   9  16  27  44  61  79 112 153 184 215 265
#     4   9  17  30  49  72  94 116 145 182 223 266
#     4   9  17  28  43  65  93 123 150 178 218 266
#     4   8  14  25  41  61  84 112 149 186 215 253
#     4   9  17  27  39  60  88 111 136 180 233 273
#     4   9  18  33  51  70  94 123 153 185 221 263
#     4  11  22  35  51  72  99 127 156 190 227 270
#
# _framework density 16.735053000000001
#
# number of rings (size 3 to 8) (size 9 to 14) (size 15 to 20)
#    0.000    2.875    0.000    3.375    0.000    4.500 
#    0.000    0.625    0.000    1.500    0.000    1.750 
#    0.000    0.000    0.000    0.000    0.000    0.000 
#
# Total GULP energy -793183.571275 kJ/mol
# GULP energy per Si atom -12393.493301 kJ/mol
# Density = 1.669696 g / cm^3
# Si number density = 16.735053 Si / 1000 Ang^3
#
#
#
# Elastic Constant Matrix: (Units=GPa)
#
#
# Indices 1 2 3 4 5 6 
#
# 1 45.5295 29.9960 36.3115 0.0000 0.0000 0.0000
# 2 29.9960 113.5385 63.7257 0.0000 0.0000 0.0000
# 3 36.3115 63.7257 124.7686 0.0000 0.0000 0.0000
# 4 0.0000 0.0000 0.0000 21.5635 0.0000 0.0000
# 5 0.0000 0.0000 0.0000 0.0000 24.0588 0.0000
# 6 0.0000 0.0000 0.0000 0.0000 0.0000 21.6084
#
#
#
# Elastic Compliance Matrix: (Units=1/GPa)
#
#
# Indices 1 2 3 4 5 6 
#
# 1 0.029991 -0.004240 -0.006563 0.000000 0.000000 0.000000
# 2 -0.004240 0.012947 -0.005379 0.000000 0.000000 0.000000
# 3 -0.006563 -0.005379 0.012672 0.000000 0.000000 0.000000
# 4 0.000000 0.000000 0.000000 0.046375 0.000000 0.000000
# 5 0.000000 0.000000 0.000000 0.000000 0.041565 0.000000
# 6 0.000000 0.000000 0.000000 0.000000 0.000000 0.046278
#
#
# Mechanical properties :
#
#
# Convention : Reuss Voigt Hill
#
# Bulk Modulus (GPa) = 43.01602 60.43367 51.72485
# Shear Modulus (GPa) = 21.74490 23.69971 22.72231
#
# Velocity S-wave (km/s) = 3.60858 3.76729 3.68879
# Velocity P-wave (km/s) = 6.56676 7.42386 7.00843
#
# Compressibility (1/GPa) = 0.02324715
#
# Stress axis : x y z
#
# Youngs Moduli (GPa) = 33.34307 77.24077 78.91479
#
# Poissons Ratio (x) = 0.32750 0.51790
# Poissons Ratio (y) = 0.14137 0.42444
# Poissons Ratio (z) = 0.21882 0.41544
#
# Static dielectric constant tensor:
#      x y z
#    x 2.772040 0.000000 0.000000 
#    y 0.000000 3.214800 0.000000 
#    z 0.000000 0.000000 3.289570 
# 
# 
# High freq. dielectric constant tensor:
#      x y z
#    x 1.627670 0.000000 0.000000 
#    y 0.000000 1.638140 0.000000 
#    z 0.000000 0.000000 1.636850 
# 
# From -- ./inp_files/33197.got.cif
#   From: 2010.03.12/outbox.cif.g09.slc.cpg/sg59_17_cif.got.tgz:33197.got - 2010.04.16 16:29:54.
