data_PCOD8246727
_publ_section_title
;
Structure prediction by ZEFSAII (Michael W. Deem and Ramdas Pophale) SiO2 
 PCOD8246727
Probable space group: P B C N
;
_chemical_formula_sum "Si O2"
_cell_formula_units_Z 60
_cell_length_a 8.391678
_cell_length_b 16.229840
_cell_length_c 19.463497
_cell_angle_alpha 90.000000
_cell_angle_beta 90.000000
_cell_angle_gamma 90.000000
_cell_volume 2650.842482
_symmetry_space_group_name_H-M "P B C N"
_symmetry_group_IT_number 60
_symmetry_cell_setting 'orthorhombic'
loop_
_space_group_symop_operation_xyz
x,y,z
1/2-x,1/2-y,1/2+z
1/2+x,1/2-y,-z
-x,y,1/2-z
-x,-y,-z
1/2+x,1/2+y,1/2-z
1/2-x,1/2+y,z
x,-y,1/2+z
loop_
_atom_site_type_symbol
_atom_site_label
_atom_site_fract_x
_atom_site_fract_y
_atom_site_fract_z
Si Si1 0.000000 0.816821 0.250000
Si Si2 0.840508 0.342701 0.211050
Si Si3 0.265700 0.906570 0.434170
Si Si4 0.662771 0.580222 0.084539
Si Si5 0.396954 0.703736 0.041740
Si Si6 0.368255 0.191502 0.148813
Si Si7 0.830244 0.149065 0.226931
Si Si8 0.470129 0.129254 0.478292
O O1 0.833628 0.868593 0.243889
O O2 0.981953 0.762340 0.319531
O O3 0.846593 0.378860 0.135835
O O4 0.847834 0.244537 0.207546
O O5 0.000000 0.375933 0.250000
O O6 0.182426 0.830655 0.472406
O O7 0.417201 0.935431 0.481043
O O8 0.141225 0.981549 0.423021
O O9 0.501808 0.630289 0.073580
O O10 0.730178 0.598802 0.160738
O O11 0.785636 0.605711 0.024280
O O12 0.273286 0.730022 0.101682
O O13 0.494904 0.783591 0.018419
O O14 0.296332 0.138007 0.211590
O O15 0.472563 0.133018 0.100722
O O16 0.000000 0.112538 0.250000
#
# Coordination Sequence:
#
# PCOD8246727 Si02
#       8
#     4   8   8   8   8   8   8   8
#     4  10  20  36  66  96 134 166 228 296 340 390
#     4  10  22  42  66  95 133 176 230 288 339 412
#     4  11  25  42  60  96 140 170 223 286 358 418
#     4  12  23  41  63  97 134 179 218 282 359 417
#     4  11  22  41  69  94 130 178 233 287 340 421
#     4  10  20  37  61  98 124 164 223 289 337 389
#     4  10  19  37  67  89 125 169 230 278 328 409
#     4  11  23  39  67  94 127 171 231 278 341 417
#
# _framework density 22.634312000000001
#
# number of rings (size 3 to 8) (size 9 to 14) (size 15 to 20)
#    0.000    1.333    1.333    6.400    3.733    0.000 
#    3.600    0.000    0.000    0.000    0.000    0.000 
#    0.000    0.000    0.000    0.000    0.000    0.000 
#
# Total GULP energy -743656.764768 kJ/mol
# GULP energy per Si atom -12394.279413 kJ/mol
# Density = 2.258280 g / cm^3
# Si number density = 22.634312 Si / 1000 Ang^3
#
#
#
# Elastic Constant Matrix: (Units=GPa)
#
#
# Indices 1 2 3 4 5 6 
#
# 1 125.8066 5.9292 35.5587 0.0000 0.0000 0.0000
# 2 5.9292 37.9695 22.9188 0.0000 0.0000 0.0000
# 3 35.5587 22.9188 126.6939 0.0000 0.0000 0.0000
# 4 0.0000 0.0000 0.0000 13.7187 0.0000 0.0000
# 5 0.0000 0.0000 0.0000 0.0000 41.4677 0.0000
# 6 0.0000 0.0000 0.0000 0.0000 0.0000 17.7795
#
#
#
# Elastic Compliance Matrix: (Units=1/GPa)
#
#
# Indices 1 2 3 4 5 6 
#
# 1 0.008634 0.000128 -0.002447 0.000000 0.000000 0.000000
# 2 0.000128 0.029567 -0.005385 0.000000 0.000000 0.000000
# 3 -0.002447 -0.005385 0.009554 0.000000 0.000000 0.000000
# 4 0.000000 0.000000 0.000000 0.072893 0.000000 0.000000
# 5 0.000000 0.000000 0.000000 0.000000 0.024115 0.000000
# 6 0.000000 0.000000 0.000000 0.000000 0.000000 0.056244
#
#
# Mechanical properties :
#
#
# Convention : Reuss Voigt Hill
#
# Bulk Modulus (GPa) = 30.91241 46.58705 38.74973
# Shear Modulus (GPa) = 22.00737 29.66408 25.83572
#
# Velocity S-wave (km/s) = 3.12156 3.62412 3.38219
# Velocity P-wave (km/s) = 5.16518 6.17572 5.69292
#
# Compressibility (1/GPa) = 0.03234947
#
# Stress axis : x y z
#
# Youngs Moduli (GPa) = 115.81897 33.82137 104.67050
#
# Poissons Ratio (x) = -0.00435 0.25608
# Poissons Ratio (y) = -0.01488 0.56362
# Poissons Ratio (z) = 0.28336 0.18212
#
# Static dielectric constant tensor:
#      x y z
#    x 4.409850 0.000000 0.000000 
#    y 0.000000 3.564060 0.000000 
#    z 0.000000 0.000000 4.257530 
# 
# 
# High freq. dielectric constant tensor:
#      x y z
#    x 1.908690 0.000000 0.000000 
#    y 0.000000 1.842240 0.000000 
#    z 0.000000 0.000000 1.908150 
# 
# From -- ./inp_files/19567.got.cif
#   From: 2010.03.12/outbox.cif.g09.slc.cpg/sg60_10_cif.got.tgz:19567.got - 2010.04.10 18:46:24.
