data_PCOD8246814
_publ_section_title
;
Structure prediction by ZEFSAII (Michael W. Deem and Ramdas Pophale) SiO2 
 PCOD8246814
Probable space group: P B C N
;
_chemical_formula_sum "Si O2"
_cell_formula_units_Z 60
_cell_length_a 14.585471
_cell_length_b 7.963599
_cell_length_c 25.754168
_cell_angle_alpha 90.000000
_cell_angle_beta 90.000000
_cell_angle_gamma 90.000000
_cell_volume 2991.419814
_symmetry_space_group_name_H-M "P B C N"
_symmetry_group_IT_number 60
_symmetry_cell_setting 'orthorhombic'
loop_
_space_group_symop_operation_xyz
x,y,z
1/2-x,1/2-y,1/2+z
1/2+x,1/2-y,-z
-x,y,1/2-z
-x,-y,-z
1/2+x,1/2+y,1/2-z
1/2-x,1/2+y,z
x,-y,1/2+z
loop_
_atom_site_type_symbol
_atom_site_label
_atom_site_fract_x
_atom_site_fract_y
_atom_site_fract_z
Si Si1 0.711077 0.964831 0.548099
Si Si2 0.119228 0.848138 0.170174
Si Si3 0.659814 0.938011 0.219298
Si Si4 0.154538 0.242596 0.386452
Si Si5 0.000000 0.345418 0.750000
Si Si6 0.490690 0.484908 0.584189
Si Si7 0.281137 0.655880 0.212936
Si Si8 0.877421 0.849215 0.003376
O O1 0.758905 0.874219 0.597834
O O2 0.647353 0.843416 0.514409
O O3 0.646493 0.114695 0.569037
O O4 0.788241 0.034200 0.509185
O O5 0.051226 0.780034 0.212795
O O6 0.205392 0.719596 0.170521
O O7 0.063548 0.873752 0.117143
O O8 0.150618 0.034408 0.184012
O O9 0.678965 0.834935 0.167131
O O10 0.657929 0.811953 0.268258
O O11 0.564308 0.035645 0.215158
O O12 0.738642 0.072665 0.234513
O O13 0.060446 0.134502 0.383044
O O14 0.546117 0.596241 0.543993
O O15 0.417095 0.366919 0.554699
#
# Coordination Sequence:
#
# PCOD8246814 Si02
#       8
#     8   8   8   8   4   8   8   8
#     4   9  19  37  58  81 112 145 191 228 285 344
#     4  10  22  40  56  83 112 154 187 233 278 343
#     4  10  20  36  55  82 113 149 186 237 271 336
#     4  10  20  33  58  86 109 150 187 230 285 337
#     4  10  24  34  56  84 116 146 190 230 294 314
#     4  10  22  36  57  85 116 145 187 238 290 330
#     4   9  21  39  57  77 116 152 194 225 276 340
#     4   9  20  39  57  83 114 144 187 242 281 339
#
# _framework density 20.057365000000001
#
# number of rings (size 3 to 8) (size 9 to 14) (size 15 to 20)
#    0.000    2.400    0.000    0.800    5.600    1.600 
#    4.800    0.000    0.000    0.000    0.000    0.000 
#    0.000    0.000    0.000    0.000    0.000    0.000 
#
# Total GULP energy -743740.741746 kJ/mol
# GULP energy per Si atom -12395.679029 kJ/mol
# Density = 2.001171 g / cm^3
# Si number density = 20.057365 Si / 1000 Ang^3
#
#
#
# Elastic Constant Matrix: (Units=GPa)
#
#
# Indices 1 2 3 4 5 6 
#
# 1 65.1201 26.7592 15.7406 0.0000 0.0000 0.0000
# 2 26.7592 89.6673 10.3614 0.0000 0.0000 0.0000
# 3 15.7406 10.3614 50.0672 0.0000 0.0000 0.0000
# 4 0.0000 0.0000 0.0000 31.2792 0.0000 0.0000
# 5 0.0000 0.0000 0.0000 0.0000 16.3402 0.0000
# 6 0.0000 0.0000 0.0000 0.0000 0.0000 22.5660
#
#
#
# Elastic Compliance Matrix: (Units=1/GPa)
#
#
# Indices 1 2 3 4 5 6 
#
# 1 0.018566 -0.004985 -0.004805 0.000000 0.000000 0.000000
# 2 -0.004985 0.012764 -0.001074 0.000000 0.000000 0.000000
# 3 -0.004805 -0.001074 0.021706 0.000000 0.000000 0.000000
# 4 0.000000 0.000000 0.000000 0.031970 0.000000 0.000000
# 5 0.000000 0.000000 0.000000 0.000000 0.061199 0.000000
# 6 0.000000 0.000000 0.000000 0.000000 0.000000 0.044315
#
#
# Mechanical properties :
#
#
# Convention : Reuss Voigt Hill
#
# Bulk Modulus (GPa) = 31.94183 34.50856 33.22519
# Shear Modulus (GPa) = 22.45316 24.16996 23.31156
#
# Velocity S-wave (km/s) = 3.34944 3.47514 3.41287
# Velocity P-wave (km/s) = 5.56041 5.77446 5.66845
#
# Compressibility (1/GPa) = 0.03130691
#
# Stress axis : x y z
#
# Youngs Moduli (GPa) = 53.86080 78.34376 46.06974
#
# Poissons Ratio (x) = 0.39058 0.22138
# Poissons Ratio (y) = 0.26852 0.04949
# Poissons Ratio (z) = 0.25882 0.08416
#
# Static dielectric constant tensor:
#      x y z
#    x 3.710350 0.000000 0.000000 
#    y 0.000000 3.826430 0.000000 
#    z 0.000000 0.000000 3.353850 
# 
# 
# High freq. dielectric constant tensor:
#      x y z
#    x 1.781480 0.000000 0.000000 
#    y 0.000000 1.797570 0.000000 
#    z 0.000000 0.000000 1.757800 
# 
# From -- ./inp_files/24426.got.cif
#   From: 2010.03.12/outbox.cif.g09.slc.cpg/sg60_13_cif.got.tgz:24426.got - 2010.04.10 18:46:24.
