data_PCOD8246753
_publ_section_title
;
Structure prediction by ZEFSAII (Michael W. Deem and Ramdas Pophale) SiO2 
 PCOD8246753
Probable space group: P B C N
;
_chemical_formula_sum "Si O2"
_cell_formula_units_Z 48
_cell_length_a 16.023549
_cell_length_b 9.466045
_cell_length_c 16.243806
_cell_angle_alpha 90.000000
_cell_angle_beta 90.000000
_cell_angle_gamma 90.000000
_cell_volume 2463.854580
_symmetry_space_group_name_H-M "P B C N"
_symmetry_group_IT_number 60
_symmetry_cell_setting 'orthorhombic'
loop_
_space_group_symop_operation_xyz
x,y,z
1/2-x,1/2-y,1/2+z
1/2+x,1/2-y,-z
-x,y,1/2-z
-x,-y,-z
1/2+x,1/2+y,1/2-z
1/2-x,1/2+y,z
x,-y,1/2+z
loop_
_atom_site_type_symbol
_atom_site_label
_atom_site_fract_x
_atom_site_fract_y
_atom_site_fract_z
Si Si1 0.817598 0.539014 0.070054
Si Si2 0.157378 0.212928 0.436534
Si Si3 0.961353 0.181615 0.924060
Si Si4 0.002986 0.114880 0.154732
Si Si5 0.928846 0.335628 0.442076
Si Si6 0.518450 0.934604 0.659588
O O1 0.807315 0.371027 0.067249
O O2 0.728647 0.604916 0.091920
O O3 0.882904 0.584377 0.141821
O O4 0.844056 0.600291 0.979592
O O5 0.128298 0.179033 0.530405
O O6 0.081577 0.194718 0.372296
O O7 0.965864 0.287606 0.845830
O O8 0.987188 0.026287 0.897495
O O9 0.028381 0.244004 0.986990
O O10 0.080059 0.223584 0.133945
O O11 0.000000 0.077609 0.250000
O O12 0.987354 0.463959 0.413426
O O13 0.500000 0.998326 0.750000
#
# Coordination Sequence:
#
# PCOD8246753 Si02
#       6
#     8   8   8   8   8   8
#     4  11  23  38  60  90 120 156 206 250 305 355
#     4  11  23  39  60  89 120 159 202 253 303 358
#     4  10  20  39  60  88 117 158 208 246 289 366
#     4  11  23  39  64  92 122 161 205 253 308 363
#     4  10  19  39  63  84 112 160 211 242 286 365
#     4  11  20  38  66  88 118 162 205 253 302 367
#
# _framework density 19.481669
#
# number of rings (size 3 to 8) (size 9 to 14) (size 15 to 20)
#    0.000    1.333    5.000    4.000    7.000    0.000 
#    0.000    3.333    0.000    0.000    0.000    0.000 
#    0.000    0.000    0.000    0.000    0.000    0.000 
#
# Total GULP energy -594915.173845 kJ/mol
# GULP energy per Si atom -12394.066122 kJ/mol
# Density = 1.943733 g / cm^3
# Si number density = 19.481669 Si / 1000 Ang^3
#
#
#
# Elastic Constant Matrix: (Units=GPa)
#
#
# Indices 1 2 3 4 5 6 
#
# 1 64.8144 35.5594 29.7866 0.0000 0.0000 0.0000
# 2 35.5594 140.4433 25.1372 0.0000 0.0000 0.0000
# 3 29.7866 25.1372 91.0259 0.0000 0.0000 0.0000
# 4 0.0000 0.0000 0.0000 29.6865 0.0000 0.0000
# 5 0.0000 0.0000 0.0000 0.0000 16.2162 0.0000
# 6 0.0000 0.0000 0.0000 0.0000 0.0000 34.5865
#
#
#
# Elastic Compliance Matrix: (Units=1/GPa)
#
#
# Indices 1 2 3 4 5 6 
#
# 1 0.020214 -0.004139 -0.005472 0.000000 0.000000 0.000000
# 2 -0.004139 0.008338 -0.000948 0.000000 0.000000 0.000000
# 3 -0.005472 -0.000948 0.013038 0.000000 0.000000 0.000000
# 4 0.000000 0.000000 0.000000 0.033685 0.000000 0.000000
# 5 0.000000 0.000000 0.000000 0.000000 0.061667 0.000000
# 6 0.000000 0.000000 0.000000 0.000000 0.000000 0.028913
#
#
# Mechanical properties :
#
#
# Convention : Reuss Voigt Hill
#
# Bulk Modulus (GPa) = 48.84529 53.02778 50.93653
# Shear Modulus (GPa) = 25.80025 29.81788 27.80907
#
# Velocity S-wave (km/s) = 3.64309 3.91648 3.78226
# Velocity P-wave (km/s) = 6.54393 6.90870 6.72879
#
# Compressibility (1/GPa) = 0.02047280
#
# Stress axis : x y z
#
# Youngs Moduli (GPa) = 49.47091 119.93397 76.69735
#
# Poissons Ratio (x) = 0.49637 0.41967
# Poissons Ratio (y) = 0.20474 0.07273
# Poissons Ratio (z) = 0.27069 0.11373
#
# Static dielectric constant tensor:
#      x y z
#    x 3.327100 0.000000 0.000000 
#    y 0.000000 3.918700 0.000000 
#    z 0.000000 0.000000 3.683530 
# 
# 
# High freq. dielectric constant tensor:
#      x y z
#    x 1.720620 0.000000 0.000000 
#    y 0.000000 1.787660 0.000000 
#    z 0.000000 0.000000 1.746230 
# 
# From -- ./inp_files/17326.got.cif
#   From: 2010.03.12/outbox.cif.g09.slc.cpg/sg60_9_cif.got.tgz:17326.got - 2010.04.10 18:46:24.
