data_PCOD8246256
_publ_section_title
;
Structure prediction by ZEFSAII (Michael W. Deem and Ramdas Pophale) SiO2 
 PCOD8246256
Probable space group: P M M N
;
_chemical_formula_sum "Si O2"
_cell_formula_units_Z 64
_cell_length_a 9.000000
_cell_length_b 24.000000
_cell_length_c 15.000000
_cell_angle_alpha 90.000000
_cell_angle_beta 90.000000
_cell_angle_gamma 90.000000
_cell_volume 3240.000000
_symmetry_space_group_name_H-M "P M M N"
_symmetry_group_IT_number 59
_space_group.IT_coordinate_system_code '2'
_symmetry_cell_setting 'orthorhombic'
loop_
_space_group_symop_operation_xyz
x,y,z
1/2-x,1/2-y,z
1/2+x,-y,-z
-x,1/2+y,-z
-x,-y,-z
1/2+x,1/2+y,-z
1/2-x,y,z
x,1/2-y,z
loop_
_atom_site_type_symbol
_atom_site_label
_atom_site_fract_x
_atom_site_fract_y
_atom_site_fract_z
Si Si1 0.421639 0.812099 0.688409
Si Si2 0.574078 0.685543 0.167097
Si Si3 0.582285 0.313004 0.518835
Si Si4 0.923043 0.580585 0.721302
Si Si5 0.426061 0.000399 0.595319
Si Si6 0.924561 0.881030 0.337561
Si Si7 0.417450 0.531557 0.880017
Si Si8 0.418747 0.086404 0.961755
O O1 0.250000 0.825863 0.707051
O O2 0.459482 0.750000 0.723385
O O3 0.458568 0.816057 0.584386
O O4 0.525565 0.855915 0.739813
O O5 0.750000 0.688918 0.175968
O O6 0.512576 0.750000 0.157273
O O7 0.506119 0.653767 0.254211
O O8 0.532515 0.645282 0.083504
O O9 0.750000 0.334083 0.535447
O O10 0.564887 0.250000 0.553505
O O11 0.468832 0.351778 0.570752
O O12 0.750000 0.577920 0.699762
O O13 0.017312 0.556261 0.639790
O O14 0.960149 0.543522 0.806325
O O15 0.250000 0.998469 0.584424
O O16 0.500000 0.000000 0.500000
O O17 0.475633 0.054251 0.654798
O O18 0.750000 0.879229 0.327224
O O19 0.250000 0.548847 0.851519
O O20 0.421456 0.465038 0.892853
O O21 0.461926 0.569844 0.963888
O O22 0.250000 0.092051 0.999914
#
# Coordination Sequence:
#
# PCOD8246256 Si02
#       8
#     8   8   8   8   8   8   8   8
#     4   9  19  37  58  77 102 139 179 222 275 327
#     4   9  17  31  53  80 110 143 177 219 275 334
#     4   9  18  32  50  73 102 138 179 222 268 317
#     4  12  24  37  56  83 112 143 182 225 271 328
#     4  11  23  38  55  79 113 151 191 238 290 338
#     4  10  20  33  51  76 106 143 187 229 269 322
#     4  10  20  36  59  83 109 142 178 223 276 328
#     4   9  18  35  58  83 108 136 177 225 273 331
#
# _framework density 19.753086
#
# number of rings (size 3 to 8) (size 9 to 14) (size 15 to 20)
#    0.000    2.125    0.000    4.500    0.000    7.000 
#    0.000    2.500    0.000    3.375    0.000    0.000 
#    0.000    0.000    0.000    0.000    0.000    0.000 
#
# Total GULP energy -793301.083895 kJ/mol
# GULP energy per Si atom -12395.329436 kJ/mol
# Density = 1.970813 g / cm^3
# Si number density = 19.753086 Si / 1000 Ang^3
#
#
#
# Elastic Constant Matrix: (Units=GPa)
#
#
# Indices 1 2 3 4 5 6 
#
# 1 53.0807 44.8686 22.4044 0.0000 0.0000 0.0000
# 2 44.8686 133.5438 32.4636 0.0000 0.0000 0.0000
# 3 22.4044 32.4636 51.2302 0.0000 0.0000 0.0000
# 4 0.0000 0.0000 0.0000 28.9842 0.0000 0.0000
# 5 0.0000 0.0000 0.0000 0.0000 29.0566 0.0000
# 6 0.0000 0.0000 0.0000 0.0000 0.0000 27.9504
#
#
#
# Elastic Compliance Matrix: (Units=1/GPa)
#
#
# Indices 1 2 3 4 5 6 
#
# 1 0.028608 -0.007767 -0.007589 0.000000 0.000000 0.000000
# 2 -0.007767 0.010960 -0.003549 0.000000 0.000000 0.000000
# 3 -0.007589 -0.003549 0.025087 0.000000 0.000000 0.000000
# 4 0.000000 0.000000 0.000000 0.034502 0.000000 0.000000
# 5 0.000000 0.000000 0.000000 0.000000 0.034416 0.000000
# 6 0.000000 0.000000 0.000000 0.000000 0.000000 0.035778
#
#
# Mechanical properties :
#
#
# Convention : Reuss Voigt Hill
#
# Bulk Modulus (GPa) = 37.24958 48.59201 42.92080
# Shear Modulus (GPa) = 23.13649 26.40612 24.77130
#
# Velocity S-wave (km/s) = 3.42612 3.66021 3.54509
# Velocity P-wave (km/s) = 5.87789 6.52042 6.20748
#
# Compressibility (1/GPa) = 0.02684594
#
# Stress axis : x y z
#
# Youngs Moduli (GPa) = 34.95548 91.23756 39.86051
#
# Poissons Ratio (x) = 0.70863 0.30251
# Poissons Ratio (y) = 0.27149 0.14145
# Poissons Ratio (z) = 0.26529 0.32378
#
# Static dielectric constant tensor:
#      x y z
#    x 3.398120 0.000000 0.000000 
#    y 0.000000 4.201410 0.000000 
#    z 0.000000 0.000000 3.703600 
# 
# 
# High freq. dielectric constant tensor:
#      x y z
#    x 1.750510 0.000000 0.000000 
#    y 0.000000 1.790130 0.000000 
#    z 0.000000 0.000000 1.751370 
# 
# From -- ./inp_files/21605.got.cif
#   From: 2010.03.12/outbox.ucp.g09.slc.cvg/sg59_11_cif.got.tgz:21605.got - 2010.05.04 19:30:51.
