data_PCOD8246134
_publ_section_title
;
Structure prediction by ZEFSAII (Michael W. Deem and Ramdas Pophale) SiO2 
 PCOD8246134
Probable space group: P M M N
;
_chemical_formula_sum "Si O2"
_cell_formula_units_Z 56
_cell_length_a 17.945954
_cell_length_b 9.387247
_cell_length_c 18.212979
_cell_angle_alpha 90.000000
_cell_angle_beta 90.000000
_cell_angle_gamma 90.000000
_cell_volume 3068.214954
_symmetry_space_group_name_H-M "P M M N"
_symmetry_group_IT_number 59
_space_group.IT_coordinate_system_code '2'
_symmetry_cell_setting 'orthorhombic'
loop_
_space_group_symop_operation_xyz
x,y,z
1/2-x,1/2-y,z
1/2+x,-y,-z
-x,1/2+y,-z
-x,-y,-z
1/2+x,1/2+y,-z
1/2-x,y,z
x,1/2-y,z
loop_
_atom_site_type_symbol
_atom_site_label
_atom_site_fract_x
_atom_site_fract_y
_atom_site_fract_z
Si Si1 0.661415 0.409407 0.419783
Si Si2 0.837730 0.914503 0.123660
Si Si3 0.078319 0.578364 1.000000
Si Si4 0.661415 0.090593 0.580218
Si Si5 0.162270 0.414503 0.123660
Si Si6 0.161474 0.092744 0.287908
Si Si7 0.338526 0.092744 0.712091
O O1 0.750000 0.409488 0.413104
O O2 0.630490 0.250000 0.413104
O O3 0.638576 0.472911 0.500000
O O4 0.625755 0.496881 0.352311
O O5 0.750000 0.929289 0.111297
O O6 0.861446 0.750000 0.107705
O O7 0.860664 0.959814 0.206459
O O8 0.878000 0.026906 0.071787
O O9 0.070500 0.750000 1.000000
O O10 0.122000 0.526906 0.071787
O O11 0.000000 0.500000 0.000000
O O12 0.750000 0.090512 0.586897
O O13 0.630490 0.250000 0.586896
O O14 0.625755 0.003119 0.647690
O O15 0.250000 0.429289 0.111297
O O16 0.138554 0.250000 0.107705
O O17 0.139336 0.459813 0.206459
O O18 0.250000 0.094779 0.294007
O O19 0.129343 0.250000 0.300367
O O20 0.250000 0.094780 0.705992
O O21 0.370657 0.250000 0.699633
#
# Coordination Sequence:
#
# PCOD8246134 Si02
#       7
#     8   8   8   8   8   8   8
#     4   8  13  20  30  48  79 118 154 188 228 269
#     4   9  18  34  54  74  99 129 159 196 243 289
#     4  12  25  38  53  73  97 125 159 198 241 290
#     4   8  13  20  30  48  79 118 154 188 228 269
#     4   9  18  34  54  74  99 129 159 196 243 289
#     4   8  14  24  39  60  85 116 153 189 227 273
#     4   8  14  24  39  60  85 116 153 189 227 273
#
# _framework density 18.251653999999998
#
# number of rings (size 3 to 8) (size 9 to 14) (size 15 to 20)
#    0.000    3.143    0.000    4.286    0.000    4.000 
#    0.000    5.714    0.000    0.000    0.000    0.000 
#    0.000    1.143    0.000    3.714    0.000    8.286 
#
# Total GULP energy -693822.408055 kJ/mol
# GULP energy per Si atom -12389.685858 kJ/mol
# Density = 1.821011 g / cm^3
# Si number density = 18.251654 Si / 1000 Ang^3
#
#
#
# Elastic Constant Matrix: (Units=GPa)
#
#
# Indices 1 2 3 4 5 6 
#
# 1 27.4676 30.5366 31.1815 0.0000 0.0000 0.0000
# 2 30.5366 119.5847 96.3509 0.0000 0.0000 0.0000
# 3 31.1815 96.3509 188.8114 0.0000 0.0000 0.0000
# 4 0.0000 0.0000 0.0000 41.1546 0.0000 0.0000
# 5 0.0000 0.0000 0.0000 0.0000 -2.9133 0.0000
# 6 0.0000 0.0000 0.0000 0.0000 0.0000 16.7993
#
#
#
# Elastic Compliance Matrix: (Units=1/GPa)
#
#
# Indices 1 2 3 4 5 6 
#
# 1 0.051865 -0.010772 -0.003069 0.000000 0.000000 0.000000
# 2 -0.010772 0.016438 -0.006610 0.000000 0.000000 0.000000
# 3 -0.003069 -0.006610 0.009176 0.000000 0.000000 0.000000
# 4 0.000000 0.000000 0.000000 0.024299 0.000000 0.000000
# 5 0.000000 0.000000 0.000000 0.000000 -0.343254 0.000000
# 6 0.000000 0.000000 0.000000 0.000000 0.000000 0.059526
#
#
# Mechanical properties :
#
#
# Convention : Reuss Voigt Hill
#
# Bulk Modulus (GPa) = 27.33752 72.44464 49.89108
# Shear Modulus (GPa) = -38.80283 22.86110 -7.97086
#
# Velocity S-wave (km/s) = -4.61585 3.54298 -2.09205
# Velocity P-wave (km/s) = 3.66025 7.51766 4.64315
#
# Compressibility (1/GPa) = 0.03657977
#
# Stress axis : x y z
#
# Youngs Moduli (GPa) = 19.28077 60.83344 108.98059
#
# Poissons Ratio (x) = 0.65528 0.33441
# Poissons Ratio (y) = 0.20769 0.72032
# Poissons Ratio (z) = 0.05916 0.40209
#
# Static dielectric constant tensor:
#      x y z
#    x 2.740540 0.000000 0.000000 
#    y 0.000000 3.565840 0.000000 
#    z 0.000000 0.000000 3.851020 
# 
# 
# High freq. dielectric constant tensor:
#      x y z
#    x 1.636640 0.000000 0.000000 
#    y 0.000000 1.700160 0.000000 
#    z 0.000000 0.000000 1.731890 
# 
# From -- ./inp_files/28088.got.cif
#   From: 2010.03.12/outbox.cif.g09.slc.cpg/sg59_15_cif.got.tgz:28088.got - 2010.04.16 16:29:54.
