data_PCOD8246497
_publ_section_title
;
Structure prediction by ZEFSAII (Michael W. Deem and Ramdas Pophale) SiO2 
 PCOD8246497
Probable space group: P B C N
;
_chemical_formula_sum "Si O2"
_cell_formula_units_Z 44
_cell_length_a 17.674028
_cell_length_b 9.694092
_cell_length_c 12.758245
_cell_angle_alpha 90.000000
_cell_angle_beta 90.000000
_cell_angle_gamma 90.000000
_cell_volume 2185.916727
_symmetry_space_group_name_H-M "P B C N"
_symmetry_group_IT_number 60
_symmetry_cell_setting 'orthorhombic'
loop_
_space_group_symop_operation_xyz
x,y,z
1/2-x,1/2-y,1/2+z
1/2+x,1/2-y,-z
-x,y,1/2-z
-x,-y,-z
1/2+x,1/2+y,1/2-z
1/2-x,1/2+y,z
x,-y,1/2+z
loop_
_atom_site_type_symbol
_atom_site_label
_atom_site_fract_x
_atom_site_fract_y
_atom_site_fract_z
Si Si1 0.427434 0.089929 0.530029
Si Si2 0.000000 0.258118 0.750000
Si Si3 0.181411 0.238415 0.498001
Si Si4 0.351731 0.904077 0.695859
Si Si5 0.486503 0.342699 0.020883
Si Si6 0.289771 0.978817 0.902828
O O1 0.451657 0.249770 0.540636
O O2 0.371149 0.078559 0.433518
O O3 0.500000 0.000000 0.500000
O O4 0.383287 0.036393 0.632221
O O5 0.075864 0.347582 0.757937
O O6 0.006045 0.167642 0.645791
O O7 0.187305 0.291405 0.618562
O O8 0.093625 0.208911 0.476251
O O9 0.215450 0.357334 0.422912
O O10 0.226133 0.098349 0.472214
O O11 0.286019 0.950638 0.777502
O O12 0.500000 0.500000 0.000000
#
# Coordination Sequence:
#
# PCOD8246497 Si02
#       6
#     8   4   8   8   8   8
#     4  11  19  40  67  94 120 167 220 276 316 392
#     4  10  18  38  68  92 122 174 204 276 332 376
#     4  10  25  40  62  95 128 174 215 264 332 397
#     4  10  20  38  69  92 123 172 226 258 337 382
#     4  11  23  42  63 100 133 166 218 280 333 387
#     4  11  22  40  63  91 132 168 217 270 326 403
#
# _framework density 20.128854
#
# number of rings (size 3 to 8) (size 9 to 14) (size 15 to 20)
#    0.000    1.455    7.273    0.000    2.545    2.909 
#    3.273    3.636    0.000    0.000    0.000    0.000 
#    0.000    0.000    0.000    0.000    0.000    0.000 
#
# Total GULP energy -545270.733936 kJ/mol
# GULP energy per Si atom -12392.516680 kJ/mol
# Density = 2.008304 g / cm^3
# Si number density = 20.128854 Si / 1000 Ang^3
#
#
#
# Elastic Constant Matrix: (Units=GPa)
#
#
# Indices 1 2 3 4 5 6 
#
# 1 54.3249 23.7470 32.8054 0.0000 0.0000 0.0000
# 2 23.7470 135.8107 33.1137 0.0000 0.0000 0.0000
# 3 32.8054 33.1137 96.7391 0.0000 0.0000 0.0000
# 4 0.0000 0.0000 0.0000 28.2073 0.0000 0.0000
# 5 0.0000 0.0000 0.0000 0.0000 28.6209 0.0000
# 6 0.0000 0.0000 0.0000 0.0000 0.0000 40.4509
#
#
#
# Elastic Compliance Matrix: (Units=1/GPa)
#
#
# Indices 1 2 3 4 5 6 
#
# 1 0.023843 -0.002398 -0.007265 0.000000 0.000000 0.000000
# 2 -0.002398 0.008275 -0.002019 0.000000 0.000000 0.000000
# 3 -0.007265 -0.002019 0.013492 0.000000 0.000000 0.000000
# 4 0.000000 0.000000 0.000000 0.035452 0.000000 0.000000
# 5 0.000000 0.000000 0.000000 0.000000 0.034940 0.000000
# 6 0.000000 0.000000 0.000000 0.000000 0.000000 0.024721
#
#
# Mechanical properties :
#
#
# Convention : Reuss Voigt Hill
#
# Bulk Modulus (GPa) = 44.95190 51.80077 48.37633
# Shear Modulus (GPa) = 29.15437 32.60306 30.87871
#
# Velocity S-wave (km/s) = 3.80990 4.02894 3.92095
# Velocity P-wave (km/s) = 6.46021 6.88720 6.67712
#
# Compressibility (1/GPa) = 0.02224600
#
# Stress axis : x y z
#
# Youngs Moduli (GPa) = 41.94135 120.84875 74.11892
#
# Poissons Ratio (x) = 0.28976 0.53845
# Poissons Ratio (y) = 0.10056 0.14967
# Poissons Ratio (z) = 0.30469 0.24404
#
# Static dielectric constant tensor:
#      x y z
#    x 3.617160 0.000000 0.000000 
#    y 0.000000 3.355490 0.000000 
#    z 0.000000 0.000000 4.112570 
# 
# 
# High freq. dielectric constant tensor:
#      x y z
#    x 1.780290 0.000000 0.000000 
#    y 0.000000 1.778280 0.000000 
#    z 0.000000 0.000000 1.785370 
# 
# From -- ./inp_files/17262.got.cif
#   From: 2010.03.12/outbox.cif.g09.slc.cpg/sg60_9_cif.got.tgz:17262.got - 2010.04.10 18:46:24.
