data_PCOD8246588
_publ_section_title
;
Structure prediction by ZEFSAII (Michael W. Deem and Ramdas Pophale) SiO2 
 PCOD8246588
Probable space group: P B C N
;
_chemical_formula_sum "Si O2"
_cell_formula_units_Z 40
_cell_length_a 14.473070
_cell_length_b 13.239423
_cell_length_c 9.408435
_cell_angle_alpha 90.000000
_cell_angle_beta 90.000000
_cell_angle_gamma 90.000000
_cell_volume 1802.798174
_symmetry_space_group_name_H-M "P B C N"
_symmetry_group_IT_number 60
_symmetry_cell_setting 'orthorhombic'
loop_
_space_group_symop_operation_xyz
x,y,z
1/2-x,1/2-y,1/2+z
1/2+x,1/2-y,-z
-x,y,1/2-z
-x,-y,-z
1/2+x,1/2+y,1/2-z
1/2-x,1/2+y,z
x,-y,1/2+z
loop_
_atom_site_type_symbol
_atom_site_label
_atom_site_fract_x
_atom_site_fract_y
_atom_site_fract_z
Si Si1 0.891743 0.599230 0.750080
Si Si2 0.375545 0.560172 0.401104
Si Si3 0.841075 0.194431 0.365329
Si Si4 0.518874 0.646013 0.596313
Si Si5 0.800229 0.456101 0.971935
O O1 0.830488 0.696436 0.794294
O O2 0.858578 0.506491 0.846283
O O3 0.874309 0.572360 0.588387
O O4 0.000000 0.623040 0.750000
O O5 0.376801 0.613224 0.248457
O O6 0.421341 0.633741 0.516916
O O7 0.435175 0.461435 0.373656
O O8 0.274727 0.532693 0.460802
O O9 0.912526 0.209977 0.496266
O O10 0.744434 0.149770 0.420693
O O11 0.500000 0.699040 0.750000
#
# Coordination Sequence:
#
# PCOD8246588 Si02
#       5
#     8   8   8   8   8
#     4  12  27  49  71 100 140 192 237 291 349 419
#     4  10  19  37  62  99 142 174 221 276 349 411
#     4  11  24  43  69 106 137 180 231 289 351 418
#     4  10  19  33  64 103 143 176 212 282 353 415
#     4  11  25  45  71 100 139 185 234 291 347 417
#
# _framework density 22.187729999999998
#
# number of rings (size 3 to 8) (size 9 to 14) (size 15 to 20)
#    0.000    1.200    2.000    6.000    5.600    0.000 
#    0.000    5.000    0.000    0.000    0.000    0.000 
#    0.000    0.000    0.000    0.000    0.000    0.000 
#
# Total GULP energy -496033.148011 kJ/mol
# GULP energy per Si atom -12400.828700 kJ/mol
# Density = 2.213723 g / cm^3
# Si number density = 22.187730 Si / 1000 Ang^3
#
#
#
# Elastic Constant Matrix: (Units=GPa)
#
#
# Indices 1 2 3 4 5 6 
#
# 1 77.3665 30.0512 33.5447 0.0000 0.0000 0.0000
# 2 30.0512 64.2275 15.8741 0.0000 0.0000 0.0000
# 3 33.5447 15.8741 126.3221 0.0000 0.0000 0.0000
# 4 0.0000 0.0000 0.0000 9.7201 0.0000 0.0000
# 5 0.0000 0.0000 0.0000 0.0000 38.6537 0.0000
# 6 0.0000 0.0000 0.0000 0.0000 0.0000 14.4153
#
#
#
# Elastic Compliance Matrix: (Units=1/GPa)
#
#
# Indices 1 2 3 4 5 6 
#
# 1 0.017321 -0.007191 -0.003696 0.000000 0.000000 0.000000
# 2 -0.007191 0.019054 -0.000485 0.000000 0.000000 0.000000
# 3 -0.003696 -0.000485 0.008959 0.000000 0.000000 0.000000
# 4 0.000000 0.000000 0.000000 0.102880 0.000000 0.000000
# 5 0.000000 0.000000 0.000000 0.000000 0.025871 0.000000
# 6 0.000000 0.000000 0.000000 0.000000 0.000000 0.069371
#
#
# Mechanical properties :
#
#
# Convention : Reuss Voigt Hill
#
# Bulk Modulus (GPa) = 44.26663 47.42847 45.84755
# Shear Modulus (GPa) = 18.26626 25.12089 21.69357
#
# Velocity S-wave (km/s) = 2.87236 3.36846 3.13026
# Velocity P-wave (km/s) = 5.56730 6.04575 5.81145
#
# Compressibility (1/GPa) = 0.02259038
#
# Stress axis : x y z
#
# Youngs Moduli (GPa) = 57.73304 52.48244 111.62379
#
# Poissons Ratio (x) = 0.37739 0.41256
# Poissons Ratio (y) = 0.41515 0.05412
# Poissons Ratio (z) = 0.21338 0.02545
#
# Static dielectric constant tensor:
#      x y z
#    x 3.934310 0.000000 0.000000 
#    y 0.000000 3.661340 0.000000 
#    z 0.000000 0.000000 4.334130 
# 
# 
# High freq. dielectric constant tensor:
#      x y z
#    x 1.869770 0.000000 0.000000 
#    y 0.000000 1.843870 0.000000 
#    z 0.000000 0.000000 1.897350 
# 
# From -- ./inp_files/5673.got.cif
#   From: 2010.03.12/outbox.cif.g09.slc.cpg/sg60_3_cif.got.tgz:5673.got - 2010.04.10 18:46:24.
