data_PCOD8246060
_publ_section_title
;
Structure prediction by ZEFSAII (Michael W. Deem and Ramdas Pophale) SiO2 
 PCOD8246060
Probable space group: P M M N
;
_chemical_formula_sum "Si O2"
_cell_formula_units_Z 48
_cell_length_a 17.769028
_cell_length_b 8.461656
_cell_length_c 15.387626
_cell_angle_alpha 90.000000
_cell_angle_beta 90.000000
_cell_angle_gamma 90.000000
_cell_volume 2313.612699
_symmetry_space_group_name_H-M "P M M N"
_symmetry_group_IT_number 59
_space_group.IT_coordinate_system_code '2'
_symmetry_cell_setting 'orthorhombic'
loop_
_space_group_symop_operation_xyz
x,y,z
1/2-x,1/2-y,z
1/2+x,-y,-z
-x,1/2+y,-z
-x,-y,-z
1/2+x,1/2+y,-z
1/2-x,y,z
x,1/2-y,z
loop_
_atom_site_type_symbol
_atom_site_label
_atom_site_fract_x
_atom_site_fract_y
_atom_site_fract_z
Si Si1 0.333640 0.437843 0.340449
Si Si2 0.336036 0.566065 0.673906
Si Si3 0.838448 0.432643 0.992230
Si Si4 0.914846 0.933387 0.160441
Si Si5 0.420455 0.436630 0.170260
Si Si6 0.582793 0.934838 0.491519
O O1 0.250000 0.508474 0.328109
O O2 0.329568 0.250000 0.342604
O O3 0.386502 0.493424 0.261897
O O4 0.366800 0.506131 0.430545
O O5 0.250000 0.506428 0.676048
O O6 0.340514 0.750000 0.652492
O O7 0.373891 0.536101 0.766462
O O8 0.381221 0.473548 0.600726
O O9 0.750000 0.450076 0.005799
O O10 0.863552 0.250000 0.992333
O O11 0.860812 0.515148 0.902625
O O12 0.879911 0.525135 0.068212
O O13 0.902478 0.750000 0.181201
O O14 0.002638 0.970943 0.156118
O O15 0.435461 0.250000 0.167923
O O16 0.577853 0.750000 0.502853
O O17 0.500000 0.000000 0.500000
#
# Coordination Sequence:
#
# PCOD8246060 Si02
#       6
#     8   8   8   8   8   8
#     4   9  19  36  59  87 117 152 196 245 295 348
#     4  11  24  42  63  89 123 161 203 254 311 368
#     4  11  24  42  63  89 123 160 200 250 305 359
#     4  12  25  41  63  90 121 158 203 252 304 366
#     4  11  22  39  64  91 122 159 201 249 302 362
#     4  11  22  38  62  90 123 162 205 253 304 361
#
# _framework density 20.746773999999998
#
# number of rings (size 3 to 8) (size 9 to 14) (size 15 to 20)
#    0.000    1.167    0.000    6.500    0.000    7.333 
#    0.000    2.500    0.000    6.000    0.000    0.000 
#    0.000    0.000    0.000    0.000    0.000    0.000 
#
# Total GULP energy -595505.633634 kJ/mol
# GULP energy per Si atom -12406.367367 kJ/mol
# Density = 2.069955 g / cm^3
# Si number density = 20.746774 Si / 1000 Ang^3
#
#
#
# Elastic Constant Matrix: (Units=GPa)
#
#
# Indices 1 2 3 4 5 6 
#
# 1 113.5515 22.0325 20.1096 0.0000 0.0000 0.0000
# 2 22.0325 59.1317 17.6376 0.0000 0.0000 0.0000
# 3 20.1096 17.6376 81.1008 0.0000 0.0000 0.0000
# 4 0.0000 0.0000 0.0000 28.7715 0.0000 0.0000
# 5 0.0000 0.0000 0.0000 0.0000 31.6428 0.0000
# 6 0.0000 0.0000 0.0000 0.0000 0.0000 27.3869
#
#
#
# Elastic Compliance Matrix: (Units=1/GPa)
#
#
# Indices 1 2 3 4 5 6 
#
# 1 0.009716 -0.003103 -0.001734 0.000000 0.000000 0.000000
# 2 -0.003103 0.019075 -0.003379 0.000000 0.000000 0.000000
# 3 -0.001734 -0.003379 0.013495 0.000000 0.000000 0.000000
# 4 0.000000 0.000000 0.000000 0.034757 0.000000 0.000000
# 5 0.000000 0.000000 0.000000 0.000000 0.031603 0.000000
# 6 0.000000 0.000000 0.000000 0.000000 0.000000 0.036514
#
#
# Mechanical properties :
#
#
# Convention : Reuss Voigt Hill
#
# Bulk Modulus (GPa) = 38.67877 41.48262 40.08070
# Shear Modulus (GPa) = 29.37547 30.49386 29.93466
#
# Velocity S-wave (km/s) = 3.76693 3.83797 3.80262
# Velocity P-wave (km/s) = 6.13217 6.29906 6.21617
#
# Compressibility (1/GPa) = 0.02585397
#
# Stress axis : x y z
#
# Youngs Moduli (GPa) = 102.92560 52.42352 74.10007
#
# Poissons Ratio (x) = 0.16266 0.12851
# Poissons Ratio (y) = 0.31936 0.25039
# Poissons Ratio (z) = 0.17851 0.17715
#
# Static dielectric constant tensor:
#      x y z
#    x 4.046030 0.000000 0.000000 
#    y 0.000000 3.684790 0.000000 
#    z 0.000000 0.000000 3.873230 
# 
# 
# High freq. dielectric constant tensor:
#      x y z
#    x 1.830880 0.000000 0.000000 
#    y 0.000000 1.805320 0.000000 
#    z 0.000000 0.000000 1.829930 
# 
# From -- ./inp_files/23661.got.cif
#   From: 2010.03.12/outbox.cif.g09.slc.cpg/sg59_12_cif.got.tgz:23661.got - 2010.04.16 16:29:54.
