data_PCOD8246392
_publ_section_title
;
Structure prediction by ZEFSAII (Michael W. Deem and Ramdas Pophale) SiO2 
 PCOD8246392
Probable space group: P B C N
;
_chemical_formula_sum "Si O2"
_cell_formula_units_Z 60
_cell_length_a 10.955473
_cell_length_b 13.537145
_cell_length_c 19.753130
_cell_angle_alpha 90.000000
_cell_angle_beta 90.000000
_cell_angle_gamma 90.000000
_cell_volume 2929.504271
_symmetry_space_group_name_H-M "P B C N"
_symmetry_group_IT_number 60
_symmetry_cell_setting 'orthorhombic'
loop_
_space_group_symop_operation_xyz
x,y,z
1/2-x,1/2-y,1/2+z
1/2+x,1/2-y,-z
-x,y,1/2-z
-x,-y,-z
1/2+x,1/2+y,1/2-z
1/2-x,1/2+y,z
x,-y,1/2+z
loop_
_atom_site_type_symbol
_atom_site_label
_atom_site_fract_x
_atom_site_fract_y
_atom_site_fract_z
Si Si1 0.175219 0.623944 0.064699
Si Si2 0.661854 0.950657 0.349379
Si Si3 0.404214 0.749415 0.381574
Si Si4 0.579590 0.674634 0.497292
Si Si5 0.648527 0.356380 0.433273
Si Si6 0.066375 0.444659 0.436786
Si Si7 0.500000 0.155693 0.750000
Si Si8 0.696171 0.860671 0.561062
O O1 0.176844 0.569324 0.138145
O O2 0.147586 0.737896 0.073164
O O3 0.303861 0.609580 0.025183
O O4 0.069157 0.564509 0.020049
O O5 0.794683 0.901034 0.364225
O O6 0.562866 0.912656 0.404180
O O7 0.609540 0.917120 0.276388
O O8 0.511397 0.705483 0.428324
O O9 0.349715 0.851001 0.414347
O O10 0.450616 0.769321 0.306057
O O11 0.290963 0.673449 0.380663
O O12 0.489826 0.611183 0.547461
O O13 0.607732 0.771911 0.540762
O O14 0.732976 0.394957 0.493840
O O15 0.122244 0.546492 0.408246
#
# Coordination Sequence:
#
# PCOD8246392 Si02
#       8
#     8   8   8   8   8   8   4   8
#     4  11  19  30  55  86 116 137 179 240 289 332
#     4  11  23  36  55  81 109 154 194 230 270 336
#     4  10  21  37  53  82 112 147 189 225 274 346
#     4  10  19  34  54  89 120 139 175 235 303 344
#     4  10  20  32  54  86 119 141 179 228 296 344
#     4  11  18  31  56  82 111 140 180 232 284 325
#     4  10  22  40  60  70 110 164 198 220 266 340
#     4  10  18  31  55  86 111 140 181 226 288 336
#
# _framework density 20.481282
#
# number of rings (size 3 to 8) (size 9 to 14) (size 15 to 20)
#    0.000    1.600    5.333    4.400    0.000    0.533 
#    0.000    5.333    0.000    0.800    0.000    0.000 
#    0.000    0.000    0.000    0.000    0.000    0.000 
#
# Total GULP energy -743346.543361 kJ/mol
# GULP energy per Si atom -12389.109056 kJ/mol
# Density = 2.043467 g / cm^3
# Si number density = 20.481282 Si / 1000 Ang^3
#
#
#
# Elastic Constant Matrix: (Units=GPa)
#
#
# Indices 1 2 3 4 5 6 
#
# 1 81.5071 12.3171 18.7402 0.0000 0.0000 0.0000
# 2 12.3171 57.5956 14.7845 0.0000 0.0000 0.0000
# 3 18.7402 14.7845 80.4956 0.0000 0.0000 0.0000
# 4 0.0000 0.0000 0.0000 25.7342 0.0000 0.0000
# 5 0.0000 0.0000 0.0000 0.0000 30.8471 0.0000
# 6 0.0000 0.0000 0.0000 0.0000 0.0000 22.2075
#
#
#
# Elastic Compliance Matrix: (Units=1/GPa)
#
#
# Indices 1 2 3 4 5 6 
#
# 1 0.013208 -0.002136 -0.002683 0.000000 0.000000 0.000000
# 2 -0.002136 0.018567 -0.002913 0.000000 0.000000 0.000000
# 3 -0.002683 -0.002913 0.013583 0.000000 0.000000 0.000000
# 4 0.000000 0.000000 0.000000 0.038859 0.000000 0.000000
# 5 0.000000 0.000000 0.000000 0.000000 0.032418 0.000000
# 6 0.000000 0.000000 0.000000 0.000000 0.000000 0.045030
#
#
# Mechanical properties :
#
#
# Convention : Reuss Voigt Hill
#
# Bulk Modulus (GPa) = 33.45075 34.58690 34.01883
# Shear Modulus (GPa) = 26.72469 27.34153 27.03311
#
# Velocity S-wave (km/s) = 3.61617 3.65766 3.63698
# Velocity P-wave (km/s) = 5.81407 5.89591 5.85513
#
# Compressibility (1/GPa) = 0.02989470
#
# Stress axis : x y z
#
# Youngs Moduli (GPa) = 75.70892 53.85912 73.62356
#
# Poissons Ratio (x) = 0.11505 0.19751
# Poissons Ratio (y) = 0.16172 0.21446
# Poissons Ratio (z) = 0.20311 0.15689
#
# Static dielectric constant tensor:
#      x y z
#    x 4.064740 0.000000 0.000000 
#    y 0.000000 3.774090 0.000000 
#    z 0.000000 0.000000 3.320140 
# 
# 
# High freq. dielectric constant tensor:
#      x y z
#    x 1.813920 0.000000 0.000000 
#    y 0.000000 1.808190 0.000000 
#    z 0.000000 0.000000 1.737860 
# 
# From -- ./inp_files/22724.got.cif
#   From: 2010.03.12/outbox.cif.g09.slc.cpg/sg60_12_cif.got.tgz:22724.got - 2010.04.10 18:46:24.
