data_PCOD8246549
_publ_section_title
;
Structure prediction by ZEFSAII (Michael W. Deem and Ramdas Pophale) SiO2 
 PCOD8246549
Probable space group: P B C N
;
_chemical_formula_sum "Si O2"
_cell_formula_units_Z 48
_cell_length_a 5.003428
_cell_length_b 17.373884
_cell_length_c 25.927192
_cell_angle_alpha 90.000000
_cell_angle_beta 90.000000
_cell_angle_gamma 90.000000
_cell_volume 2253.824295
_symmetry_space_group_name_H-M "P B C N"
_symmetry_group_IT_number 60
_symmetry_cell_setting 'orthorhombic'
loop_
_space_group_symop_operation_xyz
x,y,z
1/2-x,1/2-y,1/2+z
1/2+x,1/2-y,-z
-x,y,1/2-z
-x,-y,-z
1/2+x,1/2+y,1/2-z
1/2-x,1/2+y,z
x,-y,1/2+z
loop_
_atom_site_type_symbol
_atom_site_label
_atom_site_fract_x
_atom_site_fract_y
_atom_site_fract_z
Si Si1 0.397720 0.792654 0.982597
Si Si2 0.965786 0.739483 0.371517
Si Si3 0.057891 0.242097 0.305861
Si Si4 0.245545 0.043328 0.522660
Si Si5 0.467414 0.416014 0.129898
Si Si6 0.539413 0.918698 0.194419
O O1 0.506129 0.807380 0.924786
O O2 0.652624 0.768306 0.017322
O O3 0.269372 0.868526 0.006690
O O4 0.178219 0.704774 0.330876
O O5 0.024954 0.828144 0.386765
O O6 0.676273 0.728284 0.346907
O O7 0.000000 0.203571 0.250000
O O8 0.132623 0.331044 0.296501
O O9 0.178345 0.038313 0.583575
O O10 0.500000 0.000000 0.500000
O O11 0.000000 0.000000 0.500000
O O12 0.742609 0.454126 0.153532
O O13 0.260584 0.419387 0.175627
O O14 0.500000 0.960931 0.250000
#
# Coordination Sequence:
#
# PCOD8246549 Si02
#       6
#     8   8   8   8   8   8
#     4  12  24  40  64  89 120 161 213 253 302 366
#     4  10  19  32  55  83 113 153 200 244 297 360
#     4   9  17  29  48  81 120 149 183 240 312 364
#     4  12  26  42  60  89 126 169 208 256 313 369
#     4  10  19  34  54  81 118 154 194 245 306 358
#     4   9  17  29  51  82 115 148 190 242 306 365
#
# _framework density 21.297135000000001
#
# number of rings (size 3 to 8) (size 9 to 14) (size 15 to 20)
#    0.000    1.667    1.667    4.000    4.667    4.000 
#    0.000    0.000    0.000    0.000    0.000   23.333 
#    0.000    0.000    0.000    0.000    0.000    0.000 
#
# Total GULP energy -594726.557475 kJ/mol
# GULP energy per Si atom -12390.136614 kJ/mol
# Density = 2.124866 g / cm^3
# Si number density = 21.297135 Si / 1000 Ang^3
#
#
#
# Elastic Constant Matrix: (Units=GPa)
#
#
# Indices 1 2 3 4 5 6 
#
# 1 133.3908 19.7947 37.6856 0.0000 0.0000 0.0000
# 2 19.7947 28.5882 22.0173 0.0000 0.0000 0.0000
# 3 37.6856 22.0173 142.8514 0.0000 0.0000 0.0000
# 4 0.0000 0.0000 0.0000 13.8756 0.0000 0.0000
# 5 0.0000 0.0000 0.0000 0.0000 44.5701 0.0000
# 6 0.0000 0.0000 0.0000 0.0000 0.0000 23.3903
#
#
#
# Elastic Compliance Matrix: (Units=1/GPa)
#
#
# Indices 1 2 3 4 5 6 
#
# 1 0.008644 -0.004799 -0.001541 0.000000 0.000000 0.000000
# 2 -0.004799 0.042355 -0.005262 0.000000 0.000000 0.000000
# 3 -0.001541 -0.005262 0.008218 0.000000 0.000000 0.000000
# 4 0.000000 0.000000 0.000000 0.072069 0.000000 0.000000
# 5 0.000000 0.000000 0.000000 0.000000 0.022437 0.000000
# 6 0.000000 0.000000 0.000000 0.000000 0.000000 0.042753
#
#
# Mechanical properties :
#
#
# Convention : Reuss Voigt Hill
#
# Bulk Modulus (GPa) = 27.76732 51.53619 39.65175
# Shear Modulus (GPa) = 21.58127 31.38940 26.48534
#
# Velocity S-wave (km/s) = 3.18676 3.84328 3.53031
# Velocity P-wave (km/s) = 5.15819 6.62914 5.93938
#
# Compressibility (1/GPa) = 0.03601356
#
# Stress axis : x y z
#
# Youngs Moduli (GPa) = 115.68476 23.61016 121.68714
#
# Poissons Ratio (x) = 0.11330 0.18750
# Poissons Ratio (y) = 0.55513 0.64033
# Poissons Ratio (z) = 0.17825 0.12424
#
# Static dielectric constant tensor:
#      x y z
#    x 3.981840 0.000000 0.000000 
#    y 0.000000 3.280030 0.000000 
#    z 0.000000 0.000000 4.129600 
# 
# 
# High freq. dielectric constant tensor:
#      x y z
#    x 1.860280 0.000000 0.000000 
#    y 0.000000 1.755720 0.000000 
#    z 0.000000 0.000000 1.857020 
# 
# From -- ./inp_files/23614.got.cif
#   From: 2010.03.12/outbox.cif.g09.slc.cpg/sg60_12_cif.got.tgz:23614.got - 2010.04.10 18:46:24.
