data_PCOD8246052
_publ_section_title
;
Structure prediction by ZEFSAII (Michael W. Deem and Ramdas Pophale) SiO2 
 PCOD8246052
Probable space group: P M M N
;
_chemical_formula_sum "Si O2"
_cell_formula_units_Z 64
_cell_length_a 23.332615
_cell_length_b 13.559625
_cell_length_c 10.150196
_cell_angle_alpha 90.000000
_cell_angle_beta 90.000000
_cell_angle_gamma 90.000000
_cell_volume 3211.334334
_symmetry_space_group_name_H-M "P M M N"
_symmetry_group_IT_number 59
_space_group.IT_coordinate_system_code '2'
_symmetry_cell_setting 'orthorhombic'
loop_
_space_group_symop_operation_xyz
x,y,z
1/2-x,1/2-y,z
1/2+x,-y,-z
-x,1/2+y,-z
-x,-y,-z
1/2+x,1/2+y,-z
1/2-x,y,z
x,1/2-y,z
loop_
_atom_site_type_symbol
_atom_site_label
_atom_site_fract_x
_atom_site_fract_y
_atom_site_fract_z
Si Si1 0.858863 0.634397 0.865050
Si Si2 0.479021 0.134260 0.228879
Si Si3 0.640767 0.634330 0.366967
Si Si4 0.104869 0.636459 0.781624
Si Si5 0.103553 0.863992 0.470797
Si Si6 0.183400 0.471730 0.881689
Si Si7 0.815067 0.972173 0.612737
Si Si8 0.023779 0.133372 0.519211
O O1 0.846954 0.750000 0.887374
O O2 0.835169 0.604894 0.722774
O O3 0.927293 0.610794 0.871637
O O4 0.826652 0.570645 0.973518
O O5 0.486207 0.250000 0.250367
O O6 0.541079 0.097153 0.178051
O O7 0.464171 0.090097 0.373099
O O8 0.645660 0.750000 0.389473
O O9 0.660272 0.608962 0.220586
O O10 0.681322 0.581308 0.471948
O O11 0.575017 0.595718 0.386443
O O12 0.113609 0.750000 0.821489
O O13 0.114971 0.621139 0.626084
O O14 0.150869 0.574869 0.864009
O O15 0.112115 0.750000 0.431390
O O16 0.039188 0.901410 0.434176
O O17 0.147493 0.928062 0.385125
O O18 0.250000 0.491942 0.859557
O O19 0.750000 0.004120 0.638585
O O20 0.023902 0.250000 0.516443
#
# Coordination Sequence:
#
# PCOD8246052 Si02
#       8
#     8   8   8   8   8   8   8   8
#     4  11  24  43  63  83 117 162 200 245 300 350
#     4   8  15  33  61  90 115 145 192 241 296 361
#     4  11  22  37  58  86 118 149 192 254 298 334
#     4   9  19  38  64  91 121 153 189 244 303 352
#     4   9  19  37  62  92 124 153 185 242 308 356
#     4  12  26  41  57  85 120 162 209 238 284 358
#     4  12  24  37  58  89 115 153 209 242 280 353
#     4   8  15  32  59  90 118 147 188 238 302 362
#
# _framework density 19.929410000000001
#
# number of rings (size 3 to 8) (size 9 to 14) (size 15 to 20)
#    0.000    2.000    2.500    3.000    0.000    5.500 
#    0.000    1.875    0.000    4.500    0.000    0.000 
#    0.000    0.000    0.000    0.000    0.000    0.000 
#
# Total GULP energy -793493.345727 kJ/mol
# GULP energy per Si atom -12398.333527 kJ/mol
# Density = 1.988405 g / cm^3
# Si number density = 19.929410 Si / 1000 Ang^3
#
#
#
# Elastic Constant Matrix: (Units=GPa)
#
#
# Indices 1 2 3 4 5 6 
#
# 1 145.9204 37.1795 27.7748 0.0000 0.0000 0.0000
# 2 37.1795 54.6968 31.8009 0.0000 0.0000 0.0000
# 3 27.7748 31.8009 46.0815 0.0000 0.0000 0.0000
# 4 0.0000 0.0000 0.0000 28.2021 0.0000 0.0000
# 5 0.0000 0.0000 0.0000 0.0000 19.4313 0.0000
# 6 0.0000 0.0000 0.0000 0.0000 0.0000 22.5057
#
#
#
# Elastic Compliance Matrix: (Units=1/GPa)
#
#
# Indices 1 2 3 4 5 6 
#
# 1 0.008384 -0.004611 -0.001871 0.000000 0.000000 0.000000
# 2 -0.004611 0.033069 -0.020042 0.000000 0.000000 0.000000
# 3 -0.001871 -0.020042 0.036660 0.000000 0.000000 0.000000
# 4 0.000000 0.000000 0.000000 0.035458 0.000000 0.000000
# 5 0.000000 0.000000 0.000000 0.000000 0.051463 0.000000
# 6 0.000000 0.000000 0.000000 0.000000 0.000000 0.044433
#
#
# Mechanical properties :
#
#
# Convention : Reuss Voigt Hill
#
# Bulk Modulus (GPa) = 39.89719 48.91213 44.40466
# Shear Modulus (GPa) = 18.45895 24.02406 21.24150
#
# Velocity S-wave (km/s) = 3.04668 3.47574 3.26826
# Velocity P-wave (km/s) = 5.69553 6.37994 6.04743
#
# Compressibility (1/GPa) = 0.02506442
#
# Stress axis : x y z
#
# Youngs Moduli (GPa) = 119.27343 30.23947 27.27800
#
# Poissons Ratio (x) = 0.13943 0.05105
# Poissons Ratio (y) = 0.54997 0.54671
# Poissons Ratio (z) = 0.22320 0.60606
#
# Static dielectric constant tensor:
#      x y z
#    x 3.931480 0.000000 0.000000 
#    y 0.000000 3.557210 0.000000 
#    z 0.000000 0.000000 3.283070 
# 
# 
# High freq. dielectric constant tensor:
#      x y z
#    x 1.789300 0.000000 0.000000 
#    y 0.000000 1.780660 0.000000 
#    z 0.000000 0.000000 1.740470 
# 
# From -- ./inp_files/12218.got.cif
#   From: 2010.03.12/outbox.cif.g09.slc.cpg/sg59_7_cif.got.tgz:12218.got - 2010.04.16 16:29:54.
