data_PCOD8246889
_publ_section_title
;
Structure prediction by ZEFSAII (Michael W. Deem and Ramdas Pophale) SiO2 
 PCOD8246889
Probable space group: P B C N
;
_chemical_formula_sum "Si O2"
_cell_formula_units_Z 48
_cell_length_a 13.688451
_cell_length_b 14.674814
_cell_length_c 11.941362
_cell_angle_alpha 90.000000
_cell_angle_beta 90.000000
_cell_angle_gamma 90.000000
_cell_volume 2398.726733
_symmetry_space_group_name_H-M "P B C N"
_symmetry_group_IT_number 60
_symmetry_cell_setting 'orthorhombic'
loop_
_space_group_symop_operation_xyz
x,y,z
1/2-x,1/2-y,1/2+z
1/2+x,1/2-y,-z
-x,y,1/2-z
-x,-y,-z
1/2+x,1/2+y,1/2-z
1/2-x,1/2+y,z
x,-y,1/2+z
loop_
_atom_site_type_symbol
_atom_site_label
_atom_site_fract_x
_atom_site_fract_y
_atom_site_fract_z
Si Si1 0.926314 0.592237 0.433378
Si Si2 0.744109 0.028542 0.304015
Si Si3 0.065974 0.235302 0.419473
Si Si4 0.266375 0.656111 0.557715
Si Si5 0.868822 0.438700 0.595813
Si Si6 0.137782 0.199238 0.177759
O O1 0.834462 0.602116 0.351749
O O2 0.932523 0.663167 0.533811
O O3 0.902599 0.494684 0.487506
O O4 0.025921 0.595579 0.358184
O O5 0.698120 0.003735 0.182449
O O6 0.839946 0.091941 0.302064
O O7 0.769042 0.935816 0.368111
O O8 0.124839 0.172998 0.508983
O O9 0.114786 0.242220 0.297998
O O10 0.954681 0.200990 0.406498
O O11 0.195987 0.644740 0.450306
O O12 0.227511 0.742269 0.627636
#
# Coordination Sequence:
#
# PCOD8246889 Si02
#       6
#     8   8   8   8   8   8
#     4  10  20  35  62  90 119 155 196 259 306 356
#     4  11  22  37  61  87 123 162 200 246 306 365
#     4  11  22  39  62  88 122 158 209 247 308 371
#     4  11  22  39  61  87 120 160 202 249 307 368
#     4  10  20  37  58  90 121 152 198 253 311 357
#     4  11  23  39  62  88 120 163 203 255 305 367
#
# _framework density 20.010617
#
# number of rings (size 3 to 8) (size 9 to 14) (size 15 to 20)
#    0.000    1.333    5.000    1.500    0.000    0.667 
#    0.000    0.000    0.000    0.000    0.000    0.000 
#    0.000    0.000    0.000    0.000    0.000    0.000 
#
# Total GULP energy -594653.230450 kJ/mol
# GULP energy per Si atom -12388.608968 kJ/mol
# Density = 1.996507 g / cm^3
# Si number density = 20.010617 Si / 1000 Ang^3
#
#
#
# Elastic Constant Matrix: (Units=GPa)
#
#
# Indices 1 2 3 4 5 6 
#
# 1 76.8434 36.5161 16.0597 0.0000 0.0000 0.0000
# 2 36.5161 81.0468 16.0226 0.0000 0.0000 0.0000
# 3 16.0597 16.0226 55.9062 0.0000 0.0000 0.0000
# 4 0.0000 0.0000 0.0000 31.4298 0.0000 0.0000
# 5 0.0000 0.0000 0.0000 0.0000 43.7589 0.0000
# 6 0.0000 0.0000 0.0000 0.0000 0.0000 25.2367
#
#
#
# Elastic Compliance Matrix: (Units=1/GPa)
#
#
# Indices 1 2 3 4 5 6 
#
# 1 0.016975 -0.007086 -0.002846 0.000000 0.000000 0.000000
# 2 -0.007086 0.016037 -0.002561 0.000000 0.000000 0.000000
# 3 -0.002846 -0.002561 0.019438 0.000000 0.000000 0.000000
# 4 0.000000 0.000000 0.000000 0.031817 0.000000 0.000000
# 5 0.000000 0.000000 0.000000 0.000000 0.022853 0.000000
# 6 0.000000 0.000000 0.000000 0.000000 0.000000 0.039625
#
#
# Mechanical properties :
#
#
# Convention : Reuss Voigt Hill
#
# Bulk Modulus (GPa) = 36.40756 38.99923 37.70339
# Shear Modulus (GPa) = 27.64181 29.76494 28.70337
#
# Velocity S-wave (km/s) = 3.72069 3.86094 3.79147
# Velocity P-wave (km/s) = 6.05737 6.27753 6.16843
#
# Compressibility (1/GPa) = 0.02746682
#
# Stress axis : x y z
#
# Youngs Moduli (GPa) = 58.90898 62.35451 51.44438
#
# Poissons Ratio (x) = 0.44183 0.14639
# Poissons Ratio (y) = 0.41742 0.13174
# Poissons Ratio (z) = 0.16763 0.15968
#
# Static dielectric constant tensor:
#      x y z
#    x 4.073560 0.000000 0.000000 
#    y 0.000000 3.310530 0.000000 
#    z 0.000000 0.000000 3.589300 
# 
# 
# High freq. dielectric constant tensor:
#      x y z
#    x 1.789200 0.000000 0.000000 
#    y 0.000000 1.762950 0.000000 
#    z 0.000000 0.000000 1.780940 
# 
# From -- ./inp_files/11871.got.cif
#   From: 2010.03.12/outbox.cif.g09.slc.cpg/sg60_6_cif.got.tgz:11871.got - 2010.04.10 18:46:24.
