data_PCOD8246161
_publ_section_title
;
Structure prediction by ZEFSAII (Michael W. Deem and Ramdas Pophale) SiO2 
 PCOD8246161
Probable space group: P M M N
;
_chemical_formula_sum "Si O2"
_cell_formula_units_Z 56
_cell_length_a 13.580640
_cell_length_b 9.684866
_cell_length_c 29.238610
_cell_angle_alpha 90.000000
_cell_angle_beta 90.000000
_cell_angle_gamma 90.000000
_cell_volume 3845.657260
_symmetry_space_group_name_H-M "P M M N"
_symmetry_group_IT_number 59
_space_group.IT_coordinate_system_code '2'
_symmetry_cell_setting 'orthorhombic'
loop_
_space_group_symop_operation_xyz
x,y,z
1/2-x,1/2-y,z
1/2+x,-y,-z
-x,1/2+y,-z
-x,-y,-z
1/2+x,1/2+y,-z
1/2-x,y,z
x,1/2-y,z
loop_
_atom_site_type_symbol
_atom_site_label
_atom_site_fract_x
_atom_site_fract_y
_atom_site_fract_z
Si Si1 0.859526 0.086212 0.157714
Si Si2 0.052421 0.089846 0.564175
Si Si3 0.139987 0.592202 0.487362
Si Si4 0.635442 0.590545 0.339576
Si Si5 0.367313 0.595813 0.742740
Si Si6 0.639661 0.907757 0.988975
Si Si7 0.951354 0.088980 0.065194
O O1 0.750000 0.025526 0.148380
O O2 0.852289 0.250000 0.159762
O O3 0.900990 0.037499 0.207323
O O4 0.932454 0.038117 0.117127
O O5 0.079383 0.250000 0.557121
O O6 0.073355 0.045071 0.616083
O O7 0.937861 0.058659 0.552898
O O8 0.122598 0.003582 0.531031
O O9 0.250000 0.565423 0.468232
O O10 0.127314 0.750000 0.503698
O O11 0.750000 0.558667 0.348955
O O12 0.618953 0.750000 0.327691
O O13 0.592948 0.503908 0.296981
O O14 0.250000 0.598834 0.742656
O O15 0.408834 0.750000 0.733899
O O16 0.750000 0.933104 0.970592
O O17 0.625010 0.750000 0.005309
O O18 0.564938 0.941914 0.947494
O O19 0.620637 0.005911 0.031897
O O20 0.925015 0.250000 0.059812
#
# Coordination Sequence:
#
# PCOD8246161 Si02
#       7
#     8   8   8   8   8   8   8
#     4   8  13  22  37  56  74  92 120 156 186 216
#     4   9  17  28  41  57  78 104 130 154 186 226
#     4   9  17  28  41  58  79 101 128 161 189 216
#     4   9  16  25  37  54  76 100 124 149 180 223
#     4   8  14  24  37  53  73  95 119 151 189 222
#     4   9  17  27  37  54  81 104 123 155 193 222
#     4   9  16  26  41  57  73 100 134 157 180 223
#
# _framework density 14.561881
#
# number of rings (size 3 to 8) (size 9 to 14) (size 15 to 20)
#    0.000    3.286    0.000    1.714    0.000    2.286 
#    0.000    2.143    0.000    2.571    0.000    1.000 
#    0.000    1.143    0.000    0.000    0.000    0.000 
#
# Total GULP energy -694080.479664 kJ/mol
# GULP energy per Si atom -12394.294280 kJ/mol
# Density = 1.452874 g / cm^3
# Si number density = 14.561881 Si / 1000 Ang^3
#
#
#
# Elastic Constant Matrix: (Units=GPa)
#
#
# Indices 1 2 3 4 5 6 
#
# 1 75.0084 27.5109 53.2269 0.0000 0.0000 0.0000
# 2 27.5109 42.9816 49.3081 0.0000 0.0000 0.0000
# 3 53.2269 49.3081 145.4219 0.0000 0.0000 0.0000
# 4 0.0000 0.0000 0.0000 23.2315 0.0000 0.0000
# 5 0.0000 0.0000 0.0000 0.0000 19.4688 0.0000
# 6 0.0000 0.0000 0.0000 0.0000 0.0000 14.3777
#
#
#
# Elastic Compliance Matrix: (Units=1/GPa)
#
#
# Indices 1 2 3 4 5 6 
#
# 1 0.019188 -0.006914 -0.004679 0.000000 0.000000 0.000000
# 2 -0.006914 0.040568 -0.011225 0.000000 0.000000 0.000000
# 3 -0.004679 -0.011225 0.012395 0.000000 0.000000 0.000000
# 4 0.000000 0.000000 0.000000 0.043045 0.000000 0.000000
# 5 0.000000 0.000000 0.000000 0.000000 0.051364 0.000000
# 6 0.000000 0.000000 0.000000 0.000000 0.000000 0.069552
#
#
# Mechanical properties :
#
#
# Convention : Reuss Voigt Hill
#
# Bulk Modulus (GPa) = 37.71314 58.16709 47.94012
# Shear Modulus (GPa) = 17.20660 20.30665 18.75663
#
# Velocity S-wave (km/s) = 3.44120 3.73836 3.59285
# Velocity P-wave (km/s) = 6.46095 7.65933 7.08552
#
# Compressibility (1/GPa) = 0.02651596
#
# Stress axis : x y z
#
# Youngs Moduli (GPa) = 52.11656 24.64990 80.67755
#
# Poissons Ratio (x) = 0.17043 0.37747
# Poissons Ratio (y) = 0.36033 0.90559
# Poissons Ratio (z) = 0.24384 0.27669
#
# Static dielectric constant tensor:
#      x y z
#    x 2.739010 0.000000 0.000000 
#    y 0.000000 2.824170 0.000000 
#    z 0.000000 0.000000 3.016110 
# 
# 
# High freq. dielectric constant tensor:
#      x y z
#    x 1.529260 0.000000 0.000000 
#    y 0.000000 1.548700 0.000000 
#    z 0.000000 0.000000 1.550830 
# 
# From -- ./inp_files/33168.got.cif
#   From: 2010.03.12/outbox.cif.g09.slc.cpg/sg59_17_cif.got.tgz:33168.got - 2010.04.16 16:29:54.
