data_PCOD8246164
_publ_section_title
;
Structure prediction by ZEFSAII (Michael W. Deem and Ramdas Pophale) SiO2 
 PCOD8246164
Probable space group: P M M N
;
_chemical_formula_sum "Si O2"
_cell_formula_units_Z 64
_cell_length_a 9.285567
_cell_length_b 14.542903
_cell_length_c 24.644329
_cell_angle_alpha 90.000000
_cell_angle_beta 90.000000
_cell_angle_gamma 90.000000
_cell_volume 3327.948013
_symmetry_space_group_name_H-M "P M M N"
_symmetry_group_IT_number 59
_space_group.IT_coordinate_system_code '2'
_symmetry_cell_setting 'orthorhombic'
loop_
_space_group_symop_operation_xyz
x,y,z
1/2-x,1/2-y,z
1/2+x,-y,-z
-x,1/2+y,-z
-x,-y,-z
1/2+x,1/2+y,-z
1/2-x,y,z
x,1/2-y,z
loop_
_atom_site_type_symbol
_atom_site_label
_atom_site_fract_x
_atom_site_fract_y
_atom_site_fract_z
Si Si1 0.421875 0.648502 0.218453
Si Si2 0.581609 0.856313 0.493235
Si Si3 0.412128 0.359831 0.001944
Si Si4 0.087242 0.640405 0.894990
Si Si5 0.416802 0.356190 0.209397
Si Si6 0.420351 0.004201 0.298198
Si Si7 0.580611 0.493172 0.580392
Si Si8 0.589694 0.140422 0.900650
O O1 0.250000 0.651435 0.219284
O O2 0.485395 0.750000 0.229130
O O3 0.483486 0.583257 0.265610
O O4 0.468470 0.610734 0.158943
O O5 0.750000 0.862137 0.479871
O O6 0.533091 0.750000 0.500624
O O7 0.496044 0.903230 0.444000
O O8 0.544540 0.913308 0.547773
O O9 0.250000 0.397431 0.005780
O O10 0.413740 0.250000 0.002092
O O11 0.502251 0.398401 0.052920
O O12 0.483441 0.398502 0.946727
O O13 0.250000 0.602891 0.896122
O O14 0.084855 0.750000 0.895969
O O15 0.008238 0.604631 0.840860
O O16 0.250000 0.376001 0.195958
O O17 0.447482 0.250000 0.219293
O O18 0.465544 0.405152 0.264972
O O19 0.250000 0.996785 0.301898
O O20 0.482306 0.007692 0.359060
O O21 0.750000 0.473017 0.579976
O O22 0.750000 0.101264 0.911530
O O23 0.595693 0.250000 0.902495
#
# Coordination Sequence:
#
# PCOD8246164 Si02
#       8
#     8   8   8   8   8   8   8   8
#     4   8  14  25  42  65  92 120 151 190 236 283
#     4   9  18  33  52  74 105 142 171 201 248 297
#     4   9  15  22  36  60  87 113 144 187 238 287
#     4   9  16  26  41  61  86 117 154 194 235 284
#     4   9  17  29  45  66  93 123 154 191 237 287
#     4   9  17  29  47  72  99 126 158 198 240 278
#     4   9  18  32  51  77 104 131 171 214 245 285
#     4   8  13  22  37  57  81 110 144 181 225 281
#
# _framework density 19.231071
#
# number of rings (size 3 to 8) (size 9 to 14) (size 15 to 20)
#    0.000    3.250    0.000    1.500    0.000    4.250 
#    0.000    4.375    0.000    2.250    0.000    3.500 
#    0.000    0.000    0.000    0.000    0.000    0.000 
#
# Total GULP energy -793330.164664 kJ/mol
# GULP energy per Si atom -12395.783823 kJ/mol
# Density = 1.918730 g / cm^3
# Si number density = 19.231071 Si / 1000 Ang^3
#
#
#
# Elastic Constant Matrix: (Units=GPa)
#
#
# Indices 1 2 3 4 5 6 
#
# 1 70.3665 26.0316 53.1196 0.0000 0.0000 0.0000
# 2 26.0316 77.8823 50.4531 0.0000 0.0000 0.0000
# 3 53.1196 50.4531 184.5540 0.0000 0.0000 0.0000
# 4 0.0000 0.0000 0.0000 89.3214 0.0000 0.0000
# 5 0.0000 0.0000 0.0000 0.0000 22.7381 0.0000
# 6 0.0000 0.0000 0.0000 0.0000 0.0000 13.9258
#
#
#
# Elastic Compliance Matrix: (Units=1/GPa)
#
#
# Indices 1 2 3 4 5 6 
#
# 1 0.018864 -0.003388 -0.004503 0.000000 0.000000 0.000000
# 2 -0.003388 0.016212 -0.003457 0.000000 0.000000 0.000000
# 3 -0.004503 -0.003457 0.007660 0.000000 0.000000 0.000000
# 4 0.000000 0.000000 0.000000 0.011196 0.000000 0.000000
# 5 0.000000 0.000000 0.000000 0.000000 0.043979 0.000000
# 6 0.000000 0.000000 0.000000 0.000000 0.000000 0.071809
#
#
# Mechanical properties :
#
#
# Convention : Reuss Voigt Hill
#
# Bulk Modulus (GPa) = 49.90182 65.77905 57.84044
# Shear Modulus (GPa) = 25.11361 38.74362 31.92862
#
# Velocity S-wave (km/s) = 3.61763 4.49334 4.07905
# Velocity P-wave (km/s) = 6.59200 7.82298 7.23372
#
# Compressibility (1/GPa) = 0.02003935
#
# Stress axis : x y z
#
# Youngs Moduli (GPa) = 53.01017 61.68423 130.55327
#
# Poissons Ratio (x) = 0.20898 0.58795
# Poissons Ratio (y) = 0.17959 0.45129
# Poissons Ratio (z) = 0.23873 0.21323
#
# Static dielectric constant tensor:
#      x y z
#    x 3.300280 0.000000 0.000000 
#    y 0.000000 3.377270 0.000000 
#    z 0.000000 0.000000 3.793520 
# 
# 
# High freq. dielectric constant tensor:
#      x y z
#    x 1.712760 0.000000 0.000000 
#    y 0.000000 1.737100 0.000000 
#    z 0.000000 0.000000 1.749980 
# 
# From -- ./inp_files/31568.got.cif
#   From: 2010.03.12/outbox.cif.g09.slc.cpg/sg59_16_cif.got.tgz:31568.got - 2010.04.16 16:29:54.
