data_PCOD8246090
_publ_section_title
;
Structure prediction by ZEFSAII (Michael W. Deem and Ramdas Pophale) SiO2 
 PCOD8246090
Probable space group: P M M N
;
_chemical_formula_sum "Si O2"
_cell_formula_units_Z 40
_cell_length_a 8.662541
_cell_length_b 14.338987
_cell_length_c 17.149192
_cell_angle_alpha 90.000000
_cell_angle_beta 90.000000
_cell_angle_gamma 90.000000
_cell_volume 2130.136513
_symmetry_space_group_name_H-M "P M M N"
_symmetry_group_IT_number 59
_space_group.IT_coordinate_system_code '2'
_symmetry_cell_setting 'orthorhombic'
loop_
_space_group_symop_operation_xyz
x,y,z
1/2-x,1/2-y,z
1/2+x,-y,-z
-x,1/2+y,-z
-x,-y,-z
1/2+x,1/2+y,-z
1/2-x,y,z
x,1/2-y,z
loop_
_atom_site_type_symbol
_atom_site_label
_atom_site_fract_x
_atom_site_fract_y
_atom_site_fract_z
Si Si1 0.067320 0.250000 0.654424
Si Si2 0.067514 0.558107 0.291156
Si Si3 0.568103 0.750000 0.527235
Si Si4 0.068520 0.994089 0.117013
Si Si5 0.432657 0.645161 0.984540
Si Si6 0.432430 0.942305 0.571132
O O1 0.250000 0.250000 0.666775
O O2 0.024006 0.250000 0.563505
O O3 0.991860 0.161713 0.695082
O O4 0.250000 0.553793 0.305007
O O5 0.019124 0.529166 0.204478
O O6 0.982557 0.487084 0.347948
O O7 0.750000 0.750000 0.539662
O O8 0.495416 0.838192 0.569724
O O9 0.250000 0.006024 0.108940
O O10 0.991411 0.091726 0.092387
O O11 0.009380 0.910162 0.061372
O O12 0.250000 0.649444 0.982197
O O13 0.501383 0.750000 0.986326
O O14 0.250000 0.943390 0.563707
O O15 0.500000 0.000000 0.500000
#
# Coordination Sequence:
#
# PCOD8246090 Si02
#       6
#     4   8   4   8   8   8
#     4  11  23  37  59  89 119 150 191 246 294 347
#     4  11  23  39  61  87 118 157 194 240 293 347
#     4  11  23  41  63  87 115 152 199 246 294 351
#     4   9  20  37  58  85 116 150 190 234 284 343
#     4   9  18  35  60  85 114 151 189 233 284 340
#     4  12  24  40  62  87 118 156 197 243 292 347
#
# _framework density 18.778138999999999
#
# number of rings (size 3 to 8) (size 9 to 14) (size 15 to 20)
#    0.000    1.600    2.000    3.000    1.400    2.800 
#    1.800    0.000    0.000    0.000    0.000    0.000 
#    0.000    0.000    0.000    0.000    0.000    0.000 
#
# Total GULP energy -496163.818442 kJ/mol
# GULP energy per Si atom -12404.095461 kJ/mol
# Density = 1.873540 g / cm^3
# Si number density = 18.778139 Si / 1000 Ang^3
#
#
#
# Elastic Constant Matrix: (Units=GPa)
#
#
# Indices 1 2 3 4 5 6 
#
# 1 77.1056 48.7446 47.7102 0.0000 0.0000 0.0000
# 2 48.7446 187.6022 82.1224 0.0000 0.0000 0.0000
# 3 47.7102 82.1224 132.9345 0.0000 0.0000 0.0000
# 4 0.0000 0.0000 0.0000 38.5702 0.0000 0.0000
# 5 0.0000 0.0000 0.0000 0.0000 29.0693 0.0000
# 6 0.0000 0.0000 0.0000 0.0000 0.0000 60.2367
#
#
#
# Elastic Compliance Matrix: (Units=1/GPa)
#
#
# Indices 1 2 3 4 5 6 
#
# 1 0.017461 -0.002459 -0.004748 0.000000 0.000000 0.000000
# 2 -0.002459 0.007652 -0.003845 0.000000 0.000000 0.000000
# 3 -0.004748 -0.003845 0.011602 0.000000 0.000000 0.000000
# 4 0.000000 0.000000 0.000000 0.025927 0.000000 0.000000
# 5 0.000000 0.000000 0.000000 0.000000 0.034401 0.000000
# 6 0.000000 0.000000 0.000000 0.000000 0.000000 0.016601
#
#
# Mechanical properties :
#
#
# Convention : Reuss Voigt Hill
#
# Bulk Modulus (GPa) = 68.43495 83.86630 76.15062
# Shear Modulus (GPa) = 35.55725 40.17959 37.86842
#
# Velocity S-wave (km/s) = 4.35621 4.63071 4.49555
# Velocity P-wave (km/s) = 7.86290 8.56446 8.22116
#
# Compressibility (1/GPa) = 0.01461242
#
# Stress axis : x y z
#
# Youngs Moduli (GPa) = 57.26909 130.67858 86.19264
#
# Poissons Ratio (x) = 0.32128 0.40925
# Poissons Ratio (y) = 0.14080 0.33141
# Poissons Ratio (z) = 0.27192 0.50246
#
# Static dielectric constant tensor:
#      x y z
#    x 3.472720 0.000000 0.000000 
#    y 0.000000 3.771580 0.000000 
#    z 0.000000 0.000000 3.542250 
# 
# 
# High freq. dielectric constant tensor:
#      x y z
#    x 1.734910 0.000000 0.000000 
#    y 0.000000 1.742360 0.000000 
#    z 0.000000 0.000000 1.728690 
# 
# From -- ./inp_files/19995.got.cif
#   From: 2010.03.12/outbox.cif.g09.slc.cpg/sg59_10_cif.got.tgz:19995.got - 2010.04.16 16:29:54.
