data_PCOD8246482
_publ_section_title
;
Structure prediction by ZEFSAII (Michael W. Deem and Ramdas Pophale) SiO2 
 PCOD8246482
Probable space group: P B C N
;
_chemical_formula_sum "Si O2"
_cell_formula_units_Z 40
_cell_length_a 9.371459
_cell_length_b 18.001226
_cell_length_c 10.399780
_cell_angle_alpha 90.000000
_cell_angle_beta 90.000000
_cell_angle_gamma 90.000000
_cell_volume 1754.419501
_symmetry_space_group_name_H-M "P B C N"
_symmetry_group_IT_number 60
_symmetry_cell_setting 'orthorhombic'
loop_
_space_group_symop_operation_xyz
x,y,z
1/2-x,1/2-y,1/2+z
1/2+x,1/2-y,-z
-x,y,1/2-z
-x,-y,-z
1/2+x,1/2+y,1/2-z
1/2-x,1/2+y,z
x,-y,1/2+z
loop_
_atom_site_type_symbol
_atom_site_label
_atom_site_fract_x
_atom_site_fract_y
_atom_site_fract_z
Si Si1 0.028363 0.759625 0.454060
Si Si2 0.000000 0.489279 0.750000
Si Si3 0.782430 0.598624 0.650537
Si Si4 0.180975 0.239725 0.332549
Si Si5 0.180084 0.363992 0.630540
Si Si6 0.000000 0.116795 0.750000
O O1 0.973671 0.773311 0.600583
O O2 0.955770 0.687560 0.392094
O O3 0.981136 0.831094 0.373753
O O4 0.196956 0.740641 0.445625
O O5 0.914682 0.542284 0.650933
O O6 0.878400 0.441796 0.817762
O O7 0.819866 0.676285 0.724968
O O8 0.739734 0.617677 0.502913
O O9 0.641249 0.566399 0.724147
O O10 0.209596 0.176277 0.227209
#
# Coordination Sequence:
#
# PCOD8246482 Si02
#       6
#     8   4   8   8   8   4
#     4  10  18  37  66  93 125 175 214 285 327 391
#     4  12  23  44  70 101 140 176 238 278 343 424
#     4  10  24  40  66  99 132 182 225 282 342 412
#     4  10  20  39  65  96 132 168 234 278 336 398
#     4  11  20  43  67  97 134 179 230 279 341 405
#     4  10  19  44  58  91 136 166 216 280 347 378
#
# _framework density 22.799562999999999
#
# number of rings (size 3 to 8) (size 9 to 14) (size 15 to 20)
#    0.000    1.600    6.000    0.600    0.000    3.200 
#   10.800    1.000    8.800    0.000    0.000    0.000 
#    0.000    0.000    0.000    0.000    0.000    0.000 
#
# Total GULP energy -495669.194563 kJ/mol
# GULP energy per Si atom -12391.729864 kJ/mol
# Density = 2.274767 g / cm^3
# Si number density = 22.799563 Si / 1000 Ang^3
#
#
#
# Elastic Constant Matrix: (Units=GPa)
#
#
# Indices 1 2 3 4 5 6 
#
# 1 112.7513 43.4015 31.7729 0.0000 0.0000 0.0000
# 2 43.4015 98.9908 42.4203 0.0000 0.0000 0.0000
# 3 31.7729 42.4203 81.2884 0.0000 0.0000 0.0000
# 4 0.0000 0.0000 0.0000 17.0428 0.0000 0.0000
# 5 0.0000 0.0000 0.0000 0.0000 40.8408 0.0000
# 6 0.0000 0.0000 0.0000 0.0000 0.0000 41.1446
#
#
#
# Elastic Compliance Matrix: (Units=1/GPa)
#
#
# Indices 1 2 3 4 5 6 
#
# 1 0.010992 -0.003836 -0.002295 0.000000 0.000000 0.000000
# 2 -0.003836 0.014350 -0.005989 0.000000 0.000000 0.000000
# 3 -0.002295 -0.005989 0.016324 0.000000 0.000000 0.000000
# 4 0.000000 0.000000 0.000000 0.058676 0.000000 0.000000
# 5 0.000000 0.000000 0.000000 0.000000 0.024485 0.000000
# 6 0.000000 0.000000 0.000000 0.000000 0.000000 0.024305
#
#
# Mechanical properties :
#
#
# Convention : Reuss Voigt Hill
#
# Bulk Modulus (GPa) = 57.38280 58.69109 58.03694
# Shear Modulus (GPa) = 27.90459 31.50136 29.70298
#
# Velocity S-wave (km/s) = 3.50224 3.72111 3.61333
# Velocity P-wave (km/s) = 6.44804 6.65284 6.55124
#
# Compressibility (1/GPa) = 0.01742683
#
# Stress axis : x y z
#
# Youngs Moduli (GPa) = 90.97231 69.68407 61.25825
#
# Poissons Ratio (x) = 0.26732 0.14057
# Poissons Ratio (y) = 0.34898 0.36690
# Poissons Ratio (z) = 0.20875 0.41736
#
# Static dielectric constant tensor:
#      x y z
#    x 4.323210 0.000000 0.000000 
#    y 0.000000 4.028440 0.000000 
#    z 0.000000 0.000000 4.050140 
# 
# 
# High freq. dielectric constant tensor:
#      x y z
#    x 1.909770 0.000000 0.000000 
#    y 0.000000 1.873500 0.000000 
#    z 0.000000 0.000000 1.891270 
# 
# From -- ./inp_files/9820.got.cif
#   From: 2010.03.12/outbox.cif.g09.slc.cpg/sg60_5_cif.got.tgz:9820.got - 2010.04.10 18:46:24.
