data_PCOD8246225
_publ_section_title
;
Structure prediction by ZEFSAII (Michael W. Deem and Ramdas Pophale) SiO2 
 PCOD8246225
Probable space group: P M M N
;
_chemical_formula_sum "Si O2"
_cell_formula_units_Z 32
_cell_length_a 17.214227
_cell_length_b 9.301537
_cell_length_c 11.816704
_cell_angle_alpha 90.000000
_cell_angle_beta 90.000000
_cell_angle_gamma 90.000000
_cell_volume 1892.076102
_symmetry_space_group_name_H-M "P M M N"
_symmetry_group_IT_number 59
_space_group.IT_coordinate_system_code '2'
_symmetry_cell_setting 'orthorhombic'
loop_
_space_group_symop_operation_xyz
x,y,z
1/2-x,1/2-y,z
1/2+x,-y,-z
-x,1/2+y,-z
-x,-y,-z
1/2+x,1/2+y,-z
1/2-x,y,z
x,1/2-y,z
loop_
_atom_site_type_symbol
_atom_site_label
_atom_site_fract_x
_atom_site_fract_y
_atom_site_fract_z
Si Si1 0.605053 0.418237 0.578935
Si Si2 0.664666 0.589401 0.150436
Si Si3 0.067596 0.418092 0.640114
Si Si4 0.750000 0.079222 0.979404
Si Si5 0.250000 0.920465 0.276875
O O1 0.614185 0.250000 0.554327
O O2 0.610952 0.498471 0.459740
O O3 0.523836 0.453067 0.640732
O O4 0.673319 0.477080 0.659325
O O5 0.750000 0.595443 0.209739
O O6 0.640155 0.750000 0.110359
O O7 0.602498 0.528441 0.240256
O O8 0.672212 0.484191 0.041009
O O9 0.084153 0.250000 0.622954
O O10 0.750000 0.250000 0.988276
O O11 0.750000 0.021982 0.851187
O O12 0.250000 0.750000 0.274132
#
# Coordination Sequence:
#
# PCOD8246225 Si02
#       5
#     8   8   8   4   4
#     4   9  18  31  48  68  94 121 147 181 222 271
#     4   8  16  30  47  65  90 119 147 183 226 265
#     4   9  17  31  48  69  93 118 148 184 224 265
#     4   9  17  30  47  66  88 117 156 193 218 257
#     4   9  18  32  47  66  92 123 150 179 228 273
#
# _framework density 16.912638999999999
#
# number of rings (size 3 to 8) (size 9 to 14) (size 15 to 20)
#    0.750    2.500    0.000    0.000    1.750    1.000 
#    0.000    3.750    0.000    0.000    0.000    0.000 
#    0.000    0.000    0.000    0.000    0.000    0.000 
#
# Total GULP energy -396551.301173 kJ/mol
# GULP energy per Si atom -12392.228162 kJ/mol
# Density = 1.687415 g / cm^3
# Si number density = 16.912639 Si / 1000 Ang^3
#
#
#
# Elastic Constant Matrix: (Units=GPa)
#
#
# Indices 1 2 3 4 5 6 
#
# 1 85.9562 29.1272 76.4145 0.0000 0.0000 0.0000
# 2 29.1272 48.2502 49.7874 0.0000 0.0000 0.0000
# 3 76.4145 49.7874 146.4916 0.0000 0.0000 0.0000
# 4 0.0000 0.0000 0.0000 24.7342 0.0000 0.0000
# 5 0.0000 0.0000 0.0000 0.0000 18.3616 0.0000
# 6 0.0000 0.0000 0.0000 0.0000 0.0000 17.6700
#
#
#
# Elastic Compliance Matrix: (Units=1/GPa)
#
#
# Indices 1 2 3 4 5 6 
#
# 1 0.021845 -0.002201 -0.010647 0.000000 0.000000 0.000000
# 2 -0.002201 0.032141 -0.009776 0.000000 0.000000 0.000000
# 3 -0.010647 -0.009776 0.015702 0.000000 0.000000 0.000000
# 4 0.000000 0.000000 0.000000 0.040430 0.000000 0.000000
# 5 0.000000 0.000000 0.000000 0.000000 0.054462 0.000000
# 6 0.000000 0.000000 0.000000 0.000000 0.000000 0.056593
#
#
# Mechanical properties :
#
#
# Convention : Reuss Voigt Hill
#
# Bulk Modulus (GPa) = 40.91421 65.70625 53.31023
# Shear Modulus (GPa) = 18.21058 20.51109 19.36084
#
# Velocity S-wave (km/s) = 3.28494 3.48626 3.38709
# Velocity P-wave (km/s) = 6.21545 7.42563 6.84733
#
# Compressibility (1/GPa) = 0.02444139
#
# Stress axis : x y z
#
# Youngs Moduli (GPa) = 45.77809 31.11303 63.68470
#
# Poissons Ratio (x) = 0.06848 0.67803
# Poissons Ratio (y) = 0.10075 0.62255
# Poissons Ratio (z) = 0.48739 0.30415
#
# Static dielectric constant tensor:
#      x y z
#    x 3.167020 0.000000 0.000000 
#    y 0.000000 2.999750 0.000000 
#    z 0.000000 0.000000 3.131730 
# 
# 
# High freq. dielectric constant tensor:
#      x y z
#    x 1.642010 0.000000 0.000000 
#    y 0.000000 1.637780 0.000000 
#    z 0.000000 0.000000 1.641610 
# 
# From -- ./inp_files/17432.got.cif
#   From: 2010.03.12/outbox.cif.g09.slc.cpg/sg59_9_cif.got.tgz:17432.got - 2010.04.16 16:29:54.
