data_PCOD8246159
_publ_section_title
;
Structure prediction by ZEFSAII (Michael W. Deem and Ramdas Pophale) SiO2 
 PCOD8246159
Probable space group: P M M N
;
_chemical_formula_sum "Si O2"
_cell_formula_units_Z 56
_cell_length_a 9.574596
_cell_length_b 18.972505
_cell_length_c 17.990148
_cell_angle_alpha 90.000000
_cell_angle_beta 90.000000
_cell_angle_gamma 90.000000
_cell_volume 3267.983613
_symmetry_space_group_name_H-M "P M M N"
_symmetry_group_IT_number 59
_space_group.IT_coordinate_system_code '2'
_symmetry_cell_setting 'orthorhombic'
loop_
_space_group_symop_operation_xyz
x,y,z
1/2-x,1/2-y,z
1/2+x,-y,-z
-x,1/2+y,-z
-x,-y,-z
1/2+x,1/2+y,-z
1/2-x,y,z
x,1/2-y,z
loop_
_atom_site_type_symbol
_atom_site_label
_atom_site_fract_x
_atom_site_fract_y
_atom_site_fract_z
Si Si1 0.411205 0.418694 0.070204
Si Si2 0.087929 0.831985 0.213128
Si Si3 0.088152 0.581811 0.070590
Si Si4 0.911108 0.667857 0.785914
Si Si5 0.593579 0.666294 0.348437
Si Si6 0.092185 0.666063 0.646745
Si Si7 0.407234 0.333918 0.487061
O O1 0.250000 0.405193 0.050727
O O2 0.440530 0.500205 0.088011
O O3 0.458413 0.374032 0.141210
O O4 0.501524 0.392487 0.000571
O O5 0.250000 0.845529 0.227751
O O6 0.054454 0.750000 0.200284
O O7 0.035326 0.873674 0.140935
O O8 0.008713 0.863357 0.285048
O O9 0.250000 0.596671 0.053915
O O10 0.750000 0.652421 0.765383
O O11 0.935171 0.750000 0.801627
O O12 0.007190 0.640320 0.718777
O O13 0.750000 0.639775 0.331159
O O14 0.588414 0.750000 0.347822
O O15 0.547015 0.639845 0.430551
O O16 0.250000 0.636298 0.649571
O O17 0.093271 0.750000 0.643968
O O18 0.015150 0.635300 0.573519
O O19 0.250000 0.360209 0.469035
O O20 0.409064 0.250000 0.484175
#
# Coordination Sequence:
#
# PCOD8246159 Si02
#       7
#     8   8   8   8   8   8   8
#     4   9  18  32  48  64  82 108 142 175 208 249
#     4   9  17  28  42  62  88 115 140 168 207 252
#     4   9  18  32  47  63  85 111 139 172 209 250
#     4   9  17  29  44  62  85 111 139 173 212 251
#     4   8  14  24  38  58  84 113 144 176 208 243
#     4   9  16  24  36  58  86 113 141 172 207 248
#     4   8  13  22  36  54  80 114 145 171 204 245
#
# _framework density 17.135949
#
# number of rings (size 3 to 8) (size 9 to 14) (size 15 to 20)
#    0.000    3.286    0.000    1.286    0.000    4.000 
#    0.000    2.857    0.000    0.000    0.000    1.000 
#    0.000    0.000    0.000    0.000    0.000    0.000 
#
# Total GULP energy -694231.234347 kJ/mol
# GULP energy per Si atom -12396.986328 kJ/mol
# Density = 1.709695 g / cm^3
# Si number density = 17.135949 Si / 1000 Ang^3
#
#
#
# Elastic Constant Matrix: (Units=GPa)
#
#
# Indices 1 2 3 4 5 6 
#
# 1 100.2000 26.2052 100.1933 0.0000 0.0000 0.0000
# 2 26.2052 25.2378 43.5647 0.0000 0.0000 0.0000
# 3 100.1933 43.5647 191.4594 0.0000 0.0000 0.0000
# 4 0.0000 0.0000 0.0000 0.9699 0.0000 0.0000
# 5 0.0000 0.0000 0.0000 0.0000 38.1026 0.0000
# 6 0.0000 0.0000 0.0000 0.0000 0.0000 12.3146
#
#
#
# Elastic Compliance Matrix: (Units=1/GPa)
#
#
# Indices 1 2 3 4 5 6 
#
# 1 0.021272 -0.004729 -0.010056 0.000000 0.000000 0.000000
# 2 -0.004729 0.066304 -0.012612 0.000000 0.000000 0.000000
# 3 -0.010056 -0.012612 0.013355 0.000000 0.000000 0.000000
# 4 0.000000 0.000000 0.000000 1.031079 0.000000 0.000000
# 5 0.000000 0.000000 0.000000 0.000000 0.026245 0.000000
# 6 0.000000 0.000000 0.000000 0.000000 0.000000 0.081205
#
#
# Mechanical properties :
#
#
# Convention : Reuss Voigt Hill
#
# Bulk Modulus (GPa) = 21.67458 72.98039 47.32748
# Shear Modulus (GPa) = 3.81787 20.07302 11.94544
#
# Velocity S-wave (km/s) = 1.49426 3.42628 2.64313
# Velocity P-wave (km/s) = 3.95641 7.63767 6.08224
#
# Compressibility (1/GPa) = 0.04613700
#
# Stress axis : x y z
#
# Youngs Moduli (GPa) = 47.00994 15.08206 74.87768
#
# Poissons Ratio (x) = 0.07133 0.75296
# Poissons Ratio (y) = 0.22233 0.94435
# Poissons Ratio (z) = 0.47273 0.19021
#
# Static dielectric constant tensor:
#      x y z
#    x 3.311710 0.000000 0.000000 
#    y 0.000000 2.732080 0.000000 
#    z 0.000000 0.000000 3.483820 
# 
# 
# High freq. dielectric constant tensor:
#      x y z
#    x 1.661440 0.000000 0.000000 
#    y 0.000000 1.605550 0.000000 
#    z 0.000000 0.000000 1.673800 
# 
# From -- ./inp_files/26024.got.cif
#   From: 2010.03.12/outbox.cif.g09.slc.cpg/sg59_14_cif.got.tgz:26024.got - 2010.04.16 16:29:54.
