data_PCOD8246765
_publ_section_title
;
Structure prediction by ZEFSAII (Michael W. Deem and Ramdas Pophale) SiO2 
 PCOD8246765
Probable space group: P B C N
;
_chemical_formula_sum "Si O2"
_cell_formula_units_Z 56
_cell_length_a 8.033245
_cell_length_b 19.841568
_cell_length_c 16.814721
_cell_angle_alpha 90.000000
_cell_angle_beta 90.000000
_cell_angle_gamma 90.000000
_cell_volume 2680.134985
_symmetry_space_group_name_H-M "P B C N"
_symmetry_group_IT_number 60
_symmetry_cell_setting 'orthorhombic'
loop_
_space_group_symop_operation_xyz
x,y,z
1/2-x,1/2-y,1/2+z
1/2+x,1/2-y,-z
-x,y,1/2-z
-x,-y,-z
1/2+x,1/2+y,1/2-z
1/2-x,1/2+y,z
x,-y,1/2+z
loop_
_atom_site_type_symbol
_atom_site_label
_atom_site_fract_x
_atom_site_fract_y
_atom_site_fract_z
Si Si1 0.678064 0.920800 0.535061
Si Si2 0.766271 0.838289 0.956411
Si Si3 0.099022 0.796386 0.012036
Si Si4 0.417087 0.094681 0.169042
Si Si5 0.898609 0.445926 0.360001
Si Si6 0.236943 0.058243 0.901636
Si Si7 0.434306 0.368358 0.167640
O O1 0.769951 0.852398 0.513712
O O2 0.534828 0.897211 0.593144
O O3 0.609620 0.954932 0.454883
O O4 0.783420 0.978659 0.579486
O O5 0.650519 0.780774 0.994702
O O6 0.733975 0.859139 0.863728
O O7 0.756989 0.901512 0.015630
O O8 0.947416 0.805488 0.952011
O O9 0.050016 0.808826 0.103992
O O10 0.500000 0.123335 0.250000
O O11 0.362763 0.017324 0.182860
O O12 0.757714 0.394802 0.327456
O O13 0.095716 0.426223 0.347181
O O14 0.066481 0.073056 0.854585
O O15 0.500000 0.337274 0.250000
#
# Coordination Sequence:
#
# PCOD8246765 Si02
#       7
#     8   8   8   8   8   8   8
#     4  10  19  40  61  91 119 153 211 253 298 379
#     4  11  21  40  61  90 116 163 212 249 305 369
#     4  10  24  38  67  84 120 164 212 252 300 371
#     4  11  22  35  60  95 124 161 195 257 323 360
#     4  10  20  37  62  86 124 159 202 251 305 369
#     4  10  20  37  65  88 117 160 203 256 303 365
#     4  10  24  37  57  93 125 157 201 257 309 367
#
# _framework density 20.894469999999998
#
# number of rings (size 3 to 8) (size 9 to 14) (size 15 to 20)
#    0.000    1.714    2.857    1.714    8.000    2.286 
#    0.000    0.714    0.000    0.000    0.000    0.000 
#    0.000    0.000    0.000    0.000    0.000    0.000 
#
# Total GULP energy -693896.811378 kJ/mol
# GULP energy per Si atom -12391.014489 kJ/mol
# Density = 2.084691 g / cm^3
# Si number density = 20.894470 Si / 1000 Ang^3
#
#
#
# Elastic Constant Matrix: (Units=GPa)
#
#
# Indices 1 2 3 4 5 6 
#
# 1 67.0465 -1.0376 20.6051 0.0000 0.0000 0.0000
# 2 -1.0376 41.8206 2.9699 0.0000 0.0000 0.0000
# 3 20.6051 2.9699 83.6115 0.0000 0.0000 0.0000
# 4 0.0000 0.0000 0.0000 10.1463 0.0000 0.0000
# 5 0.0000 0.0000 0.0000 0.0000 29.2504 0.0000
# 6 0.0000 0.0000 0.0000 0.0000 0.0000 20.0869
#
#
#
# Elastic Compliance Matrix: (Units=1/GPa)
#
#
# Indices 1 2 3 4 5 6 
#
# 1 0.016157 0.000685 -0.004006 0.000000 0.000000 0.000000
# 2 0.000685 0.024001 -0.001021 0.000000 0.000000 0.000000
# 3 -0.004006 -0.001021 0.012984 0.000000 0.000000 0.000000
# 4 0.000000 0.000000 0.000000 0.098558 0.000000 0.000000
# 5 0.000000 0.000000 0.000000 0.000000 0.034188 0.000000
# 6 0.000000 0.000000 0.000000 0.000000 0.000000 0.049784
#
#
# Mechanical properties :
#
#
# Convention : Reuss Voigt Hill
#
# Bulk Modulus (GPa) = 22.49342 26.39482 24.44412
# Shear Modulus (GPa) = 19.29204 23.22614 21.25909
#
# Velocity S-wave (km/s) = 3.04190 3.33767 3.19321
# Velocity P-wave (km/s) = 4.80896 5.24531 5.03187
#
# Compressibility (1/GPa) = 0.04445745
#
# Stress axis : x y z
#
# Youngs Moduli (GPa) = 61.89352 41.66453 77.02031
#
# Poissons Ratio (x) = -0.02855 0.30854
# Poissons Ratio (y) = -0.04242 0.07867
# Poissons Ratio (z) = 0.24795 0.04256
#
# Static dielectric constant tensor:
#      x y z
#    x 3.998760 0.000000 0.000000 
#    y 0.000000 3.675370 0.000000 
#    z 0.000000 0.000000 3.728970 
# 
# 
# High freq. dielectric constant tensor:
#      x y z
#    x 1.822980 0.000000 0.000000 
#    y 0.000000 1.804090 0.000000 
#    z 0.000000 0.000000 1.804230 
# 
# From -- ./inp_files/19640.got.cif
#   From: 2010.03.12/outbox.cif.g09.slc.cpg/sg60_10_cif.got.tgz:19640.got - 2010.04.10 18:46:24.
