data_PCOD8246322
_publ_section_title
;
Structure prediction by ZEFSAII (Michael W. Deem and Ramdas Pophale) SiO2 
 PCOD8246322
Probable space group: P B C N
;
_chemical_formula_sum "Si O2"
_cell_formula_units_Z 48
_cell_length_a 14.087531
_cell_length_b 16.266468
_cell_length_c 9.580332
_cell_angle_alpha 90.000000
_cell_angle_beta 90.000000
_cell_angle_gamma 90.000000
_cell_volume 2195.374965
_symmetry_space_group_name_H-M "P B C N"
_symmetry_group_IT_number 60
_symmetry_cell_setting 'orthorhombic'
loop_
_space_group_symop_operation_xyz
x,y,z
1/2-x,1/2-y,1/2+z
1/2+x,1/2-y,-z
-x,y,1/2-z
-x,-y,-z
1/2+x,1/2+y,1/2-z
1/2-x,1/2+y,z
x,-y,1/2+z
loop_
_atom_site_type_symbol
_atom_site_label
_atom_site_fract_x
_atom_site_fract_y
_atom_site_fract_z
Si Si1 0.749808 0.570089 0.020951
Si Si2 0.187548 0.185169 0.713041
Si Si3 0.792219 0.883290 0.004377
Si Si4 0.840050 0.184990 0.227474
Si Si5 0.536618 0.072990 0.093965
Si Si6 0.592229 0.211806 0.500664
O O1 0.718150 0.479617 0.975672
O O2 0.675022 0.604463 0.132685
O O3 0.850769 0.571609 0.096863
O O4 0.753821 0.627036 0.883209
O O5 0.155030 0.132863 0.848211
O O6 0.243428 0.263055 0.772890
O O7 0.099759 0.219591 0.622135
O O8 0.687177 0.843973 0.000761
O O9 0.861535 0.843969 0.885555
O O10 0.919530 0.242092 0.151239
O O11 0.500000 0.060984 0.250000
O O12 0.500682 0.158361 0.027473
O O13 0.500000 0.000000 0.000000
#
# Coordination Sequence:
#
# PCOD8246322 Si02
#       6
#     8   8   8   8   8   8
#     4  11  21  33  54  83 120 154 197 249 309 364
#     4   9  19  33  55  74 109 156 204 250 285 355
#     4  10  17  31  54  82 107 145 200 254 300 342
#     4   9  19  34  54  75 110 156 202 246 285 360
#     4  12  25  36  53  82 130 172 197 240 311 381
#     4   9  19  38  50  75 114 159 203 238 287 363
#
# _framework density 21.864148
#
# number of rings (size 3 to 8) (size 9 to 14) (size 15 to 20)
#    0.000    2.000    1.667    4.000    2.333    0.000 
#    0.000    0.000    0.000    0.000    0.000    0.000 
#    0.000  360.000    0.000    0.000    0.000    0.000 
#
# Total GULP energy -594978.734321 kJ/mol
# GULP energy per Si atom -12395.390298 kJ/mol
# Density = 2.181438 g / cm^3
# Si number density = 21.864148 Si / 1000 Ang^3
#
#
#
# Elastic Constant Matrix: (Units=GPa)
#
#
# Indices 1 2 3 4 5 6 
#
# 1 22.2529 23.1019 20.9058 0.0000 0.0000 0.0000
# 2 23.1019 125.9788 55.4806 0.0000 0.0000 0.0000
# 3 20.9058 55.4806 165.7417 0.0000 0.0000 0.0000
# 4 0.0000 0.0000 0.0000 40.1451 0.0000 0.0000
# 5 0.0000 0.0000 0.0000 0.0000 14.5549 0.0000
# 6 0.0000 0.0000 0.0000 0.0000 0.0000 28.5875
#
#
#
# Elastic Compliance Matrix: (Units=1/GPa)
#
#
# Indices 1 2 3 4 5 6 
#
# 1 0.058135 -0.008716 -0.004415 0.000000 0.000000 0.000000
# 2 -0.008716 0.010617 -0.002455 0.000000 0.000000 0.000000
# 3 -0.004415 -0.002455 0.007412 0.000000 0.000000 0.000000
# 4 0.000000 0.000000 0.000000 0.024910 0.000000 0.000000
# 5 0.000000 0.000000 0.000000 0.000000 0.068705 0.000000
# 6 0.000000 0.000000 0.000000 0.000000 0.000000 0.034980
#
#
# Mechanical properties :
#
#
# Convention : Reuss Voigt Hill
#
# Bulk Modulus (GPa) = 22.22623 56.99442 39.61033
# Shear Modulus (GPa) = 19.92602 30.95651 25.44126
#
# Velocity S-wave (km/s) = 3.02214 3.76687 3.41487
# Velocity P-wave (km/s) = 4.72921 6.71142 5.80554
#
# Compressibility (1/GPa) = 0.04499189
#
# Stress axis : x y z
#
# Youngs Moduli (GPa) = 17.20148 94.18659 134.91577
#
# Poissons Ratio (x) = 0.82096 0.59566
# Poissons Ratio (y) = 0.14993 0.33116
# Poissons Ratio (z) = 0.07595 0.23119
#
# Static dielectric constant tensor:
#      x y z
#    x 3.374600 0.000000 0.000000 
#    y 0.000000 4.117380 0.000000 
#    z 0.000000 0.000000 4.832780 
# 
# 
# High freq. dielectric constant tensor:
#      x y z
#    x 1.792660 0.000000 0.000000 
#    y 0.000000 1.872870 0.000000 
#    z 0.000000 0.000000 1.883600 
# 
# From -- ./inp_files/5916.got.cif
#   From: 2010.03.12/outbox.cif.g09.slc.cpg/sg60_3_cif.got.tgz:5916.got - 2010.04.10 18:46:24.
