data_PCOD8246541
_publ_section_title
;
Structure prediction by ZEFSAII (Michael W. Deem and Ramdas Pophale) SiO2 
 PCOD8246541
Probable space group: P B C N
;
_chemical_formula_sum "Si O2"
_cell_formula_units_Z 52
_cell_length_a 12.331112
_cell_length_b 25.115974
_cell_length_c 9.297669
_cell_angle_alpha 90.000000
_cell_angle_beta 90.000000
_cell_angle_gamma 90.000000
_cell_volume 2879.561433
_symmetry_space_group_name_H-M "P B C N"
_symmetry_group_IT_number 60
_symmetry_cell_setting 'orthorhombic'
loop_
_space_group_symop_operation_xyz
x,y,z
1/2-x,1/2-y,1/2+z
1/2+x,1/2-y,-z
-x,y,1/2-z
-x,-y,-z
1/2+x,1/2+y,1/2-z
1/2-x,1/2+y,z
x,-y,1/2+z
loop_
_atom_site_type_symbol
_atom_site_label
_atom_site_fract_x
_atom_site_fract_y
_atom_site_fract_z
Si Si1 0.304626 0.824788 0.667387
Si Si2 0.000000 0.391562 0.250000
Si Si3 0.813037 0.317322 0.157409
Si Si4 0.109338 0.472808 0.046147
Si Si5 0.894305 0.202043 0.163818
Si Si6 0.109637 0.208731 0.672764
Si Si7 0.625289 0.939466 0.754802
O O1 0.264442 0.818020 0.503378
O O2 0.204023 0.832720 0.774411
O O3 0.374456 0.771957 0.704407
O O4 0.370692 0.879003 0.689925
O O5 0.911520 0.358656 0.160772
O O6 0.921994 0.423508 0.354967
O O7 0.869271 0.262626 0.202200
O O8 0.711448 0.325434 0.265493
O O9 0.179694 0.517783 0.133321
O O10 0.173965 0.450190 0.905803
O O11 0.000000 0.500000 0.000000
O O12 0.000000 0.183332 0.250000
O O13 0.904834 0.194035 0.993719
O O14 0.000000 0.190224 0.750000
O O15 0.500000 0.955433 0.750000
#
# Coordination Sequence:
#
# PCOD8246541 Si02
#       7
#     8   4   8   8   8   8   8
#     4  10  21  34  54  79 105 148 182 216 278 321
#     4  12  20  32  56  78 112 152 176 222 270 326
#     4  10  21  34  53  79 109 147 185 217 269 323
#     4  10  19  32  49  74 110 138 177 221 273 319
#     4  10  20  37  52  77 109 141 182 231 264 321
#     4  10  21  36  54  78 109 146 185 227 262 321
#     4  10  19  33  49  76 107 140 174 223 267 326
#
# _framework density 18.058306000000002
#
# number of rings (size 3 to 8) (size 9 to 14) (size 15 to 20)
#    0.000    1.846    3.077    3.231    2.154    2.462 
#    0.000    0.000    0.000    0.000    0.000    2.154 
#    0.000    0.154    0.000    0.000    0.000    0.000 
#
# Total GULP energy -644357.790827 kJ/mol
# GULP energy per Si atom -12391.495977 kJ/mol
# Density = 1.801720 g / cm^3
# Si number density = 18.058306 Si / 1000 Ang^3
#
#
#
# Elastic Constant Matrix: (Units=GPa)
#
#
# Indices 1 2 3 4 5 6 
#
# 1 66.6294 4.8417 33.1158 0.0000 0.0000 0.0000
# 2 4.8417 60.0393 15.4566 0.0000 0.0000 0.0000
# 3 33.1158 15.4566 113.6741 0.0000 0.0000 0.0000
# 4 0.0000 0.0000 0.0000 22.7942 0.0000 0.0000
# 5 0.0000 0.0000 0.0000 0.0000 28.4088 0.0000
# 6 0.0000 0.0000 0.0000 0.0000 0.0000 14.3233
#
#
#
# Elastic Compliance Matrix: (Units=1/GPa)
#
#
# Indices 1 2 3 4 5 6 
#
# 1 0.017550 -0.000103 -0.005099 0.000000 0.000000 0.000000
# 2 -0.000103 0.017261 -0.002317 0.000000 0.000000 0.000000
# 3 -0.005099 -0.002317 0.010598 0.000000 0.000000 0.000000
# 4 0.000000 0.000000 0.000000 0.043871 0.000000 0.000000
# 5 0.000000 0.000000 0.000000 0.000000 0.035200 0.000000
# 6 0.000000 0.000000 0.000000 0.000000 0.000000 0.069816
#
#
# Mechanical properties :
#
#
# Convention : Reuss Voigt Hill
#
# Bulk Modulus (GPa) = 32.92600 38.57456 35.75028
# Shear Modulus (GPa) = 22.78360 25.56718 24.17539
#
# Velocity S-wave (km/s) = 3.55585 3.76681 3.66285
# Velocity P-wave (km/s) = 5.92718 6.35027 6.14237
#
# Compressibility (1/GPa) = 0.03037114
#
# Stress axis : x y z
#
# Youngs Moduli (GPa) = 56.98004 57.93561 94.36173
#
# Poissons Ratio (x) = 0.00595 0.48113
# Poissons Ratio (y) = 0.00585 0.21864
# Poissons Ratio (z) = 0.29053 0.13424
#
# Static dielectric constant tensor:
#      x y z
#    x 3.031740 0.000000 0.000000 
#    y 0.000000 3.042690 0.000000 
#    z 0.000000 0.000000 4.270700 
# 
# 
# High freq. dielectric constant tensor:
#      x y z
#    x 1.654070 0.000000 0.000000 
#    y 0.000000 1.682920 0.000000 
#    z 0.000000 0.000000 1.725500 
# 
# From -- ./inp_files/5200.got.cif
#   From: 2010.03.12/outbox.cif.g09.slc.cpg/sg60_3_cif.got.tgz:5200.got - 2010.04.10 18:46:24.
