data_PCOD8246770
_publ_section_title
;
Structure prediction by ZEFSAII (Michael W. Deem and Ramdas Pophale) SiO2 
 PCOD8246770
Probable space group: P B C N
;
_chemical_formula_sum "Si O2"
_cell_formula_units_Z 48
_cell_length_a 14.751636
_cell_length_b 17.979131
_cell_length_c 9.230115
_cell_angle_alpha 90.000000
_cell_angle_beta 90.000000
_cell_angle_gamma 90.000000
_cell_volume 2448.025833
_symmetry_space_group_name_H-M "P B C N"
_symmetry_group_IT_number 60
_symmetry_cell_setting 'orthorhombic'
loop_
_space_group_symop_operation_xyz
x,y,z
1/2-x,1/2-y,1/2+z
1/2+x,1/2-y,-z
-x,y,1/2-z
-x,-y,-z
1/2+x,1/2+y,1/2-z
1/2-x,1/2+y,z
x,-y,1/2+z
loop_
_atom_site_type_symbol
_atom_site_label
_atom_site_fract_x
_atom_site_fract_y
_atom_site_fract_z
Si Si1 0.061164 0.093147 0.389472
Si Si2 0.000000 0.704175 0.250000
Si Si3 0.000000 0.530029 0.750000
Si Si4 0.823186 0.797758 0.234721
Si Si5 0.577680 0.910158 0.541990
Si Si6 0.258848 0.674405 0.455210
Si Si7 0.931195 0.928120 0.125448
O O1 0.147521 0.146694 0.384838
O O2 0.000000 0.100677 0.250000
O O3 0.990222 0.118864 0.511513
O O4 0.099720 0.010129 0.428167
O O5 0.914723 0.756178 0.279775
O O6 0.987760 0.654367 0.105113
O O7 0.934219 0.482156 0.645405
O O8 0.056965 0.577978 0.630520
O O9 0.763525 0.809338 0.375708
O O10 0.765027 0.751959 0.120302
O O11 0.844767 0.879186 0.169411
O O12 0.681595 0.887302 0.566262
O O13 0.000000 0.948092 0.250000
#
# Coordination Sequence:
#
# PCOD8246770 Si02
#       7
#     8   4   4   8   8   8   8
#     4  10  22  38  63  92 120 156 207 251 307 370
#     4   9  18  38  58  76 114 161 186 232 300 353
#     4   9  18  40  60  84 112 155 194 238 302 353
#     4  11  22  39  60  83 124 157 197 245 300 362
#     4   9  20  36  61  84 115 150 197 243 293 354
#     4  11  24  39  56  93 119 155 202 252 299 358
#     4  10  19  40  64  83 116 167 194 245 308 361
#
# _framework density 19.607635999999999
#
# number of rings (size 3 to 8) (size 9 to 14) (size 15 to 20)
#    0.000    2.000    2.500    0.000    2.333    2.667 
#    0.000    1.667    0.000    0.000    0.000    0.000 
#    0.000    0.000    0.000    0.000    0.000    0.000 
#
# Total GULP energy -594921.551490 kJ/mol
# GULP energy per Si atom -12394.198989 kJ/mol
# Density = 1.956301 g / cm^3
# Si number density = 19.607636 Si / 1000 Ang^3
#
#
#
# Elastic Constant Matrix: (Units=GPa)
#
#
# Indices 1 2 3 4 5 6 
#
# 1 67.0500 18.1302 36.3331 0.0000 0.0000 0.0000
# 2 18.1302 65.5963 24.9014 0.0000 0.0000 0.0000
# 3 36.3331 24.9014 118.7060 0.0000 0.0000 0.0000
# 4 0.0000 0.0000 0.0000 30.1529 0.0000 0.0000
# 5 0.0000 0.0000 0.0000 0.0000 33.8413 0.0000
# 6 0.0000 0.0000 0.0000 0.0000 0.0000 30.5816
#
#
#
# Elastic Compliance Matrix: (Units=1/GPa)
#
#
# Indices 1 2 3 4 5 6 
#
# 1 0.018484 -0.003217 -0.004983 0.000000 0.000000 0.000000
# 2 -0.003217 0.017124 -0.002607 0.000000 0.000000 0.000000
# 3 -0.004983 -0.002607 0.010496 0.000000 0.000000 0.000000
# 4 0.000000 0.000000 0.000000 0.033164 0.000000 0.000000
# 5 0.000000 0.000000 0.000000 0.000000 0.029550 0.000000
# 6 0.000000 0.000000 0.000000 0.000000 0.000000 0.032699
#
#
# Mechanical properties :
#
#
# Convention : Reuss Voigt Hill
#
# Bulk Modulus (GPa) = 40.83393 45.56464 43.19929
# Shear Modulus (GPa) = 29.18932 30.38101 29.78517
#
# Velocity S-wave (km/s) = 3.86252 3.94057 3.90174
# Velocity P-wave (km/s) = 6.38457 6.63271 6.50982
#
# Compressibility (1/GPa) = 0.02448944
#
# Stress axis : x y z
#
# Youngs Moduli (GPa) = 54.10024 58.39821 95.27257
#
# Poissons Ratio (x) = 0.18789 0.47471
# Poissons Ratio (y) = 0.17406 0.24841
# Poissons Ratio (z) = 0.26956 0.15227
#
# Static dielectric constant tensor:
#      x y z
#    x 3.415090 0.000000 0.000000 
#    y 0.000000 3.703470 0.000000 
#    z 0.000000 0.000000 3.599140 
# 
# 
# High freq. dielectric constant tensor:
#      x y z
#    x 1.750200 0.000000 0.000000 
#    y 0.000000 1.766450 0.000000 
#    z 0.000000 0.000000 1.773490 
# 
# From -- ./inp_files/5965.got.cif
#   From: 2010.03.12/outbox.cif.g09.slc.cpg/sg60_3_cif.got.tgz:5965.got - 2010.04.10 18:46:24.
