data_PCOD8246046
_publ_section_title
;
Structure prediction by ZEFSAII (Michael W. Deem and Ramdas Pophale) SiO2 
 PCOD8246046
Probable space group: P M M N
;
_chemical_formula_sum "Si O2"
_cell_formula_units_Z 48
_cell_length_a 8.888980
_cell_length_b 21.384754
_cell_length_c 12.115250
_cell_angle_alpha 90.000000
_cell_angle_beta 90.000000
_cell_angle_gamma 90.000000
_cell_volume 2302.971524
_symmetry_space_group_name_H-M "P M M N"
_symmetry_group_IT_number 59
_space_group.IT_coordinate_system_code '2'
_symmetry_cell_setting 'orthorhombic'
loop_
_space_group_symop_operation_xyz
x,y,z
1/2-x,1/2-y,z
1/2+x,-y,-z
-x,1/2+y,-z
-x,-y,-z
1/2+x,1/2+y,-z
1/2-x,y,z
x,1/2-y,z
loop_
_atom_site_type_symbol
_atom_site_label
_atom_site_fract_x
_atom_site_fract_y
_atom_site_fract_z
Si Si1 0.923309 0.568389 0.995531
Si Si2 0.073938 0.680022 0.132824
Si Si3 0.919621 0.656361 0.356234
Si Si4 0.919262 0.511691 0.384998
Si Si5 0.421839 0.411744 0.256024
Si Si6 0.082121 0.680041 0.582126
O O1 0.750000 0.558939 0.030044
O O2 0.937982 0.597153 0.873982
O O3 0.000000 0.500000 0.000000
O O4 0.992866 0.622161 0.072696
O O5 0.250000 0.665743 0.128479
O O6 0.040551 0.750000 0.082134
O O7 0.021509 0.683592 0.259352
O O8 0.750000 0.682130 0.344104
O O9 0.920397 0.582486 0.349927
O O10 0.983585 0.677948 0.472697
O O11 0.750000 0.485526 0.394216
O O12 0.000000 0.500000 0.500000
O O13 0.009010 0.478396 0.287314
O O14 0.250000 0.409335 0.295400
O O15 0.511491 0.358450 0.318711
O O16 0.250000 0.654902 0.556162
O O17 0.088032 0.750000 0.627104
#
# Coordination Sequence:
#
# PCOD8246046 Si02
#       6
#     8   8   8   8   8   8
#     4  11  25  45  70  98 130 169 218 274 332 393
#     4  11  25  44  67  96 131 174 224 276 332 395
#     4  11  23  39  63  94 128 167 211 261 319 382
#     4  11  22  36  59  91 126 163 204 253 311 378
#     4  11  24  41  62  91 124 161 205 254 312 376
#     4  11  24  40  60  88 123 164 207 253 309 374
#
# _framework density 20.842638000000001
#
# number of rings (size 3 to 8) (size 9 to 14) (size 15 to 20)
#    0.000    1.000    1.667    4.500    0.000   12.667 
#    0.000    3.333    0.000    0.000    0.000    0.000 
#    0.000    0.000    0.000    0.000    0.000    0.000 
#
# Total GULP energy -595207.463797 kJ/mol
# GULP energy per Si atom -12400.155496 kJ/mol
# Density = 2.079520 g / cm^3
# Si number density = 20.842638 Si / 1000 Ang^3
#
#
#
# Elastic Constant Matrix: (Units=GPa)
#
#
# Indices 1 2 3 4 5 6 
#
# 1 139.2134 61.6927 44.5976 0.0000 0.0000 0.0000
# 2 61.6927 138.6500 40.3019 0.0000 0.0000 0.0000
# 3 44.5976 40.3019 84.1966 0.0000 0.0000 0.0000
# 4 0.0000 0.0000 0.0000 -1.9348 0.0000 0.0000
# 5 0.0000 0.0000 0.0000 0.0000 36.1570 0.0000
# 6 0.0000 0.0000 0.0000 0.0000 0.0000 31.7617
#
#
#
# Elastic Compliance Matrix: (Units=1/GPa)
#
#
# Indices 1 2 3 4 5 6 
#
# 1 0.009808 -0.003315 -0.003608 0.000000 0.000000 0.000000
# 2 -0.003315 0.009499 -0.002791 0.000000 0.000000 0.000000
# 3 -0.003608 -0.002791 0.015124 0.000000 0.000000 0.000000
# 4 0.000000 0.000000 0.000000 -0.516851 0.000000 0.000000
# 5 0.000000 0.000000 0.000000 0.000000 0.027657 0.000000
# 6 0.000000 0.000000 0.000000 0.000000 0.000000 0.031484
#
#
# Mechanical properties :
#
#
# Convention : Reuss Voigt Hill
#
# Bulk Modulus (GPa) = 66.65599 72.80493 69.73046
# Shear Modulus (GPa) = -12.53607 27.56129 7.51261
#
# Velocity S-wave (km/s) = -2.45513 3.64036 1.90060
# Velocity P-wave (km/s) = 4.90032 7.25784 6.19231
#
# Compressibility (1/GPa) = 0.01500240
#
# Stress axis : x y z
#
# Youngs Moduli (GPa) = 101.95329 105.27693 66.12001
#
# Poissons Ratio (x) = 0.34904 0.23859
# Poissons Ratio (y) = 0.33802 0.18451
# Poissons Ratio (z) = 0.36789 0.29378
#
# Static dielectric constant tensor:
#      x y z
#    x 4.128830 0.000000 0.000000 
#    y 0.000000 3.974680 0.000000 
#    z 0.000000 0.000000 3.607580 
# 
# 
# High freq. dielectric constant tensor:
#      x y z
#    x 1.835640 0.000000 0.000000 
#    y 0.000000 1.834790 0.000000 
#    z 0.000000 0.000000 1.812530 
# 
# From -- ./inp_files/14323.got.cif
#   From: 2010.03.12/outbox.cif.g09.slc.cpg/sg59_8_cif.got.tgz:14323.got - 2010.04.16 16:29:54.
