data_PCOD8246177
_publ_section_title
;
Structure prediction by ZEFSAII (Michael W. Deem and Ramdas Pophale) SiO2 
 PCOD8246177
Probable space group: P M M N
;
_chemical_formula_sum "Si O2"
_cell_formula_units_Z 56
_cell_length_a 13.551995
_cell_length_b 9.716804
_cell_length_c 28.892171
_cell_angle_alpha 90.000000
_cell_angle_beta 90.000000
_cell_angle_gamma 90.000000
_cell_volume 3804.581151
_symmetry_space_group_name_H-M "P M M N"
_symmetry_group_IT_number 59
_space_group.IT_coordinate_system_code '2'
_symmetry_cell_setting 'orthorhombic'
loop_
_space_group_symop_operation_xyz
x,y,z
1/2-x,1/2-y,z
1/2+x,-y,-z
-x,1/2+y,-z
-x,-y,-z
1/2+x,1/2+y,-z
1/2-x,y,z
x,1/2-y,z
loop_
_atom_site_type_symbol
_atom_site_label
_atom_site_fract_x
_atom_site_fract_y
_atom_site_fract_z
Si Si1 0.859692 0.086569 0.155604
Si Si2 0.023164 0.090739 0.567551
Si Si3 0.136358 0.409123 0.474625
Si Si4 0.635646 0.590484 0.340096
Si Si5 0.367474 0.596751 0.742705
Si Si6 0.636302 0.091928 0.976794
Si Si7 0.981649 0.090199 0.068932
O O1 0.750000 0.023827 0.147797
O O2 0.851615 0.250000 0.152396
O O3 0.901854 0.045023 0.206360
O O4 0.933409 0.032266 0.116142
O O5 0.991997 0.250000 0.568364
O O6 0.100448 0.060796 0.526634
O O7 0.075210 0.045533 0.614854
O O8 0.924897 0.000467 0.561586
O O9 0.250000 0.452652 0.471137
O O10 0.120967 0.250000 0.461651
O O11 0.750000 0.556043 0.349339
O O12 0.620936 0.750000 0.328663
O O13 0.592660 0.505880 0.296603
O O14 0.250000 0.599672 0.742892
O O15 0.408517 0.750000 0.732416
O O16 0.750000 0.049556 0.975862
O O17 0.620441 0.250000 0.962336
O O18 0.580165 0.996674 0.940003
O O19 0.597164 0.065433 0.028390
O O20 0.011023 0.250000 0.072959
#
# Coordination Sequence:
#
# PCOD8246177 Si02
#       7
#     8   8   8   8   8   8   8
#     4   8  13  23  40  60  81 105 132 161 194 233
#     4   9  17  28  42  60  81 107 137 163 191 231
#     4   9  17  29  43  59  81 107 134 165 198 230
#     4   9  16  26  40  58  82 110 135 159 191 233
#     4   8  14  24  38  57  80 104 130 161 196 233
#     4   9  17  28  40  56  81 109 133 160 196 235
#     4   9  16  26  42  61  78 102 137 167 191 227
#
# _framework density 14.719098000000001
#
# number of rings (size 3 to 8) (size 9 to 14) (size 15 to 20)
#    0.000    3.286    0.000    1.714    0.000    4.571 
#    0.000    0.714    0.000    4.714    0.000    1.000 
#    0.000    1.143    0.000    0.000    0.000    0.000 
#
# Total GULP energy -694244.159733 kJ/mol
# GULP energy per Si atom -12397.217138 kJ/mol
# Density = 1.468560 g / cm^3
# Si number density = 14.719098 Si / 1000 Ang^3
#
#
#
# Elastic Constant Matrix: (Units=GPa)
#
#
# Indices 1 2 3 4 5 6 
#
# 1 94.0962 47.1874 53.5167 0.0000 0.0000 0.0000
# 2 47.1874 55.3543 52.3830 0.0000 0.0000 0.0000
# 3 53.5167 52.3830 119.4431 0.0000 0.0000 0.0000
# 4 0.0000 0.0000 0.0000 23.7088 0.0000 0.0000
# 5 0.0000 0.0000 0.0000 0.0000 23.0806 0.0000
# 6 0.0000 0.0000 0.0000 0.0000 0.0000 22.9708
#
#
#
# Elastic Compliance Matrix: (Units=1/GPa)
#
#
# Indices 1 2 3 4 5 6 
#
# 1 0.018959 -0.013886 -0.002405 0.000000 0.000000 0.000000
# 2 -0.013886 0.041053 -0.011782 0.000000 0.000000 0.000000
# 3 -0.002405 -0.011782 0.014617 0.000000 0.000000 0.000000
# 4 0.000000 0.000000 0.000000 0.042178 0.000000 0.000000
# 5 0.000000 0.000000 0.000000 0.000000 0.043326 0.000000
# 6 0.000000 0.000000 0.000000 0.000000 0.000000 0.043534
#
#
# Mechanical properties :
#
#
# Convention : Reuss Voigt Hill
#
# Bulk Modulus (GPa) = 54.10622 63.89640 59.00131
# Shear Modulus (GPa) = 18.79891 21.67248 20.23570
#
# Velocity S-wave (km/s) = 3.57764 3.84136 3.71184
# Velocity P-wave (km/s) = 7.34200 7.94855 7.65129
#
# Compressibility (1/GPa) = 0.01848216
#
# Stress axis : x y z
#
# Youngs Moduli (GPa) = 52.74677 24.35901 68.41399
#
# Poissons Ratio (x) = 0.33825 0.16451
# Poissons Ratio (y) = 0.73243 0.80608
# Poissons Ratio (z) = 0.12684 0.28701
#
# Static dielectric constant tensor:
#      x y z
#    x 2.694350 0.000000 0.000000 
#    y 0.000000 2.806160 0.000000 
#    z 0.000000 0.000000 3.013320 
# 
# 
# High freq. dielectric constant tensor:
#      x y z
#    x 1.534930 0.000000 0.000000 
#    y 0.000000 1.552340 0.000000 
#    z 0.000000 0.000000 1.559930 
# 
# From -- ./inp_files/31893.got.cif
#   From: 2010.03.12/outbox.cif.g09.slc.cpg/sg59_16_cif.got.tgz:31893.got - 2010.04.16 16:29:54.
