data_PCOD8246591
_publ_section_title
;
Structure prediction by ZEFSAII (Michael W. Deem and Ramdas Pophale) SiO2 
 PCOD8246591
Probable space group: P B C N
;
_chemical_formula_sum "Si O2"
_cell_formula_units_Z 64
_cell_length_a 12.220472
_cell_length_b 26.379905
_cell_length_c 10.697964
_cell_angle_alpha 90.000000
_cell_angle_beta 90.000000
_cell_angle_gamma 90.000000
_cell_volume 3448.754972
_symmetry_space_group_name_H-M "P B C N"
_symmetry_group_IT_number 60
_symmetry_cell_setting 'orthorhombic'
loop_
_space_group_symop_operation_xyz
x,y,z
1/2-x,1/2-y,1/2+z
1/2+x,1/2-y,-z
-x,y,1/2-z
-x,-y,-z
1/2+x,1/2+y,1/2-z
1/2-x,1/2+y,z
x,-y,1/2+z
loop_
_atom_site_type_symbol
_atom_site_label
_atom_site_fract_x
_atom_site_fract_y
_atom_site_fract_z
Si Si1 0.500000 0.961443 0.613192
Si Si2 0.774452 0.811980 0.250000
Si Si3 0.787466 0.557220 0.500623
Si Si4 0.626328 0.285934 0.750000
Si Si5 0.212534 0.557220 0.500623
Si Si6 0.625886 0.350099 0.998290
Si Si7 0.874114 0.850099 0.501710
Si Si8 0.624075 0.093007 0.750000
O O1 0.500000 0.987591 0.750000
O O2 0.385335 0.930459 0.599557
O O3 0.614665 0.930459 0.599556
O O4 0.500000 0.000000 0.500000
O O5 0.714322 0.758498 0.250000
O O6 0.845676 0.818179 0.376670
O O7 0.682932 0.853743 0.250000
O O8 0.845676 0.818179 0.123330
O O9 0.738837 0.500000 0.500000
O O10 0.691473 0.597518 0.485193
O O11 0.844905 0.559192 0.633621
O O12 0.500000 0.266713 0.750000
O O13 0.650179 0.317763 0.874826
O O14 0.650179 0.317763 0.625174
O O15 0.308527 0.597518 0.485194
O O16 0.155095 0.559192 0.633622
O O17 0.500000 0.365852 0.005867
O O18 0.500000 0.108926 0.750000
#
# Coordination Sequence:
#
# PCOD8246591 Si02
#       8
#     8   8   8   8   8   8   8   8
#     4  10  22  34  56  82 116 154 194 240 288 330
#     4  10  20  38  62  82 108 144 197 237 283 344
#     4  10  22  33  57  82 116 153 194 233 282 336
#     4  10  21  38  62  85 113 147 182 238 298 347
#     4  10  22  33  57  82 116 153 194 233 282 336
#     4  10  22  39  59  84 117 152 189 232 284 344
#     4  10  22  39  59  84 117 152 189 232 284 344
#     4  10  19  34  52  83 111 146 186 239 289 341
#
# _framework density 18.557423
#
# number of rings (size 3 to 8) (size 9 to 14) (size 15 to 20)
#    0.000    2.000    1.250    1.500    8.750    0.500 
#    0.000    0.000    5.500    3.000    0.000    0.000 
#    0.000    0.000    0.000    0.000    0.000    0.000 
#
# Total GULP energy -793111.000916 kJ/mol
# GULP energy per Si atom -12392.359389 kJ/mol
# Density = 1.851519 g / cm^3
# Si number density = 18.557423 Si / 1000 Ang^3
#
#
#
# Elastic Constant Matrix: (Units=GPa)
#
#
# Indices 1 2 3 4 5 6 
#
# 1 121.6976 59.7358 58.5923 0.0000 0.0000 0.0000
# 2 59.7358 94.7237 52.7327 0.0000 0.0000 0.0000
# 3 58.5923 52.7327 166.7657 0.0000 0.0000 0.0000
# 4 0.0000 0.0000 0.0000 26.3016 0.0000 0.0000
# 5 0.0000 0.0000 0.0000 0.0000 12.8865 0.0000
# 6 0.0000 0.0000 0.0000 0.0000 0.0000 -58.9051
#
#
#
# Elastic Compliance Matrix: (Units=1/GPa)
#
#
# Indices 1 2 3 4 5 6 
#
# 1 0.012602 -0.006653 -0.002324 0.000000 0.000000 0.000000
# 2 -0.006653 0.016325 -0.002825 0.000000 0.000000 0.000000
# 3 -0.002324 -0.002825 0.007706 0.000000 0.000000 0.000000
# 4 0.000000 0.000000 0.000000 0.038021 0.000000 0.000000
# 5 0.000000 0.000000 0.000000 0.000000 0.077600 0.000000
# 6 0.000000 0.000000 0.000000 0.000000 0.000000 -0.016976
#
#
# Mechanical properties :
#
#
# Convention : Reuss Voigt Hill
#
# Bulk Modulus (GPa) = 76.74780 80.58984 78.66882
# Shear Modulus (GPa) = 30.63274 10.19835 20.41554
#
# Velocity S-wave (km/s) = 4.06729 2.34680 3.32042
# Velocity P-wave (km/s) = 7.96893 7.13196 7.56203
#
# Compressibility (1/GPa) = 0.01302969
#
# Stress axis : x y z
#
# Youngs Moduli (GPa) = 79.35429 61.25450 129.76916
#
# Poissons Ratio (x) = 0.40755 0.30154
# Poissons Ratio (y) = 0.52798 0.36654
# Poissons Ratio (z) = 0.18439 0.17302
#
# Static dielectric constant tensor:
#      x y z
#    x 4.055470 0.000000 0.000000 
#    y 0.000000 3.325990 0.000000 
#    z 0.000000 0.000000 3.996060 
# 
# 
# High freq. dielectric constant tensor:
#      x y z
#    x 1.727120 0.000000 0.000000 
#    y 0.000000 1.707410 0.000000 
#    z 0.000000 0.000000 1.740830 
# 
# From -- ./inp_files/11371.got.cif
#   From: 2010.03.12/outbox.cif.g09.slc.cpg/sg60_6_cif.got.tgz:11371.got - 2010.04.10 18:46:24.
