data_PCOD8246809
_publ_section_title
;
Structure prediction by ZEFSAII (Michael W. Deem and Ramdas Pophale) SiO2 
 PCOD8246809
Probable space group: P B C N
;
_chemical_formula_sum "Si O2"
_cell_formula_units_Z 56
_cell_length_a 19.669842
_cell_length_b 14.610305
_cell_length_c 9.032234
_cell_angle_alpha 90.000000
_cell_angle_beta 90.000000
_cell_angle_gamma 90.000000
_cell_volume 2595.705002
_symmetry_space_group_name_H-M "P B C N"
_symmetry_group_IT_number 60
_symmetry_cell_setting 'orthorhombic'
loop_
_space_group_symop_operation_xyz
x,y,z
1/2-x,1/2-y,1/2+z
1/2+x,1/2-y,-z
-x,y,1/2-z
-x,-y,-z
1/2+x,1/2+y,1/2-z
1/2-x,1/2+y,z
x,-y,1/2+z
loop_
_atom_site_type_symbol
_atom_site_label
_atom_site_fract_x
_atom_site_fract_y
_atom_site_fract_z
Si Si1 0.000000 0.521977 0.250000
Si Si2 0.802069 0.009090 0.644558
Si Si3 0.788762 0.447704 0.882398
Si Si4 0.121416 0.610900 0.680317
Si Si5 0.463798 0.184847 0.446245
Si Si6 0.380405 0.804603 0.490365
Si Si7 0.625232 0.394336 0.410482
Si Si8 0.500000 0.338315 0.250000
O O1 0.058064 0.457575 0.187571
O O2 0.036766 0.585318 0.371001
O O3 0.755691 0.065702 0.530229
O O4 0.831922 0.078094 0.766268
O O5 0.756515 0.933663 0.733799
O O6 0.862364 0.961370 0.549902
O O7 0.814844 0.553002 0.879036
O O8 0.851132 0.375728 0.886990
O O9 0.097040 0.688766 0.565119
O O10 0.143648 0.661535 0.829739
O O11 0.538318 0.199013 0.515205
O O12 0.448193 0.269202 0.335365
O O13 0.351701 0.705548 0.533573
O O14 0.545398 0.398648 0.362350
#
# Coordination Sequence:
#
# PCOD8246809 Si02
#       8
#     4   8   8   8   8   8   8   4
#     4  11  18  28  54  87 136 190 198 239 310 384
#     4  10  24  46  64  88 127 164 225 278 316 373
#     4  11  22  38  64  93 132 177 214 247 311 399
#     4  12  20  32  58  97 138 182 206 246 314 393
#     4  10  20  33  54  96 140 168 208 257 312 392
#     4  11  21  37  62  94 133 170 217 257 318 391
#     4  10  24  47  70  92 120 160 212 290 337 386
#     4   9  22  42  68  97 120 160 218 279 344 394
#
# _framework density 21.574100999999999
#
# number of rings (size 3 to 8) (size 9 to 14) (size 15 to 20)
#    0.000    1.429    4.286    1.286    0.000    1.714 
#    5.143    0.000    0.000    0.000    0.000    0.000 
#    0.000    0.000    0.000    0.000    0.000    0.000 
#
# Total GULP energy -694164.235542 kJ/mol
# GULP energy per Si atom -12395.789920 kJ/mol
# Density = 2.152500 g / cm^3
# Si number density = 21.574101 Si / 1000 Ang^3
#
#
#
# Elastic Constant Matrix: (Units=GPa)
#
#
# Indices 1 2 3 4 5 6 
#
# 1 71.4836 29.7663 37.6235 0.0000 0.0000 0.0000
# 2 29.7663 70.3040 34.3210 0.0000 0.0000 0.0000
# 3 37.6235 34.3210 112.2716 0.0000 0.0000 0.0000
# 4 0.0000 0.0000 0.0000 17.8404 0.0000 0.0000
# 5 0.0000 0.0000 0.0000 0.0000 43.0340 0.0000
# 6 0.0000 0.0000 0.0000 0.0000 0.0000 17.4075
#
#
#
# Elastic Compliance Matrix: (Units=1/GPa)
#
#
# Indices 1 2 3 4 5 6 
#
# 1 0.018762 -0.005730 -0.004536 0.000000 0.000000 0.000000
# 2 -0.005730 0.018469 -0.003726 0.000000 0.000000 0.000000
# 3 -0.004536 -0.003726 0.011566 0.000000 0.000000 0.000000
# 4 0.000000 0.000000 0.000000 0.056052 0.000000 0.000000
# 5 0.000000 0.000000 0.000000 0.000000 0.023237 0.000000
# 6 0.000000 0.000000 0.000000 0.000000 0.000000 0.057446
#
#
# Mechanical properties :
#
#
# Convention : Reuss Voigt Hill
#
# Bulk Modulus (GPa) = 48.04349 50.83120 49.43735
# Shear Modulus (GPa) = 22.68045 25.81295 24.24670
#
# Velocity S-wave (km/s) = 3.24586 3.46277 3.35607
# Velocity P-wave (km/s) = 6.03033 6.29286 6.16299
#
# Compressibility (1/GPa) = 0.02081447
#
# Stress axis : x y z
#
# Youngs Moduli (GPa) = 53.29789 54.14581 86.46032
#
# Poissons Ratio (x) = 0.31023 0.39219
# Poissons Ratio (y) = 0.30537 0.32213
# Poissons Ratio (z) = 0.24176 0.20173
#
# Static dielectric constant tensor:
#      x y z
#    x 3.835210 0.000000 0.000000 
#    y 0.000000 3.700080 0.000000 
#    z 0.000000 0.000000 4.173380 
# 
# 
# High freq. dielectric constant tensor:
#      x y z
#    x 1.836210 0.000000 0.000000 
#    y 0.000000 1.816930 0.000000 
#    z 0.000000 0.000000 1.860710 
# 
# From -- ./inp_files/7453.got.cif
#   From: 2010.03.12/outbox.cif.g09.slc.cpg/sg60_4_cif.got.tgz:7453.got - 2010.04.10 18:46:24.
