data_PCOD8246746
_publ_section_title
;
Structure prediction by ZEFSAII (Michael W. Deem and Ramdas Pophale) SiO2 
 PCOD8246746
Probable space group: P B C N
;
_chemical_formula_sum "Si O2"
_cell_formula_units_Z 40
_cell_length_a 8.056494
_cell_length_b 12.386903
_cell_length_c 16.521329
_cell_angle_alpha 90.000000
_cell_angle_beta 90.000000
_cell_angle_gamma 90.000000
_cell_volume 1648.746188
_symmetry_space_group_name_H-M "P B C N"
_symmetry_group_IT_number 60
_symmetry_cell_setting 'orthorhombic'
loop_
_space_group_symop_operation_xyz
x,y,z
1/2-x,1/2-y,1/2+z
1/2+x,1/2-y,-z
-x,y,1/2-z
-x,-y,-z
1/2+x,1/2+y,1/2-z
1/2-x,1/2+y,z
x,-y,1/2+z
loop_
_atom_site_type_symbol
_atom_site_label
_atom_site_fract_x
_atom_site_fract_y
_atom_site_fract_z
Si Si1 0.661424 0.582259 0.578758
Si Si2 0.080415 0.875748 0.835588
Si Si3 0.448026 0.790055 0.839020
Si Si4 0.136122 0.467576 0.565317
Si Si5 0.501666 0.145713 0.845459
O O1 0.444547 0.521649 0.393450
O O2 0.559391 0.690644 0.597925
O O3 0.697286 0.567674 0.482383
O O4 0.833819 0.586513 0.627430
O O5 0.274216 0.849882 0.827752
O O6 0.989879 0.770415 0.874918
O O7 0.000000 0.905785 0.750000
O O8 0.500000 0.748720 0.750000
O O9 0.583268 0.871071 0.875608
O O10 0.000000 0.500000 0.500000
O O11 0.158134 0.576829 0.619786
O O12 0.500000 0.146026 0.750000
#
# Coordination Sequence:
#
# PCOD8246746 Si02
#       5
#     8   8   8   8   8
#     4  10  21  38  65  95 137 169 222 283 332 394
#     4  10  20  37  65  98 133 168 224 281 329 395
#     4  11  22  40  69 100 132 184 231 274 341 417
#     4  10  19  38  66  90 132 183 217 269 337 418
#     4   9  18  34  63  91 125 176 218 257 324 411
#
# _framework density 24.260857999999999
#
# number of rings (size 3 to 8) (size 9 to 14) (size 15 to 20)
#    0.000    2.000    4.000    1.200    0.000    0.000 
#    0.000   14.000    4.400   12.000    0.000    0.000 
#    0.000    0.000    0.000    0.000    0.000    0.000 
#
# Total GULP energy -495778.597150 kJ/mol
# GULP energy per Si atom -12394.464929 kJ/mol
# Density = 2.420564 g / cm^3
# Si number density = 24.260858 Si / 1000 Ang^3
#
#
#
# Elastic Constant Matrix: (Units=GPa)
#
#
# Indices 1 2 3 4 5 6 
#
# 1 37.6041 44.0854 35.1646 0.0000 0.0000 0.0000
# 2 44.0854 185.9925 77.1497 0.0000 0.0000 0.0000
# 3 35.1646 77.1497 112.7052 0.0000 0.0000 0.0000
# 4 0.0000 0.0000 0.0000 23.3767 0.0000 0.0000
# 5 0.0000 0.0000 0.0000 0.0000 48.4977 0.0000
# 6 0.0000 0.0000 0.0000 0.0000 0.0000 6.1023
#
#
#
# Elastic Compliance Matrix: (Units=1/GPa)
#
#
# Indices 1 2 3 4 5 6 
#
# 1 0.042328 -0.006361 -0.008852 0.000000 0.000000 0.000000
# 2 -0.006361 0.008464 -0.003809 0.000000 0.000000 0.000000
# 3 -0.008852 -0.003809 0.014242 0.000000 0.000000 0.000000
# 4 0.000000 0.000000 0.000000 0.042778 0.000000 0.000000
# 5 0.000000 0.000000 0.000000 0.000000 0.020620 0.000000
# 6 0.000000 0.000000 0.000000 0.000000 0.000000 0.163873
#
#
# Mechanical properties :
#
#
# Convention : Reuss Voigt Hill
#
# Bulk Modulus (GPa) = 37.05154 72.12237 54.58695
# Shear Modulus (GPa) = 14.73413 27.58879 21.16146
#
# Velocity S-wave (km/s) = 2.46706 3.37586 2.95659
# Velocity P-wave (km/s) = 4.83947 6.70728 5.84842
#
# Compressibility (1/GPa) = 0.02698943
#
# Stress axis : x y z
#
# Youngs Moduli (GPa) = 23.62481 118.14078 70.21291
#
# Poissons Ratio (x) = 0.75150 0.62155
# Poissons Ratio (y) = 0.15028 0.26747
# Poissons Ratio (z) = 0.20914 0.45006
#
# Static dielectric constant tensor:
#      x y z
#    x 4.183510 0.000000 0.000000 
#    y 0.000000 5.222780 0.000000 
#    z 0.000000 0.000000 4.868270 
# 
# 
# High freq. dielectric constant tensor:
#      x y z
#    x 1.938470 0.000000 0.000000 
#    y 0.000000 1.978900 0.000000 
#    z 0.000000 0.000000 1.965970 
# 
# From -- ./inp_files/14811.got.cif
#   From: 2010.03.12/outbox.cif.g09.slc.cpg/sg60_8_cif.got.tgz:14811.got - 2010.04.10 18:46:24.
