data_PCOD8246397
_publ_section_title
;
Structure prediction by ZEFSAII (Michael W. Deem and Ramdas Pophale) SiO2 
 PCOD8246397
Probable space group: P B C N
;
_chemical_formula_sum "Si O2"
_cell_formula_units_Z 64
_cell_length_a 19.080013
_cell_length_b 9.229401
_cell_length_c 20.227513
_cell_angle_alpha 90.000000
_cell_angle_beta 90.000000
_cell_angle_gamma 90.000000
_cell_volume 3562.006199
_symmetry_space_group_name_H-M "P B C N"
_symmetry_group_IT_number 60
_symmetry_cell_setting 'orthorhombic'
loop_
_space_group_symop_operation_xyz
x,y,z
1/2-x,1/2-y,1/2+z
1/2+x,1/2-y,-z
-x,y,1/2-z
-x,-y,-z
1/2+x,1/2+y,1/2-z
1/2-x,1/2+y,z
x,-y,1/2+z
loop_
_atom_site_type_symbol
_atom_site_label
_atom_site_fract_x
_atom_site_fract_y
_atom_site_fract_z
Si Si1 0.812809 0.490657 0.978896
Si Si2 0.962394 0.048046 0.816537
Si Si3 0.960115 0.603910 0.452597
Si Si4 0.827406 0.865605 0.839194
Si Si5 0.536242 0.402422 0.052688
Si Si6 0.195924 0.460736 0.175607
Si Si7 0.941314 0.618798 0.305314
Si Si8 0.680530 0.319927 0.995458
O O1 0.881895 0.391278 0.982450
O O2 0.800217 0.516539 0.902259
O O3 0.752658 0.399112 0.016299
O O4 0.818836 0.648895 0.012732
O O5 0.929470 0.209206 0.813492
O O6 0.000000 0.005642 0.750000
O O7 0.021145 0.038190 0.873924
O O8 0.903660 0.927030 0.824341
O O9 0.963398 0.550070 0.376116
O O10 0.000000 0.500000 0.500000
O O11 0.997330 0.754049 0.458517
O O12 0.771287 0.973121 0.803984
O O13 0.813662 0.708066 0.806645
O O14 0.826844 0.851152 0.918061
O O15 0.500000 0.500000 0.000000
O O16 0.618941 0.391285 0.038897
O O17 0.133625 0.548231 0.212843
O O18 0.000000 0.583129 0.250000
#
# Coordination Sequence:
#
# PCOD8246397 Si02
#       8
#     8   8   8   8   8   8   8   8
#     4   9  19  31  50  78 111 140 175 219 271 320
#     4  10  21  36  55  76 108 146 177 223 270 323
#     4  10  19  34  54  78 108 142 177 225 272 319
#     4  10  18  32  52  79 107 136 179 223 270 316
#     4  11  21  33  56  81 108 139 182 225 273 323
#     4   9  18  30  53  79 105 137 178 223 262 321
#     4   9  19  34  53  79 105 142 181 217 265 318
#     4  10  19  32  51  79 108 140 177 223 270 322
#
# _framework density 17.967403000000001
#
# number of rings (size 3 to 8) (size 9 to 14) (size 15 to 20)
#    0.000    2.250    2.500    0.750    1.750    3.500 
#    0.000    0.000    2.750    1.500    0.000    0.000 
#    0.000    0.000    0.000    0.000    0.000    0.000 
#
# Total GULP energy -793091.368689 kJ/mol
# GULP energy per Si atom -12392.052636 kJ/mol
# Density = 1.792651 g / cm^3
# Si number density = 17.967403 Si / 1000 Ang^3
#
#
#
# Elastic Constant Matrix: (Units=GPa)
#
#
# Indices 1 2 3 4 5 6 
#
# 1 143.3542 46.0177 46.0571 0.0000 0.0000 0.0000
# 2 46.0177 57.1367 31.6272 0.0000 0.0000 0.0000
# 3 46.0571 31.6272 70.1216 0.0000 0.0000 0.0000
# 4 0.0000 0.0000 0.0000 14.5789 0.0000 0.0000
# 5 0.0000 0.0000 0.0000 0.0000 25.5341 0.0000
# 6 0.0000 0.0000 0.0000 0.0000 0.0000 38.3424
#
#
#
# Elastic Compliance Matrix: (Units=1/GPa)
#
#
# Indices 1 2 3 4 5 6 
#
# 1 0.010179 -0.005994 -0.003982 0.000000 0.000000 0.000000
# 2 -0.005994 0.026855 -0.008175 0.000000 0.000000 0.000000
# 3 -0.003982 -0.008175 0.020564 0.000000 0.000000 0.000000
# 4 0.000000 0.000000 0.000000 0.068592 0.000000 0.000000
# 5 0.000000 0.000000 0.000000 0.000000 0.039163 0.000000
# 6 0.000000 0.000000 0.000000 0.000000 0.000000 0.026081
#
#
# Mechanical properties :
#
#
# Convention : Reuss Voigt Hill
#
# Bulk Modulus (GPa) = 46.96068 57.55737 52.25903
# Shear Modulus (GPa) = 21.29141 25.48512 23.38827
#
# Velocity S-wave (km/s) = 3.44612 3.77026 3.61183
# Velocity P-wave (km/s) = 6.48287 7.14542 6.82220
#
# Compressibility (1/GPa) = 0.02129441
#
# Stress axis : x y z
#
# Youngs Moduli (GPa) = 98.23836 37.23728 48.62839
#
# Poissons Ratio (x) = 0.22320 0.19366
# Poissons Ratio (y) = 0.58883 0.39756
# Poissons Ratio (z) = 0.39123 0.30443
#
# Static dielectric constant tensor:
#      x y z
#    x 3.864100 0.000000 0.000000 
#    y 0.000000 3.415750 0.000000 
#    z 0.000000 0.000000 2.888910 
# 
# 
# High freq. dielectric constant tensor:
#      x y z
#    x 1.706490 0.000000 0.000000 
#    y 0.000000 1.702020 0.000000 
#    z 0.000000 0.000000 1.654030 
# 
# From -- ./inp_files/24542.got.cif
#   From: 2010.03.12/outbox.cif.g09.slc.cpg/sg60_13_cif.got.tgz:24542.got - 2010.04.10 18:46:24.
