data_PCOD8246291
_publ_section_title
;
Structure prediction by ZEFSAII (Michael W. Deem and Ramdas Pophale) SiO2 
 PCOD8246291
Probable space group: P B C N
;
_chemical_formula_sum "Si O2"
_cell_formula_units_Z 52
_cell_length_a 5.405825
_cell_length_b 27.461927
_cell_length_c 16.963509
_cell_angle_alpha 90.000000
_cell_angle_beta 90.000000
_cell_angle_gamma 90.000000
_cell_volume 2518.307067
_symmetry_space_group_name_H-M "P B C N"
_symmetry_group_IT_number 60
_symmetry_cell_setting 'orthorhombic'
loop_
_space_group_symop_operation_xyz
x,y,z
1/2-x,1/2-y,1/2+z
1/2+x,1/2-y,-z
-x,y,1/2-z
-x,-y,-z
1/2+x,1/2+y,1/2-z
1/2-x,1/2+y,z
x,-y,1/2+z
loop_
_atom_site_type_symbol
_atom_site_label
_atom_site_fract_x
_atom_site_fract_y
_atom_site_fract_z
Si Si1 0.000000 0.239760 0.250000
Si Si2 0.346327 0.318008 0.324334
Si Si3 0.005106 0.251417 0.950184
Si Si4 0.764571 0.036714 0.839528
Si Si5 0.266836 0.923979 0.339122
Si Si6 0.751076 0.929729 0.799244
Si Si7 0.857103 0.327019 0.832141
O O1 0.816899 0.272686 0.200588
O O2 0.880032 0.206857 0.317874
O O3 0.500000 0.336772 0.250000
O O4 0.516292 0.296632 0.394472
O O5 0.193016 0.365839 0.348328
O O6 0.016145 0.302067 0.901006
O O7 0.261237 0.248454 0.996874
O O8 0.747800 0.055345 0.749574
O O9 0.508818 0.053179 0.881937
O O10 0.007626 0.060515 0.880771
O O11 0.793303 0.978686 0.848711
O O12 0.500000 0.937840 0.750000
O O13 0.717500 0.882341 0.855645
O O14 0.000000 0.919729 0.750000
O O15 0.000000 0.329480 0.750000
#
# Coordination Sequence:
#
# PCOD8246291 Si02
#       7
#     4   8   8   8   8   8   8
#     4  12  18  36  60  86 128 142 212 252 316 348
#     4  12  23  36  62  91 117 165 202 258 308 363
#     4  12  27  44  60  85 128 170 210 254 307 368
#     4  10  16  31  46  85 124 142 173 246 315 355
#     4  10  19  29  51  80 123 142 187 235 308 359
#     4  11  19  30  54  84 124 150 185 241 316 349
#     4  11  23  38  62  91 118 162 208 256 304 364
#
# _framework density 20.648790999999999
#
# number of rings (size 3 to 8) (size 9 to 14) (size 15 to 20)
#    0.000    0.923    8.462    1.846    0.000    0.000 
#    0.000    0.000    0.000    0.000    0.000    6.462 
#    0.000    0.000    0.000    0.000    0.000    0.000 
#
# Total GULP energy -644394.160350 kJ/mol
# GULP energy per Si atom -12392.195391 kJ/mol
# Density = 2.060179 g / cm^3
# Si number density = 20.648791 Si / 1000 Ang^3
#
#
#
# Elastic Constant Matrix: (Units=GPa)
#
#
# Indices 1 2 3 4 5 6 
#
# 1 143.4762 29.3061 17.6470 0.0000 0.0000 0.0000
# 2 29.3061 174.5934 24.7438 0.0000 0.0000 0.0000
# 3 17.6470 24.7438 50.1991 0.0000 0.0000 0.0000
# 4 0.0000 0.0000 0.0000 1.6936 0.0000 0.0000
# 5 0.0000 0.0000 0.0000 0.0000 20.8409 0.0000
# 6 0.0000 0.0000 0.0000 0.0000 0.0000 62.5045
#
#
#
# Elastic Compliance Matrix: (Units=1/GPa)
#
#
# Indices 1 2 3 4 5 6 
#
# 1 0.007426 -0.000942 -0.002146 0.000000 0.000000 0.000000
# 2 -0.000942 0.006277 -0.002763 0.000000 0.000000 0.000000
# 3 -0.002146 -0.002763 0.022037 0.000000 0.000000 0.000000
# 4 0.000000 0.000000 0.000000 0.590461 0.000000 0.000000
# 5 0.000000 0.000000 0.000000 0.000000 0.047983 0.000000
# 6 0.000000 0.000000 0.000000 0.000000 0.000000 0.015999
#
#
# Mechanical properties :
#
#
# Convention : Reuss Voigt Hill
#
# Bulk Modulus (GPa) = 41.60112 56.85137 49.22624
# Shear Modulus (GPa) = 7.04327 36.77926 21.91126
#
# Velocity S-wave (km/s) = 1.84889 4.22498 3.26105
# Velocity P-wave (km/s) = 4.97480 7.16889 6.17015
#
# Compressibility (1/GPa) = 0.02403782
#
# Stress axis : x y z
#
# Youngs Moduli (GPa) = 134.65750 159.30323 45.37820
#
# Poissons Ratio (x) = 0.15012 0.09739
# Poissons Ratio (y) = 0.12690 0.12538
# Poissons Ratio (z) = 0.28899 0.44014
#
# Static dielectric constant tensor:
#      x y z
#    x 5.192810 0.000000 0.000000 
#    y 0.000000 4.102600 0.000000 
#    z 0.000000 0.000000 3.278550 
# 
# 
# High freq. dielectric constant tensor:
#      x y z
#    x 1.833830 0.000000 0.000000 
#    y 0.000000 1.829840 0.000000 
#    z 0.000000 0.000000 1.723830 
# 
# From -- ./inp_files/18771.got.cif
#   From: 2010.03.12/outbox.cif.g09.slc.cpg/sg60_10_cif.got.tgz:18771.got - 2010.04.10 18:46:24.
