data_PCOD8246838
_publ_section_title
;
Structure prediction by ZEFSAII (Michael W. Deem and Ramdas Pophale) SiO2 
 PCOD8246838
Probable space group: P B C N
;
_chemical_formula_sum "Si O2"
_cell_formula_units_Z 40
_cell_length_a 19.663872
_cell_length_b 12.226807
_cell_length_c 9.329905
_cell_angle_alpha 90.000000
_cell_angle_beta 90.000000
_cell_angle_gamma 90.000000
_cell_volume 2243.155171
_symmetry_space_group_name_H-M "P B C N"
_symmetry_group_IT_number 60
_symmetry_cell_setting 'orthorhombic'
loop_
_space_group_symop_operation_xyz
x,y,z
1/2-x,1/2-y,1/2+z
1/2+x,1/2-y,-z
-x,y,1/2-z
-x,-y,-z
1/2+x,1/2+y,1/2-z
1/2-x,1/2+y,z
x,-y,1/2+z
loop_
_atom_site_type_symbol
_atom_site_label
_atom_site_fract_x
_atom_site_fract_y
_atom_site_fract_z
Si Si1 0.704717 0.905604 0.529584
Si Si2 0.661991 0.346562 0.702285
Si Si3 0.449942 0.517214 0.872604
Si Si4 0.667468 0.666896 0.532441
Si Si5 0.698933 0.893803 0.198295
O O1 0.779910 0.892140 0.597379
O O2 0.660294 0.797060 0.550620
O O3 0.710909 0.930415 0.361418
O O4 0.665725 0.005250 0.609949
O O5 0.591427 0.406261 0.664803
O O6 0.653187 0.215291 0.680871
O O7 0.681886 0.368087 0.867986
O O8 0.500000 0.556134 0.750000
O O9 0.401354 0.617502 0.907884
O O10 0.500000 0.500000 0.000000
O O11 0.727523 0.624145 0.630579
#
# Coordination Sequence:
#
# PCOD8246838 Si02
#       5
#     8   8   8   8   8
#     4  10  20  34  57  83 114 143 180 237 280 330
#     4  10  21  37  54  82 113 146 188 227 283 326
#     4  12  24  38  58  80 112 153 187 226 269 335
#     4  10  21  37  54  82 113 145 189 227 281 326
#     4  10  20  34  57  83 114 144 179 238 280 329
#
# _framework density 17.832027
#
# number of rings (size 3 to 8) (size 9 to 14) (size 15 to 20)
#    0.000    1.600    4.000    1.200    2.800    1.600 
#    0.000    0.000    0.000    2.400    0.000    0.000 
#    0.000    0.000    0.000    0.000    0.000    0.000 
#
# Total GULP energy -495868.011285 kJ/mol
# GULP energy per Si atom -12396.700282 kJ/mol
# Density = 1.779144 g / cm^3
# Si number density = 17.832027 Si / 1000 Ang^3
#
#
#
# Elastic Constant Matrix: (Units=GPa)
#
#
# Indices 1 2 3 4 5 6 
#
# 1 77.9472 44.7988 39.7508 0.0000 0.0000 0.0000
# 2 44.7988 137.0263 69.9042 0.0000 0.0000 0.0000
# 3 39.7508 69.9042 149.6747 0.0000 0.0000 0.0000
# 4 0.0000 0.0000 0.0000 34.3465 0.0000 0.0000
# 5 0.0000 0.0000 0.0000 0.0000 29.8522 0.0000
# 6 0.0000 0.0000 0.0000 0.0000 0.0000 28.7333
#
#
#
# Elastic Compliance Matrix: (Units=1/GPa)
#
#
# Indices 1 2 3 4 5 6 
#
# 1 0.016448 -0.004134 -0.002438 0.000000 0.000000 0.000000
# 2 -0.004134 0.010620 -0.003862 0.000000 0.000000 0.000000
# 3 -0.002438 -0.003862 0.009132 0.000000 0.000000 0.000000
# 4 0.000000 0.000000 0.000000 0.029115 0.000000 0.000000
# 5 0.000000 0.000000 0.000000 0.000000 0.033498 0.000000
# 6 0.000000 0.000000 0.000000 0.000000 0.000000 0.034803
#
#
# Mechanical properties :
#
#
# Convention : Reuss Voigt Hill
#
# Bulk Modulus (GPa) = 65.21842 74.83954 70.02898
# Shear Modulus (GPa) = 31.32948 32.59935 31.96442
#
# Velocity S-wave (km/s) = 4.19611 4.28031 4.23842
# Velocity P-wave (km/s) = 7.75433 8.15404 7.95669
#
# Compressibility (1/GPa) = 0.01533309
#
# Stress axis : x y z
#
# Youngs Moduli (GPa) = 60.79678 94.16601 109.50277
#
# Poissons Ratio (x) = 0.38928 0.26693
# Poissons Ratio (y) = 0.25133 0.42288
# Poissons Ratio (z) = 0.14820 0.36366
#
# Static dielectric constant tensor:
#      x y z
#    x 2.290360 0.000000 0.000000 
#    y 0.000000 2.668960 0.000000 
#    z 0.000000 0.000000 3.555570 
# 
# 
# High freq. dielectric constant tensor:
#      x y z
#    x 1.644390 0.000000 0.000000 
#    y 0.000000 1.707090 0.000000 
#    z 0.000000 0.000000 1.714460 
# 
# From -- ./inp_files/5670.got.cif
#   From: 2010.03.12/outbox.cif.g09.slc.cpg/sg60_3_cif.got.tgz:5670.got - 2010.04.10 18:46:24.
