data_PCOD8246380
_publ_section_title
;
Structure prediction by ZEFSAII (Michael W. Deem and Ramdas Pophale) SiO2 
 PCOD8246380
Probable space group: P B C N
;
_chemical_formula_sum "Si O2"
_cell_formula_units_Z 48
_cell_length_a 13.640240
_cell_length_b 35.260426
_cell_length_c 4.955672
_cell_angle_alpha 90.000000
_cell_angle_beta 90.000000
_cell_angle_gamma 90.000000
_cell_volume 2383.483341
_symmetry_space_group_name_H-M "P B C N"
_symmetry_group_IT_number 60
_symmetry_cell_setting 'orthorhombic'
loop_
_space_group_symop_operation_xyz
x,y,z
1/2-x,1/2-y,1/2+z
1/2+x,1/2-y,-z
-x,y,1/2-z
-x,-y,-z
1/2+x,1/2+y,1/2-z
1/2-x,1/2+y,z
x,-y,1/2+z
loop_
_atom_site_type_symbol
_atom_site_label
_atom_site_fract_x
_atom_site_fract_y
_atom_site_fract_z
Si Si1 0.000000 0.538985 0.250000
Si Si2 0.703925 0.355859 0.566070
Si Si3 0.796082 0.231778 0.929151
Si Si4 0.500000 0.911528 0.250000
Si Si5 0.794705 0.392473 0.062848
Si Si6 0.500000 0.662280 0.250000
Si Si7 0.500000 0.713897 0.750000
Si Si8 0.292992 0.978625 0.598541
O O1 0.911265 0.514576 0.377476
O O2 0.041895 0.564521 0.496569
O O3 0.719557 0.312440 0.484980
O O4 0.723840 0.382430 0.310082
O O5 0.591900 0.363507 0.660269
O O6 0.777039 0.365055 0.810341
O O7 0.779535 0.255625 0.199655
O O8 0.907878 0.239838 0.835506
O O9 0.407993 0.886636 0.351767
O O10 0.770247 0.435346 0.971662
O O11 0.535287 0.688117 0.499722
O O12 0.247417 0.007642 0.380460
#
# Coordination Sequence:
#
# PCOD8246380 Si02
#       8
#     4   8   8   4   8   4   4   8
#     4  10  18  31  50  75 106 151 204 242 268 309
#     4  11  22  39  62  87 112 145 191 243 289 331
#     4  11  22  39  63  90 118 151 187 233 284 336
#     4  10  20  35  52  77 120 161 186 224 274 333
#     4  11  22  37  56  83 117 155 190 230 280 342
#     4  10  20  38  64  89 106 136 192 260 296 308
#     4  10  20  38  62  89 116 144 186 242 284 318
#     4  11  20  32  51  79 110 148 191 236 278 328
#
# _framework density 20.138591999999999
#
# number of rings (size 3 to 8) (size 9 to 14) (size 15 to 20)
#    0.000    1.333    0.000   10.500    0.000    0.667 
#    0.000    3.333    0.000    4.000    0.000   11.667 
#    0.000    0.000    0.000    0.000    0.000    0.000 
#
# Total GULP energy -595167.654906 kJ/mol
# GULP energy per Si atom -12399.326144 kJ/mol
# Density = 2.009276 g / cm^3
# Si number density = 20.138592 Si / 1000 Ang^3
#
#
#
# Elastic Constant Matrix: (Units=GPa)
#
#
# Indices 1 2 3 4 5 6 
#
# 1 75.0987 59.7867 37.6137 0.0000 0.0000 0.0000
# 2 59.7867 85.9016 54.9986 0.0000 0.0000 0.0000
# 3 37.6137 54.9986 156.0162 0.0000 0.0000 0.0000
# 4 0.0000 0.0000 0.0000 40.6877 0.0000 0.0000
# 5 0.0000 0.0000 0.0000 0.0000 36.9370 0.0000
# 6 0.0000 0.0000 0.0000 0.0000 0.0000 11.7332
#
#
#
# Elastic Compliance Matrix: (Units=1/GPa)
#
#
# Indices 1 2 3 4 5 6 
#
# 1 0.029865 -0.020891 0.000164 0.000000 0.000000 0.000000
# 2 -0.020891 0.029648 -0.005415 0.000000 0.000000 0.000000
# 3 0.000164 -0.005415 0.008279 0.000000 0.000000 0.000000
# 4 0.000000 0.000000 0.000000 0.024577 0.000000 0.000000
# 5 0.000000 0.000000 0.000000 0.000000 0.027073 0.000000
# 6 0.000000 0.000000 0.000000 0.000000 0.000000 0.085228
#
#
# Mechanical properties :
#
#
# Convention : Reuss Voigt Hill
#
# Bulk Modulus (GPa) = 64.47956 69.09049 66.78502
# Shear Modulus (GPa) = 19.07503 28.84610 23.96057
#
# Velocity S-wave (km/s) = 3.08098 3.78878 3.45307
# Velocity P-wave (km/s) = 6.68910 7.31586 7.00949
#
# Compressibility (1/GPa) = 0.01550879
#
# Stress axis : x y z
#
# Youngs Moduli (GPa) = 33.48411 33.72914 120.79016
#
# Poissons Ratio (x) = 0.70463 -0.01985
# Poissons Ratio (y) = 0.69951 0.65407
# Poissons Ratio (z) = -0.00550 0.18264
#
# Static dielectric constant tensor:
#      x y z
#    x 3.517290 0.000000 0.000000 
#    y 0.000000 3.433450 0.000000 
#    z 0.000000 0.000000 4.386390 
# 
# 
# High freq. dielectric constant tensor:
#      x y z
#    x 1.754800 0.000000 0.000000 
#    y 0.000000 1.759840 0.000000 
#    z 0.000000 0.000000 1.828680 
# 
# From -- ./inp_files/1453.got.cif
#   From: 2010.03.12/outbox.cif.g09.slc.cpg/sg60_1_cif.got.tgz:1453.got - 2010.04.10 18:46:24.
