data_PCOD8246456
_publ_section_title
;
Structure prediction by ZEFSAII (Michael W. Deem and Ramdas Pophale) SiO2 
 PCOD8246456
Probable space group: P B C N
;
_chemical_formula_sum "Si O2"
_cell_formula_units_Z 64
_cell_length_a 11.634292
_cell_length_b 14.320085
_cell_length_c 18.503097
_cell_angle_alpha 90.000000
_cell_angle_beta 90.000000
_cell_angle_gamma 90.000000
_cell_volume 3082.690904
_symmetry_space_group_name_H-M "P B C N"
_symmetry_group_IT_number 60
_symmetry_cell_setting 'orthorhombic'
loop_
_space_group_symop_operation_xyz
x,y,z
1/2-x,1/2-y,1/2+z
1/2+x,1/2-y,-z
-x,y,1/2-z
-x,-y,-z
1/2+x,1/2+y,1/2-z
1/2-x,1/2+y,z
x,-y,1/2+z
loop_
_atom_site_type_symbol
_atom_site_label
_atom_site_fract_x
_atom_site_fract_y
_atom_site_fract_z
Si Si1 0.477632 0.356591 0.461139
Si Si2 0.238050 0.713929 0.973373
Si Si3 0.509524 0.444644 0.894985
Si Si4 0.685455 0.718166 0.881469
Si Si5 0.867073 0.524252 0.512078
Si Si6 0.734119 0.391549 0.620581
Si Si7 0.133983 0.372213 0.735045
Si Si8 0.743598 0.490833 0.360809
O O1 0.351486 0.327513 0.435667
O O2 0.483031 0.359439 0.548199
O O3 0.514513 0.457291 0.434987
O O4 0.565516 0.283626 0.425997
O O5 0.270347 0.741796 0.056658
O O6 0.139901 0.634091 0.968633
O O7 0.199872 0.804974 0.929969
O O8 0.387845 0.436246 0.852985
O O9 0.625315 0.449752 0.846337
O O10 0.673536 0.787624 0.815208
O O11 0.726557 0.619583 0.848785
O O12 0.813472 0.463966 0.576842
O O13 0.789762 0.506861 0.441573
O O14 0.000000 0.500000 0.500000
O O15 0.801550 0.357734 0.690067
O O16 0.165208 0.471170 0.697651
O O17 0.000000 0.369679 0.750000
#
# Coordination Sequence:
#
# PCOD8246456 Si02
#       8
#     8   8   8   8   8   8   8   8
#     4  10  18  35  64  97 129 161 221 280 328 387
#     4  12  22  38  69 100 133 175 226 280 333 408
#     4  10  18  39  66  95 124 166 225 284 323 385
#     4  11  23  41  70  99 134 184 230 275 344 416
#     4  12  24  41  67 104 137 181 228 280 344 411
#     4  12  25  41  68 101 133 174 235 283 334 404
#     4  12  27  48  66  98 145 185 220 283 356 419
#     4  11  23  46  72  95 136 184 223 284 352 409
#
# _framework density 20.761081999999998
#
# number of rings (size 3 to 8) (size 9 to 14) (size 15 to 20)
#    0.000    0.750    6.250    2.250    1.750    1.500 
#    6.750    0.000    0.000    0.000    0.000    0.000 
#    0.000    0.000    0.000    0.000    0.000    0.000 
#
# Total GULP energy -793372.172296 kJ/mol
# GULP energy per Si atom -12396.440192 kJ/mol
# Density = 2.071383 g / cm^3
# Si number density = 20.761082 Si / 1000 Ang^3
#
#
#
# Elastic Constant Matrix: (Units=GPa)
#
#
# Indices 1 2 3 4 5 6 
#
# 1 108.1957 30.8593 28.4188 0.0000 0.0000 0.0000
# 2 30.8593 123.1398 46.3221 0.0000 0.0000 0.0000
# 3 28.4188 46.3221 106.6887 0.0000 0.0000 0.0000
# 4 0.0000 0.0000 0.0000 33.1799 0.0000 0.0000
# 5 0.0000 0.0000 0.0000 0.0000 28.7404 0.0000
# 6 0.0000 0.0000 0.0000 0.0000 0.0000 22.6025
#
#
#
# Elastic Compliance Matrix: (Units=1/GPa)
#
#
# Indices 1 2 3 4 5 6 
#
# 1 0.010278 -0.001848 -0.001936 0.000000 0.000000 0.000000
# 2 -0.001848 0.010038 -0.003866 0.000000 0.000000 0.000000
# 3 -0.001936 -0.003866 0.011567 0.000000 0.000000 0.000000
# 4 0.000000 0.000000 0.000000 0.030139 0.000000 0.000000
# 5 0.000000 0.000000 0.000000 0.000000 0.034794 0.000000
# 6 0.000000 0.000000 0.000000 0.000000 0.000000 0.044243
#
#
# Mechanical properties :
#
#
# Convention : Reuss Voigt Hill
#
# Bulk Modulus (GPa) = 60.29677 61.02496 60.66087
# Shear Modulus (GPa) = 30.88587 32.39949 31.64268
#
# Velocity S-wave (km/s) = 3.86123 3.95471 3.90825
# Velocity P-wave (km/s) = 6.99893 7.09301 7.04613
#
# Compressibility (1/GPa) = 0.01658464
#
# Stress axis : x y z
#
# Youngs Moduli (GPa) = 97.29649 99.61896 86.45063
#
# Poissons Ratio (x) = 0.18405 0.16733
# Poissons Ratio (y) = 0.17976 0.33424
# Poissons Ratio (z) = 0.18832 0.38515
#
# Static dielectric constant tensor:
#      x y z
#    x 4.126770 0.000000 0.000000 
#    y 0.000000 3.895270 0.000000 
#    z 0.000000 0.000000 3.580990 
# 
# 
# High freq. dielectric constant tensor:
#      x y z
#    x 1.825480 0.000000 0.000000 
#    y 0.000000 1.820180 0.000000 
#    z 0.000000 0.000000 1.784950 
# 
# From -- ./inp_files/20202.got.cif
#   From: 2010.03.12/outbox.cif.g09.slc.cpg/sg60_11_cif.got.tgz:20202.got - 2010.04.10 18:46:24.
