data_PCOD8246331
_publ_section_title
;
Structure prediction by ZEFSAII (Michael W. Deem and Ramdas Pophale) SiO2 
 PCOD8246331
Probable space group: P B C N
;
_chemical_formula_sum "Si O2"
_cell_formula_units_Z 36
_cell_length_a 11.083907
_cell_length_b 17.695147
_cell_length_c 9.871139
_cell_angle_alpha 90.000000
_cell_angle_beta 90.000000
_cell_angle_gamma 90.000000
_cell_volume 1936.039953
_symmetry_space_group_name_H-M "P B C N"
_symmetry_group_IT_number 60
_symmetry_cell_setting 'orthorhombic'
loop_
_space_group_symop_operation_xyz
x,y,z
1/2-x,1/2-y,1/2+z
1/2+x,1/2-y,-z
-x,y,1/2-z
-x,-y,-z
1/2+x,1/2+y,1/2-z
1/2-x,1/2+y,z
x,-y,1/2+z
loop_
_atom_site_type_symbol
_atom_site_label
_atom_site_fract_x
_atom_site_fract_y
_atom_site_fract_z
Si Si1 0.367269 0.968221 0.970654
Si Si2 0.174457 0.291033 0.965665
Si Si3 0.359807 0.298374 0.736667
Si Si4 0.705951 0.069118 0.307742
Si Si5 0.000000 0.315402 0.750000
O O1 0.349532 0.879284 0.997914
O O2 0.276716 0.015888 0.063561
O O3 0.328686 0.985647 0.817095
O O4 0.500000 0.000000 0.000000
O O5 0.187636 0.247633 0.106062
O O6 0.294807 0.274434 0.877042
O O7 0.062173 0.264822 0.868318
O O8 0.500000 0.283134 0.750000
O O9 0.332201 0.386988 0.712408
O O10 0.600558 0.131946 0.321732
#
# Coordination Sequence:
#
# PCOD8246331 Si02
#       5
#     8   8   8   8   4
#     4  10  17  33  57  87 109 143 188 250 292 328
#     4  10  22  36  60  87 119 151 202 239 301 341
#     4  10  24  39  56  84 123 159 191 237 293 362
#     4  10  19  34  55  83 117 142 189 239 296 340
#     4   8  16  34  54  80 114 142 176 250 286 328
#
# _framework density 18.594657000000002
#
# number of rings (size 3 to 8) (size 9 to 14) (size 15 to 20)
#    0.000    2.667    4.444    0.000    6.222    3.556 
#    0.000    4.444    0.000    0.000    0.000    0.000 
#    0.000    0.000    0.000    0.000    0.000    0.000 
#
# Total GULP energy -445976.477582 kJ/mol
# GULP energy per Si atom -12388.235488 kJ/mol
# Density = 1.855233 g / cm^3
# Si number density = 18.594657 Si / 1000 Ang^3
#
#
#
# Elastic Constant Matrix: (Units=GPa)
#
#
# Indices 1 2 3 4 5 6 
#
# 1 90.4963 28.2067 57.8625 0.0000 0.0000 0.0000
# 2 28.2067 50.7726 54.3306 0.0000 0.0000 0.0000
# 3 57.8625 54.3306 125.2336 0.0000 0.0000 0.0000
# 4 0.0000 0.0000 0.0000 41.2567 0.0000 0.0000
# 5 0.0000 0.0000 0.0000 0.0000 31.2207 0.0000
# 6 0.0000 0.0000 0.0000 0.0000 0.0000 19.6503
#
#
#
# Elastic Compliance Matrix: (Units=1/GPa)
#
#
# Indices 1 2 3 4 5 6 
#
# 1 0.015771 -0.001800 -0.006506 0.000000 0.000000 0.000000
# 2 -0.001800 0.036967 -0.015206 0.000000 0.000000 0.000000
# 3 -0.006506 -0.015206 0.017588 0.000000 0.000000 0.000000
# 4 0.000000 0.000000 0.000000 0.024238 0.000000 0.000000
# 5 0.000000 0.000000 0.000000 0.000000 0.032030 0.000000
# 6 0.000000 0.000000 0.000000 0.000000 0.000000 0.050890
#
#
# Mechanical properties :
#
#
# Convention : Reuss Voigt Hill
#
# Bulk Modulus (GPa) = 42.91360 60.81136 51.86248
# Shear Modulus (GPa) = 21.52614 26.83238 24.17926
#
# Velocity S-wave (km/s) = 3.40612 3.80283 3.60993
# Velocity P-wave (km/s) = 6.21268 7.21503 6.73254
#
# Compressibility (1/GPa) = 0.02330264
#
# Stress axis : x y z
#
# Youngs Moduli (GPa) = 63.40748 27.05106 56.85682
#
# Poissons Ratio (x) = 0.04868 0.36991
# Poissons Ratio (y) = 0.11411 0.86457
# Poissons Ratio (z) = 0.41253 0.41134
#
# Static dielectric constant tensor:
#      x y z
#    x 3.452880 0.000000 0.000000 
#    y 0.000000 3.225740 0.000000 
#    z 0.000000 0.000000 3.804980 
# 
# 
# High freq. dielectric constant tensor:
#      x y z
#    x 1.707850 0.000000 0.000000 
#    y 0.000000 1.691930 0.000000 
#    z 0.000000 0.000000 1.736100 
# 
# From -- ./inp_files/4880.got.cif
#   From: 2010.03.12/outbox.cif.g09.slc.cpg/sg60_3_cif.got.tgz:4880.got - 2010.04.10 18:46:24.
