data_PCOD8246278
_publ_section_title
;
Structure prediction by ZEFSAII (Michael W. Deem and Ramdas Pophale) SiO2 
 PCOD8246278
Probable space group: P B C N
;
_chemical_formula_sum "Si O2"
_cell_formula_units_Z 60
_cell_length_a 22.381620
_cell_length_b 32.842419
_cell_length_c 5.064521
_cell_angle_alpha 90.000000
_cell_angle_beta 90.000000
_cell_angle_gamma 90.000000
_cell_volume 3722.759938
_symmetry_space_group_name_H-M "P B C N"
_symmetry_group_IT_number 60
_symmetry_cell_setting 'orthorhombic'
loop_
_space_group_symop_operation_xyz
x,y,z
1/2-x,1/2-y,1/2+z
1/2+x,1/2-y,-z
-x,y,1/2-z
-x,-y,-z
1/2+x,1/2+y,1/2-z
1/2-x,1/2+y,z
x,-y,1/2+z
loop_
_atom_site_type_symbol
_atom_site_label
_atom_site_fract_x
_atom_site_fract_y
_atom_site_fract_z
Si Si1 0.713941 0.261618 0.978158
Si Si2 0.635426 0.804104 0.693955
Si Si3 0.000000 0.598282 0.750000
Si Si4 0.237679 0.155371 0.241286
Si Si5 0.294900 0.025250 0.584684
Si Si6 0.065146 0.525742 0.576234
Si Si7 0.894136 0.654777 0.695219
Si Si8 0.235137 0.386322 0.243603
O O1 0.739639 0.235247 0.727742
O O2 0.698310 0.306324 0.862140
O O3 0.653556 0.241238 0.094885
O O4 0.695374 0.829376 0.728100
O O5 0.592253 0.824400 0.476773
O O6 0.605207 0.808234 0.980800
O O7 0.032213 0.569075 0.533400
O O8 0.051621 0.625162 0.885637
O O9 0.223279 0.138184 0.531887
O O10 0.232992 0.119148 0.026773
O O11 0.364888 0.034390 0.577622
O O12 0.262108 0.067032 0.654701
O O13 0.276118 0.008891 0.297843
O O14 0.046378 0.492404 0.361267
O O15 0.832495 0.629806 0.721558
#
# Coordination Sequence:
#
# PCOD8246278 Si02
#       8
#     8   8   4   8   8   8   8   8
#     4  10  16  27  45  64  81 100 117 138 177 244
#     4   9  18  31  41  59  82  96 120 142 188 242
#     4  12  22  36  46  60  76 100 140 170 222 254
#     4   9  17  25  45  60  77  95 115 144 187 231
#     4  10  19  31  44  56  73 102 129 160 209 251
#     4  10  22  35  47  59  71  92 131 182 223 255
#     4  10  21  30  43  57  75 104 122 164 200 239
#     4  10  17  31  39  60  78  94 123 160 194 236
#
# _framework density 16.117075
#
# number of rings (size 3 to 8) (size 9 to 14) (size 15 to 20)
#    0.000    2.133    1.333    5.200    0.000    2.667 
#    0.000    0.000    0.000    0.000    0.000    0.000 
#    0.000    0.000    0.000    0.000    0.000    0.000 
#
# Total GULP energy -743286.248747 kJ/mol
# GULP energy per Si atom -12388.104146 kJ/mol
# Density = 1.608039 g / cm^3
# Si number density = 16.117075 Si / 1000 Ang^3
#
#
#
# Elastic Constant Matrix: (Units=GPa)
#
#
# Indices 1 2 3 4 5 6 
#
# 1 15.1168 23.6875 10.1980 0.0000 0.0000 0.0000
# 2 23.6875 87.0472 22.5742 0.0000 0.0000 0.0000
# 3 10.1980 22.5742 83.8089 0.0000 0.0000 0.0000
# 4 0.0000 0.0000 0.0000 12.1664 0.0000 0.0000
# 5 0.0000 0.0000 0.0000 0.0000 10.2858 0.0000
# 6 0.0000 0.0000 0.0000 0.0000 0.0000 19.1689
#
#
#
# Elastic Compliance Matrix: (Units=1/GPa)
#
#
# Indices 1 2 3 4 5 6 
#
# 1 0.118204 -0.030571 -0.006149 0.000000 0.000000 0.000000
# 2 -0.030571 0.020257 -0.001736 0.000000 0.000000 0.000000
# 3 -0.006149 -0.001736 0.013148 0.000000 0.000000 0.000000
# 4 0.000000 0.000000 0.000000 0.082194 0.000000 0.000000
# 5 0.000000 0.000000 0.000000 0.000000 0.097222 0.000000
# 6 0.000000 0.000000 0.000000 0.000000 0.000000 0.052168
#
#
# Mechanical properties :
#
#
# Convention : Reuss Voigt Hill
#
# Bulk Modulus (GPa) = 13.38755 33.21024 23.29889
# Shear Modulus (GPa) = 10.30917 16.95842 13.63380
#
# Velocity S-wave (km/s) = 2.53186 3.24729 2.91163
# Velocity P-wave (km/s) = 4.10750 5.89153 5.07847
#
# Compressibility (1/GPa) = 0.07469629
#
# Stress axis : x y z
#
# Youngs Moduli (GPa) = 8.45993 49.36444 76.05821
#
# Poissons Ratio (x) = 1.50914 0.46767
# Poissons Ratio (y) = 0.25863 0.13207
# Poissons Ratio (z) = 0.05202 0.08572
#
# Static dielectric constant tensor:
#      x y z
#    x 2.508910 0.000000 0.000000 
#    y 0.000000 3.140590 0.000000 
#    z 0.000000 0.000000 3.550910 
# 
# 
# High freq. dielectric constant tensor:
#      x y z
#    x 1.525270 0.000000 0.000000 
#    y 0.000000 1.614050 0.000000 
#    z 0.000000 0.000000 1.646930 
# 
# From -- ./inp_files/2499.got.cif
#   From: 2010.03.12/outbox.cif.g09.slc.cpg/sg60_2_cif.got.tgz:2499.got - 2010.04.10 18:46:24.
