data_PCOD8246650
_publ_section_title
;
Structure prediction by ZEFSAII (Michael W. Deem and Ramdas Pophale) SiO2 
 PCOD8246650
Probable space group: P B C N
;
_chemical_formula_sum "Si O2"
_cell_formula_units_Z 48
_cell_length_a 9.382871
_cell_length_b 13.686454
_cell_length_c 20.264375
_cell_angle_alpha 90.000000
_cell_angle_beta 90.000000
_cell_angle_gamma 90.000000
_cell_volume 2602.315217
_symmetry_space_group_name_H-M "P B C N"
_symmetry_group_IT_number 60
_symmetry_cell_setting 'orthorhombic'
loop_
_space_group_symop_operation_xyz
x,y,z
1/2-x,1/2-y,1/2+z
1/2+x,1/2-y,-z
-x,y,1/2-z
-x,-y,-z
1/2+x,1/2+y,1/2-z
1/2-x,1/2+y,z
x,-y,1/2+z
loop_
_atom_site_type_symbol
_atom_site_label
_atom_site_fract_x
_atom_site_fract_y
_atom_site_fract_z
Si Si1 0.257279 0.670355 0.330248
Si Si2 0.795510 0.502734 0.084421
Si Si3 0.218872 0.696821 0.953199
Si Si4 0.000000 0.589963 0.250000
Si Si5 0.500000 0.759405 0.250000
Si Si6 0.438951 0.072149 0.656164
Si Si7 0.106836 0.352594 0.023730
O O1 0.303733 0.572962 0.371544
O O2 0.244729 0.758949 0.381561
O O3 0.379115 0.688450 0.277509
O O4 0.104688 0.656886 0.293826
O O5 0.714574 0.414330 0.046077
O O6 0.898541 0.444627 0.134060
O O7 0.889108 0.569799 0.035537
O O8 0.050621 0.691491 0.967982
O O9 0.288566 0.761460 0.010867
O O10 0.900124 0.520718 0.297402
O O11 0.573338 0.826718 0.304781
O O12 0.343659 0.089071 0.590257
#
# Coordination Sequence:
#
# PCOD8246650 Si02
#       7
#     8   8   8   4   4   8   8
#     4  10  20  36  55  82 106 149 181 226 270 326
#     4   9  18  36  59  75 110 146 187 217 272 333
#     4  10  19  37  57  81 112 141 182 231 277 321
#     4   9  20  36  57  78 108 144 195 214 261 330
#     4  11  18  34  57  76 116 140 179 224 281 322
#     4   9  17  34  56  77 103 148 182 218 260 332
#     4  10  19  35  59  83 106 145 184 227 279 325
#
# _framework density 18.445112999999999
#
# number of rings (size 3 to 8) (size 9 to 14) (size 15 to 20)
#    0.000    2.333    3.333    2.000    0.000    0.000 
#   12.000    5.833    0.000    0.000    0.000    0.000 
#    0.000    0.000    0.000    0.000    0.000    0.000 
#
# Total GULP energy -594638.466974 kJ/mol
# GULP energy per Si atom -12388.301395 kJ/mol
# Density = 1.840313 g / cm^3
# Si number density = 18.445113 Si / 1000 Ang^3
#
#
#
# Elastic Constant Matrix: (Units=GPa)
#
#
# Indices 1 2 3 4 5 6 
#
# 1 60.0740 48.7082 44.1782 0.0000 0.0000 0.0000
# 2 48.7082 128.0108 53.5437 0.0000 0.0000 0.0000
# 3 44.1782 53.5437 112.5409 0.0000 0.0000 0.0000
# 4 0.0000 0.0000 0.0000 30.1525 0.0000 0.0000
# 5 0.0000 0.0000 0.0000 0.0000 30.4481 0.0000
# 6 0.0000 0.0000 0.0000 0.0000 0.0000 26.4686
#
#
#
# Elastic Compliance Matrix: (Units=1/GPa)
#
#
# Indices 1 2 3 4 5 6 
#
# 1 0.028365 -0.007660 -0.007491 0.000000 0.000000 0.000000
# 2 -0.007660 0.011821 -0.002617 0.000000 0.000000 0.000000
# 3 -0.007491 -0.002617 0.013071 0.000000 0.000000 0.000000
# 4 0.000000 0.000000 0.000000 0.033165 0.000000 0.000000
# 5 0.000000 0.000000 0.000000 0.000000 0.032843 0.000000
# 6 0.000000 0.000000 0.000000 0.000000 0.000000 0.037781
#
#
# Mechanical properties :
#
#
# Convention : Reuss Voigt Hill
#
# Bulk Modulus (GPa) = 56.42570 65.94286 61.18428
# Shear Modulus (GPa) = 25.19033 27.69354 26.44194
#
# Velocity S-wave (km/s) = 3.69954 3.87900 3.79033
# Velocity P-wave (km/s) = 6.99330 7.47600 7.23868
#
# Compressibility (1/GPa) = 0.01772242
#
# Stress axis : x y z
#
# Youngs Moduli (GPa) = 35.25428 84.59385 76.50354
#
# Poissons Ratio (x) = 0.64798 0.57305
# Poissons Ratio (y) = 0.27005 0.20023
# Poissons Ratio (z) = 0.26407 0.22140
#
# Static dielectric constant tensor:
#      x y z
#    x 2.893340 0.000000 0.000000 
#    y 0.000000 3.826380 0.000000 
#    z 0.000000 0.000000 3.833750 
# 
# 
# High freq. dielectric constant tensor:
#      x y z
#    x 1.653080 0.000000 0.000000 
#    y 0.000000 1.732690 0.000000 
#    z 0.000000 0.000000 1.735590 
# 
# From -- ./inp_files/22111.got.cif
#   From: 2010.03.12/outbox.cif.g09.slc.cpg/sg60_12_cif.got.tgz:22111.got - 2010.04.10 18:46:24.
