data_PCOD8246321
_publ_section_title
;
Structure prediction by ZEFSAII (Michael W. Deem and Ramdas Pophale) SiO2 
 PCOD8246321
Probable space group: P B C N
;
_chemical_formula_sum "Si O2"
_cell_formula_units_Z 64
_cell_length_a 18.893556
_cell_length_b 9.028243
_cell_length_c 21.495572
_cell_angle_alpha 90.000000
_cell_angle_beta 90.000000
_cell_angle_gamma 90.000000
_cell_volume 3666.620407
_symmetry_space_group_name_H-M "P B C N"
_symmetry_group_IT_number 60
_symmetry_cell_setting 'orthorhombic'
loop_
_space_group_symop_operation_xyz
x,y,z
1/2-x,1/2-y,1/2+z
1/2+x,1/2-y,-z
-x,y,1/2-z
-x,-y,-z
1/2+x,1/2+y,1/2-z
1/2-x,1/2+y,z
x,-y,1/2+z
loop_
_atom_site_type_symbol
_atom_site_label
_atom_site_fract_x
_atom_site_fract_y
_atom_site_fract_z
Si Si1 0.867663 0.761032 0.226017
Si Si2 0.847158 0.238469 0.986321
Si Si3 0.736433 0.772801 0.623579
Si Si4 0.903923 0.255511 0.113384
Si Si5 0.468956 0.493197 0.315180
Si Si6 0.244880 0.978094 0.463008
Si Si7 0.476017 0.013048 0.314261
Si Si8 0.920978 0.251389 0.855068
O O1 0.793398 0.721935 0.193584
O O2 0.927372 0.645092 0.208786
O O3 0.861243 0.763033 0.300853
O O4 0.893696 0.918092 0.199724
O O5 0.880993 0.236739 0.919401
O O6 0.908712 0.255066 0.038285
O O7 0.807167 0.080790 0.996262
O O8 0.794911 0.380552 0.991983
O O9 0.821308 0.765071 0.630128
O O10 0.704604 0.635280 0.583716
O O11 0.711300 0.916730 0.584595
O O12 0.954642 0.128029 0.138836
O O13 0.933268 0.408382 0.139853
O O14 0.500000 0.552596 0.250000
O O15 0.522799 0.380904 0.348543
O O16 0.500000 0.930121 0.250000
O O17 0.541537 0.087550 0.351331
#
# Coordination Sequence:
#
# PCOD8246321 Si02
#       8
#     8   8   8   8   8   8   8   8
#     4   9  16  32  53  70  93 127 161 197 242 286
#     4  10  19  35  50  71  99 129 164 194 241 294
#     4  10  17  31  53  77  93 117 164 204 243 283
#     4  10  19  30  51  76  99 123 158 209 243 277
#     4   9  18  33  50  70  98 129 160 200 243 278
#     4   8  18  32  50  70  98 124 150 206 248 274
#     4   9  18  33  50  70  98 129 160 200 243 278
#     4   9  20  34  49  68 100 138 163 186 233 300
#
# _framework density 17.454764999999998
#
# number of rings (size 3 to 8) (size 9 to 14) (size 15 to 20)
#    0.000    3.000    0.000    4.875    0.000    1.000 
#    0.000    8.750    0.000    0.000    0.000    0.000 
#    0.000    0.000    0.000    0.000    0.000    0.000 
#
# Total GULP energy -792953.494263 kJ/mol
# GULP energy per Si atom -12389.898348 kJ/mol
# Density = 1.741504 g / cm^3
# Si number density = 17.454765 Si / 1000 Ang^3
#
#
#
# Elastic Constant Matrix: (Units=GPa)
#
#
# Indices 1 2 3 4 5 6 
#
# 1 61.1955 17.7350 55.1609 0.0000 0.0000 0.0000
# 2 17.7350 71.2468 33.5269 0.0000 0.0000 0.0000
# 3 55.1609 33.5269 150.3834 0.0000 0.0000 0.0000
# 4 0.0000 0.0000 0.0000 12.8395 0.0000 0.0000
# 5 0.0000 0.0000 0.0000 0.0000 32.6930 0.0000
# 6 0.0000 0.0000 0.0000 0.0000 0.0000 15.1978
#
#
#
# Elastic Compliance Matrix: (Units=1/GPa)
#
#
# Indices 1 2 3 4 5 6 
#
# 1 0.024692 -0.002105 -0.008588 0.000000 0.000000 0.000000
# 2 -0.002105 0.015860 -0.002764 0.000000 0.000000 0.000000
# 3 -0.008588 -0.002764 0.010416 0.000000 0.000000 0.000000
# 4 0.000000 0.000000 0.000000 0.077885 0.000000 0.000000
# 5 0.000000 0.000000 0.000000 0.000000 0.030588 0.000000
# 6 0.000000 0.000000 0.000000 0.000000 0.000000 0.065799
#
#
# Mechanical properties :
#
#
# Convention : Reuss Voigt Hill
#
# Bulk Modulus (GPa) = 41.57185 55.07458 48.32322
# Shear Modulus (GPa) = 19.21810 23.90625 21.56217
#
# Velocity S-wave (km/s) = 3.32177 3.70484 3.51852
# Velocity P-wave (km/s) = 6.21134 7.06558 6.65219
#
# Compressibility (1/GPa) = 0.02405474
#
# Stress axis : x y z
#
# Youngs Moduli (GPa) = 40.49876 63.05049 96.00781
#
# Poissons Ratio (x) = 0.13274 0.82449
# Poissons Ratio (y) = 0.08526 0.26534
# Poissons Ratio (z) = 0.34779 0.17425
#
# Static dielectric constant tensor:
#      x y z
#    x 3.020860 0.000000 0.000000 
#    y 0.000000 3.360030 0.000000 
#    z 0.000000 0.000000 3.332350 
# 
# 
# High freq. dielectric constant tensor:
#      x y z
#    x 1.648050 0.000000 0.000000 
#    y 0.000000 1.684200 0.000000 
#    z 0.000000 0.000000 1.669840 
# 
# From -- ./inp_files/23225.got.cif
#   From: 2010.03.12/outbox.cif.g09.slc.cpg/sg60_12_cif.got.tgz:23225.got - 2010.04.10 18:46:24.
