data_PCOD8246171
_publ_section_title
;
Structure prediction by ZEFSAII (Michael W. Deem and Ramdas Pophale) SiO2 
 PCOD8246171
Probable space group: P M M N
;
_chemical_formula_sum "Si O2"
_cell_formula_units_Z 64
_cell_length_a 9.172834
_cell_length_b 18.601434
_cell_length_c 21.739244
_cell_angle_alpha 90.000000
_cell_angle_beta 90.000000
_cell_angle_gamma 90.000000
_cell_volume 3709.320817
_symmetry_space_group_name_H-M "P M M N"
_symmetry_group_IT_number 59
_space_group.IT_coordinate_system_code '2'
_symmetry_cell_setting 'orthorhombic'
loop_
_space_group_symop_operation_xyz
x,y,z
1/2-x,1/2-y,z
1/2+x,-y,-z
-x,1/2+y,-z
-x,-y,-z
1/2+x,1/2+y,-z
1/2-x,y,z
x,1/2-y,z
loop_
_atom_site_type_symbol
_atom_site_label
_atom_site_fract_x
_atom_site_fract_y
_atom_site_fract_z
Si Si1 0.423112 0.670943 0.377011
Si Si2 0.922847 0.473160 0.560638
Si Si3 0.081482 0.834510 0.126930
Si Si4 0.923294 0.398140 0.746964
Si Si5 0.585370 0.664297 0.006827
Si Si6 0.085892 0.664572 0.888962
Si Si7 0.922178 0.540194 0.685488
Si Si8 0.421474 0.331675 0.233030
O O1 0.250000 0.671373 0.375364
O O2 0.482939 0.750000 0.396744
O O3 0.472710 0.609072 0.424937
O O4 0.480522 0.652752 0.308382
O O5 0.750000 0.478070 0.551795
O O6 0.978462 0.524490 0.616473
O O7 0.000000 0.500000 0.500000
O O8 0.250000 0.854307 0.116118
O O9 0.061332 0.750000 0.135764
O O10 0.014315 0.872476 0.187506
O O11 0.992105 0.863743 0.068581
O O12 0.750000 0.393037 0.749996
O O13 0.977877 0.479168 0.732990
O O14 0.750000 0.634873 0.004893
O O15 0.583216 0.750000 0.005178
O O16 0.498981 0.633124 0.947967
O O17 0.250000 0.633814 0.888360
O O18 0.087941 0.750000 0.892616
O O19 0.003240 0.640124 0.827428
O O20 0.750000 0.534303 0.683032
O O21 0.971636 0.618493 0.709728
O O22 0.250000 0.338455 0.219997
O O23 0.464913 0.250000 0.249801
#
# Coordination Sequence:
#
# PCOD8246171 Si02
#       8
#     8   8   8   8   8   8   8   8
#     4   8  13  23  42  67  90 113 148 190 222 251
#     4   9  17  30  48  68  92 122 152 181 215 258
#     4   9  15  22  36  60  85 106 133 172 214 251
#     4   8  13  22  39  62  85 109 138 175 216 255
#     4   9  16  25  37  55  82 115 146 173 206 252
#     4   9  16  26  41  61  84 108 137 178 223 258
#     4   8  15  28  45  65  87 111 140 172 208 253
#     4   9  16  27  45  66  85 107 138 175 214 258
#
# _framework density 17.253833
#
# number of rings (size 3 to 8) (size 9 to 14) (size 15 to 20)
#    0.000    3.375    0.000    2.625    0.000    4.500 
#    0.000    1.250    0.000    5.625    0.000    0.000 
#    0.000    0.000    0.000    0.000    0.000    0.000 
#
# Total GULP energy -793119.659412 kJ/mol
# GULP energy per Si atom -12392.494678 kJ/mol
# Density = 1.721456 g / cm^3
# Si number density = 17.253833 Si / 1000 Ang^3
#
#
#
# Elastic Constant Matrix: (Units=GPa)
#
#
# Indices 1 2 3 4 5 6 
#
# 1 53.8975 27.0414 47.2875 0.0000 0.0000 0.0000
# 2 27.0414 89.2892 74.4613 0.0000 0.0000 0.0000
# 3 47.2875 74.4613 158.3729 0.0000 0.0000 0.0000
# 4 0.0000 0.0000 0.0000 24.3478 0.0000 0.0000
# 5 0.0000 0.0000 0.0000 0.0000 27.2359 0.0000
# 6 0.0000 0.0000 0.0000 0.0000 0.0000 8.6209
#
#
#
# Elastic Compliance Matrix: (Units=1/GPa)
#
#
# Indices 1 2 3 4 5 6 
#
# 1 0.025411 -0.002251 -0.006529 0.000000 0.000000 0.000000
# 2 -0.002251 0.018622 -0.008083 0.000000 0.000000 0.000000
# 3 -0.006529 -0.008083 0.012064 0.000000 0.000000 0.000000
# 4 0.000000 0.000000 0.000000 0.041071 0.000000 0.000000
# 5 0.000000 0.000000 0.000000 0.000000 0.036716 0.000000
# 6 0.000000 0.000000 0.000000 0.000000 0.000000 0.115998
#
#
# Mechanical properties :
#
#
# Convention : Reuss Voigt Hill
#
# Bulk Modulus (GPa) = 44.70098 66.57110 55.63604
# Shear Modulus (GPa) = 17.17814 22.22555 19.70184
#
# Velocity S-wave (km/s) = 3.15876 3.59298 3.38284
# Velocity P-wave (km/s) = 6.26640 7.47528 6.89737
#
# Compressibility (1/GPa) = 0.02237087
#
# Stress axis : x y z
#
# Youngs Moduli (GPa) = 39.35228 53.69895 82.88987
#
# Poissons Ratio (x) = 0.12088 0.54119
# Poissons Ratio (y) = 0.08859 0.67003
# Poissons Ratio (z) = 0.25693 0.43407
#
# Static dielectric constant tensor:
#      x y z
#    x 2.922360 0.000000 0.000000 
#    y 0.000000 3.209230 0.000000 
#    z 0.000000 0.000000 3.333260 
# 
# 
# High freq. dielectric constant tensor:
#      x y z
#    x 1.627430 0.000000 0.000000 
#    y 0.000000 1.640310 0.000000 
#    z 0.000000 0.000000 1.667460 
# 
# From -- ./inp_files/29728.got.cif
#   From: 2010.03.12/outbox.cif.g09.slc.cpg/sg59_15_cif.got.tgz:29728.got - 2010.04.16 16:29:54.
