data_PCOD8246287
_publ_section_title
;
Structure prediction by ZEFSAII (Michael W. Deem and Ramdas Pophale) SiO2 
 PCOD8246287
Probable space group: P B C N
;
_chemical_formula_sum "Si O2"
_cell_formula_units_Z 40
_cell_length_a 8.660549
_cell_length_b 24.454799
_cell_length_c 9.752886
_cell_angle_alpha 90.000000
_cell_angle_beta 90.000000
_cell_angle_gamma 90.000000
_cell_volume 2065.583086
_symmetry_space_group_name_H-M "P B C N"
_symmetry_group_IT_number 60
_symmetry_cell_setting 'orthorhombic'
loop_
_space_group_symop_operation_xyz
x,y,z
1/2-x,1/2-y,1/2+z
1/2+x,1/2-y,-z
-x,y,1/2-z
-x,-y,-z
1/2+x,1/2+y,1/2-z
1/2-x,1/2+y,z
x,-y,1/2+z
loop_
_atom_site_type_symbol
_atom_site_label
_atom_site_fract_x
_atom_site_fract_y
_atom_site_fract_z
Si Si1 0.146108 0.196621 0.417856
Si Si2 0.794701 0.222717 0.389971
Si Si3 0.127697 0.617751 0.058695
Si Si4 0.393195 0.978327 0.382136
Si Si5 0.785319 0.590604 0.150888
O O1 0.242272 0.219025 0.548273
O O2 0.218682 0.220805 0.275672
O O3 0.157205 0.130012 0.417590
O O4 0.968659 0.211358 0.435460
O O5 0.678395 0.180177 0.465591
O O6 0.227074 0.596613 0.186284
O O7 0.947171 0.612951 0.091700
O O8 0.173440 0.580944 0.925255
O O9 0.500000 0.973057 0.250000
O O10 0.500000 0.000000 0.500000
O O11 0.260554 0.025352 0.371568
#
# Coordination Sequence:
#
# PCOD8246287 Si02
#       5
#     8   8   8   8   8
#     4  10  21  37  58  77 107 142 182 222 272 330
#     4  10  21  38  55  80 106 142 181 223 275 323
#     4   9  17  31  52  76 107 138 175 220 264 311
#     4  10  16  30  51  80 105 137 180 217 260 317
#     4   9  16  31  53  76 103 142 174 214 269 314
#
# _framework density 19.364992999999998
#
# number of rings (size 3 to 8) (size 9 to 14) (size 15 to 20)
#    0.000    2.400    4.000    1.200    0.000    2.400 
#   10.800    1.000    0.000    0.000    0.000    0.000 
#    0.000    0.000    0.000    0.000    0.000    0.000 
#
# Total GULP energy -495551.698880 kJ/mol
# GULP energy per Si atom -12388.792472 kJ/mol
# Density = 1.932092 g / cm^3
# Si number density = 19.364993 Si / 1000 Ang^3
#
#
#
# Elastic Constant Matrix: (Units=GPa)
#
#
# Indices 1 2 3 4 5 6 
#
# 1 46.7518 14.7249 12.7083 0.0000 0.0000 0.0000
# 2 14.7249 88.1652 38.4067 0.0000 0.0000 0.0000
# 3 12.7083 38.4067 79.4155 0.0000 0.0000 0.0000
# 4 0.0000 0.0000 0.0000 35.2042 0.0000 0.0000
# 5 0.0000 0.0000 0.0000 0.0000 19.5017 0.0000
# 6 0.0000 0.0000 0.0000 0.0000 0.0000 27.2076
#
#
#
# Elastic Compliance Matrix: (Units=1/GPa)
#
#
# Indices 1 2 3 4 5 6 
#
# 1 0.022904 -0.002824 -0.002300 0.000000 0.000000 0.000000
# 2 -0.002824 0.014718 -0.006666 0.000000 0.000000 0.000000
# 3 -0.002300 -0.006666 0.016184 0.000000 0.000000 0.000000
# 4 0.000000 0.000000 0.000000 0.028406 0.000000 0.000000
# 5 0.000000 0.000000 0.000000 0.000000 0.051277 0.000000
# 6 0.000000 0.000000 0.000000 0.000000 0.000000 0.036754
#
#
# Mechanical properties :
#
#
# Convention : Reuss Voigt Hill
#
# Bulk Modulus (GPa) = 33.08273 38.44580 35.76426
# Shear Modulus (GPa) = 24.52219 26.28222 25.40220
#
# Velocity S-wave (km/s) = 3.56239 3.68802 3.62575
# Velocity P-wave (km/s) = 5.83453 6.16698 6.00306
#
# Compressibility (1/GPa) = 0.03022725
#
# Stress axis : x y z
#
# Youngs Moduli (GPa) = 43.66061 67.94523 61.79033
#
# Poissons Ratio (x) = 0.19184 0.14210
# Poissons Ratio (y) = 0.12328 0.41189
# Poissons Ratio (z) = 0.10040 0.45292
#
# Static dielectric constant tensor:
#      x y z
#    x 3.214550 0.000000 0.000000 
#    y 0.000000 4.676180 0.000000 
#    z 0.000000 0.000000 3.707310 
# 
# 
# High freq. dielectric constant tensor:
#      x y z
#    x 1.714780 0.000000 0.000000 
#    y 0.000000 1.760090 0.000000 
#    z 0.000000 0.000000 1.744760 
# 
# From -- ./inp_files/4084.got.cif
#   From: 2010.03.12/outbox.cif.g09.slc.cpg/sg60_3_cif.got.tgz:4084.got - 2010.04.10 18:46:24.
