data_PCOD8246717
_publ_section_title
;
Structure prediction by ZEFSAII (Michael W. Deem and Ramdas Pophale) SiO2 
 PCOD8246717
Probable space group: P B C N
;
_chemical_formula_sum "Si O2"
_cell_formula_units_Z 64
_cell_length_a 9.569600
_cell_length_b 14.689545
_cell_length_c 21.770865
_cell_angle_alpha 90.000000
_cell_angle_beta 90.000000
_cell_angle_gamma 90.000000
_cell_volume 3060.397326
_symmetry_space_group_name_H-M "P B C N"
_symmetry_group_IT_number 60
_symmetry_cell_setting 'orthorhombic'
loop_
_space_group_symop_operation_xyz
x,y,z
1/2-x,1/2-y,1/2+z
1/2+x,1/2-y,-z
-x,y,1/2-z
-x,-y,-z
1/2+x,1/2+y,1/2-z
1/2-x,1/2+y,z
x,-y,1/2+z
loop_
_atom_site_type_symbol
_atom_site_label
_atom_site_fract_x
_atom_site_fract_y
_atom_site_fract_z
Si Si1 0.150839 0.982244 0.349637
Si Si2 0.824695 0.214501 0.876992
Si Si3 0.343293 0.222059 0.254589
Si Si4 0.340311 0.489675 0.134006
Si Si5 0.888944 0.810028 0.071285
Si Si6 0.683904 0.311698 0.626796
Si Si7 0.100967 0.167035 0.067081
Si Si8 0.846735 0.511586 0.254253
O O1 0.167654 0.906184 0.402094
O O2 0.988177 0.988397 0.329355
O O3 0.209110 0.079518 0.373330
O O4 0.241096 0.955146 0.289565
O O5 0.771907 0.244274 0.808724
O O6 0.803110 0.108640 0.892996
O O7 0.735800 0.270237 0.925723
O O8 0.989221 0.234367 0.886448
O O9 0.500000 0.266024 0.250000
O O10 0.240765 0.244816 0.312559
O O11 0.359340 0.115355 0.265117
O O12 0.354180 0.562790 0.079683
O O13 0.212130 0.514928 0.177328
O O14 0.766602 0.734676 0.070362
O O15 0.948110 0.827632 0.003265
O O16 0.518911 0.297394 0.613943
O O17 0.000000 0.465412 0.250000
#
# Coordination Sequence:
#
# PCOD8246717 Si02
#       8
#     8   8   8   8   8   8   8   8
#     4   9  22  38  62  91 119 164 210 252 310 372
#     4  11  23  39  65  90 119 169 207 254 316 371
#     4  10  19  37  63  90 122 157 205 252 312 381
#     4  10  22  39  61  88 122 164 207 253 308 373
#     4  11  23  41  66  88 124 170 213 252 307 393
#     4  10  22  39  62  93 124 163 204 268 313 359
#     4  11  24  42  60  93 129 160 213 262 312 364
#     4  10  20  36  61  91 127 153 197 261 319 368
#
# _framework density 20.912317000000002
#
# number of rings (size 3 to 8) (size 9 to 14) (size 15 to 20)
#    0.000    1.750    2.500    1.125    1.750    7.000 
#    0.000    0.000    0.000    3.750    0.000    0.000 
#    0.000    0.000    0.000    0.000    0.000    0.000 
#
# Total GULP energy -793153.534247 kJ/mol
# GULP energy per Si atom -12393.023973 kJ/mol
# Density = 2.086472 g / cm^3
# Si number density = 20.912317 Si / 1000 Ang^3
#
#
#
# Elastic Constant Matrix: (Units=GPa)
#
#
# Indices 1 2 3 4 5 6 
#
# 1 80.9021 46.0229 25.1336 0.0000 0.0000 0.0000
# 2 46.0229 83.1724 31.4072 0.0000 0.0000 0.0000
# 3 25.1336 31.4072 98.6971 0.0000 0.0000 0.0000
# 4 0.0000 0.0000 0.0000 26.7667 0.0000 0.0000
# 5 0.0000 0.0000 0.0000 0.0000 30.3332 0.0000
# 6 0.0000 0.0000 0.0000 0.0000 0.0000 26.9084
#
#
#
# Elastic Compliance Matrix: (Units=1/GPa)
#
#
# Indices 1 2 3 4 5 6 
#
# 1 0.018267 -0.009492 -0.001631 0.000000 0.000000 0.000000
# 2 -0.009492 0.018598 -0.003501 0.000000 0.000000 0.000000
# 3 -0.001631 -0.003501 0.011661 0.000000 0.000000 0.000000
# 4 0.000000 0.000000 0.000000 0.037360 0.000000 0.000000
# 5 0.000000 0.000000 0.000000 0.000000 0.032967 0.000000
# 6 0.000000 0.000000 0.000000 0.000000 0.000000 0.037163
#
#
# Mechanical properties :
#
#
# Convention : Reuss Voigt Hill
#
# Bulk Modulus (GPa) = 51.87315 51.98880 51.93097
# Shear Modulus (GPa) = 26.08370 27.48218 26.78294
#
# Velocity S-wave (km/s) = 3.53553 3.62907 3.58260
# Velocity P-wave (km/s) = 6.44403 6.51725 6.48074
#
# Compressibility (1/GPa) = 0.01927780
#
# Stress axis : x y z
#
# Youngs Moduli (GPa) = 54.74313 53.77051 85.75242
#
# Poissons Ratio (x) = 0.51039 0.13989
# Poissons Ratio (y) = 0.51962 0.30021
# Poissons Ratio (z) = 0.08930 0.18825
#
# Static dielectric constant tensor:
#      x y z
#    x 3.947220 0.000000 0.000000 
#    y 0.000000 3.739850 0.000000 
#    z 0.000000 0.000000 3.613450 
# 
# 
# High freq. dielectric constant tensor:
#      x y z
#    x 1.815150 0.000000 0.000000 
#    y 0.000000 1.817280 0.000000 
#    z 0.000000 0.000000 1.803470 
# 
# From -- ./inp_files/24092.got.cif
#   From: 2010.03.12/outbox.cif.g09.slc.cpg/sg60_13_cif.got.tgz:24092.got - 2010.04.10 18:46:24.
