data_PCOD8246999
_publ_section_title
;
Structure prediction by ZEFSAII (Michael W. Deem and Ramdas Pophale) SiO2 
 PCOD8246999
Probable space group: P B C N
;
_chemical_formula_sum "Si O2"
_cell_formula_units_Z 52
_cell_length_a 9.346895
_cell_length_b 20.451528
_cell_length_c 14.449900
_cell_angle_alpha 90.000000
_cell_angle_beta 90.000000
_cell_angle_gamma 90.000000
_cell_volume 2762.218100
_symmetry_space_group_name_H-M "P B C N"
_symmetry_group_IT_number 60
_symmetry_cell_setting 'orthorhombic'
loop_
_space_group_symop_operation_xyz
x,y,z
1/2-x,1/2-y,1/2+z
1/2+x,1/2-y,-z
-x,y,1/2-z
-x,-y,-z
1/2+x,1/2+y,1/2-z
1/2-x,1/2+y,z
x,-y,1/2+z
loop_
_atom_site_type_symbol
_atom_site_label
_atom_site_fract_x
_atom_site_fract_y
_atom_site_fract_z
Si Si1 0.500000 0.921052 0.750000
Si Si2 0.438006 0.313700 0.447009
Si Si3 0.860390 0.308068 0.976051
Si Si4 0.409393 0.051166 0.055441
Si Si5 0.000000 0.115251 0.250000
Si Si6 0.000000 0.793544 0.250000
Si Si7 0.718247 0.816166 0.766720
Si Si8 0.074213 0.942645 0.556829
O O1 0.542538 0.963022 0.839010
O O2 0.630331 0.874842 0.720847
O O3 0.526566 0.250534 0.481697
O O4 0.267138 0.297776 0.449189
O O5 0.496398 0.334834 0.344536
O O6 0.472271 0.374722 0.510729
O O7 0.945835 0.376721 0.986574
O O8 0.780676 0.316698 0.877856
O O9 0.240612 0.040459 0.047835
O O10 0.500000 0.000000 0.000000
O O11 0.875944 0.168515 0.230728
O O12 0.971412 0.065624 0.335678
O O13 0.145066 0.751150 0.264726
O O14 0.000000 0.000000 0.500000
#
# Coordination Sequence:
#
# PCOD8246999 Si02
#       8
#     4   8   8   8   4   4   8   8
#     4   9  16  36  54  82 108 149 198 236 286 355
#     4  10  20  38  57  86 122 152 199 254 300 363
#     4   9  19  37  55  88 116 150 202 244 301 358
#     4  10  21  38  59  85 119 153 204 249 295 371
#     4  12  20  39  60  86 124 157 202 262 284 383
#     4   9  20  33  60  88 120 162 196 246 316 366
#     4   9  18  33  57  86 112 150 203 241 296 359
#     4  11  26  40  58  92 121 164 207 250 315 358
#
# _framework density 18.825451999999999
#
# number of rings (size 3 to 8) (size 9 to 14) (size 15 to 20)
#    0.000    2.154    4.615    0.923    4.308    1.846 
#    0.000    1.538    0.000    0.923    0.000    0.000 
#    0.000    0.000    0.000    0.000    0.000    0.000 
#
# Total GULP energy -644182.844931 kJ/mol
# GULP energy per Si atom -12388.131633 kJ/mol
# Density = 1.878260 g / cm^3
# Si number density = 18.825452 Si / 1000 Ang^3
#
#
#
# Elastic Constant Matrix: (Units=GPa)
#
#
# Indices 1 2 3 4 5 6 
#
# 1 122.0912 60.0222 46.3682 0.0000 0.0000 0.0000
# 2 60.0222 109.8930 55.2036 0.0000 0.0000 0.0000
# 3 46.3682 55.2036 106.1810 0.0000 0.0000 0.0000
# 4 0.0000 0.0000 0.0000 55.0600 0.0000 0.0000
# 5 0.0000 0.0000 0.0000 0.0000 33.3940 0.0000
# 6 0.0000 0.0000 0.0000 0.0000 0.0000 38.3469
#
#
#
# Elastic Compliance Matrix: (Units=1/GPa)
#
#
# Indices 1 2 3 4 5 6 
#
# 1 0.011634 -0.005146 -0.002405 0.000000 0.000000 0.000000
# 2 -0.005146 0.014593 -0.005340 0.000000 0.000000 0.000000
# 3 -0.002405 -0.005340 0.013244 0.000000 0.000000 0.000000
# 4 0.000000 0.000000 0.000000 0.018162 0.000000 0.000000
# 5 0.000000 0.000000 0.000000 0.000000 0.029945 0.000000
# 6 0.000000 0.000000 0.000000 0.000000 0.000000 0.026078
#
#
# Mechanical properties :
#
#
# Convention : Reuss Voigt Hill
#
# Bulk Modulus (GPa) = 73.04836 73.48369 73.26602
# Shear Modulus (GPa) = 34.72212 37.13161 35.92687
#
# Velocity S-wave (km/s) = 4.29934 4.44601 4.37329
# Velocity P-wave (km/s) = 7.97075 8.09166 8.03143
#
# Compressibility (1/GPa) = 0.01368956
#
# Stress axis : x y z
#
# Youngs Moduli (GPa) = 85.95569 68.52692 75.50538
#
# Poissons Ratio (x) = 0.35265 0.18158
# Poissons Ratio (y) = 0.44235 0.40316
# Poissons Ratio (z) = 0.20671 0.36590
#
# Static dielectric constant tensor:
#      x y z
#    x 3.665500 0.000000 0.000000 
#    y 0.000000 3.516740 0.000000 
#    z 0.000000 0.000000 3.824230 
# 
# 
# High freq. dielectric constant tensor:
#      x y z
#    x 1.737060 0.000000 0.000000 
#    y 0.000000 1.709130 0.000000 
#    z 0.000000 0.000000 1.731630 
# 
# From -- ./inp_files/15229.got.cif
#   From: 2010.03.12/outbox.cif.g09.slc.cpg/sg60_8_cif.got.tgz:15229.got - 2010.04.10 18:46:24.
