data_PCOD8246916
_publ_section_title
;
Structure prediction by ZEFSAII (Michael W. Deem and Ramdas Pophale) SiO2 
 PCOD8246916
Probable space group: P B C N
;
_chemical_formula_sum "Si O2"
_cell_formula_units_Z 48
_cell_length_a 8.810818
_cell_length_b 9.785909
_cell_length_c 26.985949
_cell_angle_alpha 90.000000
_cell_angle_beta 90.000000
_cell_angle_gamma 90.000000
_cell_volume 2326.778802
_symmetry_space_group_name_H-M "P B C N"
_symmetry_group_IT_number 60
_symmetry_cell_setting 'orthorhombic'
loop_
_space_group_symop_operation_xyz
x,y,z
1/2-x,1/2-y,1/2+z
1/2+x,1/2-y,-z
-x,y,1/2-z
-x,-y,-z
1/2+x,1/2+y,1/2-z
1/2-x,1/2+y,z
x,-y,1/2+z
loop_
_atom_site_type_symbol
_atom_site_label
_atom_site_fract_x
_atom_site_fract_y
_atom_site_fract_z
Si Si1 0.411177 0.513524 0.298120
Si Si2 0.543664 0.250699 0.145239
Si Si3 0.110172 0.764513 0.873200
Si Si4 0.931675 0.513205 0.697867
Si Si5 0.119795 0.138088 0.552077
Si Si6 0.403538 0.325948 0.537499
O O1 0.500000 0.563977 0.250000
O O2 0.445761 0.356614 0.309570
O O3 0.456747 0.602989 0.345637
O O4 0.234928 0.538835 0.288186
O O5 0.708073 0.229340 0.119350
O O6 0.421709 0.303058 0.105865
O O7 0.482149 0.111939 0.170682
O O8 0.063434 0.634502 0.841190
O O9 0.030605 0.761886 0.926350
O O10 0.000000 0.560580 0.750000
O O11 0.266097 0.219654 0.533061
O O12 0.976915 0.162915 0.516539
O O13 0.154889 0.975710 0.554812
#
# Coordination Sequence:
#
# PCOD8246916 Si02
#       6
#     8   8   8   8   8   8
#     4  10  20  36  59  84 123 166 205 256 310 360
#     4  10  21  40  62  89 124 167 205 255 312 363
#     4  10  21  40  62  89 124 167 205 255 312 363
#     4  10  22  36  59  92 123 162 213 256 304 366
#     4  11  25  44  66  95 127 162 204 255 311 371
#     4  11  25  44  66  95 127 162 204 255 311 371
#
# _framework density 20.629379
#
# number of rings (size 3 to 8) (size 9 to 14) (size 15 to 20)
#    0.000    1.667    1.667    2.000    2.333    3.333 
#    0.000    0.000    0.000    0.000    0.000    0.000 
#    0.000    0.000    0.000    0.000    0.000    0.000 
#
# Total GULP energy -595298.008094 kJ/mol
# GULP energy per Si atom -12402.041835 kJ/mol
# Density = 2.058243 g / cm^3
# Si number density = 20.629379 Si / 1000 Ang^3
#
#
#
# Elastic Constant Matrix: (Units=GPa)
#
#
# Indices 1 2 3 4 5 6 
#
# 1 49.0920 13.3258 7.2619 0.0000 0.0000 0.0000
# 2 13.3258 96.0535 4.7386 0.0000 0.0000 0.0000
# 3 7.2619 4.7386 61.7804 0.0000 0.0000 0.0000
# 4 0.0000 0.0000 0.0000 17.3767 0.0000 0.0000
# 5 0.0000 0.0000 0.0000 0.0000 33.4690 0.0000
# 6 0.0000 0.0000 0.0000 0.0000 0.0000 17.4379
#
#
#
# Elastic Compliance Matrix: (Units=1/GPa)
#
#
# Indices 1 2 3 4 5 6 
#
# 1 0.021489 -0.002868 -0.002306 0.000000 0.000000 0.000000
# 2 -0.002868 0.010833 -0.000494 0.000000 0.000000 0.000000
# 3 -0.002306 -0.000494 0.016495 0.000000 0.000000 0.000000
# 4 0.000000 0.000000 0.000000 0.057548 0.000000 0.000000
# 5 0.000000 0.000000 0.000000 0.000000 0.029878 0.000000
# 6 0.000000 0.000000 0.000000 0.000000 0.000000 0.057347
#
#
# Mechanical properties :
#
#
# Convention : Reuss Voigt Hill
#
# Bulk Modulus (GPa) = 26.67874 28.61981 27.64928
# Shear Modulus (GPa) = 22.99696 25.76336 24.38016
#
# Velocity S-wave (km/s) = 3.34244 3.53777 3.44149
# Velocity P-wave (km/s) = 5.27791 5.53093 5.40590
#
# Compressibility (1/GPa) = 0.03748303
#
# Stress axis : x y z
#
# Youngs Moduli (GPa) = 46.53459 92.31012 60.62338
#
# Poissons Ratio (x) = 0.26470 0.13980
# Poissons Ratio (y) = 0.13344 0.02994
# Poissons Ratio (z) = 0.10731 0.04559
#
# Static dielectric constant tensor:
#      x y z
#    x 3.535430 0.000000 0.000000 
#    y 0.000000 3.862300 0.000000 
#    z 0.000000 0.000000 3.589100 
# 
# 
# High freq. dielectric constant tensor:
#      x y z
#    x 1.790240 0.000000 0.000000 
#    y 0.000000 1.821530 0.000000 
#    z 0.000000 0.000000 1.810080 
# 
# From -- ./inp_files/25904.got.cif
#   From: 2010.03.12/outbox.cif.g09.slc.cpg/sg60_13_cif.got.tgz:25904.got - 2010.04.10 18:46:24.
