data_PCOD8246822
_publ_section_title
;
Structure prediction by ZEFSAII (Michael W. Deem and Ramdas Pophale) SiO2 
 PCOD8246822
Probable space group: P B C N
;
_chemical_formula_sum "Si O2"
_cell_formula_units_Z 56
_cell_length_a 23.203107
_cell_length_b 22.926330
_cell_length_c 5.523567
_cell_angle_alpha 90.000000
_cell_angle_beta 90.000000
_cell_angle_gamma 90.000000
_cell_volume 2938.328235
_symmetry_space_group_name_H-M "P B C N"
_symmetry_group_IT_number 60
_symmetry_cell_setting 'orthorhombic'
loop_
_space_group_symop_operation_xyz
x,y,z
1/2-x,1/2-y,1/2+z
1/2+x,1/2-y,-z
-x,y,1/2-z
-x,-y,-z
1/2+x,1/2+y,1/2-z
1/2-x,1/2+y,z
x,-y,1/2+z
loop_
_atom_site_type_symbol
_atom_site_label
_atom_site_fract_x
_atom_site_fract_y
_atom_site_fract_z
Si Si1 0.727966 0.969379 0.643087
Si Si2 0.591586 0.028379 0.167893
Si Si3 0.560052 0.757676 0.696896
Si Si4 0.766066 0.341166 0.757222
Si Si5 0.368012 0.821021 0.425318
Si Si6 0.324320 0.261149 0.543656
Si Si7 0.549976 0.868755 0.419297
O O1 0.659698 0.970584 0.654151
O O2 0.750073 0.901850 0.625710
O O3 0.750934 0.000972 0.395890
O O4 0.568349 0.001854 0.418824
O O5 0.563078 0.092719 0.156970
O O6 0.500000 0.720924 0.750000
O O7 0.616709 0.722295 0.605148
O O8 0.538391 0.802090 0.490379
O O9 0.578226 0.797247 0.922587
O O10 0.785216 0.288124 0.584247
O O11 0.820490 0.356323 0.925241
O O12 0.711675 0.320280 0.919042
O O13 0.390275 0.868964 0.234696
O O14 0.340029 0.763790 0.305250
O O15 0.500000 0.894262 0.250000
#
# Coordination Sequence:
#
# PCOD8246822 Si02
#       7
#     8   8   8   8   8   8   8
#     4  10  23  38  58  80 110 156 194 238 291 348
#     4  10  23  37  52  71 101 138 194 251 295 327
#     4  10  20  35  53  76 105 143 180 225 278 356
#     4  11  21  36  56  82 116 140 193 234 294 356
#     4  10  20  34  52  75 105 140 182 229 285 347
#     4  10  21  33  56  85 108 150 178 242 296 345
#     4  11  22  34  52  70  95 142 190 236 289 334
#
# _framework density 19.058456
#
# number of rings (size 3 to 8) (size 9 to 14) (size 15 to 20)
#    0.000    1.714    2.857    2.571   10.000    0.571 
#    0.000    0.000    0.000    0.000    0.000    0.000 
#    0.000    1.143    0.000    0.000    0.000    0.000 
#
# Total GULP energy -693849.591486 kJ/mol
# GULP energy per Si atom -12390.171277 kJ/mol
# Density = 1.901508 g / cm^3
# Si number density = 19.058456 Si / 1000 Ang^3
#
#
#
# Elastic Constant Matrix: (Units=GPa)
#
#
# Indices 1 2 3 4 5 6 
#
# 1 86.4849 30.4939 26.1204 0.0000 0.0000 0.0000
# 2 30.4939 61.8826 28.0776 0.0000 0.0000 0.0000
# 3 26.1204 28.0776 95.8213 0.0000 0.0000 0.0000
# 4 0.0000 0.0000 0.0000 18.2342 0.0000 0.0000
# 5 0.0000 0.0000 0.0000 0.0000 18.6233 0.0000
# 6 0.0000 0.0000 0.0000 0.0000 0.0000 14.7096
#
#
#
# Elastic Compliance Matrix: (Units=1/GPa)
#
#
# Indices 1 2 3 4 5 6 
#
# 1 0.014359 -0.006112 -0.002123 0.000000 0.000000 0.000000
# 2 -0.006112 0.021239 -0.004557 0.000000 0.000000 0.000000
# 3 -0.002123 -0.004557 0.012350 0.000000 0.000000 0.000000
# 4 0.000000 0.000000 0.000000 0.054842 0.000000 0.000000
# 5 0.000000 0.000000 0.000000 0.000000 0.053696 0.000000
# 6 0.000000 0.000000 0.000000 0.000000 0.000000 0.067983
#
#
# Mechanical properties :
#
#
# Convention : Reuss Voigt Hill
#
# Bulk Modulus (GPa) = 44.71687 45.95250 45.33469
# Shear Modulus (GPa) = 19.41671 20.94654 20.18162
#
# Velocity S-wave (km/s) = 3.19532 3.31882 3.25766
# Velocity P-wave (km/s) = 6.09323 6.23296 6.16349
#
# Compressibility (1/GPa) = 0.02236292
#
# Stress axis : x y z
#
# Youngs Moduli (GPa) = 69.64206 47.08220 80.96987
#
# Poissons Ratio (x) = 0.28779 0.17191
# Poissons Ratio (y) = 0.42568 0.36901
# Poissons Ratio (z) = 0.14786 0.21457
#
# Static dielectric constant tensor:
#      x y z
#    x 3.425110 0.000000 0.000000 
#    y 0.000000 3.137080 0.000000 
#    z 0.000000 0.000000 3.928550 
# 
# 
# High freq. dielectric constant tensor:
#      x y z
#    x 1.718780 0.000000 0.000000 
#    y 0.000000 1.685560 0.000000 
#    z 0.000000 0.000000 1.764490 
# 
# From -- ./inp_files/2146.got.cif
#   From: 2010.03.12/outbox.cif.g09.slc.cpg/sg60_2_cif.got.tgz:2146.got - 2010.04.10 18:46:24.
