data_PCOD8246003
_publ_section_title
;
Structure prediction by ZEFSAII (Michael W. Deem and Ramdas Pophale) SiO2 
 PCOD8246003
Probable space group: P M M N
;
_chemical_formula_sum "Si O2"
_cell_formula_units_Z 64
_cell_length_a 18.101260
_cell_length_b 8.515995
_cell_length_c 21.782595
_cell_angle_alpha 90.000000
_cell_angle_beta 90.000000
_cell_angle_gamma 90.000000
_cell_volume 3357.792240
_symmetry_space_group_name_H-M "P M M N"
_symmetry_group_IT_number 59
_space_group.IT_coordinate_system_code '2'
_symmetry_cell_setting 'orthorhombic'
loop_
_space_group_symop_operation_xyz
x,y,z
1/2-x,1/2-y,z
1/2+x,-y,-z
-x,1/2+y,-z
-x,-y,-z
1/2+x,1/2+y,-z
1/2-x,y,z
x,1/2-y,z
loop_
_atom_site_type_symbol
_atom_site_label
_atom_site_fract_x
_atom_site_fract_y
_atom_site_fract_z
Si Si1 0.024555 0.063011 0.564917
Si Si2 0.552581 0.429091 0.683522
Si Si3 0.165316 0.432451 0.986714
Si Si4 0.416125 0.933725 0.101924
Si Si5 0.925355 0.069351 0.120287
Si Si6 0.831301 0.936913 0.370229
Si Si7 0.097544 0.429344 0.753306
Si Si8 0.332872 0.937714 0.223347
O O1 0.022460 0.250000 0.565117
O O2 0.107820 0.003587 0.580568
O O3 0.969885 0.993786 0.617993
O O4 0.000000 0.000000 0.500000
O O5 0.570925 0.250000 0.668875
O O6 0.487004 0.441390 0.732395
O O7 0.624244 0.505902 0.716423
O O8 0.250000 0.479278 0.000443
O O9 0.157707 0.250000 0.970582
O O10 0.137355 0.532437 0.929195
O O11 0.115397 0.469858 0.045216
O O12 0.402110 0.750000 0.090981
O O13 0.373767 0.996056 0.162177
O O14 0.503203 0.962245 0.108350
O O15 0.948867 0.250000 0.115780
O O16 0.890325 0.034677 0.186865
O O17 0.750000 0.999851 0.389059
O O18 0.833576 0.750000 0.368915
O O19 0.850935 0.995451 0.301592
O O20 0.117994 0.250000 0.769422
O O21 0.250000 0.004910 0.224387
O O22 0.333906 0.750000 0.224850
#
# Coordination Sequence:
#
# PCOD8246003 Si02
#       8
#     8   8   8   8   8   8   8   8
#     4   9  17  30  51  75 104 141 180 218 257 308
#     4   8  14  28  48  71 101 134 169 212 259 314
#     4  11  25  43  59  77 106 143 181 224 275 326
#     4  11  21  37  60  82 107 138 180 228 272 323
#     4  12  24  37  56  82 111 143 180 220 268 328
#     4   8  15  29  52  79 104 136 180 224 264 315
#     4   9  16  31  54  77 101 132 173 220 270 318
#     4   9  16  27  50  81 105 130 169 218 268 316
#
# _framework density 19.060143
#
# number of rings (size 3 to 8) (size 9 to 14) (size 15 to 20)
#    0.000    2.375    1.250    4.125    0.000    2.000 
#    0.000    4.375    0.000    1.875    0.000    0.000 
#    0.000    0.000    0.000    0.000    0.000    0.000 
#
# Total GULP energy -793375.922884 kJ/mol
# GULP energy per Si atom -12396.498795 kJ/mol
# Density = 1.901676 g / cm^3
# Si number density = 19.060143 Si / 1000 Ang^3
#
#
#
# Elastic Constant Matrix: (Units=GPa)
#
#
# Indices 1 2 3 4 5 6 
#
# 1 106.7376 14.4964 58.1077 0.0000 0.0000 0.0000
# 2 14.4964 33.9963 19.2057 0.0000 0.0000 0.0000
# 3 58.1077 19.2057 148.2649 0.0000 0.0000 0.0000
# 4 0.0000 0.0000 0.0000 28.7457 0.0000 0.0000
# 5 0.0000 0.0000 0.0000 0.0000 25.0507 0.0000
# 6 0.0000 0.0000 0.0000 0.0000 0.0000 15.6805
#
#
#
# Elastic Compliance Matrix: (Units=1/GPa)
#
#
# Indices 1 2 3 4 5 6 
#
# 1 0.012133 -0.002684 -0.004407 0.000000 0.000000 0.000000
# 2 -0.002684 0.032331 -0.003136 0.000000 0.000000 0.000000
# 3 -0.004407 -0.003136 0.008878 0.000000 0.000000 0.000000
# 4 0.000000 0.000000 0.000000 0.034788 0.000000 0.000000
# 5 0.000000 0.000000 0.000000 0.000000 0.039919 0.000000
# 6 0.000000 0.000000 0.000000 0.000000 0.000000 0.063773
#
#
# Mechanical properties :
#
#
# Convention : Reuss Voigt Hill
#
# Bulk Modulus (GPa) = 30.40678 52.51317 41.45998
# Shear Modulus (GPa) = 22.39750 27.04131 24.71940
#
# Velocity S-wave (km/s) = 3.43169 3.77070 3.60518
# Velocity P-wave (km/s) = 5.62936 6.82412 6.25533
#
# Compressibility (1/GPa) = 0.03288740
#
# Stress axis : x y z
#
# Youngs Moduli (GPa) = 82.42258 30.93000 112.63457
#
# Poissons Ratio (x) = 0.08300 0.49642
# Poissons Ratio (y) = 0.22119 0.35325
# Poissons Ratio (z) = 0.36327 0.09701
#
# Static dielectric constant tensor:
#      x y z
#    x 3.716530 0.000000 0.000000 
#    y 0.000000 2.905670 0.000000 
#    z 0.000000 0.000000 3.756430 
# 
# 
# High freq. dielectric constant tensor:
#      x y z
#    x 1.741720 0.000000 0.000000 
#    y 0.000000 1.699980 0.000000 
#    z 0.000000 0.000000 1.742850 
# 
# From -- ./inp_files/30719.got.cif
#   From: 2010.03.12/outbox.cif.g09.slc.cpg/sg59_16_cif.got.tgz:30719.got - 2010.04.16 16:29:54.
