data_PCOD8246887
_publ_section_title
;
Structure prediction by ZEFSAII (Michael W. Deem and Ramdas Pophale) SiO2 
 PCOD8246887
Probable space group: P B C N
;
_chemical_formula_sum "Si O2"
_cell_formula_units_Z 52
_cell_length_a 8.334597
_cell_length_b 18.521928
_cell_length_c 17.530620
_cell_angle_alpha 90.000000
_cell_angle_beta 90.000000
_cell_angle_gamma 90.000000
_cell_volume 2706.250992
_symmetry_space_group_name_H-M "P B C N"
_symmetry_group_IT_number 60
_symmetry_cell_setting 'orthorhombic'
loop_
_space_group_symop_operation_xyz
x,y,z
1/2-x,1/2-y,1/2+z
1/2+x,1/2-y,-z
-x,y,1/2-z
-x,-y,-z
1/2+x,1/2+y,1/2-z
1/2-x,1/2+y,z
x,-y,1/2+z
loop_
_atom_site_type_symbol
_atom_site_label
_atom_site_fract_x
_atom_site_fract_y
_atom_site_fract_z
Si Si1 0.621420 0.693015 0.044138
Si Si2 0.862103 0.805091 0.073768
Si Si3 0.601703 0.923897 0.093057
Si Si4 0.391750 0.912767 0.950573
Si Si5 0.042752 0.311240 0.665661
Si Si6 0.400872 0.734832 0.182344
Si Si7 0.500000 0.126228 0.750000
O O1 0.751364 0.753827 0.020691
O O2 0.717419 0.621049 0.065442
O O3 0.518502 0.729367 0.110637
O O4 0.515767 0.670074 0.972882
O O5 0.762655 0.875789 0.095355
O O6 0.928940 0.757803 0.145374
O O7 0.554637 0.926264 0.182065
O O8 0.639236 0.003415 0.063405
O O9 0.461957 0.895079 0.035632
O O10 0.516550 0.878339 0.890994
O O11 0.231575 0.297886 0.660996
O O12 0.000000 0.336580 0.750000
O O13 0.500000 0.693459 0.250000
O O14 0.372263 0.818378 0.209864
#
# Coordination Sequence:
#
# PCOD8246887 Si02
#       7
#     8   8   8   8   8   8   4
#     4  11  20  36  58  92 117 157 201 254 299 349
#     4  11  21  35  62  87 123 153 208 252 298 358
#     4  11  22  44  58  88 118 166 202 244 301 361
#     4  10  25  39  62  85 125 160 205 242 299 367
#     4  11  22  37  61  95 120 158 202 252 301 352
#     4  10  20  35  61  88 122 150 197 254 298 345
#     4  10  22  36  64  84 118 154 194 252 292 356
#
# _framework density 19.214773000000001
#
# number of rings (size 3 to 8) (size 9 to 14) (size 15 to 20)
#    0.462    0.923    1.538    6.462    3.231    0.615 
#    0.000    0.000    0.000    2.769    0.000    0.000 
#    0.000    0.000    0.000    0.000    0.000    0.000 
#
# Total GULP energy -644245.797682 kJ/mol
# GULP energy per Si atom -12389.342263 kJ/mol
# Density = 1.917104 g / cm^3
# Si number density = 19.214773 Si / 1000 Ang^3
#
#
#
# Elastic Constant Matrix: (Units=GPa)
#
#
# Indices 1 2 3 4 5 6 
#
# 1 106.5673 35.2042 30.5067 0.0000 0.0000 0.0000
# 2 35.2042 81.1930 27.4862 0.0000 0.0000 0.0000
# 3 30.5067 27.4862 115.1505 0.0000 0.0000 0.0000
# 4 0.0000 0.0000 0.0000 20.1868 0.0000 0.0000
# 5 0.0000 0.0000 0.0000 0.0000 28.5834 0.0000
# 6 0.0000 0.0000 0.0000 0.0000 0.0000 18.0211
#
#
#
# Elastic Compliance Matrix: (Units=1/GPa)
#
#
# Indices 1 2 3 4 5 6 
#
# 1 0.011359 -0.004250 -0.001995 0.000000 0.000000 0.000000
# 2 -0.004250 0.014989 -0.002452 0.000000 0.000000 0.000000
# 3 -0.001995 -0.002452 0.009798 0.000000 0.000000 0.000000
# 4 0.000000 0.000000 0.000000 0.049537 0.000000 0.000000
# 5 0.000000 0.000000 0.000000 0.000000 0.034985 0.000000
# 6 0.000000 0.000000 0.000000 0.000000 0.000000 0.055491
#
#
# Mechanical properties :
#
#
# Convention : Reuss Voigt Hill
#
# Bulk Modulus (GPa) = 53.32557 54.36724 53.84640
# Shear Modulus (GPa) = 25.02467 27.33917 26.18192
#
# Velocity S-wave (km/s) = 3.61275 3.77612 3.69534
# Velocity P-wave (km/s) = 6.72423 6.88244 6.80379
#
# Compressibility (1/GPa) = 0.01875273
#
# Stress axis : x y z
#
# Youngs Moduli (GPa) = 88.03851 66.71560 102.06094
#
# Poissons Ratio (x) = 0.28352 0.20360
# Poissons Ratio (y) = 0.37413 0.25025
# Poissons Ratio (z) = 0.17562 0.16359
#
# Static dielectric constant tensor:
#      x y z
#    x 3.676470 0.000000 0.000000 
#    y 0.000000 3.304980 0.000000 
#    z 0.000000 0.000000 3.678750 
# 
# 
# High freq. dielectric constant tensor:
#      x y z
#    x 1.748260 0.000000 0.000000 
#    y 0.000000 1.724340 0.000000 
#    z 0.000000 0.000000 1.759340 
# 
# From -- ./inp_files/19501.got.cif
#   From: 2010.03.12/outbox.cif.g09.slc.cpg/sg60_10_cif.got.tgz:19501.got - 2010.04.10 18:46:24.
