data_PCOD8246490
_publ_section_title
;
Structure prediction by ZEFSAII (Michael W. Deem and Ramdas Pophale) SiO2 
 PCOD8246490
Probable space group: P B C N
;
_chemical_formula_sum "Si O2"
_cell_formula_units_Z 64
_cell_length_a 9.491347
_cell_length_b 18.692527
_cell_length_c 17.743379
_cell_angle_alpha 90.000000
_cell_angle_beta 90.000000
_cell_angle_gamma 90.000000
_cell_volume 3147.981686
_symmetry_space_group_name_H-M "P B C N"
_symmetry_group_IT_number 60
_symmetry_cell_setting 'orthorhombic'
loop_
_space_group_symop_operation_xyz
x,y,z
1/2-x,1/2-y,1/2+z
1/2+x,1/2-y,-z
-x,y,1/2-z
-x,-y,-z
1/2+x,1/2+y,1/2-z
1/2-x,1/2+y,z
x,-y,1/2+z
loop_
_atom_site_type_symbol
_atom_site_label
_atom_site_fract_x
_atom_site_fract_y
_atom_site_fract_z
Si Si1 0.217289 0.922428 0.952650
Si Si2 0.066767 0.118696 0.117453
Si Si3 0.279652 0.436104 0.378658
Si Si4 0.774429 0.326899 0.003152
Si Si5 0.905780 0.961082 0.395505
Si Si6 0.415303 0.802829 0.011409
Si Si7 0.604486 0.763723 0.313934
Si Si8 0.838508 0.861010 0.269665
O O1 0.088385 0.873469 0.921195
O O2 0.271100 0.981350 0.891250
O O3 0.161920 0.969699 0.022645
O O4 0.347280 0.875984 0.981544
O O5 0.084198 0.177595 0.183248
O O6 0.082508 0.037637 0.147540
O O7 0.197981 0.129824 0.062193
O O8 0.191437 0.379211 0.427242
O O9 0.439791 0.428664 0.406612
O O10 0.265349 0.411554 0.292541
O O11 0.927267 0.297535 0.977511
O O12 0.674937 0.260655 0.026036
O O13 0.817331 0.906325 0.345594
O O14 0.420381 0.796134 0.102562
O O15 0.500000 0.794790 0.250000
O O16 0.759402 0.785851 0.283854
O O17 0.000000 0.843811 0.250000
#
# Coordination Sequence:
#
# PCOD8246490 Si02
#       8
#     8   8   8   8   8   8   8   8
#     4  11  19  39  63  94 119 158 204 261 307 358
#     4  10  21  37  64  87 121 157 199 256 303 362
#     4  10  20  35  62  89 121 156 204 255 303 361
#     4  11  21  37  54  90 117 156 200 257 303 356
#     4  10  18  38  62  90 120 158 199 249 303 367
#     4  11  24  36  62  87 123 158 206 254 313 365
#     4  11  23  40  56  85 122 161 199 250 311 366
#     4  10  22  37  61  87 118 165 205 243 304 375
#
# _framework density 20.330486000000001
#
# number of rings (size 3 to 8) (size 9 to 14) (size 15 to 20)
#    0.000    1.500    3.750    3.000    0.000    4.000 
#    0.000    0.000    0.000    0.750    0.000    0.000 
#    0.000    0.000    0.000    0.000    0.000    0.000 
#
# Total GULP energy -793221.690535 kJ/mol
# GULP energy per Si atom -12394.088915 kJ/mol
# Density = 2.028421 g / cm^3
# Si number density = 20.330486 Si / 1000 Ang^3
#
#
#
# Elastic Constant Matrix: (Units=GPa)
#
#
# Indices 1 2 3 4 5 6 
#
# 1 102.2339 50.0990 19.3071 0.0000 0.0000 0.0000
# 2 50.0990 114.2323 29.1529 0.0000 0.0000 0.0000
# 3 19.3071 29.1529 64.0150 0.0000 0.0000 0.0000
# 4 0.0000 0.0000 0.0000 32.5760 0.0000 0.0000
# 5 0.0000 0.0000 0.0000 0.0000 19.4701 0.0000
# 6 0.0000 0.0000 0.0000 0.0000 0.0000 31.1332
#
#
#
# Elastic Compliance Matrix: (Units=1/GPa)
#
#
# Indices 1 2 3 4 5 6 
#
# 1 0.012577 -0.005146 -0.001450 0.000000 0.000000 0.000000
# 2 -0.005146 0.012011 -0.003918 0.000000 0.000000 0.000000
# 3 -0.001450 -0.003918 0.017843 0.000000 0.000000 0.000000
# 4 0.000000 0.000000 0.000000 0.030697 0.000000 0.000000
# 5 0.000000 0.000000 0.000000 0.000000 0.051361 0.000000
# 6 0.000000 0.000000 0.000000 0.000000 0.000000 0.032120
#
#
# Mechanical properties :
#
#
# Convention : Reuss Voigt Hill
#
# Bulk Modulus (GPa) = 46.72106 53.06660 49.89383
# Shear Modulus (GPa) = 27.06062 28.76400 27.91231
#
# Velocity S-wave (km/s) = 3.65230 3.76549 3.70933
# Velocity P-wave (km/s) = 6.38877 6.71296 6.55287
#
# Compressibility (1/GPa) = 0.02140362
#
# Stress axis : x y z
#
# Youngs Moduli (GPa) = 79.51016 83.25850 56.04510
#
# Poissons Ratio (x) = 0.42844 0.08125
# Poissons Ratio (y) = 0.40915 0.21957
# Poissons Ratio (z) = 0.11527 0.32619
#
# Static dielectric constant tensor:
#      x y z
#    x 3.550450 0.000000 0.000000 
#    y 0.000000 3.741870 0.000000 
#    z 0.000000 0.000000 3.635810 
# 
# 
# High freq. dielectric constant tensor:
#      x y z
#    x 1.778200 0.000000 0.000000 
#    y 0.000000 1.799610 0.000000 
#    z 0.000000 0.000000 1.780230 
# 
# From -- ./inp_files/19677.got.cif
#   From: 2010.03.12/outbox.cif.g09.slc.cpg/sg60_10_cif.got.tgz:19677.got - 2010.04.10 18:46:24.
