data_PCOD8246608
_publ_section_title
;
Structure prediction by ZEFSAII (Michael W. Deem and Ramdas Pophale) SiO2 
 PCOD8246608
Probable space group: P B C N
;
_chemical_formula_sum "Si O2"
_cell_formula_units_Z 40
_cell_length_a 12.484210
_cell_length_b 16.125198
_cell_length_c 11.064732
_cell_angle_alpha 90.000000
_cell_angle_beta 90.000000
_cell_angle_gamma 90.000000
_cell_volume 2227.445161
_symmetry_space_group_name_H-M "P B C N"
_symmetry_group_IT_number 60
_symmetry_cell_setting 'orthorhombic'
loop_
_space_group_symop_operation_xyz
x,y,z
1/2-x,1/2-y,1/2+z
1/2+x,1/2-y,-z
-x,y,1/2-z
-x,-y,-z
1/2+x,1/2+y,1/2-z
1/2-x,1/2+y,z
x,-y,1/2+z
loop_
_atom_site_type_symbol
_atom_site_label
_atom_site_fract_x
_atom_site_fract_y
_atom_site_fract_z
Si Si1 0.469183 0.449980 0.119467
Si Si2 0.080618 0.372188 0.015399
Si Si3 0.086611 0.528323 0.852917
Si Si4 0.582125 0.280419 0.155502
Si Si5 0.255790 0.616954 0.708883
O O1 0.500000 0.492287 0.250000
O O2 0.534937 0.365612 0.104296
O O3 0.342817 0.431066 0.126489
O O4 0.500000 0.500000 0.000000
O O5 0.115754 0.447932 0.931039
O O6 0.090023 0.284973 0.949937
O O7 0.160243 0.354174 0.124575
O O8 0.962934 0.396079 0.067052
O O9 0.202828 0.554509 0.805143
O O10 0.000000 0.503681 0.750000
O O11 0.500000 0.239809 0.250000
O O12 0.694405 0.303149 0.221640
#
# Coordination Sequence:
#
# PCOD8246608 Si02
#       5
#     8   8   8   8   8
#     4   9  20  38  57  78 115 151 188 232 285 334
#     4  10  19  34  57  79 110 146 183 231 297 338
#     4   9  19  35  54  81 109 143 187 237 283 346
#     4   9  20  37  52  76 114 144 179 237 285 337
#     4   9  20  34  53  81 110 142 190 238 275 349
#
# _framework density 17.957794
#
# number of rings (size 3 to 8) (size 9 to 14) (size 15 to 20)
#    0.000    3.200    0.000    0.600    5.600    3.200 
#    3.600    3.000    0.000    0.000    0.000    0.000 
#    0.000    0.000    0.000    0.000    0.000    0.000 
#
# Total GULP energy -495576.119392 kJ/mol
# GULP energy per Si atom -12389.402985 kJ/mol
# Density = 1.791692 g / cm^3
# Si number density = 17.957794 Si / 1000 Ang^3
#
#
#
# Elastic Constant Matrix: (Units=GPa)
#
#
# Indices 1 2 3 4 5 6 
#
# 1 81.1484 40.6049 33.5615 0.0000 0.0000 0.0000
# 2 40.6049 82.7168 65.3373 0.0000 0.0000 0.0000
# 3 33.5615 65.3373 112.4812 0.0000 0.0000 0.0000
# 4 0.0000 0.0000 0.0000 35.3054 0.0000 0.0000
# 5 0.0000 0.0000 0.0000 0.0000 24.5473 0.0000
# 6 0.0000 0.0000 0.0000 0.0000 0.0000 5.1368
#
#
#
# Elastic Compliance Matrix: (Units=1/GPa)
#
#
# Indices 1 2 3 4 5 6 
#
# 1 0.016345 -0.007708 -0.000400 0.000000 0.000000 0.000000
# 2 -0.007708 0.025974 -0.012788 0.000000 0.000000 0.000000
# 3 -0.000400 -0.012788 0.016438 0.000000 0.000000 0.000000
# 4 0.000000 0.000000 0.000000 0.028324 0.000000 0.000000
# 5 0.000000 0.000000 0.000000 0.000000 0.040738 0.000000
# 6 0.000000 0.000000 0.000000 0.000000 0.000000 0.194675
#
#
# Mechanical properties :
#
#
# Convention : Reuss Voigt Hill
#
# Bulk Modulus (GPa) = 58.94071 61.70599 60.32335
# Shear Modulus (GPa) = 13.51565 22.12074 17.81820
#
# Velocity S-wave (km/s) = 2.74639 3.51353 3.15338
# Velocity P-wave (km/s) = 6.55362 7.13416 6.85004
#
# Compressibility (1/GPa) = 0.01696620
#
# Stress axis : x y z
#
# Youngs Moduli (GPa) = 61.17949 38.49949 60.83559
#
# Poissons Ratio (x) = 0.29676 0.02431
# Poissons Ratio (y) = 0.47158 0.77796
# Poissons Ratio (z) = 0.02445 0.49233
#
# Static dielectric constant tensor:
#      x y z
#    x 3.428100 0.000000 0.000000 
#    y 0.000000 3.054220 0.000000 
#    z 0.000000 0.000000 3.805300 
# 
# 
# High freq. dielectric constant tensor:
#      x y z
#    x 1.700830 0.000000 0.000000 
#    y 0.000000 1.669690 0.000000 
#    z 0.000000 0.000000 1.706570 
# 
# From -- ./inp_files/10823.got.cif
#   From: 2010.03.12/outbox.cif.g09.slc.cpg/sg60_6_cif.got.tgz:10823.got - 2010.04.10 18:46:24.
