data_PCOD8246068
_publ_section_title
;
Structure prediction by ZEFSAII (Michael W. Deem and Ramdas Pophale) SiO2 
 PCOD8246068
Probable space group: P M M N
;
_chemical_formula_sum "Si O2"
_cell_formula_units_Z 48
_cell_length_a 9.716843
_cell_length_b 8.845065
_cell_length_c 28.390469
_cell_angle_alpha 90.000000
_cell_angle_beta 90.000000
_cell_angle_gamma 90.000000
_cell_volume 2440.050313
_symmetry_space_group_name_H-M "P M M N"
_symmetry_group_IT_number 59
_space_group.IT_coordinate_system_code '2'
_symmetry_cell_setting 'orthorhombic'
loop_
_space_group_symop_operation_xyz
x,y,z
1/2-x,1/2-y,z
1/2+x,-y,-z
-x,1/2+y,-z
-x,-y,-z
1/2+x,1/2+y,-z
1/2-x,y,z
x,1/2-y,z
loop_
_atom_site_type_symbol
_atom_site_label
_atom_site_fract_x
_atom_site_fract_y
_atom_site_fract_z
Si Si1 0.405100 0.421209 0.700096
Si Si2 0.590454 0.928679 0.041176
Si Si3 0.591844 0.578512 0.773614
Si Si4 0.017085 0.927890 0.605593
Si Si5 0.906449 0.926373 0.882642
Si Si6 0.250000 0.570735 0.535917
Si Si7 0.750000 0.071842 0.569488
O O1 0.250000 0.435107 0.718957
O O2 0.438829 0.250000 0.684265
O O3 0.503606 0.464771 0.742769
O O4 0.421300 0.532947 0.656173
O O5 0.750000 0.984311 0.039280
O O6 0.585191 0.750000 0.035968
O O7 0.520261 0.976940 0.090076
O O8 0.500000 0.000000 0.000000
O O9 0.750000 0.560718 0.758625
O O10 0.542718 0.750000 0.764498
O O11 0.572368 0.535907 0.827999
O O12 0.991502 0.750000 0.602628
O O13 0.116609 0.986227 0.564035
O O14 0.877363 0.016797 0.599513
O O15 0.750000 0.969609 0.897981
O O16 0.930740 0.750000 0.892942
O O17 0.250000 0.750000 0.534510
O O18 0.250000 0.501264 0.483368
O O19 0.750000 0.250000 0.565857
#
# Coordination Sequence:
#
# PCOD8246068 Si02
#       7
#     8   8   8   8   8   4   4
#     4  11  24  40  58  84 117 153 192 240 296 347
#     4  11  24  39  57  85 120 158 201 248 296 348
#     4   9  20  39  63  89 117 152 194 240 290 348
#     4  11  22  40  62  86 114 152 195 236 284 345
#     4   9  19  38  62  88 118 152 194 243 293 348
#     4   9  20  39  63  87 115 149 193 237 282 341
#     4  11  23  39  59  89 121 149 185 237 290 343
#
# _framework density 19.671726
#
# number of rings (size 3 to 8) (size 9 to 14) (size 15 to 20)
#    0.000    1.833    0.833    3.750    1.167    6.333 
#    0.000    7.500    0.000    0.000    0.000    0.000 
#    0.000    0.000    0.000    0.000    0.000    0.000 
#
# Total GULP energy -595312.016462 kJ/mol
# GULP energy per Si atom -12402.333676 kJ/mol
# Density = 1.962695 g / cm^3
# Si number density = 19.671726 Si / 1000 Ang^3
#
#
#
# Elastic Constant Matrix: (Units=GPa)
#
#
# Indices 1 2 3 4 5 6 
#
# 1 129.7473 45.3713 48.3853 0.0000 0.0000 0.0000
# 2 45.3713 68.5501 31.7586 0.0000 0.0000 0.0000
# 3 48.3853 31.7586 86.4552 0.0000 0.0000 0.0000
# 4 0.0000 0.0000 0.0000 32.1604 0.0000 0.0000
# 5 0.0000 0.0000 0.0000 0.0000 41.6702 0.0000
# 6 0.0000 0.0000 0.0000 0.0000 0.0000 26.2258
#
#
#
# Elastic Compliance Matrix: (Units=1/GPa)
#
#
# Indices 1 2 3 4 5 6 
#
# 1 0.011201 -0.005434 -0.004272 0.000000 0.000000 0.000000
# 2 -0.005434 0.020216 -0.004385 0.000000 0.000000 0.000000
# 3 -0.004272 -0.004385 0.015569 0.000000 0.000000 0.000000
# 4 0.000000 0.000000 0.000000 0.031094 0.000000 0.000000
# 5 0.000000 0.000000 0.000000 0.000000 0.023998 0.000000
# 6 0.000000 0.000000 0.000000 0.000000 0.000000 0.038130
#
#
# Mechanical properties :
#
#
# Convention : Reuss Voigt Hill
#
# Bulk Modulus (GPa) = 53.18466 59.53144 56.35805
# Shear Modulus (GPa) = 28.62729 30.62710 29.62720
#
# Velocity S-wave (km/s) = 3.81891 3.95005 3.88504
# Velocity P-wave (km/s) = 6.82204 7.15066 6.98828
#
# Compressibility (1/GPa) = 0.01880241
#
# Stress axis : x y z
#
# Youngs Moduli (GPa) = 89.27914 49.46563 64.23189
#
# Poissons Ratio (x) = 0.26880 0.27443
# Poissons Ratio (y) = 0.48515 0.28165
# Poissons Ratio (z) = 0.38144 0.21691
#
# Static dielectric constant tensor:
#      x y z
#    x 3.728460 0.000000 0.000000 
#    y 0.000000 3.481070 0.000000 
#    z 0.000000 0.000000 3.617320 
# 
# 
# High freq. dielectric constant tensor:
#      x y z
#    x 1.776530 0.000000 0.000000 
#    y 0.000000 1.760050 0.000000 
#    z 0.000000 0.000000 1.772910 
# 
# From -- ./inp_files/32967.got.cif
#   From: 2010.03.12/outbox.cif.g09.slc.cpg/sg59_17_cif.got.tgz:32967.got - 2010.04.16 16:29:54.
