data_PCOD8246830
_publ_section_title
;
Structure prediction by ZEFSAII (Michael W. Deem and Ramdas Pophale) SiO2 
 PCOD8246830
Probable space group: P B C N
;
_chemical_formula_sum "Si O2"
_cell_formula_units_Z 56
_cell_length_a 6.829964
_cell_length_b 21.867603
_cell_length_c 19.829483
_cell_angle_alpha 90.000000
_cell_angle_beta 90.000000
_cell_angle_gamma 90.000000
_cell_volume 2961.631269
_symmetry_space_group_name_H-M "P B C N"
_symmetry_group_IT_number 60
_symmetry_cell_setting 'orthorhombic'
loop_
_space_group_symop_operation_xyz
x,y,z
1/2-x,1/2-y,1/2+z
1/2+x,1/2-y,-z
-x,y,1/2-z
-x,-y,-z
1/2+x,1/2+y,1/2-z
1/2-x,1/2+y,z
x,-y,1/2+z
loop_
_atom_site_type_symbol
_atom_site_label
_atom_site_fract_x
_atom_site_fract_y
_atom_site_fract_z
Si Si1 0.575998 0.864765 0.098663
Si Si2 0.428165 0.344018 0.322483
Si Si3 0.326135 0.999798 0.426199
Si Si4 0.688191 0.704428 0.930084
Si Si5 0.008452 0.015487 0.671214
Si Si6 0.268406 0.955253 0.568224
Si Si7 0.647190 0.329096 0.977865
O O1 0.690729 0.845121 0.168041
O O2 0.562390 0.937388 0.093024
O O3 0.356847 0.841225 0.094148
O O4 0.707803 0.837081 0.039903
O O5 0.500000 0.322843 0.250000
O O6 0.523812 0.294778 0.372460
O O7 0.506141 0.411909 0.339437
O O8 0.218012 0.992379 0.498903
O O9 0.170414 0.016683 0.368679
O O10 0.494211 0.051935 0.429084
O O11 0.779888 0.771205 0.935767
O O12 0.578653 0.681491 0.998487
O O13 0.000000 0.997464 0.750000
O O14 0.203969 0.990699 0.635770
O O15 0.161678 0.889377 0.568434
#
# Coordination Sequence:
#
# PCOD8246830 Si02
#       7
#     8   8   8   8   8   8   8
#     4   9  18  33  54  82 108 137 174 221 279 323
#     4   9  20  35  55  81 107 141 186 228 271 326
#     4   9  19  34  56  85 110 139 182 231 277 331
#     4  11  19  35  56  77 110 142 178 233 276 329
#     4  10  20  36  56  81 115 149 181 224 279 338
#     4  10  20  34  54  82 113 144 184 227 282 336
#     4  10  21  33  54  80 106 139 183 224 277 328
#
# _framework density 18.9085
#
# number of rings (size 3 to 8) (size 9 to 14) (size 15 to 20)
#    0.000    2.286    1.429    2.143    0.000    4.571 
#    0.000    4.286    6.286    0.000    0.000    0.000 
#    0.000    0.000    0.000    0.000    0.000    0.000 
#
# Total GULP energy -694074.351219 kJ/mol
# GULP energy per Si atom -12394.184843 kJ/mol
# Density = 1.886546 g / cm^3
# Si number density = 18.908500 Si / 1000 Ang^3
#
#
#
# Elastic Constant Matrix: (Units=GPa)
#
#
# Indices 1 2 3 4 5 6 
#
# 1 96.3296 28.2895 37.0281 0.0000 0.0000 0.0000
# 2 28.2895 53.1600 24.1984 0.0000 0.0000 0.0000
# 3 37.0281 24.1984 102.4784 0.0000 0.0000 0.0000
# 4 0.0000 0.0000 0.0000 20.5173 0.0000 0.0000
# 5 0.0000 0.0000 0.0000 0.0000 22.5913 0.0000
# 6 0.0000 0.0000 0.0000 0.0000 0.0000 27.1156
#
#
#
# Elastic Compliance Matrix: (Units=1/GPa)
#
#
# Indices 1 2 3 4 5 6 
#
# 1 0.013351 -0.005500 -0.003525 0.000000 0.000000 0.000000
# 2 -0.005500 0.023343 -0.003525 0.000000 0.000000 0.000000
# 3 -0.003525 -0.003525 0.011864 0.000000 0.000000 0.000000
# 4 0.000000 0.000000 0.000000 0.048739 0.000000 0.000000
# 5 0.000000 0.000000 0.000000 0.000000 0.044265 0.000000
# 6 0.000000 0.000000 0.000000 0.000000 0.000000 0.036879
#
#
# Mechanical properties :
#
#
# Convention : Reuss Voigt Hill
#
# Bulk Modulus (GPa) = 42.62989 47.88890 45.25940
# Shear Modulus (GPa) = 23.65618 24.87497 24.26557
#
# Velocity S-wave (km/s) = 3.54091 3.63098 3.58623
# Velocity P-wave (km/s) = 6.26990 6.55441 6.41373
#
# Compressibility (1/GPa) = 0.02345772
#
# Stress axis : x y z
#
# Youngs Moduli (GPa) = 74.89810 42.84023 84.28691
#
# Poissons Ratio (x) = 0.23563 0.29715
# Poissons Ratio (y) = 0.41196 0.29707
# Poissons Ratio (z) = 0.26405 0.15099
#
# Static dielectric constant tensor:
#      x y z
#    x 3.555690 0.000000 0.000000 
#    y 0.000000 3.277870 0.000000 
#    z 0.000000 0.000000 3.417360 
# 
# 
# High freq. dielectric constant tensor:
#      x y z
#    x 1.745170 0.000000 0.000000 
#    y 0.000000 1.707090 0.000000 
#    z 0.000000 0.000000 1.713640 
# 
# From -- ./inp_files/21737.got.cif
#   From: 2010.03.12/outbox.cif.g09.slc.cpg/sg60_11_cif.got.tgz:21737.got - 2010.04.10 18:46:24.
