data_PCOD8246553
_publ_section_title
;
Structure prediction by ZEFSAII (Michael W. Deem and Ramdas Pophale) SiO2 
 PCOD8246553
Probable space group: P B C N
;
_chemical_formula_sum "Si O2"
_cell_formula_units_Z 64
_cell_length_a 11.312957
_cell_length_b 17.735571
_cell_length_c 17.438536
_cell_angle_alpha 90.000000
_cell_angle_beta 90.000000
_cell_angle_gamma 90.000000
_cell_volume 3498.898417
_symmetry_space_group_name_H-M "P B C N"
_symmetry_group_IT_number 60
_symmetry_cell_setting 'orthorhombic'
loop_
_space_group_symop_operation_xyz
x,y,z
1/2-x,1/2-y,1/2+z
1/2+x,1/2-y,-z
-x,y,1/2-z
-x,-y,-z
1/2+x,1/2+y,1/2-z
1/2-x,1/2+y,z
x,-y,1/2+z
loop_
_atom_site_type_symbol
_atom_site_label
_atom_site_fract_x
_atom_site_fract_y
_atom_site_fract_z
Si Si1 0.076859 0.778089 0.321897
Si Si2 0.315134 0.286531 0.787749
Si Si3 0.443548 0.377904 0.539056
Si Si4 0.150018 0.268819 0.118690
Si Si5 0.302428 0.579495 0.897452
Si Si6 0.603606 0.725349 0.948218
Si Si7 0.425548 0.445398 0.821588
Si Si8 0.089103 0.325335 0.412540
O O1 0.173270 0.715248 0.298113
O O2 0.142141 0.851514 0.351872
O O3 0.000000 0.803025 0.250000
O O4 0.993111 0.744664 0.387661
O O5 0.354744 0.249809 0.708125
O O6 0.357774 0.372019 0.791813
O O7 0.378648 0.241224 0.854355
O O8 0.373071 0.305795 0.569425
O O9 0.358564 0.425906 0.482665
O O10 0.558551 0.348844 0.492822
O O11 0.484200 0.430747 0.608614
O O12 0.277595 0.300458 0.095030
O O13 0.052924 0.333695 0.097483
O O14 0.325904 0.503889 0.849802
O O15 0.160495 0.596462 0.899904
O O16 0.626224 0.795838 0.003733
O O17 0.500000 0.478804 0.750000
#
# Coordination Sequence:
#
# PCOD8246553 Si02
#       8
#     8   8   8   8   8   8   8   8
#     4  10  20  35  54  84 111 142 182 233 282 332
#     4  11  20  34  58  84 109 141 188 236 278 327
#     4  10  20  34  55  82 112 144 189 231 288 334
#     4  11  18  33  58  84 112 142 191 235 280 330
#     4  10  22  35  52  80 115 148 179 232 288 335
#     4  10  19  32  57  85 110 145 185 234 286 334
#     4  12  21  35  56  83 114 150 189 234 285 342
#     4  10  20  33  53  81 112 141 186 231 282 332
#
# _framework density 18.291471999999999
#
# number of rings (size 3 to 8) (size 9 to 14) (size 15 to 20)
#    0.000    1.500    6.250    1.125    1.750    0.000 
#    0.000    0.000    0.000    6.000    0.000    0.000 
#    0.000    0.000    0.000    0.000    0.000    0.000 
#
# Total GULP energy -793530.191630 kJ/mol
# GULP energy per Si atom -12398.909244 kJ/mol
# Density = 1.824984 g / cm^3
# Si number density = 18.291472 Si / 1000 Ang^3
#
#
#
# Elastic Constant Matrix: (Units=GPa)
#
#
# Indices 1 2 3 4 5 6 
#
# 1 113.1623 24.0200 33.9877 0.0000 0.0000 0.0000
# 2 24.0200 45.1457 22.0621 0.0000 0.0000 0.0000
# 3 33.9877 22.0621 108.1390 0.0000 0.0000 0.0000
# 4 0.0000 0.0000 0.0000 18.7007 0.0000 0.0000
# 5 0.0000 0.0000 0.0000 0.0000 25.6815 0.0000
# 6 0.0000 0.0000 0.0000 0.0000 0.0000 15.5364
#
#
#
# Elastic Compliance Matrix: (Units=1/GPa)
#
#
# Indices 1 2 3 4 5 6 
#
# 1 0.010493 -0.004411 -0.002398 0.000000 0.000000 0.000000
# 2 -0.004411 0.026458 -0.004011 0.000000 0.000000 0.000000
# 3 -0.002398 -0.004011 0.010819 0.000000 0.000000 0.000000
# 4 0.000000 0.000000 0.000000 0.053474 0.000000 0.000000
# 5 0.000000 0.000000 0.000000 0.000000 0.038939 0.000000
# 6 0.000000 0.000000 0.000000 0.000000 0.000000 0.064365
#
#
# Mechanical properties :
#
#
# Convention : Reuss Voigt Hill
#
# Bulk Modulus (GPa) = 38.27112 47.39850 42.83481
# Shear Modulus (GPa) = 21.28571 24.40886 22.84728
#
# Velocity S-wave (km/s) = 3.41500 3.65696 3.53805
# Velocity P-wave (km/s) = 6.04301 6.61818 6.33712
#
# Compressibility (1/GPa) = 0.02612936
#
# Stress axis : x y z
#
# Youngs Moduli (GPa) = 95.29766 37.79606 92.42598
#
# Poissons Ratio (x) = 0.16672 0.22165
# Poissons Ratio (y) = 0.42037 0.37076
# Poissons Ratio (z) = 0.22853 0.15162
#
# Static dielectric constant tensor:
#      x y z
#    x 3.692970 0.000000 0.000000 
#    y 0.000000 2.949050 0.000000 
#    z 0.000000 0.000000 3.707500 
# 
# 
# High freq. dielectric constant tensor:
#      x y z
#    x 1.715520 0.000000 0.000000 
#    y 0.000000 1.655900 0.000000 
#    z 0.000000 0.000000 1.734200 
# 
# From -- ./inp_files/20304.got.cif
#   From: 2010.03.12/outbox.cif.g09.slc.cpg/sg60_11_cif.got.tgz:20304.got - 2010.04.10 18:46:24.
