data_PCOD8246512
_publ_section_title
;
Structure prediction by ZEFSAII (Michael W. Deem and Ramdas Pophale) SiO2 
 PCOD8246512
Probable space group: P B C N
;
_chemical_formula_sum "Si O2"
_cell_formula_units_Z 36
_cell_length_a 8.217338
_cell_length_b 18.854788
_cell_length_c 10.904107
_cell_angle_alpha 90.000000
_cell_angle_beta 90.000000
_cell_angle_gamma 90.000000
_cell_volume 1689.440531
_symmetry_space_group_name_H-M "P B C N"
_symmetry_group_IT_number 60
_symmetry_cell_setting 'orthorhombic'
loop_
_space_group_symop_operation_xyz
x,y,z
1/2-x,1/2-y,1/2+z
1/2+x,1/2-y,-z
-x,y,1/2-z
-x,-y,-z
1/2+x,1/2+y,1/2-z
1/2-x,1/2+y,z
x,-y,1/2+z
loop_
_atom_site_type_symbol
_atom_site_label
_atom_site_fract_x
_atom_site_fract_y
_atom_site_fract_z
Si Si1 0.045806 0.580470 0.118643
Si Si2 0.044397 0.168837 0.608661
Si Si3 0.500000 0.168787 0.750000
Si Si4 0.802979 0.292329 0.026421
Si Si5 0.699479 0.062079 0.915986
O O1 0.118351 0.641035 0.037209
O O2 0.175405 0.516512 0.139809
O O3 0.000000 0.612434 0.250000
O O4 0.879786 0.556172 0.051154
O O5 0.183056 0.223009 0.559195
O O6 0.111610 0.088891 0.579111
O O7 0.000000 0.178754 0.750000
O O8 0.885962 0.188923 0.532336
O O9 0.611138 0.217444 0.659882
O O10 0.619464 0.118776 0.825687
#
# Coordination Sequence:
#
# PCOD8246512 Si02
#       5
#     8   8   4   8   8
#     4  10  21  41  68  95 128 171 219 268 320 389
#     4  12  25  43  65  97 135 175 217 271 328 392
#     4  10  18  40  64  90 126 170 210 270 330 390
#     4  11  24  40  65  96 130 172 222 267 323 389
#     4  10  21  39  66  93 128 174 213 262 336 383
#
# _framework density 21.308827999999998
#
# number of rings (size 3 to 8) (size 9 to 14) (size 15 to 20)
#    0.000    1.333    3.333    3.333    0.000    0.889 
#    0.000    0.000    0.000    0.000    0.000    0.000 
#    0.000    0.000    0.000    0.000    0.000    0.000 
#
# Total GULP energy -446245.220322 kJ/mol
# GULP energy per Si atom -12395.700564 kJ/mol
# Density = 2.126033 g / cm^3
# Si number density = 21.308828 Si / 1000 Ang^3
#
#
#
# Elastic Constant Matrix: (Units=GPa)
#
#
# Indices 1 2 3 4 5 6 
#
# 1 103.3819 25.8419 35.5940 0.0000 0.0000 0.0000
# 2 25.8419 78.8468 32.5177 0.0000 0.0000 0.0000
# 3 35.5940 32.5177 114.2117 0.0000 0.0000 0.0000
# 4 0.0000 0.0000 0.0000 11.5621 0.0000 0.0000
# 5 0.0000 0.0000 0.0000 0.0000 22.5160 0.0000
# 6 0.0000 0.0000 0.0000 0.0000 0.0000 29.9389
#
#
#
# Elastic Compliance Matrix: (Units=1/GPa)
#
#
# Indices 1 2 3 4 5 6 
#
# 1 0.011268 -0.002544 -0.002788 0.000000 0.000000 0.000000
# 2 -0.002544 0.014944 -0.003462 0.000000 0.000000 0.000000
# 3 -0.002788 -0.003462 0.010610 0.000000 0.000000 0.000000
# 4 0.000000 0.000000 0.000000 0.086489 0.000000 0.000000
# 5 0.000000 0.000000 0.000000 0.000000 0.044413 0.000000
# 6 0.000000 0.000000 0.000000 0.000000 0.000000 0.033401
#
#
# Mechanical properties :
#
#
# Convention : Reuss Voigt Hill
#
# Bulk Modulus (GPa) = 51.98519 53.81640 52.90080
# Shear Modulus (GPa) = 22.20987 26.30252 24.25619
#
# Velocity S-wave (km/s) = 3.23195 3.51714 3.37756
# Velocity P-wave (km/s) = 6.19486 6.46560 6.33168
#
# Compressibility (1/GPa) = 0.01923625
#
# Stress axis : x y z
#
# Youngs Moduli (GPa) = 88.74343 66.91503 94.24928
#
# Poissons Ratio (x) = 0.17020 0.26273
# Poissons Ratio (y) = 0.22572 0.32631
# Poissons Ratio (z) = 0.24738 0.23167
#
# Static dielectric constant tensor:
#      x y z
#    x 5.047010 0.000000 0.000000 
#    y 0.000000 3.791150 0.000000 
#    z 0.000000 0.000000 4.257640 
# 
# 
# High freq. dielectric constant tensor:
#      x y z
#    x 1.829170 0.000000 0.000000 
#    y 0.000000 1.823810 0.000000 
#    z 0.000000 0.000000 1.846160 
# 
# From -- ./inp_files/3701.got.cif
#   From: 2010.03.12/outbox.cif.g09.slc.cpg/sg60_2_cif.got.tgz:3701.got - 2010.04.10 18:46:24.
