data_PCOD8246281
_publ_section_title
;
Structure prediction by ZEFSAII (Michael W. Deem and Ramdas Pophale) SiO2 
 PCOD8246281
Probable space group: P B C N
;
_chemical_formula_sum "Si O2"
_cell_formula_units_Z 52
_cell_length_a 14.101903
_cell_length_b 9.423939
_cell_length_c 21.512433
_cell_angle_alpha 90.000000
_cell_angle_beta 90.000000
_cell_angle_gamma 90.000000
_cell_volume 2858.904973
_symmetry_space_group_name_H-M "P B C N"
_symmetry_group_IT_number 60
_symmetry_cell_setting 'orthorhombic'
loop_
_space_group_symop_operation_xyz
x,y,z
1/2-x,1/2-y,1/2+z
1/2+x,1/2-y,-z
-x,y,1/2-z
-x,-y,-z
1/2+x,1/2+y,1/2-z
1/2-x,1/2+y,z
x,-y,1/2+z
loop_
_atom_site_type_symbol
_atom_site_label
_atom_site_fract_x
_atom_site_fract_y
_atom_site_fract_z
Si Si1 0.500000 0.389964 0.250000
Si Si2 0.198851 0.894423 0.022257
Si Si3 0.361981 0.701109 0.055251
Si Si4 0.997387 0.822668 0.056969
Si Si5 0.796073 0.070420 0.123097
Si Si6 0.364311 0.265144 0.339930
Si Si7 0.498494 0.414183 0.862977
O O1 0.409401 0.295619 0.271745
O O2 0.464547 0.489348 0.193533
O O3 0.287999 0.828026 0.057956
O O4 0.107823 0.798054 0.041169
O O5 0.192798 0.053510 0.046978
O O6 0.218663 0.891613 0.948819
O O7 0.422022 0.702421 0.120338
O O8 0.435538 0.726886 0.000420
O O9 0.955981 0.734496 0.115893
O O10 0.985021 0.990567 0.073461
O O11 0.706679 0.131782 0.161753
O O12 0.892660 0.146357 0.149457
O O13 0.805187 0.901455 0.134467
#
# Coordination Sequence:
#
# PCOD8246281 Si02
#       7
#     4   8   8   8   8   8   8
#     4   8  18  34  50  70  94 134 178 200 232 296
#     4  11  17  29  47  76 100 132 164 198 253 300
#     4  11  18  30  48  71 104 127 161 206 248 297
#     4   9  16  29  48  68  98 129 160 196 243 298
#     4  10  16  29  52  77  94 126 169 204 241 297
#     4  10  19  32  53  75  98 128 171 208 240 288
#     4   9  17  32  51  70  96 135 169 198 242 297
#
# _framework density 18.188783000000001
#
# number of rings (size 3 to 8) (size 9 to 14) (size 15 to 20)
#    0.000    2.462    6.154    0.923    0.000    0.000 
#    0.000   11.538    0.000    3.692    0.000    0.000 
#    0.000    0.000    0.000    0.000    0.000    0.000 
#
# Total GULP energy -644278.235694 kJ/mol
# GULP energy per Si atom -12389.966071 kJ/mol
# Density = 1.814738 g / cm^3
# Si number density = 18.188783 Si / 1000 Ang^3
#
#
#
# Elastic Constant Matrix: (Units=GPa)
#
#
# Indices 1 2 3 4 5 6 
#
# 1 55.2180 2.0492 14.7448 0.0000 0.0000 0.0000
# 2 2.0492 19.4589 4.1185 0.0000 0.0000 0.0000
# 3 14.7448 4.1185 53.3919 0.0000 0.0000 0.0000
# 4 0.0000 0.0000 0.0000 14.1433 0.0000 0.0000
# 5 0.0000 0.0000 0.0000 0.0000 28.2662 0.0000
# 6 0.0000 0.0000 0.0000 0.0000 0.0000 37.7256
#
#
#
# Elastic Compliance Matrix: (Units=1/GPa)
#
#
# Indices 1 2 3 4 5 6 
#
# 1 0.019568 -0.000932 -0.005332 0.000000 0.000000 0.000000
# 2 -0.000932 0.052288 -0.003776 0.000000 0.000000 0.000000
# 3 -0.005332 -0.003776 0.020493 0.000000 0.000000 0.000000
# 4 0.000000 0.000000 0.000000 0.070705 0.000000 0.000000
# 5 0.000000 0.000000 0.000000 0.000000 0.035378 0.000000
# 6 0.000000 0.000000 0.000000 0.000000 0.000000 0.026507
#
#
# Mechanical properties :
#
#
# Convention : Reuss Voigt Hill
#
# Bulk Modulus (GPa) = 13.83719 18.87707 16.35713
# Shear Modulus (GPa) = 18.57981 23.17080 20.87530
#
# Velocity S-wave (km/s) = 3.19956 3.57305 3.39145
# Velocity P-wave (km/s) = 4.61233 5.23672 4.93441
#
# Compressibility (1/GPa) = 0.07226900
#
# Stress axis : x y z
#
# Youngs Moduli (GPa) = 51.10265 19.12495 48.79663
#
# Poissons Ratio (x) = 0.01783 0.26019
# Poissons Ratio (y) = 0.04764 0.18425
# Poissons Ratio (z) = 0.27249 0.07221
#
# Static dielectric constant tensor:
#      x y z
#    x 3.648570 0.000000 0.000000 
#    y 0.000000 2.896490 0.000000 
#    z 0.000000 0.000000 3.309780 
# 
# 
# High freq. dielectric constant tensor:
#      x y z
#    x 1.714020 0.000000 0.000000 
#    y 0.000000 1.652210 0.000000 
#    z 0.000000 0.000000 1.688040 
# 
# From -- ./inp_files/22878.got.cif
#   From: 2010.03.12/outbox.cif.g09.slc.cpg/sg60_12_cif.got.tgz:22878.got - 2010.04.10 18:46:24.
