data_PCOD8246781
_publ_section_title
;
Structure prediction by ZEFSAII (Michael W. Deem and Ramdas Pophale) SiO2 
 PCOD8246781
Probable space group: P B C N
;
_chemical_formula_sum "Si O2"
_cell_formula_units_Z 60
_cell_length_a 11.376854
_cell_length_b 15.372393
_cell_length_c 16.495847
_cell_angle_alpha 90.000000
_cell_angle_beta 90.000000
_cell_angle_gamma 90.000000
_cell_volume 2884.949952
_symmetry_space_group_name_H-M "P B C N"
_symmetry_group_IT_number 60
_symmetry_cell_setting 'orthorhombic'
loop_
_space_group_symop_operation_xyz
x,y,z
1/2-x,1/2-y,1/2+z
1/2+x,1/2-y,-z
-x,y,1/2-z
-x,-y,-z
1/2+x,1/2+y,1/2-z
1/2-x,1/2+y,z
x,-y,1/2+z
loop_
_atom_site_type_symbol
_atom_site_label
_atom_site_fract_x
_atom_site_fract_y
_atom_site_fract_z
Si Si1 0.679154 0.653226 0.348894
Si Si2 0.012066 0.724108 0.879828
Si Si3 0.500000 0.059926 0.250000
Si Si4 0.396849 0.812890 0.872769
Si Si5 0.778736 0.522111 0.818413
Si Si6 0.803762 0.370146 0.457241
Si Si7 0.367539 0.224371 0.047433
Si Si8 0.272213 0.800856 0.273925
O O1 0.542116 0.677088 0.369826
O O2 0.689115 0.559099 0.305265
O O3 0.764159 0.655844 0.428583
O O4 0.738743 0.726715 0.293037
O O5 0.091736 0.698175 0.803266
O O6 0.894400 0.667070 0.888923
O O7 0.090324 0.704351 0.957476
O O8 0.590517 0.116700 0.197356
O O9 0.585210 0.000670 0.303121
O O10 0.524950 0.774792 0.890075
O O11 0.313253 0.731759 0.847445
O O12 0.351150 0.866607 0.951434
O O13 0.773963 0.537522 0.916596
O O14 0.737509 0.603765 0.761531
O O15 0.681278 0.320989 0.453351
#
# Coordination Sequence:
#
# PCOD8246781 Si02
#       8
#     8   8   4   8   8   8   8   8
#     4  11  23  42  62  96 135 169 215 283 330 392
#     4  10  21  39  70  92 124 176 219 268 332 398
#     4  12  24  42  66 104 132 166 224 282 332 386
#     4  11  22  41  68  97 135 170 219 281 331 390
#     4  12  24  41  66  99 133 171 220 274 338 399
#     4  10  22  41  65  96 131 170 223 267 330 402
#     4  10  19  42  64  91 130 172 213 263 336 389
#     4  12  22  42  69  94 131 171 222 273 331 400
#
# _framework density 20.797587
#
# number of rings (size 3 to 8) (size 9 to 14) (size 15 to 20)
#    0.000    1.067    6.667    1.200    0.000    0.533 
#    2.400    3.333    0.000    0.000    0.000    0.000 
#    0.000    0.000    0.000    0.000    0.000    0.000 
#
# Total GULP energy -743310.978246 kJ/mol
# GULP energy per Si atom -12388.516304 kJ/mol
# Density = 2.075025 g / cm^3
# Si number density = 20.797587 Si / 1000 Ang^3
#
#
#
# Elastic Constant Matrix: (Units=GPa)
#
#
# Indices 1 2 3 4 5 6 
#
# 1 52.7894 10.0401 18.0628 0.0000 0.0000 0.0000
# 2 10.0401 104.4424 34.8789 0.0000 0.0000 0.0000
# 3 18.0628 34.8789 70.1637 0.0000 0.0000 0.0000
# 4 0.0000 0.0000 0.0000 20.8983 0.0000 0.0000
# 5 0.0000 0.0000 0.0000 0.0000 24.1678 0.0000
# 6 0.0000 0.0000 0.0000 0.0000 0.0000 23.0344
#
#
#
# Elastic Compliance Matrix: (Units=1/GPa)
#
#
# Indices 1 2 3 4 5 6 
#
# 1 0.020779 -0.000253 -0.005223 0.000000 0.000000 0.000000
# 2 -0.000253 0.011484 -0.005643 0.000000 0.000000 0.000000
# 3 -0.005223 -0.005643 0.018402 0.000000 0.000000 0.000000
# 4 0.000000 0.000000 0.000000 0.047851 0.000000 0.000000
# 5 0.000000 0.000000 0.000000 0.000000 0.041377 0.000000
# 6 0.000000 0.000000 0.000000 0.000000 0.000000 0.043413
#
#
# Mechanical properties :
#
#
# Convention : Reuss Voigt Hill
#
# Bulk Modulus (GPa) = 35.18047 39.26213 37.22130
# Shear Modulus (GPa) = 23.25354 24.58102 23.91728
#
# Velocity S-wave (km/s) = 3.34741 3.44163 3.39485
# Velocity P-wave (km/s) = 5.64735 5.89171 5.77083
#
# Compressibility (1/GPa) = 0.02842486
#
# Stress axis : x y z
#
# Youngs Moduli (GPa) = 48.12641 87.08046 54.34050
#
# Poissons Ratio (x) = 0.02204 0.28384
# Poissons Ratio (y) = 0.01218 0.30667
# Poissons Ratio (z) = 0.25138 0.49143
#
# Static dielectric constant tensor:
#      x y z
#    x 3.951420 0.000000 0.000000 
#    y 0.000000 3.672440 0.000000 
#    z 0.000000 0.000000 4.030200 
# 
# 
# High freq. dielectric constant tensor:
#      x y z
#    x 1.813870 0.000000 0.000000 
#    y 0.000000 1.788520 0.000000 
#    z 0.000000 0.000000 1.826080 
# 
# From -- ./inp_files/20179.got.cif
#   From: 2010.03.12/outbox.cif.g09.slc.cpg/sg60_11_cif.got.tgz:20179.got - 2010.04.10 18:46:24.
