data_PCOD8246785
_publ_section_title
;
Structure prediction by ZEFSAII (Michael W. Deem and Ramdas Pophale) SiO2 
 PCOD8246785
Probable space group: P B C N
;
_chemical_formula_sum "Si O2"
_cell_formula_units_Z 56
_cell_length_a 13.691039
_cell_length_b 8.064211
_cell_length_c 19.992186
_cell_angle_alpha 90.000000
_cell_angle_beta 90.000000
_cell_angle_gamma 90.000000
_cell_volume 2207.285822
_symmetry_space_group_name_H-M "P B C N"
_symmetry_group_IT_number 60
_symmetry_cell_setting 'orthorhombic'
loop_
_space_group_symop_operation_xyz
x,y,z
1/2-x,1/2-y,1/2+z
1/2+x,1/2-y,-z
-x,y,1/2-z
-x,-y,-z
1/2+x,1/2+y,1/2-z
1/2-x,1/2+y,z
x,-y,1/2+z
loop_
_atom_site_type_symbol
_atom_site_label
_atom_site_fract_x
_atom_site_fract_y
_atom_site_fract_z
Si Si1 0.283546 0.281113 0.778884
Si Si2 0.554225 0.798805 0.576417
Si Si3 0.854609 0.732122 0.942215
Si Si4 0.560087 0.700001 0.313006
Si Si5 0.610877 0.452982 0.610927
Si Si6 0.598602 0.057285 0.209519
Si Si7 0.364505 0.622268 0.536986
O O1 0.342268 0.380255 0.719504
O O2 0.298560 0.377125 0.849029
O O3 0.166638 0.284928 0.768433
O O4 0.330126 0.098362 0.776939
O O5 0.590013 0.861010 0.503184
O O6 0.626597 0.647331 0.597442
O O7 0.568945 0.942990 0.630900
O O8 0.443407 0.731788 0.576757
O O9 0.903984 0.672315 0.871758
O O10 0.740818 0.692603 0.944622
O O11 0.872207 0.929892 0.943492
O O12 0.500000 0.791065 0.250000
O O13 0.487861 0.567068 0.345388
O O14 0.607069 0.355740 0.540727
O O15 0.500000 0.074400 0.250000
#
# Coordination Sequence:
#
# PCOD8246785 Si02
#       7
#     8   8   8   8   8   8   8
#     4  11  26  46  74 102 147 189 243 299 362 435
#     4  11  23  45  72 101 141 185 237 301 356 441
#     4  11  23  44  69 105 139 181 238 290 366 428
#     4  10  21  41  72 100 135 191 237 290 352 430
#     4  10  19  44  74 102 136 191 238 292 365 434
#     4  12  28  49  71 110 146 190 250 304 363 438
#     4  11  23  42  68 105 142 177 232 299 357 436
#
# _framework density 25.370524
#
# number of rings (size 3 to 8) (size 9 to 14) (size 15 to 20)
#    0.000    1.143    2.857    3.857    2.000    7.429 
#    5.143    2.143    0.000    0.000    0.000    0.000 
#    0.000    0.000    0.000    0.000    0.000    0.000 
#
# Total GULP energy -693820.809212 kJ/mol
# GULP energy per Si atom -12389.657307 kJ/mol
# Density = 2.531278 g / cm^3
# Si number density = 25.370524 Si / 1000 Ang^3
#
#
#
# Elastic Constant Matrix: (Units=GPa)
#
#
# Indices 1 2 3 4 5 6 
#
# 1 177.0384 44.1698 71.6393 0.0000 0.0000 0.0000
# 2 44.1698 32.3032 29.6001 0.0000 0.0000 0.0000
# 3 71.6393 29.6001 176.9600 0.0000 0.0000 0.0000
# 4 0.0000 0.0000 0.0000 6.2562 0.0000 0.0000
# 5 0.0000 0.0000 0.0000 0.0000 41.3199 0.0000
# 6 0.0000 0.0000 0.0000 0.0000 0.0000 42.2756
#
#
#
# Elastic Compliance Matrix: (Units=1/GPa)
#
#
# Indices 1 2 3 4 5 6 
#
# 1 0.009078 -0.010682 -0.001888 0.000000 0.000000 0.000000
# 2 -0.010682 0.049131 -0.003894 0.000000 0.000000 0.000000
# 3 -0.001888 -0.003894 0.007067 0.000000 0.000000 0.000000
# 4 0.000000 0.000000 0.000000 0.159843 0.000000 0.000000
# 5 0.000000 0.000000 0.000000 0.000000 0.024201 0.000000
# 6 0.000000 0.000000 0.000000 0.000000 0.000000 0.023654
#
#
# Mechanical properties :
#
#
# Convention : Reuss Voigt Hill
#
# Bulk Modulus (GPa) = 30.91454 75.23556 53.07505
# Shear Modulus (GPa) = 15.78862 34.02982 24.90922
#
# Velocity S-wave (km/s) = 2.49734 3.66637 3.13680
# Velocity P-wave (km/s) = 4.53071 6.90232 5.83821
#
# Compressibility (1/GPa) = 0.03234724
#
# Stress axis : x y z
#
# Youngs Moduli (GPa) = 110.16042 20.35384 141.50975
#
# Poissons Ratio (x) = 0.21742 0.26719
# Poissons Ratio (y) = 1.17676 0.55098
# Poissons Ratio (z) = 0.20800 0.07925
#
# Static dielectric constant tensor:
#      x y z
#    x 5.117780 0.000000 0.000000 
#    y 0.000000 4.222550 0.000000 
#    z 0.000000 0.000000 5.370470 
# 
# 
# High freq. dielectric constant tensor:
#      x y z
#    x 2.034560 0.000000 0.000000 
#    y 0.000000 1.973590 0.000000 
#    z 0.000000 0.000000 2.029020 
# 
# From -- ./inp_files/22929.got.cif
#   From: 2010.03.12/outbox.cif.g09.slc.cpg/sg60_12_cif.got.tgz:22929.got - 2010.04.10 18:46:24.
