data_PCOD8246517
_publ_section_title
;
Structure prediction by ZEFSAII (Michael W. Deem and Ramdas Pophale) SiO2 
 PCOD8246517
Probable space group: P B C N
;
_chemical_formula_sum "Si O2"
_cell_formula_units_Z 40
_cell_length_a 12.500461
_cell_length_b 30.114309
_cell_length_c 5.278305
_cell_angle_alpha 90.000000
_cell_angle_beta 90.000000
_cell_angle_gamma 90.000000
_cell_volume 1986.979624
_symmetry_space_group_name_H-M "P B C N"
_symmetry_group_IT_number 60
_symmetry_cell_setting 'orthorhombic'
loop_
_space_group_symop_operation_xyz
x,y,z
1/2-x,1/2-y,1/2+z
1/2+x,1/2-y,-z
-x,y,1/2-z
-x,-y,-z
1/2+x,1/2+y,1/2-z
1/2-x,1/2+y,z
x,-y,1/2+z
loop_
_atom_site_type_symbol
_atom_site_label
_atom_site_fract_x
_atom_site_fract_y
_atom_site_fract_z
Si Si1 0.374412 0.722174 0.243606
Si Si2 0.813464 0.594155 0.780658
Si Si3 0.268229 0.691986 0.742970
Si Si4 0.320243 0.514862 0.721527
Si Si5 0.616928 0.949900 0.784372
O O1 0.500000 0.729275 0.250000
O O2 0.339990 0.694679 0.491220
O O3 0.321727 0.770440 0.244267
O O4 0.342115 0.695302 0.991673
O O5 0.793453 0.645886 0.755002
O O6 0.700073 0.567391 0.766825
O O7 0.884486 0.578685 0.542586
O O8 0.865919 0.583986 0.051590
O O9 0.385533 0.501650 0.468107
O O10 0.204859 0.489027 0.707458
O O11 0.500000 0.972230 0.750000
#
# Coordination Sequence:
#
# PCOD8246517 Si02
#       5
#     8   8   8   8   8
#     4  10  21  38  58  78 105 138 169 213 271 314
#     4  10  19  31  46  68  99 132 170 208 245 290
#     4  10  21  37  56  80 107 134 174 218 254 309
#     4   8  16  27  41  61  93 131 169 199 241 293
#     4  10  19  29  43  67 103 141 173 206 247 302
#
# _framework density 20.131055
#
# number of rings (size 3 to 8) (size 9 to 14) (size 15 to 20)
#    0.000    2.400    0.000    2.400    0.000    8.800 
#    0.000    0.000    0.000    0.000    0.000    0.000 
#    0.000  144.000    0.000    0.000    0.000    0.000 
#
# Total GULP energy -495754.655525 kJ/mol
# GULP energy per Si atom -12393.866388 kJ/mol
# Density = 2.008524 g / cm^3
# Si number density = 20.131055 Si / 1000 Ang^3
#
#
#
# Elastic Constant Matrix: (Units=GPa)
#
#
# Indices 1 2 3 4 5 6 
#
# 1 58.3343 -6.6307 3.1600 0.0000 0.0000 0.0000
# 2 -6.6307 76.8481 7.8338 0.0000 0.0000 0.0000
# 3 3.1600 7.8338 162.0378 0.0000 0.0000 0.0000
# 4 0.0000 0.0000 0.0000 18.9519 0.0000 0.0000
# 5 0.0000 0.0000 0.0000 0.0000 13.1984 0.0000
# 6 0.0000 0.0000 0.0000 0.0000 0.0000 11.9458
#
#
#
# Elastic Compliance Matrix: (Units=1/GPa)
#
#
# Indices 1 2 3 4 5 6 
#
# 1 0.017340 0.001538 -0.000413 0.000000 0.000000 0.000000
# 2 0.001538 0.013214 -0.000669 0.000000 0.000000 0.000000
# 3 -0.000413 -0.000669 0.006212 0.000000 0.000000 0.000000
# 4 0.000000 0.000000 0.000000 0.052765 0.000000 0.000000
# 5 0.000000 0.000000 0.000000 0.000000 0.075767 0.000000
# 6 0.000000 0.000000 0.000000 0.000000 0.000000 0.083712
#
#
# Mechanical properties :
#
#
# Convention : Reuss Voigt Hill
#
# Bulk Modulus (GPa) = 26.54010 33.99403 30.26707
# Shear Modulus (GPa) = 19.18247 28.34302 23.76275
#
# Velocity S-wave (km/s) = 3.09022 3.75630 3.43943
# Velocity P-wave (km/s) = 5.09362 5.97797 5.55342
#
# Compressibility (1/GPa) = 0.03767883
#
# Stress axis : x y z
#
# Youngs Moduli (GPa) = 57.67095 75.67970 160.98445
#
# Poissons Ratio (x) = -0.11641 0.06641
# Poissons Ratio (y) = -0.08871 0.10767
# Poissons Ratio (z) = 0.02379 0.05062
#
# Static dielectric constant tensor:
#      x y z
#    x 3.130880 0.000000 0.000000 
#    y 0.000000 3.437340 0.000000 
#    z 0.000000 0.000000 5.295000 
# 
# 
# High freq. dielectric constant tensor:
#      x y z
#    x 1.743620 0.000000 0.000000 
#    y 0.000000 1.773130 0.000000 
#    z 0.000000 0.000000 1.829870 
# 
# From -- ./inp_files/816.got.cif
#   From: 2010.03.12/outbox.cif.g09.slc.cpg/sg60_1_cif.got.tgz:816.got - 2010.04.10 18:46:24.
