data_PCOD8246718
_publ_section_title
;
Structure prediction by ZEFSAII (Michael W. Deem and Ramdas Pophale) SiO2 
 PCOD8246718
Probable space group: P B C N
;
_chemical_formula_sum "Si O2"
_cell_formula_units_Z 44
_cell_length_a 10.091987
_cell_length_b 15.468053
_cell_length_c 12.143431
_cell_angle_alpha 90.000000
_cell_angle_beta 90.000000
_cell_angle_gamma 90.000000
_cell_volume 1895.630743
_symmetry_space_group_name_H-M "P B C N"
_symmetry_group_IT_number 60
_symmetry_cell_setting 'orthorhombic'
loop_
_space_group_symop_operation_xyz
x,y,z
1/2-x,1/2-y,1/2+z
1/2+x,1/2-y,-z
-x,y,1/2-z
-x,-y,-z
1/2+x,1/2+y,1/2-z
1/2-x,1/2+y,z
x,-y,1/2+z
loop_
_atom_site_type_symbol
_atom_site_label
_atom_site_fract_x
_atom_site_fract_y
_atom_site_fract_z
Si Si1 0.000000 0.511945 0.250000
Si Si2 0.150482 0.836893 0.262265
Si Si3 0.161320 0.060292 0.962936
Si Si4 0.461920 0.400141 0.872745
Si Si5 0.666082 0.916258 0.419784
Si Si6 0.827985 0.347843 0.640488
O O1 0.043361 0.449694 0.151072
O O2 0.125859 0.570100 0.286412
O O3 0.225756 0.880910 0.366793
O O4 0.231705 0.859348 0.152425
O O5 0.140909 0.734959 0.286710
O O6 0.000000 0.870239 0.250000
O O7 0.082363 0.125976 0.045263
O O8 0.265403 0.001700 0.028354
O O9 0.056596 0.001842 0.894991
O O10 0.500000 0.378750 0.750000
O O11 0.326414 0.349521 0.893873
O O12 0.605128 0.856335 0.518539
#
# Coordination Sequence:
#
# PCOD8246718 Si02
#       6
#     4   8   8   8   8   8
#     4  12  24  48  68  98 142 190 228 276 334 438
#     4  12  24  45  68 100 141 173 227 296 352 402
#     4  10  20  39  68  97 126 172 227 285 330 416
#     4  10  19  37  63  94 123 168 227 271 333 402
#     4  11  25  45  70 101 131 187 239 270 347 420
#     4  11  25  42  65  99 141 181 222 290 348 403
#
# _framework density 23.211269999999999
#
# number of rings (size 3 to 8) (size 9 to 14) (size 15 to 20)
#    0.000    1.091    0.909    8.727    0.000    2.909 
#   11.455    0.000    0.000    0.000    0.000    0.000 
#    0.000    0.000    0.000    0.000    0.000    0.000 
#
# Total GULP energy -545288.883566 kJ/mol
# GULP energy per Si atom -12392.929172 kJ/mol
# Density = 2.315844 g / cm^3
# Si number density = 23.211270 Si / 1000 Ang^3
#
#
#
# Elastic Constant Matrix: (Units=GPa)
#
#
# Indices 1 2 3 4 5 6 
#
# 1 49.1315 17.0813 11.7939 0.0000 0.0000 0.0000
# 2 17.0813 81.6731 38.4180 0.0000 0.0000 0.0000
# 3 11.7939 38.4180 132.6675 0.0000 0.0000 0.0000
# 4 0.0000 0.0000 0.0000 42.4246 0.0000 0.0000
# 5 0.0000 0.0000 0.0000 0.0000 41.1297 0.0000
# 6 0.0000 0.0000 0.0000 0.0000 0.0000 18.1884
#
#
#
# Elastic Compliance Matrix: (Units=1/GPa)
#
#
# Indices 1 2 3 4 5 6 
#
# 1 0.022009 -0.004263 -0.000722 0.000000 0.000000 0.000000
# 2 -0.004263 0.015001 -0.003965 0.000000 0.000000 0.000000
# 3 -0.000722 -0.003965 0.008750 0.000000 0.000000 0.000000
# 4 0.000000 0.000000 0.000000 0.023571 0.000000 0.000000
# 5 0.000000 0.000000 0.000000 0.000000 0.024313 0.000000
# 6 0.000000 0.000000 0.000000 0.000000 0.000000 0.054980
#
#
# Mechanical properties :
#
#
# Convention : Reuss Voigt Hill
#
# Bulk Modulus (GPa) = 35.89486 44.22874 40.06180
# Shear Modulus (GPa) = 28.43957 33.42713 30.93335
#
# Velocity S-wave (km/s) = 3.50415 3.79901 3.65456
# Velocity P-wave (km/s) = 5.64536 6.19190 5.92493
#
# Compressibility (1/GPa) = 0.02785914
#
# Stress axis : x y z
#
# Youngs Moduli (GPa) = 45.43573 66.66385 114.28602
#
# Poissons Ratio (x) = 0.28422 0.08251
# Poissons Ratio (y) = 0.19371 0.45313
# Poissons Ratio (z) = 0.03280 0.26431
#
# Static dielectric constant tensor:
#      x y z
#    x 3.937840 0.000000 0.000000 
#    y 0.000000 3.838920 0.000000 
#    z 0.000000 0.000000 4.755620 
# 
# 
# High freq. dielectric constant tensor:
#      x y z
#    x 1.901270 0.000000 0.000000 
#    y 0.000000 1.885990 0.000000 
#    z 0.000000 0.000000 1.945340 
# 
# From -- ./inp_files/10949.got.cif
#   From: 2010.03.12/outbox.cif.g09.slc.cpg/sg60_6_cif.got.tgz:10949.got - 2010.04.10 18:46:24.
