data_PCOD8246527
_publ_section_title
;
Structure prediction by ZEFSAII (Michael W. Deem and Ramdas Pophale) SiO2 
 PCOD8246527
Probable space group: P B C N
;
_chemical_formula_sum "Si O2"
_cell_formula_units_Z 56
_cell_length_a 14.928703
_cell_length_b 36.649940
_cell_length_c 5.181982
_cell_angle_alpha 90.000000
_cell_angle_beta 90.000000
_cell_angle_gamma 90.000000
_cell_volume 2835.249262
_symmetry_space_group_name_H-M "P B C N"
_symmetry_group_IT_number 60
_symmetry_cell_setting 'orthorhombic'
loop_
_space_group_symop_operation_xyz
x,y,z
1/2-x,1/2-y,1/2+z
1/2+x,1/2-y,-z
-x,y,1/2-z
-x,-y,-z
1/2+x,1/2+y,1/2-z
1/2-x,1/2+y,z
x,-y,1/2+z
loop_
_atom_site_type_symbol
_atom_site_label
_atom_site_fract_x
_atom_site_fract_y
_atom_site_fract_z
Si Si1 0.898904 0.523702 0.723417
Si Si2 0.789649 0.595192 0.706217
Si Si3 0.131013 0.833577 0.802829
Si Si4 0.101296 0.713609 0.257032
Si Si5 0.897508 0.748773 0.742640
Si Si6 0.594975 0.376906 0.190692
Si Si7 0.675941 0.860960 0.712968
O O1 0.883973 0.506338 0.443180
O O2 0.823730 0.554504 0.755987
O O3 0.000000 0.539851 0.750000
O O4 0.680413 0.595630 0.694152
O O5 0.832956 0.609244 0.439612
O O6 0.826780 0.619720 0.937429
O O7 0.104807 0.792077 0.768020
O O8 0.080839 0.857885 0.587017
O O9 0.235277 0.837435 0.745120
O O10 0.108276 0.846082 0.091932
O O11 0.150587 0.732020 0.503464
O O12 0.099109 0.669472 0.269421
O O13 0.000000 0.727903 0.250000
O O14 0.150435 0.729690 0.003016
O O15 0.000000 0.735403 0.750000
O O16 0.500000 0.397640 0.250000
#
# Coordination Sequence:
#
# PCOD8246527 Si02
#       7
#     8   8   8   8   8   8   8
#     4  10  21  38  61  88 114 140 171 205 244 292
#     4  10  21  36  56  81 107 136 169 207 252 304
#     4  10  20  32  50  73  97 130 176 225 265 307
#     4  10  21  33  46  66  95 132 172 216 264 317
#     4  10  19  31  46  65  91 128 175 222 269 311
#     4  10  19  33  53  77 105 135 171 216 261 303
#     4  10  21  35  50  74 103 133 171 211 259 310
#
# _framework density 19.751351
#
# number of rings (size 3 to 8) (size 9 to 14) (size 15 to 20)
#    0.000    2.000    0.000    3.857    0.000    3.429 
#    0.000    0.000    0.000    0.857    0.000    0.000 
#    0.000    0.000    0.000    0.000    0.000    0.000 
#
# Total GULP energy -694240.653550 kJ/mol
# GULP energy per Si atom -12397.154528 kJ/mol
# Density = 1.970640 g / cm^3
# Si number density = 19.751351 Si / 1000 Ang^3
#
#
#
# Elastic Constant Matrix: (Units=GPa)
#
#
# Indices 1 2 3 4 5 6 
#
# 1 52.1853 39.6064 17.7033 0.0000 0.0000 0.0000
# 2 39.6064 77.6286 17.6813 0.0000 0.0000 0.0000
# 3 17.7033 17.6813 128.3041 0.0000 0.0000 0.0000
# 4 0.0000 0.0000 0.0000 24.1808 0.0000 0.0000
# 5 0.0000 0.0000 0.0000 0.0000 14.6664 0.0000
# 6 0.0000 0.0000 0.0000 0.0000 0.0000 26.4605
#
#
#
# Elastic Compliance Matrix: (Units=1/GPa)
#
#
# Indices 1 2 3 4 5 6 
#
# 1 0.031876 -0.015756 -0.002227 0.000000 0.000000 0.000000
# 2 -0.015756 0.021087 -0.000732 0.000000 0.000000 0.000000
# 3 -0.002227 -0.000732 0.008202 0.000000 0.000000 0.000000
# 4 0.000000 0.000000 0.000000 0.041355 0.000000 0.000000
# 5 0.000000 0.000000 0.000000 0.000000 0.068183 0.000000
# 6 0.000000 0.000000 0.000000 0.000000 0.000000 0.037792
#
#
# Mechanical properties :
#
#
# Convention : Reuss Voigt Hill
#
# Bulk Modulus (GPa) = 42.13077 45.34445 43.73761
# Shear Modulus (GPa) = 19.69761 25.27002 22.48382
#
# Velocity S-wave (km/s) = 3.16140 3.58076 3.37759
# Velocity P-wave (km/s) = 5.89091 6.33272 6.11580
#
# Compressibility (1/GPa) = 0.02373562
#
# Stress axis : x y z
#
# Youngs Moduli (GPa) = 31.37140 47.42167 121.91962
#
# Poissons Ratio (x) = 0.74718 0.27151
# Poissons Ratio (y) = 0.49429 0.08925
# Poissons Ratio (z) = 0.06986 0.03471
#
# Static dielectric constant tensor:
#      x y z
#    x 3.676840 0.000000 0.000000 
#    y 0.000000 3.128190 0.000000 
#    z 0.000000 0.000000 4.148450 
# 
# 
# High freq. dielectric constant tensor:
#      x y z
#    x 1.762670 0.000000 0.000000 
#    y 0.000000 1.731040 0.000000 
#    z 0.000000 0.000000 1.801170 
# 
# From -- ./inp_files/1493.got.cif
#   From: 2010.03.12/outbox.cif.g09.slc.cpg/sg60_1_cif.got.tgz:1493.got - 2010.04.10 18:46:24.
