data_PCOD8246558
_publ_section_title
;
Structure prediction by ZEFSAII (Michael W. Deem and Ramdas Pophale) SiO2 
 PCOD8246558
Probable space group: P B C N
;
_chemical_formula_sum "Si O2"
_cell_formula_units_Z 52
_cell_length_a 16.748632
_cell_length_b 9.455439
_cell_length_c 17.350135
_cell_angle_alpha 90.000000
_cell_angle_beta 90.000000
_cell_angle_gamma 90.000000
_cell_volume 2747.665723
_symmetry_space_group_name_H-M "P B C N"
_symmetry_group_IT_number 60
_symmetry_cell_setting 'orthorhombic'
loop_
_space_group_symop_operation_xyz
x,y,z
1/2-x,1/2-y,1/2+z
1/2+x,1/2-y,-z
-x,y,1/2-z
-x,-y,-z
1/2+x,1/2+y,1/2-z
1/2-x,1/2+y,z
x,-y,1/2+z
loop_
_atom_site_type_symbol
_atom_site_label
_atom_site_fract_x
_atom_site_fract_y
_atom_site_fract_z
Si Si1 0.684805 0.406837 0.263134
Si Si2 0.435154 0.486866 0.615423
Si Si3 0.360216 0.872872 0.288855
Si Si4 0.147494 0.341305 0.848953
Si Si5 0.000000 0.185183 0.250000
Si Si6 0.920164 0.116676 0.541759
Si Si7 0.676714 0.392361 0.629769
O O1 0.641298 0.434240 0.345433
O O2 0.781741 0.401831 0.265101
O O3 0.655764 0.261264 0.224630
O O4 0.653871 0.538291 0.212412
O O5 0.497367 0.414586 0.674837
O O6 0.408764 0.371486 0.550913
O O7 0.487641 0.600946 0.567875
O O8 0.424109 0.787060 0.239668
O O9 0.341414 0.775223 0.364322
O O10 0.399399 0.019900 0.318767
O O11 0.107711 0.262563 0.920430
O O12 0.228985 0.408003 0.882092
O O13 0.868312 0.977490 0.563489
#
# Coordination Sequence:
#
# PCOD8246558 Si02
#       7
#     8   8   8   8   4   8   8
#     4   9  18  35  58  83 107 148 204 240 270 344
#     4  11  21  37  63  81 113 157 206 243 281 359
#     4  10  19  32  59  83 113 146 187 241 301 337
#     4   9  19  34  57  83 116 146 190 238 290 344
#     4  12  20  36  60  86 114 154 194 246 298 340
#     4  10  21  37  58  85 112 160 203 233 292 358
#     4   9  16  35  58  79 109 153 190 231 289 347
#
# _framework density 18.925155
#
# number of rings (size 3 to 8) (size 9 to 14) (size 15 to 20)
#    0.000    2.154    3.077    1.846    0.000    1.231 
#    2.769    0.769    3.385    0.000    0.000    0.000 
#    0.000    0.000    0.000    0.000    0.000    0.000 
#
# Total GULP energy -644251.530055 kJ/mol
# GULP energy per Si atom -12389.452501 kJ/mol
# Density = 1.888208 g / cm^3
# Si number density = 18.925155 Si / 1000 Ang^3
#
#
#
# Elastic Constant Matrix: (Units=GPa)
#
#
# Indices 1 2 3 4 5 6 
#
# 1 71.6912 19.1622 35.0839 0.0000 0.0000 0.0000
# 2 19.1622 99.1434 20.4585 0.0000 0.0000 0.0000
# 3 35.0839 20.4585 97.8224 0.0000 0.0000 0.0000
# 4 0.0000 0.0000 0.0000 13.1344 0.0000 0.0000
# 5 0.0000 0.0000 0.0000 0.0000 26.0843 0.0000
# 6 0.0000 0.0000 0.0000 0.0000 0.0000 31.4934
#
#
#
# Elastic Compliance Matrix: (Units=1/GPa)
#
#
# Indices 1 2 3 4 5 6 
#
# 1 0.017351 -0.002163 -0.005771 0.000000 0.000000 0.000000
# 2 -0.002163 0.010811 -0.001485 0.000000 0.000000 0.000000
# 3 -0.005771 -0.001485 0.012603 0.000000 0.000000 0.000000
# 4 0.000000 0.000000 0.000000 0.076136 0.000000 0.000000
# 5 0.000000 0.000000 0.000000 0.000000 0.038337 0.000000
# 6 0.000000 0.000000 0.000000 0.000000 0.000000 0.031753
#
#
# Mechanical properties :
#
#
# Convention : Reuss Voigt Hill
#
# Bulk Modulus (GPa) = 45.60518 46.45180 46.02849
# Shear Modulus (GPa) = 23.45915 27.07259 25.26587
#
# Velocity S-wave (km/s) = 3.52458 3.78631 3.65779
# Velocity P-wave (km/s) = 6.38071 6.61159 6.49718
#
# Compressibility (1/GPa) = 0.02192733
#
# Stress axis : x y z
#
# Youngs Moduli (GPa) = 57.63444 92.49912 79.34728
#
# Poissons Ratio (x) = 0.20005 0.45787
# Poissons Ratio (y) = 0.12465 0.11786
# Poissons Ratio (z) = 0.33258 0.13739
#
# Static dielectric constant tensor:
#      x y z
#    x 3.509490 0.000000 0.000000 
#    y 0.000000 3.588050 0.000000 
#    z 0.000000 0.000000 3.207840 
# 
# 
# High freq. dielectric constant tensor:
#      x y z
#    x 1.738260 0.000000 0.000000 
#    y 0.000000 1.734710 0.000000 
#    z 0.000000 0.000000 1.699130 
# 
# From -- ./inp_files/20843.got.cif
#   From: 2010.03.12/outbox.cif.g09.slc.cpg/sg60_11_cif.got.tgz:20843.got - 2010.04.10 18:46:24.
