data_PCOD8246525
_publ_section_title
;
Structure prediction by ZEFSAII (Michael W. Deem and Ramdas Pophale) SiO2 
 PCOD8246525
Probable space group: P B C N
;
_chemical_formula_sum "Si O2"
_cell_formula_units_Z 64
_cell_length_a 24.794328
_cell_length_b 16.775970
_cell_length_c 9.755207
_cell_angle_alpha 90.000000
_cell_angle_beta 90.000000
_cell_angle_gamma 90.000000
_cell_volume 4057.667647
_symmetry_space_group_name_H-M "P B C N"
_symmetry_group_IT_number 60
_symmetry_cell_setting 'orthorhombic'
loop_
_space_group_symop_operation_xyz
x,y,z
1/2-x,1/2-y,1/2+z
1/2+x,1/2-y,-z
-x,y,1/2-z
-x,-y,-z
1/2+x,1/2+y,1/2-z
1/2-x,1/2+y,z
x,-y,1/2+z
loop_
_atom_site_type_symbol
_atom_site_label
_atom_site_fract_x
_atom_site_fract_y
_atom_site_fract_z
Si Si1 0.671415 0.759564 0.023023
Si Si2 0.784547 0.493807 0.616822
Si Si3 0.323951 0.748225 0.783242
Si Si4 0.537484 0.015834 0.127192
Si Si5 0.629502 0.124183 0.020114
Si Si6 0.719099 0.647638 0.224863
Si Si7 0.277598 0.361944 0.481448
Si Si8 0.375255 0.108594 0.790517
O O1 0.676820 0.676149 0.107956
O O2 0.729664 0.798393 0.013365
O O3 0.631107 0.819984 0.100329
O O4 0.649428 0.740979 0.868711
O O5 0.820394 0.437169 0.520278
O O6 0.744443 0.439594 0.704814
O O7 0.746218 0.549589 0.526835
O O8 0.824292 0.548046 0.709366
O O9 0.360199 0.798062 0.888934
O O10 0.266279 0.788103 0.766562
O O11 0.316012 0.660692 0.852590
O O12 0.500000 0.045847 0.250000
O O13 0.577523 0.086085 0.088900
O O14 0.569903 0.936672 0.170929
O O15 0.500000 0.000000 0.000000
O O16 0.619591 0.146106 0.861301
O O17 0.690240 0.645095 0.374161
#
# Coordination Sequence:
#
# PCOD8246525 Si02
#       8
#     8   8   8   8   8   8   8   8
#     4   9  18  28  41  58  80 111 144 180 213 254
#     4   9  18  26  44  64  86 114 150 184 214 251
#     4   9  18  28  41  58  80 111 144 180 213 254
#     4  11  22  34  48  68  88 112 144 182 222 261
#     4  10  19  31  46  62  85 114 147 180 219 260
#     4   9  16  27  40  58  82 110 146 179 214 251
#     4   9  16  27  40  58  82 110 146 179 214 251
#     4  10  19  31  46  62  85 114 147 180 219 260
#
# _framework density 15.772608999999999
#
# number of rings (size 3 to 8) (size 9 to 14) (size 15 to 20)
#    0.000    2.500    1.250    1.500    1.750   10.000 
#    0.000    0.000    0.000    0.000    0.000    0.000 
#    0.000    0.000    0.000    2.250    0.000    2.500 
#
# Total GULP energy -793057.689168 kJ/mol
# GULP energy per Si atom -12391.526393 kJ/mol
# Density = 1.573671 g / cm^3
# Si number density = 15.772609 Si / 1000 Ang^3
#
#
#
# Elastic Constant Matrix: (Units=GPa)
#
#
# Indices 1 2 3 4 5 6 
#
# 1 41.6456 27.2556 35.1361 0.0000 0.0000 0.0000
# 2 27.2556 59.0427 37.1051 0.0000 0.0000 0.0000
# 3 35.1361 37.1051 150.8775 0.0000 0.0000 0.0000
# 4 0.0000 0.0000 0.0000 14.1717 0.0000 0.0000
# 5 0.0000 0.0000 0.0000 0.0000 17.2667 0.0000
# 6 0.0000 0.0000 0.0000 0.0000 0.0000 14.8477
#
#
#
# Elastic Compliance Matrix: (Units=1/GPa)
#
#
# Indices 1 2 3 4 5 6 
#
# 1 0.037705 -0.014061 -0.005323 0.000000 0.000000 0.000000
# 2 -0.014061 0.025276 -0.002942 0.000000 0.000000 0.000000
# 3 -0.005323 -0.002942 0.008591 0.000000 0.000000 0.000000
# 4 0.000000 0.000000 0.000000 0.070563 0.000000 0.000000
# 5 0.000000 0.000000 0.000000 0.000000 0.057915 0.000000
# 6 0.000000 0.000000 0.000000 0.000000 0.000000 0.067350
#
#
# Mechanical properties :
#
#
# Convention : Reuss Voigt Hill
#
# Bulk Modulus (GPa) = 37.14416 50.06216 43.60316
# Shear Modulus (GPa) = 15.57509 19.39514 17.48512
#
# Velocity S-wave (km/s) = 3.14582 3.51047 3.33314
# Velocity P-wave (km/s) = 6.06596 6.94551 6.52058
#
# Compressibility (1/GPa) = 0.02692213
#
# Stress axis : x y z
#
# Youngs Moduli (GPa) = 26.52157 39.56265 116.40178
#
# Poissons Ratio (x) = 0.55627 0.61959
# Poissons Ratio (y) = 0.37291 0.34243
# Poissons Ratio (z) = 0.14117 0.11638
#
# Static dielectric constant tensor:
#      x y z
#    x 2.613270 0.000000 0.000000 
#    y 0.000000 2.979680 0.000000 
#    z 0.000000 0.000000 3.393170 
# 
# 
# High freq. dielectric constant tensor:
#      x y z
#    x 1.544560 0.000000 0.000000 
#    y 0.000000 1.584280 0.000000 
#    z 0.000000 0.000000 1.630180 
# 
# From -- ./inp_files/8038.got.cif
#   From: 2010.03.12/outbox.cif.g09.slc.cpg/sg60_5_cif.got.tgz:8038.got - 2010.04.10 18:46:24.
