data_PCOD8246893
_publ_section_title
;
Structure prediction by ZEFSAII (Michael W. Deem and Ramdas Pophale) SiO2 
 PCOD8246893
Probable space group: P B C N
;
_chemical_formula_sum "Si O2"
_cell_formula_units_Z 60
_cell_length_a 9.152222
_cell_length_b 18.714526
_cell_length_c 16.032242
_cell_angle_alpha 90.000000
_cell_angle_beta 90.000000
_cell_angle_gamma 90.000000
_cell_volume 2745.994339
_symmetry_space_group_name_H-M "P B C N"
_symmetry_group_IT_number 60
_symmetry_cell_setting 'orthorhombic'
loop_
_space_group_symop_operation_xyz
x,y,z
1/2-x,1/2-y,1/2+z
1/2+x,1/2-y,-z
-x,y,1/2-z
-x,-y,-z
1/2+x,1/2+y,1/2-z
1/2-x,1/2+y,z
x,-y,1/2+z
loop_
_atom_site_type_symbol
_atom_site_label
_atom_site_fract_x
_atom_site_fract_y
_atom_site_fract_z
Si Si1 0.324369 0.606712 0.100644
Si Si2 0.435955 0.651173 0.519225
Si Si3 0.000000 0.146486 0.250000
Si Si4 0.773711 0.949903 0.372429
Si Si5 0.656967 0.005481 0.706936
Si Si6 0.748514 0.146846 0.142368
Si Si7 0.555337 0.810602 0.919358
Si Si8 0.520123 0.929622 0.054463
O O1 0.437806 0.597390 0.176212
O O2 0.266322 0.527445 0.082072
O O3 0.196049 0.660688 0.132076
O O4 0.403608 0.638383 0.018848
O O5 0.412700 0.595285 0.595426
O O6 0.309985 0.639427 0.450851
O O7 0.422026 0.730218 0.553987
O O8 0.865434 0.189456 0.203528
O O9 0.768596 0.957287 0.272044
O O10 0.630112 0.907514 0.401086
O O11 0.500000 0.990431 0.750000
O O12 0.640999 0.055914 0.626074
O O13 0.728671 0.931117 0.680992
O O14 0.591108 0.184903 0.136206
O O15 0.564287 0.861798 0.000016
O O16 0.500000 0.000000 0.000000
#
# Coordination Sequence:
#
# PCOD8246893 Si02
#       8
#     8   8   4   8   8   8   8   8
#     4  11  23  40  67  99 130 180 229 280 340 414
#     4  11  25  41  63 101 140 180 221 295 348 411
#     4  10  24  40  62 104 126 170 222 286 338 392
#     4  11  20  40  65  98 133 173 232 283 346 406
#     4  10  20  35  67 102 132 173 231 292 341 406
#     4  11  21  41  68  95 135 176 230 284 338 415
#     4  12  23  41  70  97 137 181 236 272 346 425
#     4  11  19  36  65 103 125 174 234 286 326 403
#
# _framework density 21.850007999999999
#
# number of rings (size 3 to 8) (size 9 to 14) (size 15 to 20)
#    0.000    1.067    5.333    2.000    0.000    0.000 
#    0.000    2.667    1.467    1.600    0.000    0.000 
#    0.000    0.000    0.000    0.000    0.000    0.000 
#
# Total GULP energy -743625.325118 kJ/mol
# GULP energy per Si atom -12393.755419 kJ/mol
# Density = 2.180028 g / cm^3
# Si number density = 21.850008 Si / 1000 Ang^3
#
#
#
# Elastic Constant Matrix: (Units=GPa)
#
#
# Indices 1 2 3 4 5 6 
#
# 1 123.8491 35.3409 53.8280 0.0000 0.0000 0.0000
# 2 35.3409 110.8388 50.8241 0.0000 0.0000 0.0000
# 3 53.8280 50.8241 110.3909 0.0000 0.0000 0.0000
# 4 0.0000 0.0000 0.0000 17.4270 0.0000 0.0000
# 5 0.0000 0.0000 0.0000 0.0000 52.8507 0.0000
# 6 0.0000 0.0000 0.0000 0.0000 0.0000 21.2524
#
#
#
# Elastic Compliance Matrix: (Units=1/GPa)
#
#
# Indices 1 2 3 4 5 6 
#
# 1 0.010381 -0.001254 -0.004485 0.000000 0.000000 0.000000
# 2 -0.001254 0.011588 -0.004724 0.000000 0.000000 0.000000
# 3 -0.004485 -0.004724 0.013420 0.000000 0.000000 0.000000
# 4 0.000000 0.000000 0.000000 0.057382 0.000000 0.000000
# 5 0.000000 0.000000 0.000000 0.000000 0.018921 0.000000
# 6 0.000000 0.000000 0.000000 0.000000 0.000000 0.047053
#
#
# Mechanical properties :
#
#
# Convention : Reuss Voigt Hill
#
# Bulk Modulus (GPa) = 69.13209 69.45165 69.29187
# Shear Modulus (GPa) = 27.10130 31.97840 29.53985
#
# Velocity S-wave (km/s) = 3.52566 3.82978 3.68086
# Velocity P-wave (km/s) = 6.94851 7.17014 7.06019
#
# Compressibility (1/GPa) = 0.01446506
#
# Stress axis : x y z
#
# Youngs Moduli (GPa) = 96.32699 86.29707 74.51300
#
# Poissons Ratio (x) = 0.10818 0.33418
# Poissons Ratio (y) = 0.12075 0.35199
# Poissons Ratio (z) = 0.43202 0.40765
#
# Static dielectric constant tensor:
#      x y z
#    x -1.062380 0.000000 0.000000 
#    y 0.000000 3.621120 0.000000 
#    z 0.000000 0.000000 4.337850 
# 
# 
# High freq. dielectric constant tensor:
#      x y z
#    x 1.876190 0.000000 0.000000 
#    y 0.000000 1.814000 0.000000 
#    z 0.000000 0.000000 1.866550 
# 
# From -- ./inp_files/19591.got.cif
#   From: 2010.03.12/outbox.cif.g09.slc.cpg/sg60_10_cif.got.tgz:19591.got - 2010.04.10 18:46:24.
