data_PCOD8246414
_publ_section_title
;
Structure prediction by ZEFSAII (Michael W. Deem and Ramdas Pophale) SiO2 
 PCOD8246414
Probable space group: P B C N
;
_chemical_formula_sum "Si O2"
_cell_formula_units_Z 60
_cell_length_a 12.326047
_cell_length_b 14.485060
_cell_length_c 17.044415
_cell_angle_alpha 90.000000
_cell_angle_beta 90.000000
_cell_angle_gamma 90.000000
_cell_volume 3043.170027
_symmetry_space_group_name_H-M "P B C N"
_symmetry_group_IT_number 60
_symmetry_cell_setting 'orthorhombic'
loop_
_space_group_symop_operation_xyz
x,y,z
1/2-x,1/2-y,1/2+z
1/2+x,1/2-y,-z
-x,y,1/2-z
-x,-y,-z
1/2+x,1/2+y,1/2-z
1/2-x,1/2+y,z
x,-y,1/2+z
loop_
_atom_site_type_symbol
_atom_site_label
_atom_site_fract_x
_atom_site_fract_y
_atom_site_fract_z
Si Si1 0.299723 0.103337 0.949561
Si Si2 0.269352 0.551282 0.557553
Si Si3 0.395994 0.512420 0.203068
Si Si4 0.209581 0.544849 0.320790
Si Si5 0.289017 0.310548 0.929183
Si Si6 0.492443 0.303280 0.660158
Si Si7 0.462449 0.119752 0.592800
Si Si8 0.000000 0.511934 0.750000
O O1 0.248875 0.206766 0.948194
O O2 0.431142 0.109701 0.963611
O O3 0.281172 0.052706 0.866383
O O4 0.231510 0.049696 0.016868
O O5 0.331261 0.553563 0.641866
O O6 0.325393 0.632171 0.506680
O O7 0.141578 0.572716 0.556216
O O8 0.500000 0.466988 0.250000
O O9 0.316275 0.553035 0.268095
O O10 0.436719 0.597568 0.150256
O O11 0.198068 0.629123 0.382973
O O12 0.105801 0.551443 0.263546
O O13 0.386470 0.305513 0.869810
O O14 0.500000 0.272424 0.750000
O O15 0.430209 0.226613 0.608521
O O16 0.487268 0.075194 0.675466
#
# Coordination Sequence:
#
# PCOD8246414 Si02
#       8
#     8   8   8   8   8   8   8   4
#     4   9  22  39  61  88 124 161 201 257 301 370
#     4  11  23  37  60  92 123 161 199 257 312 365
#     4  11  22  38  61  88 121 161 208 253 297 367
#     4  10  19  38  61  88 119 156 206 250 310 350
#     4  10  21  40  58  88 121 160 201 250 307 365
#     4  10  19  35  62  87 113 162 215 246 281 368
#     4  10  19  35  61  89 116 156 208 251 305 349
#     4  10  18  32  62  88 114 152 196 260 300 344
#
# _framework density 19.716282
#
# number of rings (size 3 to 8) (size 9 to 14) (size 15 to 20)
#    0.000    1.867    4.667    0.400    1.867    0.533 
#    0.000    0.000    1.467    0.000    0.000    0.000 
#    0.000    0.000    0.000    0.000    0.000    0.000 
#
# Total GULP energy -743436.038810 kJ/mol
# GULP energy per Si atom -12390.600647 kJ/mol
# Density = 1.967141 g / cm^3
# Si number density = 19.716282 Si / 1000 Ang^3
#
#
#
# Elastic Constant Matrix: (Units=GPa)
#
#
# Indices 1 2 3 4 5 6 
#
# 1 64.5918 13.9304 19.6604 0.0000 0.0000 0.0000
# 2 13.9304 115.9240 25.7797 0.0000 0.0000 0.0000
# 3 19.6604 25.7797 75.1543 0.0000 0.0000 0.0000
# 4 0.0000 0.0000 0.0000 -20.0125 0.0000 0.0000
# 5 0.0000 0.0000 0.0000 0.0000 29.9177 0.0000
# 6 0.0000 0.0000 0.0000 0.0000 0.0000 23.1631
#
#
#
# Elastic Compliance Matrix: (Units=1/GPa)
#
#
# Indices 1 2 3 4 5 6 
#
# 1 0.016959 -0.001138 -0.004046 0.000000 0.000000 0.000000
# 2 -0.001138 0.009415 -0.002932 0.000000 0.000000 0.000000
# 3 -0.004046 -0.002932 0.015370 0.000000 0.000000 0.000000
# 4 0.000000 0.000000 0.000000 -0.049969 0.000000 0.000000
# 5 0.000000 0.000000 0.000000 0.000000 0.033425 0.000000
# 6 0.000000 0.000000 0.000000 0.000000 0.000000 0.043172
#
#
# Mechanical properties :
#
#
# Convention : Reuss Voigt Hill
#
# Bulk Modulus (GPa) = 39.19728 41.60122 40.39925
# Shear Modulus (GPa) = 53.70081 19.70031 36.70056
#
# Velocity S-wave (km/s) = 5.22455 3.16443 4.31911
# Velocity P-wave (km/s) = 7.50456 5.87343 6.73853
#
# Compressibility (1/GPa) = 0.02551198
#
# Stress axis : x y z
#
# Youngs Moduli (GPa) = 58.96639 106.21229 65.06142
#
# Poissons Ratio (x) = 0.12088 0.26324
# Poissons Ratio (y) = 0.06711 0.19075
# Poissons Ratio (z) = 0.23858 0.31140
#
# Static dielectric constant tensor:
#      x y z
#    x 3.615450 0.000000 0.000000 
#    y 0.000000 3.903340 0.000000 
#    z 0.000000 0.000000 3.501430 
# 
# 
# High freq. dielectric constant tensor:
#      x y z
#    x 1.757600 0.000000 0.000000 
#    y 0.000000 1.759270 0.000000 
#    z 0.000000 0.000000 1.768490 
# 
# From -- ./inp_files/20152.got.cif
#   From: 2010.03.12/outbox.cif.g09.slc.cpg/sg60_11_cif.got.tgz:20152.got - 2010.04.10 18:46:24.
