data_PCOD8246012
_publ_section_title
;
Structure prediction by ZEFSAII (Michael W. Deem and Ramdas Pophale) SiO2 
 PCOD8246012
Probable space group: P M M N
;
_chemical_formula_sum "Si O2"
_cell_formula_units_Z 64
_cell_length_a 22.262940
_cell_length_b 14.881475
_cell_length_c 9.225829
_cell_angle_alpha 90.000000
_cell_angle_beta 90.000000
_cell_angle_gamma 90.000000
_cell_volume 3056.566829
_symmetry_space_group_name_H-M "P M M N"
_symmetry_group_IT_number 59
_space_group.IT_coordinate_system_code '2'
_symmetry_cell_setting 'orthorhombic'
loop_
_space_group_symop_operation_xyz
x,y,z
1/2-x,1/2-y,z
1/2+x,-y,-z
-x,1/2+y,-z
-x,-y,-z
1/2+x,1/2+y,-z
1/2-x,y,z
x,1/2-y,z
loop_
_atom_site_type_symbol
_atom_site_label
_atom_site_fract_x
_atom_site_fract_y
_atom_site_fract_z
Si Si1 0.479860 0.009087 0.164058
Si Si2 0.184791 0.351215 0.283240
Si Si3 0.980309 0.349513 0.613334
Si Si4 0.854164 0.528609 0.949547
Si Si5 0.819593 0.352028 0.106431
Si Si6 0.586185 0.089091 0.338721
Si Si7 0.681745 0.651360 0.188851
Si Si8 0.111908 0.397682 0.550327
O O1 0.412750 0.045497 0.148781
O O2 0.525283 0.076694 0.244276
O O3 0.474658 0.916007 0.251305
O O4 0.500000 0.000000 0.000000
O O5 0.250000 0.347371 0.359025
O O6 0.164399 0.250000 0.239398
O O7 0.194328 0.415425 0.142486
O O8 0.137214 0.396211 0.389576
O O9 0.974251 0.250000 0.678608
O O10 0.930286 0.360523 0.487925
O O11 0.044322 0.362834 0.537480
O O12 0.838627 0.423719 0.980773
O O13 0.859228 0.578822 0.104292
O O14 0.750000 0.370062 0.151297
O O15 0.826110 0.250000 0.044949
O O16 0.863239 0.359006 0.246125
O O17 0.615550 0.996419 0.384799
O O18 0.750000 0.615381 0.199321
O O19 0.680259 0.750000 0.114655
O O20 0.652985 0.663935 0.347294
#
# Coordination Sequence:
#
# PCOD8246012 Si02
#       8
#     8   8   8   8   8   8   8   8
#     4  11  22  41  63  93 127 166 206 260 320 391
#     4  11  23  37  57  91 131 165 200 244 304 380
#     4  11  23  40  63  92 127 165 210 264 319 376
#     4  12  22  41  63  87 126 166 209 260 324 378
#     4  11  24  42  66  93 121 164 225 280 324 379
#     4  11  22  43  65  91 127 166 213 266 329 380
#     4  11  22  37  61  93 128 166 208 251 303 377
#     4  11  21  38  62  90 126 165 207 248 307 380
#
# _framework density 20.938524999999998
#
# number of rings (size 3 to 8) (size 9 to 14) (size 15 to 20)
#    0.000    0.875    2.500    7.125    0.000    3.000 
#    0.000    2.500    0.000    0.000    0.000    3.500 
#    0.000    0.000    0.000    0.000    0.000    0.000 
#
# Total GULP energy -793230.397911 kJ/mol
# GULP energy per Si atom -12394.224967 kJ/mol
# Density = 2.089087 g / cm^3
# Si number density = 20.938525 Si / 1000 Ang^3
#
#
#
# Elastic Constant Matrix: (Units=GPa)
#
#
# Indices 1 2 3 4 5 6 
#
# 1 109.7795 35.1910 38.3883 0.0000 0.0000 0.0000
# 2 35.1910 110.0647 39.0705 0.0000 0.0000 0.0000
# 3 38.3883 39.0705 113.9547 0.0000 0.0000 0.0000
# 4 0.0000 0.0000 0.0000 23.5331 0.0000 0.0000
# 5 0.0000 0.0000 0.0000 0.0000 32.7346 0.0000
# 6 0.0000 0.0000 0.0000 0.0000 0.0000 17.4557
#
#
#
# Elastic Compliance Matrix: (Units=1/GPa)
#
#
# Indices 1 2 3 4 5 6 
#
# 1 0.010890 -0.002482 -0.002818 0.000000 0.000000 0.000000
# 2 -0.002482 0.010910 -0.002905 0.000000 0.000000 0.000000
# 3 -0.002818 -0.002905 0.010721 0.000000 0.000000 0.000000
# 4 0.000000 0.000000 0.000000 0.042493 0.000000 0.000000
# 5 0.000000 0.000000 0.000000 0.000000 0.030549 0.000000
# 6 0.000000 0.000000 0.000000 0.000000 0.000000 0.057288
#
#
# Mechanical properties :
#
#
# Convention : Reuss Voigt Hill
#
# Bulk Modulus (GPa) = 62.06300 62.12204 62.09252
# Shear Modulus (GPa) = 27.08127 29.48794 28.28460
#
# Velocity S-wave (km/s) = 3.60025 3.75682 3.67937
# Velocity P-wave (km/s) = 6.85473 6.96789 6.91154
#
# Compressibility (1/GPa) = 0.01611266
#
# Stress axis : x y z
#
# Youngs Moduli (GPa) = 91.82745 91.65818 93.27915
#
# Poissons Ratio (x) = 0.22746 0.26283
# Poissons Ratio (y) = 0.22788 0.27094
# Poissons Ratio (z) = 0.25874 0.26623
#
# Static dielectric constant tensor:
#      x y z
#    x 2.799290 0.000000 0.000000 
#    y 0.000000 19.169880 0.000000 
#    z 0.000000 0.000000 3.712960 
# 
# 
# High freq. dielectric constant tensor:
#      x y z
#    x 1.828180 0.000000 0.000000 
#    y 0.000000 1.818390 0.000000 
#    z 0.000000 0.000000 1.818490 
# 
# From -- ./inp_files/12195.got.cif
#   From: 2010.03.12/outbox.cif.g09.slc.cpg/sg59_7_cif.got.tgz:12195.got - 2010.04.16 16:29:54.
