data_PCOD8246711
_publ_section_title
;
Structure prediction by ZEFSAII (Michael W. Deem and Ramdas Pophale) SiO2 
 PCOD8246711
Probable space group: P B C N
;
_chemical_formula_sum "Si O2"
_cell_formula_units_Z 60
_cell_length_a 14.989631
_cell_length_b 11.726151
_cell_length_c 16.556589
_cell_angle_alpha 90.000000
_cell_angle_beta 90.000000
_cell_angle_gamma 90.000000
_cell_volume 2910.162850
_symmetry_space_group_name_H-M "P B C N"
_symmetry_group_IT_number 60
_symmetry_cell_setting 'orthorhombic'
loop_
_space_group_symop_operation_xyz
x,y,z
1/2-x,1/2-y,1/2+z
1/2+x,1/2-y,-z
-x,y,1/2-z
-x,-y,-z
1/2+x,1/2+y,1/2-z
1/2-x,1/2+y,z
x,-y,1/2+z
loop_
_atom_site_type_symbol
_atom_site_label
_atom_site_fract_x
_atom_site_fract_y
_atom_site_fract_z
Si Si1 0.816895 0.781374 0.055552
Si Si2 0.947721 0.641111 0.965723
Si Si3 0.865571 0.984167 0.628144
Si Si4 0.110321 0.256777 0.668405
Si Si5 0.500000 0.433479 0.250000
Si Si6 0.870699 0.227790 0.012070
Si Si7 0.018584 0.458955 0.870302
Si Si8 0.688063 0.895337 0.698481
O O1 0.862882 0.898242 0.080010
O O2 0.830223 0.694978 0.128527
O O3 0.865296 0.729977 0.974601
O O4 0.712791 0.804153 0.040478
O O5 0.949824 0.567049 0.881436
O O6 0.039791 0.708381 0.967745
O O7 0.938610 0.554111 0.040592
O O8 0.954883 0.984828 0.682738
O O9 0.871053 0.891181 0.558459
O O10 0.779785 0.963946 0.686397
O O11 0.079030 0.145627 0.716507
O O12 0.144572 0.209384 0.583176
O O13 0.028398 0.342864 0.656379
O O14 0.187936 0.325770 0.716776
O O15 0.100570 0.480278 0.806870
#
# Coordination Sequence:
#
# PCOD8246711 Si02
#       8
#     8   8   8   8   4   8   8   8
#     4  10  20  40  60  87 123 168 204 259 321 390
#     4   9  18  33  56  88 120 153 200 259 311 371
#     4  11  23  40  65  88 128 177 211 263 335 388
#     4  11  20  39  65  94 123 164 222 269 310 397
#     4  12  22  42  66  92 128 174 222 264 334 406
#     4  10  23  38  61  93 128 161 218 267 322 389
#     4   9  16  32  62  85 113 154 202 258 313 368
#     4  10  19  37  61  88 117 165 213 260 319 380
#
# _framework density 20.617401999999998
#
# number of rings (size 3 to 8) (size 9 to 14) (size 15 to 20)
#    0.000    1.867    2.667    2.400    0.000    5.333 
#    7.200    0.000    5.867    0.000    0.000    0.000 
#    0.000    0.000    0.000    0.000    0.000    0.000 
#
# Total GULP energy -743514.729135 kJ/mol
# GULP energy per Si atom -12391.912152 kJ/mol
# Density = 2.057048 g / cm^3
# Si number density = 20.617402 Si / 1000 Ang^3
#
#
#
# Elastic Constant Matrix: (Units=GPa)
#
#
# Indices 1 2 3 4 5 6 
#
# 1 80.9817 35.9907 22.7589 0.0000 0.0000 0.0000
# 2 35.9907 68.8084 30.5399 0.0000 0.0000 0.0000
# 3 22.7589 30.5399 89.6771 0.0000 0.0000 0.0000
# 4 0.0000 0.0000 0.0000 29.8478 0.0000 0.0000
# 5 0.0000 0.0000 0.0000 0.0000 31.3046 0.0000
# 6 0.0000 0.0000 0.0000 0.0000 0.0000 30.9258
#
#
#
# Elastic Compliance Matrix: (Units=1/GPa)
#
#
# Indices 1 2 3 4 5 6 
#
# 1 0.016246 -0.007855 -0.001448 0.000000 0.000000 0.000000
# 2 -0.007855 0.020919 -0.005130 0.000000 0.000000 0.000000
# 3 -0.001448 -0.005130 0.013266 0.000000 0.000000 0.000000
# 4 0.000000 0.000000 0.000000 0.033503 0.000000 0.000000
# 5 0.000000 0.000000 0.000000 0.000000 0.031944 0.000000
# 6 0.000000 0.000000 0.000000 0.000000 0.000000 0.032336
#
#
# Mechanical properties :
#
#
# Convention : Reuss Voigt Hill
#
# Bulk Modulus (GPa) = 46.37385 46.44956 46.41171
# Shear Modulus (GPa) = 27.13418 28.42748 27.78083
#
# Velocity S-wave (km/s) = 3.63172 3.71726 3.67474
# Velocity P-wave (km/s) = 6.33461 6.40330 6.36905
#
# Compressibility (1/GPa) = 0.02156388
#
# Stress axis : x y z
#
# Youngs Moduli (GPa) = 61.55181 47.80368 75.38173
#
# Poissons Ratio (x) = 0.37550 0.10916
# Poissons Ratio (y) = 0.48350 0.38674
# Poissons Ratio (z) = 0.08913 0.24526
#
# Static dielectric constant tensor:
#      x y z
#    x 3.797180 0.000000 0.000000 
#    y 0.000000 3.701980 0.000000 
#    z 0.000000 0.000000 3.966540 
# 
# 
# High freq. dielectric constant tensor:
#      x y z
#    x 1.800950 0.000000 0.000000 
#    y 0.000000 1.794280 0.000000 
#    z 0.000000 0.000000 1.796160 
# 
# From -- ./inp_files/20643.got.cif
#   From: 2010.03.12/outbox.cif.g09.slc.cpg/sg60_11_cif.got.tgz:20643.got - 2010.04.10 18:46:24.
