data_PCOD8246219
_publ_section_title
;
Structure prediction by ZEFSAII (Michael W. Deem and Ramdas Pophale) SiO2 
 PCOD8246219
Probable space group: P M M N
;
_chemical_formula_sum "Si O2"
_cell_formula_units_Z 40
_cell_length_a 19.457940
_cell_length_b 9.126215
_cell_length_c 12.982194
_cell_angle_alpha 90.000000
_cell_angle_beta 90.000000
_cell_angle_gamma 90.000000
_cell_volume 2305.343528
_symmetry_space_group_name_H-M "P M M N"
_symmetry_group_IT_number 59
_space_group.IT_coordinate_system_code '2'
_symmetry_cell_setting 'orthorhombic'
loop_
_space_group_symop_operation_xyz
x,y,z
1/2-x,1/2-y,z
1/2+x,-y,-z
-x,1/2+y,-z
-x,-y,-z
1/2+x,1/2+y,-z
1/2-x,y,z
x,1/2-y,z
loop_
_atom_site_type_symbol
_atom_site_label
_atom_site_fract_x
_atom_site_fract_y
_atom_site_fract_z
Si Si1 0.329094 0.079675 0.100569
Si Si2 0.427747 0.578480 0.490519
Si Si3 0.924727 0.420396 0.283833
Si Si4 0.580498 0.923466 0.706764
Si Si5 0.171788 0.923735 0.894194
O O1 0.250000 0.044496 0.125999
O O2 0.340799 0.250000 0.078125
O O3 0.373932 0.026689 0.197042
O O4 0.354748 0.991409 0.001055
O O5 0.500000 0.500000 0.500000
O O6 0.437416 0.750000 0.468202
O O7 0.391707 0.553312 0.602183
O O8 0.387790 0.502382 0.395341
O O9 0.929452 0.250000 0.260081
O O10 0.875004 0.490594 0.197711
O O11 0.002604 0.481736 0.275293
O O12 0.583249 0.750000 0.688362
O O13 0.250000 0.972947 0.872483
O O14 0.166050 0.750000 0.902168
#
# Coordination Sequence:
#
# PCOD8246219 Si02
#       5
#     8   8   8   8   8
#     4   9  18  32  47  63  87 118 148 181 225 269
#     4   9  16  28  46  67  92 119 146 179 220 264
#     4   8  15  28  45  65  88 113 142 177 217 258
#     4   9  17  30  47  65  88 118 149 182 220 263
#     4   9  17  30  47  64  85 115 147 178 216 264
#
# _framework density 17.350992000000002
#
# number of rings (size 3 to 8) (size 9 to 14) (size 15 to 20)
#    0.000    3.200    0.000    1.800    0.000    1.600 
#    0.000    6.000    0.000    1.200    0.000    0.000 
#    0.000    0.000    0.000    0.000    0.000    0.000 
#
# Total GULP energy -495695.865256 kJ/mol
# GULP energy per Si atom -12392.396631 kJ/mol
# Density = 1.731150 g / cm^3
# Si number density = 17.350992 Si / 1000 Ang^3
#
#
#
# Elastic Constant Matrix: (Units=GPa)
#
#
# Indices 1 2 3 4 5 6 
#
# 1 62.8624 20.0849 73.6237 0.0000 0.0000 0.0000
# 2 20.0849 41.0248 48.5523 0.0000 0.0000 0.0000
# 3 73.6237 48.5523 186.4274 0.0000 0.0000 0.0000
# 4 0.0000 0.0000 0.0000 32.4556 0.0000 0.0000
# 5 0.0000 0.0000 0.0000 0.0000 17.6682 0.0000
# 6 0.0000 0.0000 0.0000 0.0000 0.0000 14.5647
#
#
#
# Elastic Compliance Matrix: (Units=1/GPa)
#
#
# Indices 1 2 3 4 5 6 
#
# 1 0.029623 -0.000951 -0.011451 0.000000 0.000000 0.000000
# 2 -0.000951 0.035266 -0.008809 0.000000 0.000000 0.000000
# 3 -0.011451 -0.008809 0.012181 0.000000 0.000000 0.000000
# 4 0.000000 0.000000 0.000000 0.030811 0.000000 0.000000
# 5 0.000000 0.000000 0.000000 0.000000 0.056599 0.000000
# 6 0.000000 0.000000 0.000000 0.000000 0.000000 0.068659
#
#
# Mechanical properties :
#
#
# Convention : Reuss Voigt Hill
#
# Bulk Modulus (GPa) = 28.86163 63.87071 46.36617
# Shear Modulus (GPa) = 17.41492 22.80795 20.11143
#
# Velocity S-wave (km/s) = 3.17153 3.62954 3.40824
# Velocity P-wave (km/s) = 5.48467 7.37941 6.50143
#
# Compressibility (1/GPa) = 0.03464808
#
# Stress axis : x y z
#
# Youngs Moduli (GPa) = 33.75776 28.35556 82.09842
#
# Poissons Ratio (x) = 0.02695 0.94011
# Poissons Ratio (y) = 0.03209 0.72323
# Poissons Ratio (z) = 0.38656 0.24979
#
# Static dielectric constant tensor:
#      x y z
#    x 3.239150 0.000000 0.000000 
#    y 0.000000 3.113760 0.000000 
#    z 0.000000 0.000000 3.900190 
# 
# 
# High freq. dielectric constant tensor:
#      x y z
#    x 1.638960 0.000000 0.000000 
#    y 0.000000 1.649880 0.000000 
#    z 0.000000 0.000000 1.688200 
# 
# From -- ./inp_files/14045.got.cif
#   From: 2010.03.12/outbox.cif.g09.slc.cpg/sg59_8_cif.got.tgz:14045.got - 2010.04.16 16:29:54.
