data_PCOD8246589
_publ_section_title
;
Structure prediction by ZEFSAII (Michael W. Deem and Ramdas Pophale) SiO2 
 PCOD8246589
Probable space group: P B C N
;
_chemical_formula_sum "Si O2"
_cell_formula_units_Z 64
_cell_length_a 16.678709
_cell_length_b 22.846133
_cell_length_c 9.498017
_cell_angle_alpha 90.000000
_cell_angle_beta 90.000000
_cell_angle_gamma 90.000000
_cell_volume 3619.162429
_symmetry_space_group_name_H-M "P B C N"
_symmetry_group_IT_number 60
_symmetry_cell_setting 'orthorhombic'
loop_
_space_group_symop_operation_xyz
x,y,z
1/2-x,1/2-y,1/2+z
1/2+x,1/2-y,-z
-x,y,1/2-z
-x,-y,-z
1/2+x,1/2+y,1/2-z
1/2-x,1/2+y,z
x,-y,1/2+z
loop_
_atom_site_type_symbol
_atom_site_label
_atom_site_fract_x
_atom_site_fract_y
_atom_site_fract_z
Si Si1 0.498859 0.244285 0.414524
Si Si2 0.943477 0.125143 0.968486
Si Si3 0.589575 0.527882 0.760402
Si Si4 0.655556 0.790285 0.412003
Si Si5 0.893999 0.931124 0.965101
Si Si6 0.228903 0.834831 0.595401
Si Si7 0.642914 0.795078 0.097169
Si Si8 0.714676 0.332731 0.597643
O O1 0.500000 0.226372 0.250000
O O2 0.517420 0.313079 0.427289
O O3 0.414242 0.225793 0.479013
O O4 0.562718 0.208205 0.505547
O O5 0.910966 0.092411 0.830350
O O6 0.866581 0.130681 0.069718
O O7 0.011105 0.084786 0.042392
O O8 0.500000 0.504021 0.750000
O O9 0.629149 0.535524 0.608738
O O10 0.634862 0.476952 0.846364
O O11 0.706054 0.732326 0.387328
O O12 0.624491 0.814057 0.259536
O O13 0.715335 0.839129 0.479898
O O14 0.846454 0.871076 0.958525
O O15 0.301204 0.842479 0.483822
O O16 0.251728 0.854963 0.754104
O O17 0.689835 0.734607 0.102252
#
# Coordination Sequence:
#
# PCOD8246589 Si02
#       8
#     8   8   8   8   8   8   8   8
#     4  11  19  31  53  75 104 136 173 207 254 314
#     4  10  20  33  51  73 100 142 182 210 259 299
#     4  10  22  35  47  72  98 138 178 228 254 285
#     4  10  19  34  50  72 101 133 172 211 253 305
#     4  11  22  35  52  70 105 140 181 221 255 301
#     4  10  20  33  50  70  99 138 175 210 261 301
#     4   9  20  33  46  74 100 130 171 213 252 304
#     4   9  20  31  50  70  97 134 174 217 248 307
#
# _framework density 17.683648999999999
#
# number of rings (size 3 to 8) (size 9 to 14) (size 15 to 20)
#    0.000    2.000    1.250    3.750    5.250    2.000 
#    0.000    0.000    0.000    0.000    0.000    0.000 
#    0.000    1.000    0.750    0.125    0.000    0.000 
#
# Total GULP energy -793091.891019 kJ/mol
# GULP energy per Si atom -12392.060797 kJ/mol
# Density = 1.764340 g / cm^3
# Si number density = 17.683649 Si / 1000 Ang^3
#
#
#
# Elastic Constant Matrix: (Units=GPa)
#
#
# Indices 1 2 3 4 5 6 
#
# 1 64.7804 22.6906 44.0295 0.0000 0.0000 0.0000
# 2 22.6906 40.0269 26.3192 0.0000 0.0000 0.0000
# 3 44.0295 26.3192 147.2103 0.0000 0.0000 0.0000
# 4 0.0000 0.0000 0.0000 19.1112 0.0000 0.0000
# 5 0.0000 0.0000 0.0000 0.0000 25.9319 0.0000
# 6 0.0000 0.0000 0.0000 0.0000 0.0000 9.9391
#
#
#
# Elastic Compliance Matrix: (Units=1/GPa)
#
#
# Indices 1 2 3 4 5 6 
#
# 1 0.022029 -0.009242 -0.004936 0.000000 0.000000 0.000000
# 2 -0.009242 0.032189 -0.002991 0.000000 0.000000 0.000000
# 3 -0.004936 -0.002991 0.008804 0.000000 0.000000 0.000000
# 4 0.000000 0.000000 0.000000 0.052325 0.000000 0.000000
# 5 0.000000 0.000000 0.000000 0.000000 0.038563 0.000000
# 6 0.000000 0.000000 0.000000 0.000000 0.000000 0.100613
#
#
# Mechanical properties :
#
#
# Convention : Reuss Voigt Hill
#
# Bulk Modulus (GPa) = 34.86289 48.67736 41.77013
# Shear Modulus (GPa) = 16.75475 21.59498 19.17487
#
# Velocity S-wave (km/s) = 3.08144 3.49833 3.29649
# Velocity P-wave (km/s) = 5.69368 6.62603 6.17747
#
# Compressibility (1/GPa) = 0.02868379
#
# Stress axis : x y z
#
# Youngs Moduli (GPa) = 45.39449 31.06660 113.58311
#
# Poissons Ratio (x) = 0.28712 0.56069
# Poissons Ratio (y) = 0.41954 0.33969
# Poissons Ratio (z) = 0.22408 0.09291
#
# Static dielectric constant tensor:
#      x y z
#    x 3.154290 0.000000 0.000000 
#    y 0.000000 2.926840 0.000000 
#    z 0.000000 0.000000 3.862710 
# 
# 
# High freq. dielectric constant tensor:
#      x y z
#    x 1.656420 0.000000 0.000000 
#    y 0.000000 1.634900 0.000000 
#    z 0.000000 0.000000 1.709330 
# 
# From -- ./inp_files/7089.got.cif
#   From: 2010.03.12/outbox.cif.g09.slc.cpg/sg60_4_cif.got.tgz:7089.got - 2010.04.10 18:46:24.
