data_PCOD8246607
_publ_section_title
;
Structure prediction by ZEFSAII (Michael W. Deem and Ramdas Pophale) SiO2 
 PCOD8246607
Probable space group: P B C N
;
_chemical_formula_sum "Si O2"
_cell_formula_units_Z 36
_cell_length_a 19.843211
_cell_length_b 15.568041
_cell_length_c 5.212599
_cell_angle_alpha 90.000000
_cell_angle_beta 90.000000
_cell_angle_gamma 90.000000
_cell_volume 1610.275679
_symmetry_space_group_name_H-M "P B C N"
_symmetry_group_IT_number 60
_symmetry_cell_setting 'orthorhombic'
loop_
_space_group_symop_operation_xyz
x,y,z
1/2-x,1/2-y,1/2+z
1/2+x,1/2-y,-z
-x,y,1/2-z
-x,-y,-z
1/2+x,1/2+y,1/2-z
1/2-x,1/2+y,z
x,-y,1/2+z
loop_
_atom_site_type_symbol
_atom_site_label
_atom_site_fract_x
_atom_site_fract_y
_atom_site_fract_z
Si Si1 0.500000 0.195781 0.250000
Si Si2 0.733814 0.139343 0.043088
Si Si3 0.400003 0.050526 0.379351
Si Si4 0.813502 0.168645 0.537748
Si Si5 0.529417 0.359132 0.004610
O O1 0.433922 0.138682 0.289516
O O2 0.503373 0.261690 0.492131
O O3 0.679900 0.064386 0.095133
O O4 0.786189 0.131779 0.272591
O O5 0.694042 0.229102 0.046892
O O6 0.773389 0.126020 0.775751
O O7 0.422464 0.018195 0.661222
O O8 0.890814 0.142120 0.537826
O O9 0.500000 0.403819 0.750000
O O10 0.500000 0.411225 0.250000
#
# Coordination Sequence:
#
# PCOD8246607 Si02
#       5
#     4   8   8   8   8
#     4  10  24  36  54  78 118 158 196 220 256 330
#     4  10  20  35  54  77 103 141 197 231 279 320
#     4  12  25  38  54  77 115 159 199 225 258 320
#     4  10  19  34  57  77 104 142 179 240 288 326
#     4  10  20  32  55  81 116 139 178 228 283 330
#
# _framework density 22.35642
#
# number of rings (size 3 to 8) (size 9 to 14) (size 15 to 20)
#    0.667    0.889    2.222    3.333    3.111    1.778 
#    0.000    0.000    0.000    0.000    0.000    0.000 
#    0.000   62.222    0.000    0.000    0.000    0.000 
#
# Total GULP energy -446026.042883 kJ/mol
# GULP energy per Si atom -12389.612302 kJ/mol
# Density = 2.230554 g / cm^3
# Si number density = 22.356420 Si / 1000 Ang^3
#
#
#
# Elastic Constant Matrix: (Units=GPa)
#
#
# Indices 1 2 3 4 5 6 
#
# 1 111.5428 -11.5551 37.6659 0.0000 0.0000 0.0000
# 2 -11.5551 18.0858 -1.8398 0.0000 0.0000 0.0000
# 3 37.6659 -1.8398 139.1991 0.0000 0.0000 0.0000
# 4 0.0000 0.0000 0.0000 -0.4912 0.0000 0.0000
# 5 0.0000 0.0000 0.0000 0.0000 30.8102 0.0000
# 6 0.0000 0.0000 0.0000 0.0000 0.0000 24.3864
#
#
#
# Elastic Compliance Matrix: (Units=1/GPa)
#
#
# Indices 1 2 3 4 5 6 
#
# 1 0.010573 0.006473 -0.002775 0.000000 0.000000 0.000000
# 2 0.006473 0.059329 -0.000967 0.000000 0.000000 0.000000
# 3 -0.002775 -0.000967 0.007922 0.000000 0.000000 0.000000
# 4 0.000000 0.000000 0.000000 -2.035742 0.000000 0.000000
# 5 0.000000 0.000000 0.000000 0.000000 0.032457 0.000000
# 6 0.000000 0.000000 0.000000 0.000000 0.000000 0.041006
#
#
# Mechanical properties :
#
#
# Convention : Reuss Voigt Hill
#
# Bulk Modulus (GPa) = 12.00705 35.26329 23.63517
# Shear Modulus (GPa) = -2.68506 27.24485 12.27989
#
# Velocity S-wave (km/s) = -1.09710 3.49472 2.34621
# Velocity P-wave (km/s) = 1.94359 5.66494 4.23492
#
# Compressibility (1/GPa) = 0.08328437
#
# Stress axis : x y z
#
# Youngs Moduli (GPa) = 94.58146 16.85511 126.22819
#
# Poissons Ratio (x) = -0.10910 0.35033
# Poissons Ratio (y) = -0.61220 0.12210
# Poissons Ratio (z) = 0.26250 0.01630
#
# Static dielectric constant tensor:
#      x y z
#    x 3.886710 0.000000 0.000000 
#    y 0.000000 3.743690 0.000000 
#    z 0.000000 0.000000 4.210350 
# 
# 
# High freq. dielectric constant tensor:
#      x y z
#    x 1.886670 0.000000 0.000000 
#    y 0.000000 1.847200 0.000000 
#    z 0.000000 0.000000 1.893530 
# 
# From -- ./inp_files/1680.got.cif
#   From: 2010.03.12/outbox.cif.g09.slc.cpg/sg60_1_cif.got.tgz:1680.got - 2010.04.10 18:46:24.
