data_PCOD8246092
_publ_section_title
;
Structure prediction by ZEFSAII (Michael W. Deem and Ramdas Pophale) SiO2 
 PCOD8246092
Probable space group: P M M N
;
_chemical_formula_sum "Si O2"
_cell_formula_units_Z 48
_cell_length_a 8.875019
_cell_length_b 28.820423
_cell_length_c 9.811919
_cell_angle_alpha 90.000000
_cell_angle_beta 90.000000
_cell_angle_gamma 90.000000
_cell_volume 2509.710320
_symmetry_space_group_name_H-M "P M M N"
_symmetry_group_IT_number 59
_space_group.IT_coordinate_system_code '2'
_symmetry_cell_setting 'orthorhombic'
loop_
_space_group_symop_operation_xyz
x,y,z
1/2-x,1/2-y,z
1/2+x,-y,-z
-x,1/2+y,-z
-x,-y,-z
1/2+x,1/2+y,-z
1/2-x,y,z
x,1/2-y,z
loop_
_atom_site_type_symbol
_atom_site_label
_atom_site_fract_x
_atom_site_fract_y
_atom_site_fract_z
Si Si1 0.428948 0.880841 0.724914
Si Si2 0.572881 0.623257 0.019566
Si Si3 0.424897 0.302569 0.760260
Si Si4 0.072136 0.802422 0.517255
Si Si5 0.077981 0.966940 0.106678
Si Si6 0.422372 0.474521 0.376034
O O1 0.250000 0.884552 0.730284
O O2 0.483564 0.836724 0.636218
O O3 0.491800 0.927334 0.657857
O O4 0.491313 0.873776 0.875561
O O5 0.750000 0.617117 0.994047
O O6 0.532170 0.668946 0.105120
O O7 0.512244 0.580931 0.109549
O O8 0.250000 0.307462 0.726578
O O9 0.472598 0.250000 0.792177
O O10 0.511425 0.321143 0.627227
O O11 0.250000 0.802670 0.508643
O O12 0.012109 0.750000 0.546666
O O13 0.250000 0.958172 0.061822
O O14 0.068222 0.989623 0.253274
O O15 0.000000 0.000000 0.000000
O O16 0.500000 0.500000 0.500000
O O17 0.250000 0.462370 0.411391
#
# Coordination Sequence:
#
# PCOD8246092 Si02
#       6
#     8   8   8   8   8   8
#     4  11  23  39  60  87 119 155 196 243 292 347
#     4  11  23  38  59  88 119 155 196 241 292 348
#     4   9  20  39  61  87 118 152 193 239 289 347
#     4   9  20  39  61  86 117 152 192 239 291 347
#     4  11  23  40  62  86 117 156 196 239 288 346
#     4  11  25  42  61  87 119 155 196 242 291 349
#
# _framework density 19.125712
#
# number of rings (size 3 to 8) (size 9 to 14) (size 15 to 20)
#    0.000    1.667    1.667    2.000    2.333    5.333 
#    0.000    0.000    0.000    0.000    0.000    0.000 
#    0.000    0.000    0.000    0.000    0.000    0.000 
#
# Total GULP energy -595342.489852 kJ/mol
# GULP energy per Si atom -12402.968539 kJ/mol
# Density = 1.908218 g / cm^3
# Si number density = 19.125712 Si / 1000 Ang^3
#
#
#
# Elastic Constant Matrix: (Units=GPa)
#
#
# Indices 1 2 3 4 5 6 
#
# 1 86.9720 54.4252 57.7143 0.0000 0.0000 0.0000
# 2 54.4252 126.9521 74.0495 0.0000 0.0000 0.0000
# 3 57.7143 74.0495 121.7913 0.0000 0.0000 0.0000
# 4 0.0000 0.0000 0.0000 36.2428 0.0000 0.0000
# 5 0.0000 0.0000 0.0000 0.0000 35.9150 0.0000
# 6 0.0000 0.0000 0.0000 0.0000 0.0000 29.1686
#
#
#
# Elastic Compliance Matrix: (Units=1/GPa)
#
#
# Indices 1 2 3 4 5 6 
#
# 1 0.018162 -0.004286 -0.006001 0.000000 0.000000 0.000000
# 2 -0.004286 0.013217 -0.006005 0.000000 0.000000 0.000000
# 3 -0.006001 -0.006005 0.014705 0.000000 0.000000 0.000000
# 4 0.000000 0.000000 0.000000 0.027592 0.000000 0.000000
# 5 0.000000 0.000000 0.000000 0.000000 0.027844 0.000000
# 6 0.000000 0.000000 0.000000 0.000000 0.000000 0.034283
#
#
# Mechanical properties :
#
#
# Convention : Reuss Voigt Hill
#
# Bulk Modulus (GPa) = 74.06775 78.67702 76.37239
# Shear Modulus (GPa) = 28.92063 30.23370 29.57717
#
# Velocity S-wave (km/s) = 3.89283 3.98023 3.93677
# Velocity P-wave (km/s) = 7.68221 7.89614 7.78991
#
# Compressibility (1/GPa) = 0.01350115
#
# Stress axis : x y z
#
# Youngs Moduli (GPa) = 55.05969 75.65981 68.00245
#
# Poissons Ratio (x) = 0.32429 0.40806
# Poissons Ratio (y) = 0.23599 0.40835
# Poissons Ratio (z) = 0.33039 0.45433
#
# Static dielectric constant tensor:
#      x y z
#    x 3.811250 0.000000 0.000000 
#    y 0.000000 3.969890 0.000000 
#    z 0.000000 0.000000 3.606340 
# 
# 
# High freq. dielectric constant tensor:
#      x y z
#    x 1.753500 0.000000 0.000000 
#    y 0.000000 1.754060 0.000000 
#    z 0.000000 0.000000 1.750770 
# 
# From -- ./inp_files/6276.got.cif
#   From: 2010.03.12/outbox.cif.g09.slc.cpg/sg59_4_cif.got.tgz:6276.got - 2010.04.16 16:29:54.
