data_PCOD8246464
_publ_section_title
;
Structure prediction by ZEFSAII (Michael W. Deem and Ramdas Pophale) SiO2 
 PCOD8246464
Probable space group: P B C N
;
_chemical_formula_sum "Si O2"
_cell_formula_units_Z 64
_cell_length_a 13.201346
_cell_length_b 17.575074
_cell_length_c 14.902184
_cell_angle_alpha 90.000000
_cell_angle_beta 90.000000
_cell_angle_gamma 90.000000
_cell_volume 3457.524749
_symmetry_space_group_name_H-M "P B C N"
_symmetry_group_IT_number 60
_symmetry_cell_setting 'orthorhombic'
loop_
_space_group_symop_operation_xyz
x,y,z
1/2-x,1/2-y,1/2+z
1/2+x,1/2-y,-z
-x,y,1/2-z
-x,-y,-z
1/2+x,1/2+y,1/2-z
1/2-x,1/2+y,z
x,-y,1/2+z
loop_
_atom_site_type_symbol
_atom_site_label
_atom_site_fract_x
_atom_site_fract_y
_atom_site_fract_z
Si Si1 0.111444 0.908881 0.239013
Si Si2 0.119946 0.520308 0.096256
Si Si3 0.354739 0.374422 0.432298
Si Si4 0.283525 0.542256 0.462434
Si Si5 0.048389 0.593813 0.841961
Si Si6 0.216164 0.487952 0.778224
Si Si7 0.080490 0.835764 0.052331
Si Si8 0.139871 0.672320 0.992988
O O1 0.144372 0.859071 0.325395
O O2 0.113194 0.855062 0.153076
O O3 0.000000 0.943869 0.250000
O O4 0.183210 0.981729 0.228802
O O5 0.153075 0.547630 0.196568
O O6 0.019397 0.469390 0.106866
O O7 0.199729 0.468980 0.040302
O O8 0.099160 0.599229 0.047323
O O9 0.347099 0.464697 0.450561
O O10 0.461601 0.344603 0.470974
O O11 0.261323 0.330298 0.478250
O O12 0.237505 0.566344 0.364171
O O13 0.358196 0.610518 0.485250
O O14 0.157958 0.558705 0.822803
O O15 0.073596 0.667713 0.901683
O O16 0.000000 0.623445 0.750000
O O17 0.113031 0.748937 0.042716
#
# Coordination Sequence:
#
# PCOD8246464 Si02
#       8
#     8   8   8   8   8   8   8   8
#     4   9  17  34  59  81 106 150 195 234 284 348
#     4  10  20  36  61  87 113 153 198 237 282 349
#     4   9  20  40  58  79 115 149 199 243 276 346
#     4  10  19  35  64  83 112 151 197 242 278 344
#     4  10  20  36  62  83 113 157 196 235 284 349
#     4  10  18  36  57  90 109 148 205 240 277 335
#     4  11  22  36  59  89 112 157 190 234 308 351
#     4  11  22  39  56  87 125 151 183 248 298 345
#
# _framework density 18.510352999999999
#
# number of rings (size 3 to 8) (size 9 to 14) (size 15 to 20)
#    0.000    2.000    5.000    0.750    0.000    1.000 
#    2.250    4.375    2.750    0.000    0.000    0.000 
#    0.000    0.000    0.000    0.000    0.000    0.000 
#
# Total GULP energy -793156.153812 kJ/mol
# GULP energy per Si atom -12393.064903 kJ/mol
# Density = 1.846822 g / cm^3
# Si number density = 18.510353 Si / 1000 Ang^3
#
#
#
# Elastic Constant Matrix: (Units=GPa)
#
#
# Indices 1 2 3 4 5 6 
#
# 1 92.5933 27.9971 32.8425 0.0000 0.0000 0.0000
# 2 27.9971 53.7604 21.6711 0.0000 0.0000 0.0000
# 3 32.8425 21.6711 94.8952 0.0000 0.0000 0.0000
# 4 0.0000 0.0000 0.0000 17.6902 0.0000 0.0000
# 5 0.0000 0.0000 0.0000 0.0000 29.1685 0.0000
# 6 0.0000 0.0000 0.0000 0.0000 0.0000 20.1545
#
#
#
# Elastic Compliance Matrix: (Units=1/GPa)
#
#
# Indices 1 2 3 4 5 6 
#
# 1 0.013770 -0.005782 -0.003445 0.000000 0.000000 0.000000
# 2 -0.005782 0.022915 -0.003232 0.000000 0.000000 0.000000
# 3 -0.003445 -0.003232 0.012468 0.000000 0.000000 0.000000
# 4 0.000000 0.000000 0.000000 0.056528 0.000000 0.000000
# 5 0.000000 0.000000 0.000000 0.000000 0.034284 0.000000
# 6 0.000000 0.000000 0.000000 0.000000 0.000000 0.049617
#
#
# Mechanical properties :
#
#
# Convention : Reuss Voigt Hill
#
# Bulk Modulus (GPa) = 41.26306 45.14115 43.20210
# Shear Modulus (GPa) = 22.46381 23.98517 23.22449
#
# Velocity S-wave (km/s) = 3.48743 3.60359 3.54598
# Velocity P-wave (km/s) = 6.20939 6.46176 6.33683
#
# Compressibility (1/GPa) = 0.02423475
#
# Stress axis : x y z
#
# Youngs Moduli (GPa) = 72.61974 43.63919 80.20288
#
# Poissons Ratio (x) = 0.25234 0.27632
# Poissons Ratio (y) = 0.41992 0.25920
# Poissons Ratio (z) = 0.25020 0.14104
#
# Static dielectric constant tensor:
#      x y z
#    x 3.642330 0.000000 0.000000 
#    y 0.000000 2.887860 0.000000 
#    z 0.000000 0.000000 3.811380 
# 
# 
# High freq. dielectric constant tensor:
#      x y z
#    x 1.735810 0.000000 0.000000 
#    y 0.000000 1.664150 0.000000 
#    z 0.000000 0.000000 1.737330 
# 
# From -- ./inp_files/17057.got.cif
#   From: 2010.03.12/outbox.cif.g09.slc.cpg/sg60_9_cif.got.tgz:17057.got - 2010.04.10 18:46:24.
