data_PCOD8246792
_publ_section_title
;
Structure prediction by ZEFSAII (Michael W. Deem and Ramdas Pophale) SiO2 
 PCOD8246792
Probable space group: P B C N
;
_chemical_formula_sum "Si O2"
_cell_formula_units_Z 48
_cell_length_a 26.205480
_cell_length_b 12.028661
_cell_length_c 8.750535
_cell_angle_alpha 90.000000
_cell_angle_beta 90.000000
_cell_angle_gamma 90.000000
_cell_volume 2758.315950
_symmetry_space_group_name_H-M "P B C N"
_symmetry_group_IT_number 60
_symmetry_cell_setting 'orthorhombic'
loop_
_space_group_symop_operation_xyz
x,y,z
1/2-x,1/2-y,1/2+z
1/2+x,1/2-y,-z
-x,y,1/2-z
-x,-y,-z
1/2+x,1/2+y,1/2-z
1/2-x,1/2+y,z
x,-y,1/2+z
loop_
_atom_site_type_symbol
_atom_site_label
_atom_site_fract_x
_atom_site_fract_y
_atom_site_fract_z
Si Si1 0.603410 0.932608 0.365260
Si Si2 0.290538 0.570494 0.107861
Si Si3 0.316432 0.779814 0.279404
Si Si4 0.797300 0.146895 0.728212
Si Si5 0.536386 0.956892 0.630773
Si Si6 0.675704 0.140612 0.389070
O O1 0.642610 0.836256 0.330259
O O2 0.581378 0.897680 0.533579
O O3 0.560258 0.942923 0.233543
O O4 0.630114 0.054037 0.367651
O O5 0.313800 0.650576 0.237177
O O6 0.311475 0.448173 0.148511
O O7 0.228990 0.574275 0.114176
O O8 0.310682 0.606770 0.941975
O O9 0.262594 0.836524 0.247942
O O10 0.332411 0.793571 0.453818
O O11 0.826446 0.263126 0.759595
O O12 0.500000 0.885428 0.750000
O O13 0.500000 0.000000 0.500000
#
# Coordination Sequence:
#
# PCOD8246792 Si02
#       6
#     8   8   8   8   8   8
#     4  11  18  32  54  74 104 132 170 200 248 318
#     4  10  20  32  46  66 104 138 178 211 238 274
#     4  10  20  31  47  72  97 140 175 206 241 286
#     4  10  20  32  46  66 104 138 178 211 238 273
#     4   9  20  34  50  74 102 128 154 210 268 314
#     4  10  20  31  47  72  97 140 175 206 241 287
#
# _framework density 17.401921999999999
#
# number of rings (size 3 to 8) (size 9 to 14) (size 15 to 20)
#    0.000    2.000    3.333    1.000    2.333    1.333 
#    0.000    0.000    0.000    0.000    0.000    0.000 
#    0.000   26.667    0.000    0.000    0.000    0.000 
#
# Total GULP energy -594692.960649 kJ/mol
# GULP energy per Si atom -12389.436680 kJ/mol
# Density = 1.736231 g / cm^3
# Si number density = 17.401922 Si / 1000 Ang^3
#
#
#
# Elastic Constant Matrix: (Units=GPa)
#
#
# Indices 1 2 3 4 5 6 
#
# 1 54.1953 11.7992 23.5018 0.0000 0.0000 0.0000
# 2 11.7992 53.4070 15.8858 0.0000 0.0000 0.0000
# 3 23.5018 15.8858 82.0311 0.0000 0.0000 0.0000
# 4 0.0000 0.0000 0.0000 27.5995 0.0000 0.0000
# 5 0.0000 0.0000 0.0000 0.0000 34.6016 0.0000
# 6 0.0000 0.0000 0.0000 0.0000 0.0000 7.5069
#
#
#
# Elastic Compliance Matrix: (Units=1/GPa)
#
#
# Indices 1 2 3 4 5 6 
#
# 1 0.021543 -0.003102 -0.005571 0.000000 0.000000 0.000000
# 2 -0.003102 0.020315 -0.003045 0.000000 0.000000 0.000000
# 3 -0.005571 -0.003045 0.014376 0.000000 0.000000 0.000000
# 4 0.000000 0.000000 0.000000 0.036233 0.000000 0.000000
# 5 0.000000 0.000000 0.000000 0.000000 0.028900 0.000000
# 6 0.000000 0.000000 0.000000 0.000000 0.000000 0.133211
#
#
# Mechanical properties :
#
#
# Convention : Reuss Voigt Hill
#
# Bulk Modulus (GPa) = 30.49064 32.44521 31.46793
# Shear Modulus (GPa) = 17.30409 23.17138 20.23774
#
# Velocity S-wave (km/s) = 3.15680 3.65299 3.41392
# Velocity P-wave (km/s) = 5.55397 6.03966 5.80190
#
# Compressibility (1/GPa) = 0.03279695
#
# Stress axis : x y z
#
# Youngs Moduli (GPa) = 46.41834 49.22378 69.55835
#
# Poissons Ratio (x) = 0.15271 0.38753
# Poissons Ratio (y) = 0.14401 0.21183
# Poissons Ratio (z) = 0.25861 0.14990
#
# Static dielectric constant tensor:
#      x y z
#    x 3.375230 0.000000 0.000000 
#    y 0.000000 3.027080 0.000000 
#    z 0.000000 0.000000 3.732390 
# 
# 
# High freq. dielectric constant tensor:
#      x y z
#    x 1.644290 0.000000 0.000000 
#    y 0.000000 1.638380 0.000000 
#    z 0.000000 0.000000 1.700060 
# 
# From -- ./inp_files/7835.got.cif
#   From: 2010.03.12/outbox.cif.g09.slc.cpg/sg60_4_cif.got.tgz:7835.got - 2010.04.10 18:46:24.
