data_PCOD8246967
_publ_section_title
;
Structure prediction by ZEFSAII (Michael W. Deem and Ramdas Pophale) SiO2 
 PCOD8246967
Probable space group: P B C N
;
_chemical_formula_sum "Si O2"
_cell_formula_units_Z 64
_cell_length_a 8.656770
_cell_length_b 15.483157
_cell_length_c 22.191001
_cell_angle_alpha 90.000000
_cell_angle_beta 90.000000
_cell_angle_gamma 90.000000
_cell_volume 2974.351491
_symmetry_space_group_name_H-M "P B C N"
_symmetry_group_IT_number 60
_symmetry_cell_setting 'orthorhombic'
loop_
_space_group_symop_operation_xyz
x,y,z
1/2-x,1/2-y,1/2+z
1/2+x,1/2-y,-z
-x,y,1/2-z
-x,-y,-z
1/2+x,1/2+y,1/2-z
1/2-x,1/2+y,z
x,-y,1/2+z
loop_
_atom_site_type_symbol
_atom_site_label
_atom_site_fract_x
_atom_site_fract_y
_atom_site_fract_z
Si Si1 0.088199 0.608542 0.370668
Si Si2 0.621809 0.808738 0.297938
Si Si3 0.818540 0.336940 0.747268
Si Si4 0.650010 0.836907 0.962794
Si Si5 0.338006 0.496418 0.063960
Si Si6 0.049964 0.735377 0.565943
Si Si7 0.334716 0.997713 0.183933
Si Si8 0.135408 0.094407 0.449542
O O1 0.204227 0.661752 0.325332
O O2 0.199802 0.571738 0.421293
O O3 0.952876 0.666732 0.401364
O O4 0.005890 0.528373 0.336454
O O5 0.500000 0.770938 0.250000
O O6 0.765989 0.746305 0.284825
O O7 0.565770 0.804335 0.367201
O O8 0.654967 0.908088 0.279320
O O9 0.752907 0.425491 0.777818
O O10 0.000000 0.339215 0.750000
O O11 0.738413 0.927745 0.967392
O O12 0.781019 0.762212 0.959734
O O13 0.534251 0.830275 0.019903
O O14 0.271947 0.471728 0.128104
O O15 0.516457 0.521348 0.071893
O O16 0.335065 0.411603 0.021663
O O17 0.932388 0.814561 0.570061
#
# Coordination Sequence:
#
# PCOD8246967 Si02
#       8
#     8   8   8   8   8   8   8   8
#     4  10  20  37  67  87 120 166 211 255 321 386
#     4  12  25  41  66  95 126 167 220 265 318 389
#     4  10  21  44  64  87 124 167 206 259 320 377
#     4  10  22  38  61  95 124 167 209 262 334 381
#     4   9  21  39  58  88 124 163 206 255 320 382
#     4  11  23  38  60  93 131 164 211 273 320 385
#     4  10  23  41  64  91 127 166 210 265 319 378
#     4  10  20  37  60  90 123 162 207 260 318 381
#
# _framework density 21.517294
#
# number of rings (size 3 to 8) (size 9 to 14) (size 15 to 20)
#    0.000    1.750    0.000    5.625    5.250    1.000 
#    0.000    3.125    0.000    0.000    0.000    0.000 
#    0.000    0.000    0.000    0.000    0.000    0.000 
#
# Total GULP energy -793092.361007 kJ/mol
# GULP energy per Si atom -12392.068141 kJ/mol
# Density = 2.146832 g / cm^3
# Si number density = 21.517294 Si / 1000 Ang^3
#
#
#
# Elastic Constant Matrix: (Units=GPa)
#
#
# Indices 1 2 3 4 5 6 
#
# 1 88.6634 21.1083 37.0146 0.0000 0.0000 0.0000
# 2 21.1083 82.9991 18.3387 0.0000 0.0000 0.0000
# 3 37.0146 18.3387 92.3359 0.0000 0.0000 0.0000
# 4 0.0000 0.0000 0.0000 17.2699 0.0000 0.0000
# 5 0.0000 0.0000 0.0000 0.0000 35.4085 0.0000
# 6 0.0000 0.0000 0.0000 0.0000 0.0000 30.1470
#
#
#
# Elastic Compliance Matrix: (Units=1/GPa)
#
#
# Indices 1 2 3 4 5 6 
#
# 1 0.013998 -0.002427 -0.005129 0.000000 0.000000 0.000000
# 2 -0.002427 0.013022 -0.001614 0.000000 0.000000 0.000000
# 3 -0.005129 -0.001614 0.013207 0.000000 0.000000 0.000000
# 4 0.000000 0.000000 0.000000 0.057904 0.000000 0.000000
# 5 0.000000 0.000000 0.000000 0.000000 0.028242 0.000000
# 6 0.000000 0.000000 0.000000 0.000000 0.000000 0.033171
#
#
# Mechanical properties :
#
#
# Convention : Reuss Voigt Hill
#
# Bulk Modulus (GPa) = 45.68816 46.32459 46.00638
# Shear Modulus (GPa) = 27.00107 29.06752 28.03430
#
# Velocity S-wave (km/s) = 3.54624 3.67943 3.61345
# Velocity P-wave (km/s) = 6.16823 6.29498 6.23192
#
# Compressibility (1/GPa) = 0.02188751
#
# Stress axis : x y z
#
# Youngs Moduli (GPa) = 71.44059 76.79340 75.71936
#
# Poissons Ratio (x) = 0.18634 0.38839
# Poissons Ratio (y) = 0.17335 0.12218
# Poissons Ratio (z) = 0.36644 0.12391
#
# Static dielectric constant tensor:
#      x y z
#    x 3.900010 0.000000 0.000000 
#    y 0.000000 3.706650 0.000000 
#    z 0.000000 0.000000 -26.344030 
# 
# 
# High freq. dielectric constant tensor:
#      x y z
#    x 1.844740 0.000000 0.000000 
#    y 0.000000 1.828020 0.000000 
#    z 0.000000 0.000000 1.853590 
# 
# From -- ./inp_files/24101.got.cif
#   From: 2010.03.12/outbox.cif.g09.slc.cpg/sg60_13_cif.got.tgz:24101.got - 2010.04.10 18:46:24.
