data_PCOD8246820
_publ_section_title
;
Structure prediction by ZEFSAII (Michael W. Deem and Ramdas Pophale) SiO2 
 PCOD8246820
Probable space group: P B C N
;
_chemical_formula_sum "Si O2"
_cell_formula_units_Z 64
_cell_length_a 22.144346
_cell_length_b 18.163318
_cell_length_c 9.030341
_cell_angle_alpha 90.000000
_cell_angle_beta 90.000000
_cell_angle_gamma 90.000000
_cell_volume 3632.136784
_symmetry_space_group_name_H-M "P B C N"
_symmetry_group_IT_number 60
_symmetry_cell_setting 'orthorhombic'
loop_
_space_group_symop_operation_xyz
x,y,z
1/2-x,1/2-y,1/2+z
1/2+x,1/2-y,-z
-x,y,1/2-z
-x,-y,-z
1/2+x,1/2+y,1/2-z
1/2-x,1/2+y,z
x,-y,1/2+z
loop_
_atom_site_type_symbol
_atom_site_label
_atom_site_fract_x
_atom_site_fract_y
_atom_site_fract_z
Si Si1 0.434920 0.928203 0.202089
Si Si2 0.309264 0.285137 0.557198
Si Si3 0.635744 0.143224 0.025265
Si Si4 0.566980 0.100575 0.288737
Si Si5 0.637571 0.144803 0.560554
Si Si6 0.733533 0.420585 0.085893
Si Si7 0.263754 0.575975 0.559318
Si Si8 0.304000 0.289913 0.905355
O O1 0.500000 0.898485 0.250000
O O2 0.380637 0.883177 0.278047
O O3 0.428684 0.013631 0.236860
O O4 0.421603 0.905701 0.032908
O O5 0.364852 0.227746 0.535434
O O6 0.317763 0.363368 0.473534
O O7 0.295661 0.299592 0.729352
O O8 0.256219 0.243484 0.472767
O O9 0.620066 0.142912 0.199403
O O10 0.697205 0.099517 0.992152
O O11 0.500000 0.129731 0.250000
O O12 0.582962 0.118032 0.457693
O O13 0.702250 0.108577 0.524018
O O14 0.641317 0.233799 0.560388
O O15 0.731308 0.425406 0.263325
O O16 0.719693 0.497708 0.009528
O O17 0.313281 0.632034 0.488120
#
# Coordination Sequence:
#
# PCOD8246820 Si02
#       8
#     8   8   8   8   8   8   8   8
#     4  11  20  36  51  70 101 137 180 225 254 296
#     4  10  20  34  51  74 102 136 175 214 257 309
#     4  11  21  34  52  72 103 141 179 210 261 304
#     4  11  24  34  49  74 103 141 182 225 258 290
#     4  11  21  34  52  72 103 141 179 210 261 304
#     4  11  22  34  54  80 106 136 171 210 259 316
#     4  11  22  34  54  80 106 136 171 210 259 316
#     4  10  20  34  51  74 102 136 175 214 257 309
#
# _framework density 17.620481000000002
#
# number of rings (size 3 to 8) (size 9 to 14) (size 15 to 20)
#    0.000    1.250    2.500    6.000   10.500    2.000 
#    0.000    0.000    0.000    0.000    0.000    0.000 
#    0.000    6.000    0.000    0.000    0.000    0.000 
#
# Total GULP energy -793262.505651 kJ/mol
# GULP energy per Si atom -12394.726651 kJ/mol
# Density = 1.758038 g / cm^3
# Si number density = 17.620481 Si / 1000 Ang^3
#
#
#
# Elastic Constant Matrix: (Units=GPa)
#
#
# Indices 1 2 3 4 5 6 
#
# 1 39.3551 31.0114 18.0611 0.0000 0.0000 0.0000
# 2 31.0114 135.9336 43.0553 0.0000 0.0000 0.0000
# 3 18.0611 43.0553 99.0897 0.0000 0.0000 0.0000
# 4 0.0000 0.0000 0.0000 35.1108 0.0000 0.0000
# 5 0.0000 0.0000 0.0000 0.0000 19.8286 0.0000
# 6 0.0000 0.0000 0.0000 0.0000 0.0000 20.7973
#
#
#
# Elastic Compliance Matrix: (Units=1/GPa)
#
#
# Indices 1 2 3 4 5 6 
#
# 1 0.031760 -0.006276 -0.003062 0.000000 0.000000 0.000000
# 2 -0.006276 0.009771 -0.003102 0.000000 0.000000 0.000000
# 3 -0.003062 -0.003102 0.011998 0.000000 0.000000 0.000000
# 4 0.000000 0.000000 0.000000 0.028481 0.000000 0.000000
# 5 0.000000 0.000000 0.000000 0.000000 0.050432 0.000000
# 6 0.000000 0.000000 0.000000 0.000000 0.000000 0.048083
#
#
# Mechanical properties :
#
#
# Convention : Reuss Voigt Hill
#
# Bulk Modulus (GPa) = 34.90436 50.95934 42.93185
# Shear Modulus (GPa) = 23.26082 27.29739 25.27910
#
# Velocity S-wave (km/s) = 3.63726 3.94024 3.79178
# Velocity P-wave (km/s) = 6.12303 7.04868 6.60210
#
# Compressibility (1/GPa) = 0.02864971
#
# Stress axis : x y z
#
# Youngs Moduli (GPa) = 31.48595 102.34748 83.34982
#
# Poissons Ratio (x) = 0.64231 0.25522
# Poissons Ratio (y) = 0.19760 0.25851
# Poissons Ratio (z) = 0.09641 0.31743
#
# Static dielectric constant tensor:
#      x y z
#    x 3.019210 0.000000 0.000000 
#    y 0.000000 4.063650 0.000000 
#    z 0.000000 0.000000 3.416480 
# 
# 
# High freq. dielectric constant tensor:
#      x y z
#    x 1.629160 0.000000 0.000000 
#    y 0.000000 1.681030 0.000000 
#    z 0.000000 0.000000 1.707570 
# 
# From -- ./inp_files/8040.got.cif
#   From: 2010.03.12/outbox.cif.g09.slc.cpg/sg60_5_cif.got.tgz:8040.got - 2010.04.10 18:46:24.
