data_PCOD8246990
_publ_section_title
;
Structure prediction by ZEFSAII (Michael W. Deem and Ramdas Pophale) SiO2 
 PCOD8246990
Probable space group: P B C N
;
_chemical_formula_sum "Si O2"
_cell_formula_units_Z 60
_cell_length_a 25.126260
_cell_length_b 20.803691
_cell_length_c 5.125940
_cell_angle_alpha 90.000000
_cell_angle_beta 90.000000
_cell_angle_gamma 90.000000
_cell_volume 2679.425970
_symmetry_space_group_name_H-M "P B C N"
_symmetry_group_IT_number 60
_symmetry_cell_setting 'orthorhombic'
loop_
_space_group_symop_operation_xyz
x,y,z
1/2-x,1/2-y,1/2+z
1/2+x,1/2-y,-z
-x,y,1/2-z
-x,-y,-z
1/2+x,1/2+y,1/2-z
1/2-x,1/2+y,z
x,-y,1/2+z
loop_
_atom_site_type_symbol
_atom_site_label
_atom_site_fract_x
_atom_site_fract_y
_atom_site_fract_z
Si Si1 0.421555 0.749159 0.136561
Si Si2 0.226308 0.166713 0.814636
Si Si3 0.297572 0.958078 0.373785
Si Si4 0.811457 0.222423 0.190180
Si Si5 0.500000 0.143988 0.750000
Si Si6 0.079959 0.458294 0.381600
Si Si7 0.941355 0.174885 0.854628
Si Si8 0.063427 0.965181 0.234282
O O1 0.364486 0.765139 0.266422
O O2 0.459369 0.810888 0.087981
O O3 0.446633 0.700196 0.349319
O O4 0.410785 0.721030 0.848646
O O5 0.259319 0.100959 0.804149
O O6 0.264167 0.228063 0.818100
O O7 0.186781 0.177499 0.568651
O O8 0.193028 0.169591 0.080255
O O9 0.358951 0.933954 0.377871
O O10 0.286332 0.987126 0.658932
O O11 0.461212 0.100385 0.929544
O O12 0.068084 0.510713 0.601290
O O13 0.914416 0.104791 0.845503
O O14 0.000000 0.167716 0.750000
O O15 0.000000 0.967410 0.250000
O O16 0.085916 0.985857 0.515662
#
# Coordination Sequence:
#
# PCOD8246990 Si02
#       8
#     8   8   8   8   4   8   8   8
#     4  12  24  38  58  87 121 163 202 251 304 357
#     4  10  20  40  63  89 118 152 199 250 312 368
#     4  10  20  37  64  96 125 160 201 248 305 379
#     4  10  22  38  62  87 117 156 201 254 304 361
#     4  12  24  40  62  86 126 172 214 248 296 364
#     4  10  23  40  60  90 128 165 207 252 297 351
#     4  11  21  38  54  81 118 149 195 249 294 355
#     4   9  17  30  53  76  95 132 182 230 282 336
#
# _framework density 22.392858
#
# number of rings (size 3 to 8) (size 9 to 14) (size 15 to 20)
#    0.000    1.600    1.333    3.600    0.000    4.267 
#    0.000    5.333    0.000   16.000    0.000    0.000 
#    0.000    0.000    0.000    0.000    0.000    0.000 
#
# Total GULP energy -743587.130250 kJ/mol
# GULP energy per Si atom -12393.118837 kJ/mol
# Density = 2.234189 g / cm^3
# Si number density = 22.392858 Si / 1000 Ang^3
#
#
#
# Elastic Constant Matrix: (Units=GPa)
#
#
# Indices 1 2 3 4 5 6 
#
# 1 58.9516 20.8388 17.0130 0.0000 0.0000 0.0000
# 2 20.8388 94.1782 27.3406 0.0000 0.0000 0.0000
# 3 17.0130 27.3406 119.1649 0.0000 0.0000 0.0000
# 4 0.0000 0.0000 0.0000 17.7924 0.0000 0.0000
# 5 0.0000 0.0000 0.0000 0.0000 27.5965 0.0000
# 6 0.0000 0.0000 0.0000 0.0000 0.0000 24.3363
#
#
#
# Elastic Compliance Matrix: (Units=1/GPa)
#
#
# Indices 1 2 3 4 5 6 
#
# 1 0.018776 -0.003617 -0.001851 0.000000 0.000000 0.000000
# 2 -0.003617 0.012073 -0.002253 0.000000 0.000000 0.000000
# 3 -0.001851 -0.002253 0.009173 0.000000 0.000000 0.000000
# 4 0.000000 0.000000 0.000000 0.056204 0.000000 0.000000
# 5 0.000000 0.000000 0.000000 0.000000 0.036236 0.000000
# 6 0.000000 0.000000 0.000000 0.000000 0.000000 0.041091
#
#
# Mechanical properties :
#
#
# Convention : Reuss Voigt Hill
#
# Bulk Modulus (GPa) = 40.68559 44.74216 42.71387
# Shear Modulus (GPa) = 25.35644 27.75185 26.55415
#
# Velocity S-wave (km/s) = 3.36868 3.52421 3.44733
# Velocity P-wave (km/s) = 5.77401 6.04847 5.91283
#
# Compressibility (1/GPa) = 0.02457873
#
# Stress axis : x y z
#
# Youngs Moduli (GPa) = 53.26003 82.83107 109.01579
#
# Poissons Ratio (x) = 0.29962 0.20175
# Poissons Ratio (y) = 0.19265 0.24567
# Poissons Ratio (z) = 0.09857 0.18666
#
# Static dielectric constant tensor:
#      x y z
#    x 3.998360 0.000000 0.000000 
#    y 0.000000 3.929660 0.000000 
#    z 0.000000 0.000000 4.439020 
# 
# 
# High freq. dielectric constant tensor:
#      x y z
#    x 1.874830 0.000000 0.000000 
#    y 0.000000 1.868420 0.000000 
#    z 0.000000 0.000000 1.890980 
# 
# From -- ./inp_files/2604.got.cif
#   From: 2010.03.12/outbox.cif.g09.slc.cpg/sg60_2_cif.got.tgz:2604.got - 2010.04.10 18:46:24.
