data_PCOD8246055
_publ_section_title
;
Structure prediction by ZEFSAII (Michael W. Deem and Ramdas Pophale) SiO2 
 PCOD8246055
Probable space group: P M M N
;
_chemical_formula_sum "Si O2"
_cell_formula_units_Z 48
_cell_length_a 15.397886
_cell_length_b 16.559635
_cell_length_c 9.157911
_cell_angle_alpha 90.000000
_cell_angle_beta 90.000000
_cell_angle_gamma 90.000000
_cell_volume 2335.115027
_symmetry_space_group_name_H-M "P M M N"
_symmetry_group_IT_number 59
_space_group.IT_coordinate_system_code '2'
_symmetry_cell_setting 'orthorhombic'
loop_
_space_group_symop_operation_xyz
x,y,z
1/2-x,1/2-y,z
1/2+x,-y,-z
-x,1/2+y,-z
-x,-y,-z
1/2+x,1/2+y,-z
1/2-x,y,z
x,1/2-y,z
loop_
_atom_site_type_symbol
_atom_site_label
_atom_site_fract_x
_atom_site_fract_y
_atom_site_fract_z
Si Si1 0.842688 0.840415 0.909759
Si Si2 0.153658 0.094569 0.796797
Si Si3 0.000720 0.342394 0.266793
Si Si4 0.415083 0.550463 0.949864
Si Si5 0.002200 0.911520 0.429653
Si Si6 0.147735 0.845937 0.221794
O O1 0.750000 0.885278 0.889145
O O2 0.834793 0.750000 0.852132
O O3 0.913648 0.882809 0.807721
O O4 0.867928 0.837137 0.082087
O O5 0.250000 0.106189 0.727090
O O6 0.080849 0.098062 0.673795
O O7 0.155476 0.013610 0.895712
O O8 0.987883 0.250000 0.219395
O O9 0.925421 0.395365 0.195809
O O10 0.005909 0.347395 0.440446
O O11 0.500000 0.500000 0.000000
O O12 0.378277 0.609741 0.072782
O O13 0.091823 0.890269 0.347878
O O14 0.000000 0.000000 0.500000
O O15 0.250000 0.858103 0.255267
O O16 0.125714 0.750000 0.212740
#
# Coordination Sequence:
#
# PCOD8246055 Si02
#       6
#     8   8   8   8   8   8
#     4   9  19  36  58  88 122 156 202 259 316 374
#     4  11  23  39  64  92 123 164 212 265 319 382
#     4  11  22  37  62  90 123 168 208 254 315 378
#     4  12  20  41  65  95 127 163 214 271 329 381
#     4  12  24  43  62  90 133 171 214 263 322 388
#     4  11  25  45  70  98 131 175 223 272 328 393
#
# _framework density 20.555731999999999
#
# number of rings (size 3 to 8) (size 9 to 14) (size 15 to 20)
#    0.000    1.000    5.000    1.500    0.000    4.000 
#    0.000    0.000    0.000    3.000    0.000    0.000 
#    0.000    0.000    0.000    0.000    0.000    0.000 
#
# Total GULP energy -594714.834660 kJ/mol
# GULP energy per Si atom -12389.892389 kJ/mol
# Density = 2.050895 g / cm^3
# Si number density = 20.555732 Si / 1000 Ang^3
#
#
#
# Elastic Constant Matrix: (Units=GPa)
#
#
# Indices 1 2 3 4 5 6 
#
# 1 122.8786 30.4502 60.2410 0.0000 0.0000 0.0000
# 2 30.4502 85.9716 19.7827 0.0000 0.0000 0.0000
# 3 60.2410 19.7827 119.8645 0.0000 0.0000 0.0000
# 4 0.0000 0.0000 0.0000 40.1240 0.0000 0.0000
# 5 0.0000 0.0000 0.0000 0.0000 28.7017 0.0000
# 6 0.0000 0.0000 0.0000 0.0000 0.0000 24.5545
#
#
#
# Elastic Compliance Matrix: (Units=1/GPa)
#
#
# Indices 1 2 3 4 5 6 
#
# 1 0.011426 -0.002833 -0.005275 0.000000 0.000000 0.000000
# 2 -0.002833 0.012793 -0.000688 0.000000 0.000000 0.000000
# 3 -0.005275 -0.000688 0.011107 0.000000 0.000000 0.000000
# 4 0.000000 0.000000 0.000000 0.024923 0.000000 0.000000
# 5 0.000000 0.000000 0.000000 0.000000 0.034841 0.000000
# 6 0.000000 0.000000 0.000000 0.000000 0.000000 0.040726
#
#
# Mechanical properties :
#
#
# Convention : Reuss Voigt Hill
#
# Bulk Modulus (GPa) = 56.38402 61.07362 58.72882
# Shear Modulus (GPa) = 31.38340 33.22543 32.30441
#
# Velocity S-wave (km/s) = 3.91160 4.02476 3.96858
# Velocity P-wave (km/s) = 6.92027 7.16756 7.04500
#
# Compressibility (1/GPa) = 0.01773552
#
# Stress axis : x y z
#
# Youngs Moduli (GPa) = 87.51781 78.16489 90.03093
#
# Poissons Ratio (x) = 0.22146 0.47491
# Poissons Ratio (y) = 0.24796 0.06190
# Poissons Ratio (z) = 0.46165 0.05374
#
# Static dielectric constant tensor:
#      x y z
#    x 3.999200 0.000000 0.000000 
#    y 0.000000 3.942600 0.000000 
#    z 0.000000 0.000000 3.779470 
# 
# 
# High freq. dielectric constant tensor:
#      x y z
#    x 1.803950 0.000000 0.000000 
#    y 0.000000 1.813520 0.000000 
#    z 0.000000 0.000000 1.800940 
# 
# From -- ./inp_files/9056.got.cif
#   From: 2010.03.12/outbox.cif.g09.slc.cpg/sg59_5_cif.got.tgz:9056.got - 2010.04.16 16:29:54.
