data_PCOD8246617
_publ_section_title
;
Structure prediction by ZEFSAII (Michael W. Deem and Ramdas Pophale) SiO2 
 PCOD8246617
Probable space group: P B C N
;
_chemical_formula_sum "Si O2"
_cell_formula_units_Z 32
_cell_length_a 7.748977
_cell_length_b 34.709884
_cell_length_c 5.150359
_cell_angle_alpha 90.000000
_cell_angle_beta 90.000000
_cell_angle_gamma 90.000000
_cell_volume 1385.271937
_symmetry_space_group_name_H-M "P B C N"
_symmetry_group_IT_number 60
_symmetry_cell_setting 'orthorhombic'
loop_
_space_group_symop_operation_xyz
x,y,z
1/2-x,1/2-y,1/2+z
1/2+x,1/2-y,-z
-x,y,1/2-z
-x,-y,-z
1/2+x,1/2+y,1/2-z
1/2-x,1/2+y,z
x,-y,1/2+z
loop_
_atom_site_type_symbol
_atom_site_label
_atom_site_fract_x
_atom_site_fract_y
_atom_site_fract_z
Si Si1 0.704198 0.143139 0.744198
Si Si2 0.197731 0.728458 0.819267
Si Si3 0.294930 0.097769 0.257778
Si Si4 0.308370 0.515900 0.436204
O O1 0.500000 0.145074 0.750000
O O2 0.781053 0.185727 0.692958
O O3 0.768975 0.114148 0.518682
O O4 0.764200 0.128381 0.024784
O O5 0.291695 0.755811 0.612126
O O6 0.000000 0.725914 0.750000
O O7 0.500000 0.090083 0.250000
O O8 0.193074 0.058980 0.327135
O O9 0.500000 0.500000 0.500000
O O10 0.214020 0.489086 0.215396
#
# Coordination Sequence:
#
# PCOD8246617 Si02
#       4
#     8   8   8   8
#     4   9  19  35  58  88 114 154 195 245 310 354
#     4  11  22  39  66  92 131 169 211 261 315 382
#     4  10  19  34  58  84 111 143 201 254 292 355
#     4  10  21  36  55  75 110 149 191 232 306 364
#
# _framework density 23.100155999999998
#
# number of rings (size 3 to 8) (size 9 to 14) (size 15 to 20)
#    0.000    2.000    0.000    3.750    0.000    5.000 
#    0.000    0.000   55.000    0.000    0.000    0.000 
#    0.000    0.000    0.000    0.000    0.000    0.000 
#
# Total GULP energy -396572.529940 kJ/mol
# GULP energy per Si atom -12392.891561 kJ/mol
# Density = 2.304758 g / cm^3
# Si number density = 23.100156 Si / 1000 Ang^3
#
#
#
# Elastic Constant Matrix: (Units=GPa)
#
#
# Indices 1 2 3 4 5 6 
#
# 1 35.4151 20.2405 7.2181 0.0000 0.0000 0.0000
# 2 20.2405 176.1133 56.5056 0.0000 0.0000 0.0000
# 3 7.2181 56.5056 181.2842 0.0000 0.0000 0.0000
# 4 0.0000 0.0000 0.0000 51.1706 0.0000 0.0000
# 5 0.0000 0.0000 0.0000 0.0000 18.1554 0.0000
# 6 0.0000 0.0000 0.0000 0.0000 0.0000 23.6487
#
#
#
# Elastic Compliance Matrix: (Units=1/GPa)
#
#
# Indices 1 2 3 4 5 6 
#
# 1 0.030225 -0.003431 -0.000134 0.000000 0.000000 0.000000
# 2 -0.003431 0.006699 -0.001951 0.000000 0.000000 0.000000
# 3 -0.000134 -0.001951 0.006130 0.000000 0.000000 0.000000
# 4 0.000000 0.000000 0.000000 0.019542 0.000000 0.000000
# 5 0.000000 0.000000 0.000000 0.000000 0.055080 0.000000
# 6 0.000000 0.000000 0.000000 0.000000 0.000000 0.042286
#
#
# Mechanical properties :
#
#
# Convention : Reuss Voigt Hill
#
# Bulk Modulus (GPa) = 31.22984 62.30457 46.76721
# Shear Modulus (GPa) = 27.52292 39.18482 33.35387
#
# Velocity S-wave (km/s) = 3.45550 4.12309 3.80397
# Velocity P-wave (km/s) = 5.42856 7.04957 6.29149
#
# Compressibility (1/GPa) = 0.03202066
#
# Stress axis : x y z
#
# Youngs Moduli (GPa) = 33.08571 149.28686 163.13868
#
# Poissons Ratio (x) = 0.51215 0.02188
# Poissons Ratio (y) = 0.11351 0.31833
# Poissons Ratio (z) = 0.00444 0.29130
#
# Static dielectric constant tensor:
#      x y z
#    x 3.555020 0.000000 0.000000 
#    y 0.000000 4.424810 0.000000 
#    z 0.000000 0.000000 -1.420400 
# 
# 
# High freq. dielectric constant tensor:
#      x y z
#    x 1.870870 0.000000 0.000000 
#    y 0.000000 1.919570 0.000000 
#    z 0.000000 0.000000 1.944570 
# 
# From -- ./inp_files/424.got.cif
#   From: 2010.03.12/outbox.cif.g09.slc.cpg/sg60_1_cif.got.tgz:424.got - 2010.04.10 18:46:24.
