data_PCOD8246353
_publ_section_title
;
Structure prediction by ZEFSAII (Michael W. Deem and Ramdas Pophale) SiO2 
 PCOD8246353
Probable space group: P B C N
;
_chemical_formula_sum "Si O2"
_cell_formula_units_Z 60
_cell_length_a 14.741263
_cell_length_b 12.240114
_cell_length_c 16.596810
_cell_angle_alpha 90.000000
_cell_angle_beta 90.000000
_cell_angle_gamma 90.000000
_cell_volume 2994.641091
_symmetry_space_group_name_H-M "P B C N"
_symmetry_group_IT_number 60
_symmetry_cell_setting 'orthorhombic'
loop_
_space_group_symop_operation_xyz
x,y,z
1/2-x,1/2-y,1/2+z
1/2+x,1/2-y,-z
-x,y,1/2-z
-x,-y,-z
1/2+x,1/2+y,1/2-z
1/2-x,1/2+y,z
x,-y,1/2+z
loop_
_atom_site_type_symbol
_atom_site_label
_atom_site_fract_x
_atom_site_fract_y
_atom_site_fract_z
Si Si1 0.811923 0.597671 0.357655
Si Si2 0.271603 0.733471 0.778685
Si Si3 0.495744 0.965833 0.161829
Si Si4 0.052407 0.302947 0.834821
Si Si5 0.656069 0.452526 0.327990
Si Si6 0.500000 0.588767 0.250000
Si Si7 0.582604 0.250278 0.627498
Si Si8 0.596203 0.277216 0.446346
O O1 0.796438 0.657513 0.272081
O O2 0.719798 0.535305 0.376831
O O3 0.824842 0.689938 0.425647
O O4 0.895906 0.512212 0.358455
O O5 0.353803 0.736258 0.843104
O O6 0.278398 0.624715 0.725264
O O7 0.174863 0.735119 0.821713
O O8 0.500000 0.911597 0.250000
O O9 0.531174 0.864923 0.107571
O O10 0.566954 0.066212 0.160290
O O11 0.000000 0.273223 0.750000
O O12 0.997829 0.272033 0.914767
O O13 0.585802 0.512975 0.269379
O O14 0.605121 0.389583 0.398300
O O15 0.481813 0.665216 0.326766
O O16 0.601190 0.302695 0.540602
#
# Coordination Sequence:
#
# PCOD8246353 Si02
#       8
#     8   8   8   8   8   4   8   8
#     4  10  20  39  67  93 120 170 224 262 312 387
#     4  11  21  40  67  95 124 172 229 263 307 400
#     4  10  18  36  66  90 122 166 209 269 310 371
#     4  10  17  39  68  89 119 173 227 255 314 394
#     4  11  22  42  68  90 126 181 217 261 325 392
#     4  12  26  42  70  92 130 176 218 262 334 398
#     4  12  26  41  61 105 137 162 215 280 327 379
#     4  10  24  44  61  96 134 165 216 272 329 383
#
# _framework density 20.035789999999999
#
# number of rings (size 3 to 8) (size 9 to 14) (size 15 to 20)
#    0.000    1.333    7.333    1.600    0.000    2.667 
#    9.600    0.000    0.000    0.000    0.000    0.000 
#    0.000    0.000    0.000    0.000    0.000    0.000 
#
# Total GULP energy -743653.852387 kJ/mol
# GULP energy per Si atom -12394.230873 kJ/mol
# Density = 1.999019 g / cm^3
# Si number density = 20.035790 Si / 1000 Ang^3
#
#
#
# Elastic Constant Matrix: (Units=GPa)
#
#
# Indices 1 2 3 4 5 6 
#
# 1 81.2185 38.4651 18.2633 0.0000 0.0000 0.0000
# 2 38.4651 90.6652 28.0620 0.0000 0.0000 0.0000
# 3 18.2633 28.0620 102.1810 0.0000 0.0000 0.0000
# 4 0.0000 0.0000 0.0000 13.2218 0.0000 0.0000
# 5 0.0000 0.0000 0.0000 0.0000 21.8109 0.0000
# 6 0.0000 0.0000 0.0000 0.0000 0.0000 35.2559
#
#
#
# Elastic Compliance Matrix: (Units=1/GPa)
#
#
# Indices 1 2 3 4 5 6 
#
# 1 0.015512 -0.006254 -0.001055 0.000000 0.000000 0.000000
# 2 -0.006254 0.014576 -0.002885 0.000000 0.000000 0.000000
# 3 -0.001055 -0.002885 0.010767 0.000000 0.000000 0.000000
# 4 0.000000 0.000000 0.000000 0.075633 0.000000 0.000000
# 5 0.000000 0.000000 0.000000 0.000000 0.045849 0.000000
# 6 0.000000 0.000000 0.000000 0.000000 0.000000 0.028364
#
#
# Mechanical properties :
#
#
# Convention : Reuss Voigt Hill
#
# Bulk Modulus (GPa) = 48.86051 49.29393 49.07722
# Shear Modulus (GPa) = 22.94507 26.67601 24.81054
#
# Velocity S-wave (km/s) = 3.38776 3.65282 3.52278
# Velocity P-wave (km/s) = 6.30413 6.51515 6.41051
#
# Compressibility (1/GPa) = 0.02046643
#
# Stress axis : x y z
#
# Youngs Moduli (GPa) = 64.46718 68.60563 92.87267
#
# Poissons Ratio (x) = 0.42909 0.09796
# Poissons Ratio (y) = 0.40321 0.26795
# Poissons Ratio (z) = 0.06800 0.19794
#
# Static dielectric constant tensor:
#      x y z
#    x 3.707550 0.000000 0.000000 
#    y 0.000000 3.757610 0.000000 
#    z 0.000000 0.000000 3.342930 
# 
# 
# High freq. dielectric constant tensor:
#      x y z
#    x 1.779790 0.000000 0.000000 
#    y 0.000000 1.792610 0.000000 
#    z 0.000000 0.000000 1.749280 
# 
# From -- ./inp_files/20631.got.cif
#   From: 2010.03.12/outbox.cif.g09.slc.cpg/sg60_11_cif.got.tgz:20631.got - 2010.04.10 18:46:24.
