data_PCOD8246007
_publ_section_title
;
Structure prediction by ZEFSAII (Michael W. Deem and Ramdas Pophale) SiO2 
 PCOD8246007
Probable space group: P M M N
;
_chemical_formula_sum "Si O2"
_cell_formula_units_Z 40
_cell_length_a 16.467146
_cell_length_b 8.290872
_cell_length_c 13.816061
_cell_angle_alpha 90.000000
_cell_angle_beta 90.000000
_cell_angle_gamma 90.000000
_cell_volume 1886.265356
_symmetry_space_group_name_H-M "P M M N"
_symmetry_group_IT_number 59
_space_group.IT_coordinate_system_code '2'
_symmetry_cell_setting 'orthorhombic'
loop_
_space_group_symop_operation_xyz
x,y,z
1/2-x,1/2-y,z
1/2+x,-y,-z
-x,1/2+y,-z
-x,-y,-z
1/2+x,1/2+y,-z
1/2-x,y,z
x,1/2-y,z
loop_
_atom_site_type_symbol
_atom_site_label
_atom_site_fract_x
_atom_site_fract_y
_atom_site_fract_z
Si Si1 0.406892 0.562319 0.646578
Si Si2 0.750000 0.935332 0.026200
Si Si3 0.659909 0.058282 0.554604
Si Si4 0.750000 0.937388 0.254135
Si Si5 0.436584 0.564193 0.262019
Si Si6 0.580667 0.935999 0.947975
O O1 0.431689 0.750000 0.651758
O O2 0.395421 0.502738 0.535636
O O3 0.325559 0.534229 0.705272
O O4 0.473338 0.450718 0.696500
O O5 0.750000 0.750000 0.993222
O O6 0.750000 0.955565 0.139979
O O7 0.666079 0.015839 0.985000
O O8 0.750000 0.985316 0.542392
O O9 0.663570 0.250000 0.555170
O O10 0.623784 0.995308 0.655788
O O11 0.750000 0.750000 0.285932
O O12 0.418972 0.750000 0.236852
O O13 0.425385 0.459502 0.166544
O O14 0.583489 0.750000 0.974813
O O15 0.500000 0.000000 0.000000
#
# Coordination Sequence:
#
# PCOD8246007 Si02
#       6
#     8   4   8   4   8   8
#     4  11  21  38  62  88 122 163 207 253 304 368
#     4   9  22  41  62  85 120 160 199 255 316 371
#     4   9  19  37  60  87 123 162 202 251 303 362
#     4  11  21  37  62  91 120 154 201 257 318 371
#     4  11  23  38  61  90 124 162 204 254 310 368
#     4  11  23  43  66  92 125 164 209 261 319 379
#
# _framework density 21.205924
#
# number of rings (size 3 to 8) (size 9 to 14) (size 15 to 20)
#    0.000    1.600    1.000    3.900    1.400    1.600 
#    0.000    7.500    0.000    0.000    0.000    0.000 
#    0.000    0.000    0.000    0.000    0.000    0.000 
#
# Total GULP energy -495992.222018 kJ/mol
# GULP energy per Si atom -12399.805550 kJ/mol
# Density = 2.115766 g / cm^3
# Si number density = 21.205924 Si / 1000 Ang^3
#
#
#
# Elastic Constant Matrix: (Units=GPa)
#
#
# Indices 1 2 3 4 5 6 
#
# 1 135.7035 10.1189 52.1742 0.0000 0.0000 0.0000
# 2 10.1189 38.7040 12.2522 0.0000 0.0000 0.0000
# 3 52.1742 12.2522 137.1527 0.0000 0.0000 0.0000
# 4 0.0000 0.0000 0.0000 26.3372 0.0000 0.0000
# 5 0.0000 0.0000 0.0000 0.0000 55.9604 0.0000
# 6 0.0000 0.0000 0.0000 0.0000 0.0000 2.5643
#
#
#
# Elastic Compliance Matrix: (Units=1/GPa)
#
#
# Indices 1 2 3 4 5 6 
#
# 1 0.008691 -0.001261 -0.003193 0.000000 0.000000 0.000000
# 2 -0.001261 0.026772 -0.001912 0.000000 0.000000 0.000000
# 3 -0.003193 -0.001912 0.008677 0.000000 0.000000 0.000000
# 4 0.000000 0.000000 0.000000 0.037969 0.000000 0.000000
# 5 0.000000 0.000000 0.000000 0.000000 0.017870 0.000000
# 6 0.000000 0.000000 0.000000 0.000000 0.000000 0.389970
#
#
# Mechanical properties :
#
#
# Convention : Reuss Voigt Hill
#
# Bulk Modulus (GPa) = 31.84037 51.18343 41.51190
# Shear Modulus (GPa) = 9.74373 32.77338 21.25856
#
# Velocity S-wave (km/s) = 2.14588 3.93553 3.16963
# Velocity P-wave (km/s) = 4.60295 6.69626 5.74574
#
# Compressibility (1/GPa) = 0.03140667
#
# Stress axis : x y z
#
# Youngs Moduli (GPa) = 115.06387 37.35232 115.25075
#
# Poissons Ratio (x) = 0.04711 0.36804
# Poissons Ratio (y) = 0.14512 0.22034
# Poissons Ratio (z) = 0.36744 0.07141
#
# Static dielectric constant tensor:
#      x y z
#    x 4.264630 0.000000 0.000000 
#    y 0.000000 3.578030 0.000000 
#    z 0.000000 0.000000 3.975930 
# 
# 
# High freq. dielectric constant tensor:
#      x y z
#    x 1.847500 0.000000 0.000000 
#    y 0.000000 1.803650 0.000000 
#    z 0.000000 0.000000 1.845470 
# 
# From -- ./inp_files/23017.got.cif
#   From: 2010.03.12/outbox.cif.g09.slc.cpg/sg59_12_cif.got.tgz:23017.got - 2010.04.16 16:29:54.
