data_PCOD8246344
_publ_section_title
;
Structure prediction by ZEFSAII (Michael W. Deem and Ramdas Pophale) SiO2 
 PCOD8246344
Probable space group: P B C N
;
_chemical_formula_sum "Si O2"
_cell_formula_units_Z 56
_cell_length_a 10.901160
_cell_length_b 16.254346
_cell_length_c 15.098591
_cell_angle_alpha 90.000000
_cell_angle_beta 90.000000
_cell_angle_gamma 90.000000
_cell_volume 2675.337857
_symmetry_space_group_name_H-M "P B C N"
_symmetry_group_IT_number 60
_symmetry_cell_setting 'orthorhombic'
loop_
_space_group_symop_operation_xyz
x,y,z
1/2-x,1/2-y,1/2+z
1/2+x,1/2-y,-z
-x,y,1/2-z
-x,-y,-z
1/2+x,1/2+y,1/2-z
1/2-x,1/2+y,z
x,-y,1/2+z
loop_
_atom_site_type_symbol
_atom_site_label
_atom_site_fract_x
_atom_site_fract_y
_atom_site_fract_z
Si Si1 0.989655 0.284923 0.063673
Si Si2 0.500000 0.631641 0.250000
Si Si3 0.203464 0.246759 0.179755
Si Si4 0.500000 0.979544 0.750000
Si Si5 0.942977 0.103264 0.061843
Si Si6 0.890809 0.372406 0.900172
Si Si7 0.310074 0.448881 0.477172
Si Si8 0.825323 0.614694 0.689383
O O1 0.131383 0.266716 0.087931
O O2 0.910943 0.200143 0.057198
O O3 0.939165 0.338256 0.145028
O O4 0.982418 0.334142 0.972456
O O5 0.619956 0.688071 0.260058
O O6 0.479643 0.576518 0.337442
O O7 0.328515 0.200894 0.154921
O O8 0.237047 0.328740 0.235064
O O9 0.476529 0.925014 0.663516
O O10 0.377955 0.032461 0.766136
O O11 0.058987 0.089781 0.998870
O O12 0.827305 0.048000 0.031163
O O13 0.789720 0.430304 0.947305
O O14 0.274400 0.408316 0.384012
#
# Coordination Sequence:
#
# PCOD8246344 Si02
#       8
#     8   4   8   4   8   8   8   8
#     4  10  20  41  67  91 121 171 220 259 308 405
#     4  10  17  34  66  89 118 166 216 252 303 390
#     4  11  19  43  70  90 123 175 215 258 316 400
#     4  12  27  44  60  97 138 164 218 278 325 380
#     4  10  20  40  64  97 126 167 215 266 314 387
#     4  11  26  42  62  99 130 166 219 272 329 378
#     4  10  23  38  64  95 132 164 210 269 326 381
#     4  11  22  41  64  94 126 174 212 260 329 391
#
# _framework density 20.931937000000001
#
# number of rings (size 3 to 8) (size 9 to 14) (size 15 to 20)
#    0.000    1.429    7.143    0.000    2.000    4.571 
#    2.571    1.429    0.000    0.000    0.000    0.000 
#    0.000    0.000    0.000    0.000    0.000    0.000 
#
# Total GULP energy -694442.878074 kJ/mol
# GULP energy per Si atom -12400.765680 kJ/mol
# Density = 2.088429 g / cm^3
# Si number density = 20.931937 Si / 1000 Ang^3
#
#
#
# Elastic Constant Matrix: (Units=GPa)
#
#
# Indices 1 2 3 4 5 6 
#
# 1 46.5537 23.8926 30.1283 0.0000 0.0000 0.0000
# 2 23.8926 109.3454 62.1017 0.0000 0.0000 0.0000
# 3 30.1283 62.1017 125.6228 0.0000 0.0000 0.0000
# 4 0.0000 0.0000 0.0000 38.3157 0.0000 0.0000
# 5 0.0000 0.0000 0.0000 0.0000 24.7032 0.0000
# 6 0.0000 0.0000 0.0000 0.0000 0.0000 11.5134
#
#
#
# Elastic Compliance Matrix: (Units=1/GPa)
#
#
# Indices 1 2 3 4 5 6 
#
# 1 0.026111 -0.002988 -0.004785 0.000000 0.000000 0.000000
# 2 -0.002988 0.013057 -0.005738 0.000000 0.000000 0.000000
# 3 -0.004785 -0.005738 0.011945 0.000000 0.000000 0.000000
# 4 0.000000 0.000000 0.000000 0.026099 0.000000 0.000000
# 5 0.000000 0.000000 0.000000 0.000000 0.040481 0.000000
# 6 0.000000 0.000000 0.000000 0.000000 0.000000 0.086855
#
#
# Mechanical properties :
#
#
# Convention : Reuss Voigt Hill
#
# Bulk Modulus (GPa) = 41.51043 57.08525 49.29784
# Shear Modulus (GPa) = 20.86813 25.93307 23.40060
#
# Velocity S-wave (km/s) = 3.16088 3.52365 3.34718
# Velocity P-wave (km/s) = 5.76157 6.62464 6.20813
#
# Compressibility (1/GPa) = 0.02409033
#
# Stress axis : x y z
#
# Youngs Moduli (GPa) = 38.29833 76.58636 83.71905
#
# Poissons Ratio (x) = 0.22881 0.40062
# Poissons Ratio (y) = 0.11442 0.48040
# Poissons Ratio (z) = 0.18327 0.43947
#
# Static dielectric constant tensor:
#      x y z
#    x 3.393010 0.000000 0.000000 
#    y 0.000000 3.981180 0.000000 
#    z 0.000000 0.000000 3.966530 
# 
# 
# High freq. dielectric constant tensor:
#      x y z
#    x 1.787320 0.000000 0.000000 
#    y 0.000000 1.822110 0.000000 
#    z 0.000000 0.000000 1.831520 
# 
# From -- ./inp_files/16195.got.cif
#   From: 2010.03.12/outbox.cif.g09.slc.cpg/sg60_9_cif.got.tgz:16195.got - 2010.04.10 18:46:24.
