data_PCOD8246911
_publ_section_title
;
Structure prediction by ZEFSAII (Michael W. Deem and Ramdas Pophale) SiO2 
 PCOD8246911
Probable space group: P B C N
;
_chemical_formula_sum "Si O2"
_cell_formula_units_Z 60
_cell_length_a 14.204821
_cell_length_b 18.456473
_cell_length_c 11.254253
_cell_angle_alpha 90.000000
_cell_angle_beta 90.000000
_cell_angle_gamma 90.000000
_cell_volume 2950.537584
_symmetry_space_group_name_H-M "P B C N"
_symmetry_group_IT_number 60
_symmetry_cell_setting 'orthorhombic'
loop_
_space_group_symop_operation_xyz
x,y,z
1/2-x,1/2-y,1/2+z
1/2+x,1/2-y,-z
-x,y,1/2-z
-x,-y,-z
1/2+x,1/2+y,1/2-z
1/2-x,1/2+y,z
x,-y,1/2+z
loop_
_atom_site_type_symbol
_atom_site_label
_atom_site_fract_x
_atom_site_fract_y
_atom_site_fract_z
Si Si1 0.903526 0.669928 0.603365
Si Si2 0.872665 0.200410 0.451985
Si Si3 0.398831 0.132753 0.535726
Si Si4 0.282724 0.928057 0.245370
Si Si5 0.103554 0.567784 0.282535
Si Si6 0.500000 0.281155 0.750000
Si Si7 0.832232 0.293205 0.856417
Si Si8 0.392498 0.348513 0.286405
O O1 0.820623 0.615437 0.639008
O O2 0.883064 0.714423 0.483283
O O3 0.997787 0.621650 0.591563
O O4 0.914353 0.729780 0.706344
O O5 0.885086 0.283018 0.493892
O O6 0.955827 0.174523 0.360381
O O7 0.776371 0.189364 0.380521
O O8 0.882687 0.154326 0.571204
O O9 0.319464 0.107232 0.625191
O O10 0.388607 0.083502 0.420879
O O11 0.169349 0.918388 0.246006
O O12 0.314440 0.011155 0.250045
O O13 0.119064 0.640209 0.208786
O O14 0.000000 0.536666 0.250000
O O15 0.848587 0.221988 0.777633
O O16 0.500000 0.360826 0.250000
#
# Coordination Sequence:
#
# PCOD8246911 Si02
#       8
#     8   8   8   8   8   4   8   8
#     4  11  19  35  60  89 136 165 201 262 327 395
#     4  11  22  39  67  95 134 166 219 274 331 381
#     4  11  21  39  61  96 131 172 207 265 331 397
#     4  12  25  40  62  95 130 176 218 262 329 401
#     4  12  26  40  65  99 137 170 210 274 339 398
#     4  10  20  36  58  96 126 168 210 262 318 384
#     4  12  23  39  65 100 131 162 215 274 332 395
#     4  12  24  44  67  95 128 177 226 273 323 387
#
# _framework density 20.335277000000001
#
# number of rings (size 3 to 8) (size 9 to 14) (size 15 to 20)
#    0.000    0.533    8.000    2.800    1.867    1.067 
#    2.400    0.000    1.467    1.600    0.000    0.000 
#    0.000    0.000    0.000    0.000    0.000    0.000 
#
# Total GULP energy -744000.748857 kJ/mol
# GULP energy per Si atom -12400.012481 kJ/mol
# Density = 2.028899 g / cm^3
# Si number density = 20.335277 Si / 1000 Ang^3
#
#
#
# Elastic Constant Matrix: (Units=GPa)
#
#
# Indices 1 2 3 4 5 6 
#
# 1 138.5437 26.4909 37.9194 0.0000 0.0000 0.0000
# 2 26.4909 55.1285 16.2766 0.0000 0.0000 0.0000
# 3 37.9194 16.2766 113.6245 0.0000 0.0000 0.0000
# 4 0.0000 0.0000 0.0000 11.2169 0.0000 0.0000
# 5 0.0000 0.0000 0.0000 0.0000 30.2699 0.0000
# 6 0.0000 0.0000 0.0000 0.0000 0.0000 25.4200
#
#
#
# Elastic Compliance Matrix: (Units=1/GPa)
#
#
# Indices 1 2 3 4 5 6 
#
# 1 0.008511 -0.003395 -0.002354 0.000000 0.000000 0.000000
# 2 -0.003395 0.020295 -0.001774 0.000000 0.000000 0.000000
# 3 -0.002354 -0.001774 0.009841 0.000000 0.000000 0.000000
# 4 0.000000 0.000000 0.000000 0.089151 0.000000 0.000000
# 5 0.000000 0.000000 0.000000 0.000000 0.033036 0.000000
# 6 0.000000 0.000000 0.000000 0.000000 0.000000 0.039339
#
#
# Mechanical properties :
#
#
# Convention : Reuss Voigt Hill
#
# Bulk Modulus (GPa) = 42.37258 52.07452 47.22355
# Shear Modulus (GPa) = 22.41279 28.48865 25.45072
#
# Velocity S-wave (km/s) = 3.32349 3.74698 3.54157
# Velocity P-wave (km/s) = 5.96738 6.66209 6.32428
#
# Compressibility (1/GPa) = 0.02360017
#
# Stress axis : x y z
#
# Youngs Moduli (GPa) = 117.48922 49.27403 101.61862
#
# Poissons Ratio (x) = 0.16728 0.23923
# Poissons Ratio (y) = 0.39887 0.18029
# Poissons Ratio (z) = 0.27659 0.08742
#
# Static dielectric constant tensor:
#      x y z
#    x 3.926120 0.000000 0.000000 
#    y 0.000000 3.338400 0.000000 
#    z 0.000000 0.000000 3.955740 
# 
# 
# High freq. dielectric constant tensor:
#      x y z
#    x 1.797830 0.000000 0.000000 
#    y 0.000000 1.747190 0.000000 
#    z 0.000000 0.000000 1.818700 
# 
# From -- ./inp_files/12112.got.cif
#   From: 2010.03.12/outbox.cif.g09.slc.cpg/sg60_7_cif.got.tgz:12112.got - 2010.04.10 18:46:24.
