data_PCOD8246523
_publ_section_title
;
Structure prediction by ZEFSAII (Michael W. Deem and Ramdas Pophale) SiO2 
 PCOD8246523
Probable space group: P B C N
;
_chemical_formula_sum "Si O2"
_cell_formula_units_Z 48
_cell_length_a 4.884240
_cell_length_b 26.966301
_cell_length_c 18.163958
_cell_angle_alpha 90.000000
_cell_angle_beta 90.000000
_cell_angle_gamma 90.000000
_cell_volume 2392.372837
_symmetry_space_group_name_H-M "P B C N"
_symmetry_group_IT_number 60
_symmetry_cell_setting 'orthorhombic'
loop_
_space_group_symop_operation_xyz
x,y,z
1/2-x,1/2-y,1/2+z
1/2+x,1/2-y,-z
-x,y,1/2-z
-x,-y,-z
1/2+x,1/2+y,1/2-z
1/2-x,1/2+y,z
x,-y,1/2+z
loop_
_atom_site_type_symbol
_atom_site_label
_atom_site_fract_x
_atom_site_fract_y
_atom_site_fract_z
Si Si1 0.246853 0.793421 0.070230
Si Si2 0.435982 0.582094 0.058199
Si Si3 0.362777 0.123005 0.670580
Si Si4 0.153846 0.070585 0.889130
Si Si5 0.559110 0.976615 0.579556
Si Si6 0.250220 0.187003 0.025797
O O1 0.280927 0.820768 0.148995
O O2 0.442095 0.815106 0.005598
O O3 0.940922 0.806253 0.045376
O O4 0.288292 0.734386 0.080176
O O5 0.745751 0.571903 0.082166
O O6 0.236318 0.544725 0.104267
O O7 0.447849 0.568615 0.972067
O O8 0.335763 0.638286 0.071592
O O9 0.500000 0.119401 0.750000
O O10 0.600274 0.109827 0.613028
O O11 0.100725 0.085846 0.663979
O O12 0.297458 0.017739 0.867647
O O13 0.500000 0.000000 0.500000
#
# Coordination Sequence:
#
# PCOD8246523 Si02
#       6
#     8   8   8   8   8   8
#     4  10  19  34  46  75 100 137 171 214 256 315
#     4  11  17  31  50  76 101 137 164 208 267 326
#     4  12  22  34  52  72 103 144 179 212 257 308
#     4  11  20  34  47  72 106 138 170 215 250 314
#     4  10  20  29  48  74 104 134 166 203 262 314
#     4  10  19  30  54  70 104 135 166 209 274 316
#
# _framework density 20.063762000000001
#
# number of rings (size 3 to 8) (size 9 to 14) (size 15 to 20)
#    0.000    1.333    3.333    6.500    0.000    0.000 
#    0.000    0.000    0.000    0.000    0.000    4.667 
#    0.000    2.667    0.000    0.000    0.000    0.000 
#
# Total GULP energy -594670.130210 kJ/mol
# GULP energy per Si atom -12388.961046 kJ/mol
# Density = 2.001810 g / cm^3
# Si number density = 20.063762 Si / 1000 Ang^3
#
#
#
# Elastic Constant Matrix: (Units=GPa)
#
#
# Indices 1 2 3 4 5 6 
#
# 1 103.4354 27.0291 14.5759 0.0000 0.0000 0.0000
# 2 27.0291 112.1626 28.0711 0.0000 0.0000 0.0000
# 3 14.5759 28.0711 37.2814 0.0000 0.0000 0.0000
# 4 0.0000 0.0000 0.0000 12.2801 0.0000 0.0000
# 5 0.0000 0.0000 0.0000 0.0000 12.8404 0.0000
# 6 0.0000 0.0000 0.0000 0.0000 0.0000 34.7925
#
#
#
# Elastic Compliance Matrix: (Units=1/GPa)
#
#
# Indices 1 2 3 4 5 6 
#
# 1 0.010537 -0.001858 -0.002720 0.000000 0.000000 0.000000
# 2 -0.001858 0.011314 -0.007792 0.000000 0.000000 0.000000
# 3 -0.002720 -0.007792 0.033754 0.000000 0.000000 0.000000
# 4 0.000000 0.000000 0.000000 0.081432 0.000000 0.000000
# 5 0.000000 0.000000 0.000000 0.000000 0.077879 0.000000
# 6 0.000000 0.000000 0.000000 0.000000 0.000000 0.028742
#
#
# Mechanical properties :
#
#
# Convention : Reuss Voigt Hill
#
# Bulk Modulus (GPa) = 32.40167 43.58128 37.99147
# Shear Modulus (GPa) = 17.94131 24.19614 21.06873
#
# Velocity S-wave (km/s) = 2.99359 3.47646 3.24402
# Velocity P-wave (km/s) = 5.30407 6.15491 5.74526
#
# Compressibility (1/GPa) = 0.03086261
#
# Stress axis : x y z
#
# Youngs Moduli (GPa) = 94.90520 88.38929 29.62645
#
# Poissons Ratio (x) = 0.16426 0.08059
# Poissons Ratio (y) = 0.17637 0.23085
# Poissons Ratio (z) = 0.25817 0.68873
#
# Static dielectric constant tensor:
#      x y z
#    x 4.120360 0.000000 0.000000 
#    y 0.000000 4.139460 0.000000 
#    z 0.000000 0.000000 2.866480 
# 
# 
# High freq. dielectric constant tensor:
#      x y z
#    x 1.818380 0.000000 0.000000 
#    y 0.000000 1.795790 0.000000 
#    z 0.000000 0.000000 1.683560 
# 
# From -- ./inp_files/18707.got.cif
#   From: 2010.03.12/outbox.cif.g09.slc.cpg/sg60_10_cif.got.tgz:18707.got - 2010.04.10 18:46:24.
