data_PCOD8246754
_publ_section_title
;
Structure prediction by ZEFSAII (Michael W. Deem and Ramdas Pophale) SiO2 
 PCOD8246754
Probable space group: P B C N
;
_chemical_formula_sum "Si O2"
_cell_formula_units_Z 64
_cell_length_a 16.205361
_cell_length_b 13.649816
_cell_length_c 14.352401
_cell_angle_alpha 90.000000
_cell_angle_beta 90.000000
_cell_angle_gamma 90.000000
_cell_volume 3174.753912
_symmetry_space_group_name_H-M "P B C N"
_symmetry_group_IT_number 60
_symmetry_cell_setting 'orthorhombic'
loop_
_space_group_symop_operation_xyz
x,y,z
1/2-x,1/2-y,1/2+z
1/2+x,1/2-y,-z
-x,y,1/2-z
-x,-y,-z
1/2+x,1/2+y,1/2-z
1/2-x,1/2+y,z
x,-y,1/2+z
loop_
_atom_site_type_symbol
_atom_site_label
_atom_site_fract_x
_atom_site_fract_y
_atom_site_fract_z
Si Si1 0.409579 0.148348 0.706577
Si Si2 0.528763 0.826697 0.853235
Si Si3 0.612337 0.847098 0.507659
Si Si4 0.263669 0.522019 0.512417
Si Si5 0.741121 0.735293 0.258778
Si Si6 0.777584 0.819329 0.066411
Si Si7 0.180427 0.543135 0.194315
Si Si8 0.159868 0.788688 0.059548
O O1 0.500000 0.150109 0.750000
O O2 0.422944 0.138729 0.595871
O O3 0.358197 0.246287 0.735617
O O4 0.353842 0.055665 0.744124
O O5 0.500000 0.796099 0.750000
O O6 0.455121 0.870482 0.913900
O O7 0.599681 0.907351 0.849604
O O8 0.566627 0.732898 0.907512
O O9 0.684235 0.924054 0.530147
O O10 0.646957 0.736946 0.516696
O O11 0.291864 0.435133 0.444717
O O12 0.245271 0.480363 0.614123
O O13 0.337738 0.600801 0.520604
O O14 0.780332 0.796765 0.175358
O O15 0.768840 0.621488 0.241804
O O16 0.776858 0.778143 0.354528
O O17 0.690016 0.786459 0.021058
#
# Coordination Sequence:
#
# PCOD8246754 Si02
#       8
#     8   8   8   8   8   8   8   8
#     4  11  23  36  60  97 128 153 203 262 316 361
#     4  11  22  37  61  86 125 156 200 251 311 356
#     4  10  22  40  58  92 125 158 195 259 314 357
#     4  10  19  39  63  84 121 157 204 247 297 360
#     4  11  21  38  63  88 122 167 205 243 311 372
#     4  11  21  37  64  86 119 165 204 245 298 371
#     4  10  20  39  62  88 120 160 198 256 294 371
#     4  10  21  41  56  89 119 161 204 245 296 369
#
# _framework density 20.159044000000002
#
# number of rings (size 3 to 8) (size 9 to 14) (size 15 to 20)
#    0.000    1.500    6.250    1.875    1.750    6.000 
#    0.000    0.625    0.000    3.000    0.000    0.000 
#    0.000    0.000    0.000    0.000    0.000    0.000 
#
# Total GULP energy -793369.192984 kJ/mol
# GULP energy per Si atom -12396.393640 kJ/mol
# Density = 2.011316 g / cm^3
# Si number density = 20.159044 Si / 1000 Ang^3
#
#
#
# Elastic Constant Matrix: (Units=GPa)
#
#
# Indices 1 2 3 4 5 6 
#
# 1 58.8217 43.5584 15.6888 0.0000 0.0000 0.0000
# 2 43.5584 117.6380 29.1397 0.0000 0.0000 0.0000
# 3 15.6888 29.1397 66.9640 0.0000 0.0000 0.0000
# 4 0.0000 0.0000 0.0000 22.8264 0.0000 0.0000
# 5 0.0000 0.0000 0.0000 0.0000 31.7710 0.0000
# 6 0.0000 0.0000 0.0000 0.0000 0.0000 20.2035
#
#
#
# Elastic Compliance Matrix: (Units=1/GPa)
#
#
# Indices 1 2 3 4 5 6 
#
# 1 0.023645 -0.008275 -0.001939 0.000000 0.000000 0.000000
# 2 -0.008275 0.012424 -0.003467 0.000000 0.000000 0.000000
# 3 -0.001939 -0.003467 0.016897 0.000000 0.000000 0.000000
# 4 0.000000 0.000000 0.000000 0.043809 0.000000 0.000000
# 5 0.000000 0.000000 0.000000 0.000000 0.031475 0.000000
# 6 0.000000 0.000000 0.000000 0.000000 0.000000 0.049496
#
#
# Mechanical properties :
#
#
# Convention : Reuss Voigt Hill
#
# Bulk Modulus (GPa) = 39.05820 46.68859 42.87340
# Shear Modulus (GPa) = 23.40352 25.29598 24.34975
#
# Velocity S-wave (km/s) = 3.41096 3.54619 3.47923
# Velocity P-wave (km/s) = 5.91016 6.32279 6.11995
#
# Compressibility (1/GPa) = 0.02560282
#
# Stress axis : x y z
#
# Youngs Moduli (GPa) = 42.29141 80.49188 59.18376
#
# Poissons Ratio (x) = 0.66607 0.11475
# Poissons Ratio (y) = 0.34996 0.20522
# Poissons Ratio (z) = 0.08200 0.27910
#
# Static dielectric constant tensor:
#      x y z
#    x 3.578670 0.000000 0.000000 
#    y 0.000000 3.946300 0.000000 
#    z 0.000000 0.000000 3.651140 
# 
# 
# High freq. dielectric constant tensor:
#      x y z
#    x 1.761930 0.000000 0.000000 
#    y 0.000000 1.782790 0.000000 
#    z 0.000000 0.000000 1.790750 
# 
# From -- ./inp_files/17539.got.cif
#   From: 2010.03.12/outbox.cif.g09.slc.cpg/sg60_9_cif.got.tgz:17539.got - 2010.04.10 18:46:24.
