data_PCOD8246593
_publ_section_title
;
Structure prediction by ZEFSAII (Michael W. Deem and Ramdas Pophale) SiO2 
 PCOD8246593
Probable space group: P B C N
;
_chemical_formula_sum "Si O2"
_cell_formula_units_Z 48
_cell_length_a 22.292498
_cell_length_b 13.157730
_cell_length_c 9.415171
_cell_angle_alpha 90.000000
_cell_angle_beta 90.000000
_cell_angle_gamma 90.000000
_cell_volume 2761.645433
_symmetry_space_group_name_H-M "P B C N"
_symmetry_group_IT_number 60
_symmetry_cell_setting 'orthorhombic'
loop_
_space_group_symop_operation_xyz
x,y,z
1/2-x,1/2-y,1/2+z
1/2+x,1/2-y,-z
-x,y,1/2-z
-x,-y,-z
1/2+x,1/2+y,1/2-z
1/2-x,1/2+y,z
x,-y,1/2+z
loop_
_atom_site_type_symbol
_atom_site_label
_atom_site_fract_x
_atom_site_fract_y
_atom_site_fract_z
Si Si1 0.546512 0.100035 0.128902
Si Si2 0.667623 0.809869 0.730599
Si Si3 0.663785 0.204338 0.557202
Si Si4 0.267748 0.602831 0.776616
Si Si5 0.537778 0.126568 0.609679
Si Si6 0.269835 0.590236 0.446858
O O1 0.500000 0.076836 0.250000
O O2 0.600158 0.171007 0.180483
O O3 0.565621 0.986292 0.079616
O O4 0.510819 0.159486 0.007464
O O5 0.683825 0.692328 0.706314
O O6 0.708715 0.881225 0.633943
O O7 0.674512 0.836774 0.897075
O O8 0.703233 0.136447 0.663174
O O9 0.594650 0.201025 0.604310
O O10 0.681251 0.322022 0.571757
O O11 0.257610 0.570330 0.613274
O O12 0.294397 0.510906 0.870423
O O13 0.500000 0.140395 0.750000
#
# Coordination Sequence:
#
# PCOD8246593 Si02
#       6
#     8   8   8   8   8   8
#     4  10  19  34  53  75 106 139 169 210 259 309
#     4  10  20  35  56  78 104 140 176 214 260 312
#     4  10  20  36  54  78 109 137 173 216 261 313
#     4  10  21  35  54  79 105 138 174 217 264 308
#     4  10  21  32  51  81 108 137 170 212 262 313
#     4  10  21  35  55  78 105 139 174 217 263 308
#
# _framework density 17.380942000000001
#
# number of rings (size 3 to 8) (size 9 to 14) (size 15 to 20)
#    0.000    2.000    1.667    2.000    2.333    1.333 
#    0.000    0.000    0.000    2.000    0.000    0.000 
#    0.000    0.000    0.000    0.000    0.000    0.000 
#
# Total GULP energy -595137.717117 kJ/mol
# GULP energy per Si atom -12398.702440 kJ/mol
# Density = 1.734138 g / cm^3
# Si number density = 17.380942 Si / 1000 Ang^3
#
#
#
# Elastic Constant Matrix: (Units=GPa)
#
#
# Indices 1 2 3 4 5 6 
#
# 1 105.5678 44.4880 45.3388 0.0000 0.0000 0.0000
# 2 44.4880 81.2672 48.7992 0.0000 0.0000 0.0000
# 3 45.3388 48.7992 127.3936 0.0000 0.0000 0.0000
# 4 0.0000 0.0000 0.0000 30.9667 0.0000 0.0000
# 5 0.0000 0.0000 0.0000 0.0000 30.4133 0.0000
# 6 0.0000 0.0000 0.0000 0.0000 0.0000 23.7396
#
#
#
# Elastic Compliance Matrix: (Units=1/GPa)
#
#
# Indices 1 2 3 4 5 6 
#
# 1 0.012874 -0.005580 -0.002444 0.000000 0.000000 0.000000
# 2 -0.005580 0.018399 -0.005062 0.000000 0.000000 0.000000
# 3 -0.002444 -0.005062 0.010659 0.000000 0.000000 0.000000
# 4 0.000000 0.000000 0.000000 0.032293 0.000000 0.000000
# 5 0.000000 0.000000 0.000000 0.000000 0.032880 0.000000
# 6 0.000000 0.000000 0.000000 0.000000 0.000000 0.042124
#
#
# Mechanical properties :
#
#
# Convention : Reuss Voigt Hill
#
# Bulk Modulus (GPa) = 63.45466 65.72004 64.58735
# Shear Modulus (GPa) = 27.67718 28.73077 28.20397
#
# Velocity S-wave (km/s) = 3.99480 4.07013 4.03264
# Velocity P-wave (km/s) = 7.60693 7.74477 7.67616
#
# Compressibility (1/GPa) = 0.01575928
#
# Stress axis : x y z
#
# Youngs Moduli (GPa) = 77.67749 54.34983 93.81953
#
# Poissons Ratio (x) = 0.30325 0.22933
# Poissons Ratio (y) = 0.43341 0.47494
# Poissons Ratio (z) = 0.18987 0.27513
#
# Static dielectric constant tensor:
#      x y z
#    x 3.049190 0.000000 0.000000 
#    y 0.000000 3.173600 0.000000 
#    z 0.000000 0.000000 3.425890 
# 
# 
# High freq. dielectric constant tensor:
#      x y z
#    x 1.659410 0.000000 0.000000 
#    y 0.000000 1.654960 0.000000 
#    z 0.000000 0.000000 1.693510 
# 
# From -- ./inp_files/7292.got.cif
#   From: 2010.03.12/outbox.cif.g09.slc.cpg/sg60_4_cif.got.tgz:7292.got - 2010.04.10 18:46:24.
