data_PCOD8246709
_publ_section_title
;
Structure prediction by ZEFSAII (Michael W. Deem and Ramdas Pophale) SiO2 
 PCOD8246709
Probable space group: P B C N
;
_chemical_formula_sum "Si O2"
_cell_formula_units_Z 56
_cell_length_a 7.567485
_cell_length_b 18.925882
_cell_length_c 20.783194
_cell_angle_alpha 90.000000
_cell_angle_beta 90.000000
_cell_angle_gamma 90.000000
_cell_volume 2976.596648
_symmetry_space_group_name_H-M "P B C N"
_symmetry_group_IT_number 60
_symmetry_cell_setting 'orthorhombic'
loop_
_space_group_symop_operation_xyz
x,y,z
1/2-x,1/2-y,1/2+z
1/2+x,1/2-y,-z
-x,y,1/2-z
-x,-y,-z
1/2+x,1/2+y,1/2-z
1/2-x,1/2+y,z
x,-y,1/2+z
loop_
_atom_site_type_symbol
_atom_site_label
_atom_site_fract_x
_atom_site_fract_y
_atom_site_fract_z
Si Si1 0.000000 0.228294 0.250000
Si Si2 0.500000 0.955104 0.250000
Si Si3 0.860954 0.768991 0.561560
Si Si4 0.052022 0.736166 0.081925
Si Si5 0.628075 0.157901 0.659265
Si Si6 0.015737 0.142812 0.676249
Si Si7 0.151908 0.994479 0.699734
Si Si8 0.854385 0.146679 0.366398
O O1 0.865071 0.277381 0.210151
O O2 0.878160 0.180937 0.296066
O O3 0.667020 0.005808 0.259215
O O4 0.493367 0.905327 0.314092
O O5 0.656224 0.782280 0.581305
O O6 0.881287 0.765996 0.485709
O O7 0.932163 0.694165 0.591854
O O8 0.980128 0.833207 0.588083
O O9 0.103438 0.795598 0.134341
O O10 0.168445 0.668354 0.101041
O O11 0.821560 0.125637 0.649543
O O12 0.000000 0.166972 0.750000
O O13 0.129284 0.071829 0.668786
O O14 0.154205 0.937755 0.642289
O O15 0.000000 0.975571 0.750000
#
# Coordination Sequence:
#
# PCOD8246709 Si02
#       8
#     4   4   8   8   8   8   8   8
#     4   9  18  32  58  90 115 148 190 258 307 344
#     4  11  20  36  60  84 123 164 196 244 307 372
#     4  10  22  38  63  89 119 156 208 257 299 355
#     4  11  22  39  65  90 117 161 210 253 303 359
#     4   9  18  33  59  88 111 150 204 244 292 355
#     4  10  19  37  60  87 117 153 202 248 298 366
#     4  11  23  38  56  89 128 159 194 245 313 365
#     4  11  22  39  59  87 127 153 194 257 310 354
#
# _framework density 18.813431999999999
#
# number of rings (size 3 to 8) (size 9 to 14) (size 15 to 20)
#    0.000    1.714    5.000    0.857    4.000    1.143 
#    3.857    0.714    0.000    1.714    0.000    0.000 
#    0.000    0.000    0.000    0.000    0.000    0.000 
#
# Total GULP energy -694217.999282 kJ/mol
# GULP energy per Si atom -12396.749987 kJ/mol
# Density = 1.877061 g / cm^3
# Si number density = 18.813432 Si / 1000 Ang^3
#
#
#
# Elastic Constant Matrix: (Units=GPa)
#
#
# Indices 1 2 3 4 5 6 
#
# 1 113.6886 47.1084 29.0808 0.0000 0.0000 0.0000
# 2 47.1084 80.0189 51.3015 0.0000 0.0000 0.0000
# 3 29.0808 51.3015 111.1284 0.0000 0.0000 0.0000
# 4 0.0000 0.0000 0.0000 21.3264 0.0000 0.0000
# 5 0.0000 0.0000 0.0000 0.0000 27.0495 0.0000
# 6 0.0000 0.0000 0.0000 0.0000 0.0000 13.7638
#
#
#
# Elastic Compliance Matrix: (Units=1/GPa)
#
#
# Indices 1 2 3 4 5 6 
#
# 1 0.011636 -0.006957 0.000167 0.000000 0.000000 0.000000
# 2 -0.006957 0.021910 -0.008294 0.000000 0.000000 0.000000
# 3 0.000167 -0.008294 0.012784 0.000000 0.000000 0.000000
# 4 0.000000 0.000000 0.000000 0.046890 0.000000 0.000000
# 5 0.000000 0.000000 0.000000 0.000000 0.036969 0.000000
# 6 0.000000 0.000000 0.000000 0.000000 0.000000 0.072654
#
#
# Mechanical properties :
#
#
# Convention : Reuss Voigt Hill
#
# Bulk Modulus (GPa) = 61.87696 62.20193 62.03945
# Shear Modulus (GPa) = 20.97310 24.25095 22.61203
#
# Velocity S-wave (km/s) = 3.34248 3.59419 3.47062
# Velocity P-wave (km/s) = 6.91790 7.09638 7.00771
#
# Compressibility (1/GPa) = 0.01616110
#
# Stress axis : x y z
#
# Youngs Moduli (GPa) = 85.93907 45.64034 78.22351
#
# Poissons Ratio (x) = 0.31753 -0.01304
# Poissons Ratio (y) = 0.59790 0.64880
# Poissons Ratio (z) = -0.01433 0.37855
#
# Static dielectric constant tensor:
#      x y z
#    x 3.521610 0.000000 0.000000 
#    y 0.000000 3.289650 0.000000 
#    z 0.000000 0.000000 3.474120 
# 
# 
# High freq. dielectric constant tensor:
#      x y z
#    x 1.744080 0.000000 0.000000 
#    y 0.000000 1.706460 0.000000 
#    z 0.000000 0.000000 1.717070 
# 
# From -- ./inp_files/22339.got.cif
#   From: 2010.03.12/outbox.cif.g09.slc.cpg/sg60_12_cif.got.tgz:22339.got - 2010.04.10 18:46:24.
