data_PCOD8246307
_publ_section_title
;
Structure prediction by ZEFSAII (Michael W. Deem and Ramdas Pophale) SiO2 
 PCOD8246307
Probable space group: P B C N
;
_chemical_formula_sum "Si O2"
_cell_formula_units_Z 60
_cell_length_a 27.857395
_cell_length_b 26.772576
_cell_length_c 5.436339
_cell_angle_alpha 90.000000
_cell_angle_beta 90.000000
_cell_angle_gamma 90.000000
_cell_volume 4054.498957
_symmetry_space_group_name_H-M "P B C N"
_symmetry_group_IT_number 60
_symmetry_cell_setting 'orthorhombic'
loop_
_space_group_symop_operation_xyz
x,y,z
1/2-x,1/2-y,1/2+z
1/2+x,1/2-y,-z
-x,y,1/2-z
-x,-y,-z
1/2+x,1/2+y,1/2-z
1/2-x,1/2+y,z
x,-y,1/2+z
loop_
_atom_site_type_symbol
_atom_site_label
_atom_site_fract_x
_atom_site_fract_y
_atom_site_fract_z
Si Si1 0.285932 0.185267 0.906870
Si Si2 0.822302 0.217231 0.591246
Si Si3 0.450757 0.779978 0.369425
Si Si4 0.581595 0.872108 0.430762
Si Si5 0.641666 0.277069 0.590240
Si Si6 0.000000 0.345408 0.750000
Si Si7 0.677390 0.165683 0.094467
Si Si8 0.443301 0.027509 0.758311
O O1 0.234604 0.211413 0.915878
O O2 0.326710 0.227123 0.904473
O O3 0.291744 0.153439 0.654043
O O4 0.293440 0.151974 0.154662
O O5 0.846069 0.193098 0.344119
O O6 0.835541 0.275680 0.599828
O O7 0.844211 0.192346 0.841236
O O8 0.500000 0.759399 0.250000
O O9 0.423097 0.818553 0.195850
O O10 0.415199 0.734160 0.422254
O O11 0.462540 0.809400 0.616078
O O12 0.532673 0.881881 0.586080
O O13 0.629722 0.868636 0.593447
O O14 0.582965 0.918340 0.242052
O O15 0.500000 0.034188 0.750000
O O16 0.426145 0.998431 0.511271
#
# Coordination Sequence:
#
# PCOD8246307 Si02
#       8
#     8   8   8   8   8   4   8   8
#     4  10  17  27  41  59  79  99 117 143 175 222
#     4  10  17  27  41  57  78 100 120 142 175 222
#     4  10  20  29  40  58  75 100 124 159 193 233
#     4  11  21  32  45  61  74  98 123 161 199 247
#     4  10  17  27  38  54  74  97 123 146 175 217
#     4  10  20  28  44  56  74  94 122 148 200 234
#     4  10  18  27  42  58  78  93 118 144 180 223
#     4  10  23  37  49  60  74  95 126 163 207 254
#
# _framework density 14.798375999999999
#
# number of rings (size 3 to 8) (size 9 to 14) (size 15 to 20)
#    0.000    1.867    2.667    6.800    6.533    0.000 
#    0.000    0.000    0.000    0.000    0.000    0.000 
#    0.000    0.000    0.000    0.000    0.000    0.000 
#
# Total GULP energy -743454.930868 kJ/mol
# GULP energy per Si atom -12390.915514 kJ/mol
# Density = 1.476469 g / cm^3
# Si number density = 14.798376 Si / 1000 Ang^3
#
#
#
# Elastic Constant Matrix: (Units=GPa)
#
#
# Indices 1 2 3 4 5 6 
#
# 1 49.0259 13.2126 21.2651 0.0000 0.0000 0.0000
# 2 13.2126 12.3523 7.7024 0.0000 0.0000 0.0000
# 3 21.2651 7.7024 134.7217 0.0000 0.0000 0.0000
# 4 0.0000 0.0000 0.0000 -2.0938 0.0000 0.0000
# 5 0.0000 0.0000 0.0000 0.0000 16.8020 0.0000
# 6 0.0000 0.0000 0.0000 0.0000 0.0000 10.5360
#
#
#
# Elastic Compliance Matrix: (Units=1/GPa)
#
#
# Indices 1 2 3 4 5 6 
#
# 1 0.029773 -0.029986 -0.002985 0.000000 0.000000 0.000000
# 2 -0.029986 0.114148 -0.001793 0.000000 0.000000 0.000000
# 3 -0.002985 -0.001793 0.007996 0.000000 0.000000 0.000000
# 4 0.000000 0.000000 0.000000 -0.477598 0.000000 0.000000
# 5 0.000000 0.000000 0.000000 0.000000 0.059517 0.000000
# 6 0.000000 0.000000 0.000000 0.000000 0.000000 0.094913
#
#
# Mechanical properties :
#
#
# Convention : Reuss Voigt Hill
#
# Bulk Modulus (GPa) = 12.13734 31.16226 21.64980
# Shear Modulus (GPa) = -67.33137 15.31016 -26.01060
#
# Velocity S-wave (km/s) = -6.75262 3.21998 -4.19700
# Velocity P-wave (km/s) = 7.25104 5.90999 2.97066
#
# Compressibility (1/GPa) = 0.08239038
#
# Stress axis : x y z
#
# Youngs Moduli (GPa) = 33.58700 8.76053 125.05582
#
# Poissons Ratio (x) = 0.26269 0.37332
# Poissons Ratio (y) = 1.00712 0.22424
# Poissons Ratio (z) = 0.10026 0.01571
#
# Static dielectric constant tensor:
#      x y z
#    x 2.841800 0.000000 0.000000 
#    y 0.000000 2.217080 0.000000 
#    z 0.000000 0.000000 4.121610 
# 
# 
# High freq. dielectric constant tensor:
#      x y z
#    x 1.558030 0.000000 0.000000 
#    y 0.000000 1.463950 0.000000 
#    z 0.000000 0.000000 1.604300 
# 
# From -- ./inp_files/2255.got.cif
#   From: 2010.03.12/outbox.cif.g09.slc.cpg/sg60_2_cif.got.tgz:2255.got - 2010.04.10 18:46:24.
