data_PCOD8246930
_publ_section_title
;
Structure prediction by ZEFSAII (Michael W. Deem and Ramdas Pophale) SiO2 
 PCOD8246930
Probable space group: P B C N
;
_chemical_formula_sum "Si O2"
_cell_formula_units_Z 64
_cell_length_a 8.813721
_cell_length_b 24.097522
_cell_length_c 14.424296
_cell_angle_alpha 90.000000
_cell_angle_beta 90.000000
_cell_angle_gamma 90.000000
_cell_volume 3063.559433
_symmetry_space_group_name_H-M "P B C N"
_symmetry_group_IT_number 60
_symmetry_cell_setting 'orthorhombic'
loop_
_space_group_symop_operation_xyz
x,y,z
1/2-x,1/2-y,1/2+z
1/2+x,1/2-y,-z
-x,y,1/2-z
-x,-y,-z
1/2+x,1/2+y,1/2-z
1/2-x,1/2+y,z
x,-y,1/2+z
loop_
_atom_site_type_symbol
_atom_site_label
_atom_site_fract_x
_atom_site_fract_y
_atom_site_fract_z
Si Si1 0.571181 0.464410 0.343648
Si Si2 0.716575 0.948359 0.778696
Si Si3 0.825602 0.169179 0.238483
Si Si4 0.267338 0.498883 0.905479
Si Si5 0.778737 0.191221 0.439877
Si Si6 0.730890 0.899566 0.476293
Si Si7 0.130515 0.209338 0.459416
Si Si8 0.102516 0.580328 0.035397
O O1 0.500000 0.439068 0.250000
O O2 0.634470 0.527531 0.331250
O O3 0.426618 0.468689 0.411462
O O4 0.707301 0.425144 0.379572
O O5 0.739057 0.889063 0.730030
O O6 0.690483 0.994002 0.697085
O O7 0.583127 0.941663 0.857028
O O8 0.762781 0.202040 0.328893
O O9 0.805097 0.206195 0.146108
O O10 0.000000 0.153987 0.250000
O O11 0.300162 0.436748 0.941640
O O12 0.150779 0.528158 0.973863
O O13 0.669707 0.231485 0.497125
O O14 0.729281 0.128480 0.464057
O O15 0.951638 0.200488 0.468751
O O16 0.788179 0.837049 0.479551
O O17 0.549728 0.897464 0.488231
#
# Coordination Sequence:
#
# PCOD8246930 Si02
#       8
#     8   8   8   8   8   8   8   8
#     4  10  22  37  59  90 127 164 215 251 308 381
#     4  10  20  36  61  93 126 158 212 257 312 378
#     4   9  18  36  63  92 118 156 204 258 308 368
#     4  11  21  37  62  89 126 168 199 254 315 372
#     4  10  23  42  66  93 124 163 211 261 318 372
#     4  12  23  38  61  91 127 167 208 258 316 378
#     4  11  22  42  68  92 121 163 212 263 314 375
#     4  11  24  40  59  92 134 163 206 263 314 387
#
# _framework density 20.890733000000001
#
# number of rings (size 3 to 8) (size 9 to 14) (size 15 to 20)
#    0.000    1.500    2.500    3.375    3.500    0.500 
#    2.250    5.625    0.000    0.000    0.000    0.000 
#    0.000    0.000    0.000    0.000    0.000    0.000 
#
# Total GULP energy -793115.747622 kJ/mol
# GULP energy per Si atom -12392.433557 kJ/mol
# Density = 2.084318 g / cm^3
# Si number density = 20.890733 Si / 1000 Ang^3
#
#
#
# Elastic Constant Matrix: (Units=GPa)
#
#
# Indices 1 2 3 4 5 6 
#
# 1 83.6846 11.7198 40.7524 0.0000 0.0000 0.0000
# 2 11.7198 65.7482 40.3967 0.0000 0.0000 0.0000
# 3 40.7524 40.3967 115.1165 0.0000 0.0000 0.0000
# 4 0.0000 0.0000 0.0000 33.7623 0.0000 0.0000
# 5 0.0000 0.0000 0.0000 0.0000 22.1500 0.0000
# 6 0.0000 0.0000 0.0000 0.0000 0.0000 32.6952
#
#
#
# Elastic Compliance Matrix: (Units=1/GPa)
#
#
# Indices 1 2 3 4 5 6 
#
# 1 0.014466 0.000724 -0.005375 0.000000 0.000000 0.000000
# 2 0.000724 0.019427 -0.007073 0.000000 0.000000 0.000000
# 3 -0.005375 -0.007073 0.013072 0.000000 0.000000 0.000000
# 4 0.000000 0.000000 0.000000 0.029619 0.000000 0.000000
# 5 0.000000 0.000000 0.000000 0.000000 0.045147 0.000000
# 6 0.000000 0.000000 0.000000 0.000000 0.000000 0.030586
#
#
# Mechanical properties :
#
#
# Convention : Reuss Voigt Hill
#
# Bulk Modulus (GPa) = 42.52592 50.03188 46.27890
# Shear Modulus (GPa) = 27.23269 29.16685 28.19977
#
# Velocity S-wave (km/s) = 3.61443 3.74058 3.67804
# Velocity P-wave (km/s) = 6.14974 6.53125 6.34336
#
# Compressibility (1/GPa) = 0.02351507
#
# Stress axis : x y z
#
# Youngs Moduli (GPa) = 69.12873 51.47601 76.50000
#
# Poissons Ratio (x) = -0.03727 0.41119
# Poissons Ratio (y) = -0.05005 0.54112
# Poissons Ratio (z) = 0.37157 0.36411
#
# Static dielectric constant tensor:
#      x y z
#    x 3.702600 0.000000 0.000000 
#    y 0.000000 3.484660 0.000000 
#    z 0.000000 0.000000 4.047500 
# 
# 
# High freq. dielectric constant tensor:
#      x y z
#    x 1.819350 0.000000 0.000000 
#    y 0.000000 1.791310 0.000000 
#    z 0.000000 0.000000 1.826490 
# 
# From -- ./inp_files/15397.got.cif
#   From: 2010.03.12/outbox.cif.g09.slc.cpg/sg60_8_cif.got.tgz:15397.got - 2010.04.10 18:46:24.
