data_PCOD8246652
_publ_section_title
;
Structure prediction by ZEFSAII (Michael W. Deem and Ramdas Pophale) SiO2 
 PCOD8246652
Probable space group: P B C N
;
_chemical_formula_sum "Si O2"
_cell_formula_units_Z 64
_cell_length_a 9.420932
_cell_length_b 12.653599
_cell_length_c 23.200415
_cell_angle_alpha 90.000000
_cell_angle_beta 90.000000
_cell_angle_gamma 90.000000
_cell_volume 2765.691213
_symmetry_space_group_name_H-M "P B C N"
_symmetry_group_IT_number 60
_symmetry_cell_setting 'orthorhombic'
loop_
_space_group_symop_operation_xyz
x,y,z
1/2-x,1/2-y,1/2+z
1/2+x,1/2-y,-z
-x,y,1/2-z
-x,-y,-z
1/2+x,1/2+y,1/2-z
1/2-x,1/2+y,z
x,-y,1/2+z
loop_
_atom_site_type_symbol
_atom_site_label
_atom_site_fract_x
_atom_site_fract_y
_atom_site_fract_z
Si Si1 0.148789 0.653838 0.122300
Si Si2 0.418038 0.646779 0.694749
Si Si3 0.333362 0.648851 0.430239
Si Si4 0.375953 0.657670 0.031674
Si Si5 0.186887 0.399619 0.435892
Si Si6 0.169162 0.008149 0.332585
Si Si7 0.345489 0.985408 0.224546
Si Si8 0.554158 0.116554 0.016217
O O1 0.093163 0.764657 0.146585
O O2 0.306942 0.655574 0.096146
O O3 0.132497 0.563752 0.170740
O O4 0.053972 0.639825 0.066399
O O5 0.500000 0.696365 0.750000
O O6 0.516658 0.548094 0.675654
O O7 0.253644 0.613705 0.706322
O O8 0.467869 0.608820 0.465411
O O9 0.325379 0.773450 0.433886
O O10 0.355180 0.619999 0.363266
O O11 0.201299 0.574115 0.453895
O O12 0.303060 0.581170 0.985345
O O13 0.380220 0.778959 0.011935
O O14 0.227684 0.435492 0.372082
O O15 0.031957 0.445216 0.462761
O O16 0.251239 0.039574 0.274443
O O17 0.500000 0.950483 0.250000
#
# Coordination Sequence:
#
# PCOD8246652 Si02
#       8
#     8   8   8   8   8   8   8   8
#     4  11  21  41  67  86 122 168 202 255 321 378
#     4  10  23  42  63  88 119 160 210 263 315 372
#     4  10  19  35  59  88 124 162 205 262 315 369
#     4   9  19  36  60  90 119 155 205 255 312 383
#     4   9  20  37  55  85 126 161 201 255 314 374
#     4  11  23  39  62  90 121 162 214 259 304 376
#     4  11  25  42  60  90 121 156 211 258 306 379
#     4   9  19  36  59  89 126 165 205 250 315 383
#
# _framework density 23.140688000000001
#
# number of rings (size 3 to 8) (size 9 to 14) (size 15 to 20)
#    0.000    2.000    0.000    4.125    0.000    5.000 
#    0.000   11.875    0.000    0.000    0.000    0.000 
#    0.000    0.000    0.000    0.000    0.000    0.000 
#
# Total GULP energy -792906.174337 kJ/mol
# GULP energy per Si atom -12389.158974 kJ/mol
# Density = 2.308802 g / cm^3
# Si number density = 23.140688 Si / 1000 Ang^3
#
#
#
# Elastic Constant Matrix: (Units=GPa)
#
#
# Indices 1 2 3 4 5 6 
#
# 1 108.9584 26.9035 12.3708 0.0000 0.0000 0.0000
# 2 26.9035 52.2193 22.8413 0.0000 0.0000 0.0000
# 3 12.3708 22.8413 95.9967 0.0000 0.0000 0.0000
# 4 0.0000 0.0000 0.0000 38.2461 0.0000 0.0000
# 5 0.0000 0.0000 0.0000 0.0000 40.4797 0.0000
# 6 0.0000 0.0000 0.0000 0.0000 0.0000 31.1901
#
#
#
# Elastic Compliance Matrix: (Units=1/GPa)
#
#
# Indices 1 2 3 4 5 6 
#
# 1 0.010516 -0.005386 -0.000074 0.000000 0.000000 0.000000
# 2 -0.005386 0.024133 -0.005048 0.000000 0.000000 0.000000
# 3 -0.000074 -0.005048 0.011628 0.000000 0.000000 0.000000
# 4 0.000000 0.000000 0.000000 0.026146 0.000000 0.000000
# 5 0.000000 0.000000 0.000000 0.000000 0.024704 0.000000
# 6 0.000000 0.000000 0.000000 0.000000 0.000000 0.032061
#
#
# Mechanical properties :
#
#
# Convention : Reuss Voigt Hill
#
# Bulk Modulus (GPa) = 39.58582 42.37841 40.98211
# Shear Modulus (GPa) = 31.52119 34.98710 33.25415
#
# Velocity S-wave (km/s) = 3.69474 3.89257 3.79495
# Velocity P-wave (km/s) = 5.94518 6.20934 6.07870
#
# Compressibility (1/GPa) = 0.02526157
#
# Stress axis : x y z
#
# Youngs Moduli (GPa) = 95.09345 41.43741 86.00187
#
# Poissons Ratio (x) = 0.22317 0.00634
# Poissons Ratio (y) = 0.51214 0.43415
# Poissons Ratio (z) = 0.00701 0.20918
#
# Static dielectric constant tensor:
#      x y z
#    x 4.849890 0.000000 0.000000 
#    y 0.000000 4.221140 0.000000 
#    z 0.000000 0.000000 4.362660 
# 
# 
# High freq. dielectric constant tensor:
#      x y z
#    x 1.936200 0.000000 0.000000 
#    y 0.000000 1.925360 0.000000 
#    z 0.000000 0.000000 1.921840 
# 
# From -- ./inp_files/24086.got.cif
#   From: 2010.03.12/outbox.cif.g09.slc.cpg/sg60_13_cif.got.tgz:24086.got - 2010.04.10 18:46:24.
