data_PCOD8246373
_publ_section_title
;
Structure prediction by ZEFSAII (Michael W. Deem and Ramdas Pophale) SiO2 
 PCOD8246373
Probable space group: P B C N
;
_chemical_formula_sum "Si O2"
_cell_formula_units_Z 60
_cell_length_a 8.918660
_cell_length_b 25.149790
_cell_length_c 14.881527
_cell_angle_alpha 90.000000
_cell_angle_beta 90.000000
_cell_angle_gamma 90.000000
_cell_volume 3337.962610
_symmetry_space_group_name_H-M "P B C N"
_symmetry_group_IT_number 60
_symmetry_cell_setting 'orthorhombic'
loop_
_space_group_symop_operation_xyz
x,y,z
1/2-x,1/2-y,1/2+z
1/2+x,1/2-y,-z
-x,y,1/2-z
-x,-y,-z
1/2+x,1/2+y,1/2-z
1/2-x,1/2+y,z
x,-y,1/2+z
loop_
_atom_site_type_symbol
_atom_site_label
_atom_site_fract_x
_atom_site_fract_y
_atom_site_fract_z
Si Si1 0.868253 0.488163 0.066662
Si Si2 0.752217 0.913265 0.775973
Si Si3 0.000000 0.495677 0.750000
Si Si4 0.183020 0.209046 0.413552
Si Si5 0.833086 0.704084 0.267781
Si Si6 0.348158 0.405865 0.527336
Si Si7 0.837246 0.088147 0.083751
Si Si8 0.165345 0.214243 0.050852
O O1 0.935415 0.470988 0.164507
O O2 0.787392 0.544730 0.064299
O O3 0.758286 0.441368 0.034506
O O4 0.000000 0.500000 0.000000
O O5 0.656870 0.859465 0.769668
O O6 0.844345 0.915692 0.866650
O O7 0.867301 0.917128 0.691627
O O8 0.636588 0.961050 0.785190
O O9 0.224000 0.223923 0.311365
O O10 0.222912 0.147661 0.434882
O O11 0.288148 0.243104 0.477753
O O12 0.008425 0.221901 0.425277
O O13 0.766929 0.725049 0.361689
O O14 0.000000 0.726857 0.250000
O O15 0.523514 0.420843 0.514866
O O16 0.309476 0.344377 0.508256
#
# Coordination Sequence:
#
# PCOD8246373 Si02
#       8
#     8   8   4   8   8   8   8   8
#     4  11  21  33  55  78 109 140 179 222 265 323
#     4   9  16  29  52  79 106 131 173 222 269 311
#     4  10  18  32  48  80 108 132 174 218 266 302
#     4  10  20  36  54  81 110 138 183 225 276 318
#     4  10  18  30  54  81 108 137 173 223 273 317
#     4  10  19  34  53  79 107 142 178 215 277 324
#     4   9  20  33  54  79 108 138 174 230 270 320
#     4  10  21  34  56  79 108 144 180 227 269 331
#
# _framework density 17.975037
#
# number of rings (size 3 to 8) (size 9 to 14) (size 15 to 20)
#    0.000    2.133    2.000    2.000    0.000    4.267 
#    0.000    0.000    5.867    0.000    0.000    0.000 
#    0.000    0.000    0.000    0.000    0.000    0.000 
#
# Total GULP energy -743483.004162 kJ/mol
# GULP energy per Si atom -12391.383403 kJ/mol
# Density = 1.793412 g / cm^3
# Si number density = 17.975037 Si / 1000 Ang^3
#
#
#
# Elastic Constant Matrix: (Units=GPa)
#
#
# Indices 1 2 3 4 5 6 
#
# 1 80.1948 38.6143 44.4297 0.0000 0.0000 0.0000
# 2 38.6143 77.8826 53.4122 0.0000 0.0000 0.0000
# 3 44.4297 53.4122 103.9961 0.0000 0.0000 0.0000
# 4 0.0000 0.0000 0.0000 27.0175 0.0000 0.0000
# 5 0.0000 0.0000 0.0000 0.0000 32.8684 0.0000
# 6 0.0000 0.0000 0.0000 0.0000 0.0000 16.4965
#
#
#
# Elastic Compliance Matrix: (Units=1/GPa)
#
#
# Indices 1 2 3 4 5 6 
#
# 1 0.017772 -0.005564 -0.004735 0.000000 0.000000 0.000000
# 2 -0.005564 0.021564 -0.008698 0.000000 0.000000 0.000000
# 3 -0.004735 -0.008698 0.016106 0.000000 0.000000 0.000000
# 4 0.000000 0.000000 0.000000 0.037013 0.000000 0.000000
# 5 0.000000 0.000000 0.000000 0.000000 0.030424 0.000000
# 6 0.000000 0.000000 0.000000 0.000000 0.000000 0.060619
#
#
# Mechanical properties :
#
#
# Convention : Reuss Voigt Hill
#
# Bulk Modulus (GPa) = 57.31462 59.44289 58.37876
# Shear Modulus (GPa) = 21.99660 23.65095 22.82378
#
# Velocity S-wave (km/s) = 3.50198 3.63128 3.56722
# Velocity P-wave (km/s) = 6.95030 7.12202 7.03668
#
# Compressibility (1/GPa) = 0.01744755
#
# Stress axis : x y z
#
# Youngs Moduli (GPa) = 56.26804 46.37441 62.08940
#
# Poissons Ratio (x) = 0.25804 0.29399
# Poissons Ratio (y) = 0.31309 0.54004
# Poissons Ratio (z) = 0.26642 0.40336
#
# Static dielectric constant tensor:
#      x y z
#    x 3.290890 0.000000 0.000000 
#    y 0.000000 3.203670 0.000000 
#    z 0.000000 0.000000 3.398220 
# 
# 
# High freq. dielectric constant tensor:
#      x y z
#    x 1.710100 0.000000 0.000000 
#    y 0.000000 1.668860 0.000000 
#    z 0.000000 0.000000 1.692540 
# 
# From -- ./inp_files/15385.got.cif
#   From: 2010.03.12/outbox.cif.g09.slc.cpg/sg60_8_cif.got.tgz:15385.got - 2010.04.10 18:46:24.
