data_PCOD8246627
_publ_section_title
;
Structure prediction by ZEFSAII (Michael W. Deem and Ramdas Pophale) SiO2 
 PCOD8246627
Probable space group: P B C N
;
_chemical_formula_sum "Si O2"
_cell_formula_units_Z 40
_cell_length_a 8.418005
_cell_length_b 23.492371
_cell_length_c 8.887052
_cell_angle_alpha 90.000000
_cell_angle_beta 90.000000
_cell_angle_gamma 90.000000
_cell_volume 1757.493597
_symmetry_space_group_name_H-M "P B C N"
_symmetry_group_IT_number 60
_symmetry_cell_setting 'orthorhombic'
loop_
_space_group_symop_operation_xyz
x,y,z
1/2-x,1/2-y,1/2+z
1/2+x,1/2-y,-z
-x,y,1/2-z
-x,-y,-z
1/2+x,1/2+y,1/2-z
1/2-x,1/2+y,z
x,-y,1/2+z
loop_
_atom_site_type_symbol
_atom_site_label
_atom_site_fract_x
_atom_site_fract_y
_atom_site_fract_z
Si Si1 0.808383 0.925242 0.757416
Si Si2 0.590210 0.780993 0.405231
Si Si3 0.326779 0.635786 0.736271
Si Si4 0.792136 0.672015 0.456511
Si Si5 0.666977 0.525487 0.951372
O O1 0.731540 0.864826 0.804627
O O2 0.744948 0.945329 0.593643
O O3 0.000000 0.919458 0.750000
O O4 0.743139 0.971842 0.877100
O O5 0.500000 0.768515 0.250000
O O6 0.726087 0.827921 0.382516
O O7 0.666942 0.723161 0.463256
O O8 0.470661 0.803681 0.533974
O O9 0.500000 0.664634 0.750000
O O10 0.350884 0.571898 0.679031
O O11 0.241668 0.632633 0.898216
O O12 0.500000 0.500000 0.000000
#
# Coordination Sequence:
#
# PCOD8246627 Si02
#       5
#     8   8   8   8   8
#     4  10  19  34  60  89 122 160 207 261 320 388
#     4  10  24  41  62  96 131 170 219 270 327 387
#     4  11  21  38  63  90 123 162 206 260 317 380
#     4  11  22  40  62  89 126 168 212 266 321 382
#     4  10  20  35  59  94 124 156 208 261 321 393
#
# _framework density 22.759685000000001
#
# number of rings (size 3 to 8) (size 9 to 14) (size 15 to 20)
#    0.000    1.600    0.000    7.200    0.000    3.200 
#    0.000    6.000    0.000    2.400    0.000    0.000 
#    0.000    0.000    0.000    0.000    0.000    0.000 
#
# Total GULP energy -495922.747357 kJ/mol
# GULP energy per Si atom -12398.068684 kJ/mol
# Density = 2.270788 g / cm^3
# Si number density = 22.759685 Si / 1000 Ang^3
#
#
#
# Elastic Constant Matrix: (Units=GPa)
#
#
# Indices 1 2 3 4 5 6 
#
# 1 107.2566 59.5813 32.2271 0.0000 0.0000 0.0000
# 2 59.5813 145.9926 54.0474 0.0000 0.0000 0.0000
# 3 32.2271 54.0474 83.6339 0.0000 0.0000 0.0000
# 4 0.0000 0.0000 0.0000 39.6680 0.0000 0.0000
# 5 0.0000 0.0000 0.0000 0.0000 29.0322 0.0000
# 6 0.0000 0.0000 0.0000 0.0000 0.0000 19.9266
#
#
#
# Elastic Compliance Matrix: (Units=1/GPa)
#
#
# Indices 1 2 3 4 5 6 
#
# 1 0.012298 -0.004291 -0.001966 0.000000 0.000000 0.000000
# 2 -0.004291 0.010501 -0.005133 0.000000 0.000000 0.000000
# 3 -0.001966 -0.005133 0.016031 0.000000 0.000000 0.000000
# 4 0.000000 0.000000 0.000000 0.025209 0.000000 0.000000
# 5 0.000000 0.000000 0.000000 0.000000 0.034444 0.000000
# 6 0.000000 0.000000 0.000000 0.000000 0.000000 0.050184
#
#
# Mechanical properties :
#
#
# Convention : Reuss Voigt Hill
#
# Bulk Modulus (GPa) = 62.30089 69.84386 66.07238
# Shear Modulus (GPa) = 28.28095 30.46052 29.37073
#
# Velocity S-wave (km/s) = 3.52886 3.66232 3.59621
# Velocity P-wave (km/s) = 6.63601 6.97407 6.80714
#
# Compressibility (1/GPa) = 0.01605114
#
# Stress axis : x y z
#
# Youngs Moduli (GPa) = 81.31529 95.22821 62.37828
#
# Poissons Ratio (x) = 0.40864 0.12261
# Poissons Ratio (y) = 0.34894 0.32017
# Poissons Ratio (z) = 0.15984 0.48877
#
# Static dielectric constant tensor:
#      x y z
#    x 3.811030 0.000000 0.000000 
#    y 0.000000 4.151810 0.000000 
#    z 0.000000 0.000000 4.400800 
# 
# 
# High freq. dielectric constant tensor:
#      x y z
#    x 1.862350 0.000000 0.000000 
#    y 0.000000 1.908090 0.000000 
#    z 0.000000 0.000000 1.905840 
# 
# From -- ./inp_files/3827.got.cif
#   From: 2010.03.12/outbox.cif.g09.slc.cpg/sg60_2_cif.got.tgz:3827.got - 2010.04.10 18:46:24.
