data_PCOD8246777
_publ_section_title
;
Structure prediction by ZEFSAII (Michael W. Deem and Ramdas Pophale) SiO2 
 PCOD8246777
Probable space group: P B C N
;
_chemical_formula_sum "Si O2"
_cell_formula_units_Z 40
_cell_length_a 13.165683
_cell_length_b 9.757483
_cell_length_c 14.049091
_cell_angle_alpha 90.000000
_cell_angle_beta 90.000000
_cell_angle_gamma 90.000000
_cell_volume 1804.801415
_symmetry_space_group_name_H-M "P B C N"
_symmetry_group_IT_number 60
_symmetry_cell_setting 'orthorhombic'
loop_
_space_group_symop_operation_xyz
x,y,z
1/2-x,1/2-y,1/2+z
1/2+x,1/2-y,-z
-x,y,1/2-z
-x,-y,-z
1/2+x,1/2+y,1/2-z
1/2-x,1/2+y,z
x,-y,1/2+z
loop_
_atom_site_type_symbol
_atom_site_label
_atom_site_fract_x
_atom_site_fract_y
_atom_site_fract_z
Si Si1 0.339169 0.160426 0.579215
Si Si2 0.254304 0.914386 0.689239
Si Si3 0.539453 0.734188 0.146354
Si Si4 0.270736 0.228115 0.379127
Si Si5 0.409902 0.556786 0.803026
O O1 0.275050 0.278670 0.631318
O O2 0.458784 0.201270 0.572134
O O3 0.291852 0.142867 0.474458
O O4 0.330030 0.013087 0.631160
O O5 0.302336 0.866600 0.789750
O O6 0.154638 0.000293 0.714149
O O7 0.500000 0.781693 0.250000
O O8 0.654875 0.784679 0.127770
O O9 0.541920 0.569367 0.137932
O O10 0.345065 0.358393 0.378422
O O11 0.500000 0.641615 0.750000
#
# Coordination Sequence:
#
# PCOD8246777 Si02
#       5
#     8   8   8   8   8
#     4  12  25  43  77 102 140 197 231 297 363 422
#     4  11  23  45  67 103 146 181 233 296 353 422
#     4  10  20  45  69  97 147 194 221 292 375 410
#     4  11  25  42  75 108 139 187 248 292 350 444
#     4  10  19  41  72  97 135 186 234 286 348 416
#
# _framework density 22.163104000000001
#
# number of rings (size 3 to 8) (size 9 to 14) (size 15 to 20)
#    0.000    1.200    8.000    0.000    5.600    2.400 
#    0.000    6.000    0.000    0.000    0.000    0.000 
#    0.000    0.000    0.000    0.000    0.000    0.000 
#
# Total GULP energy -495759.901548 kJ/mol
# GULP energy per Si atom -12393.997539 kJ/mol
# Density = 2.211266 g / cm^3
# Si number density = 22.163104 Si / 1000 Ang^3
#
#
#
# Elastic Constant Matrix: (Units=GPa)
#
#
# Indices 1 2 3 4 5 6 
#
# 1 109.9969 34.2156 29.8470 0.0000 0.0000 0.0000
# 2 34.2156 74.2717 27.4703 0.0000 0.0000 0.0000
# 3 29.8470 27.4703 116.5132 0.0000 0.0000 0.0000
# 4 0.0000 0.0000 0.0000 24.3329 0.0000 0.0000
# 5 0.0000 0.0000 0.0000 0.0000 27.0586 0.0000
# 6 0.0000 0.0000 0.0000 0.0000 0.0000 40.0330
#
#
#
# Elastic Compliance Matrix: (Units=1/GPa)
#
#
# Indices 1 2 3 4 5 6 
#
# 1 0.010934 -0.004383 -0.001768 0.000000 0.000000 0.000000
# 2 -0.004383 0.016508 -0.002769 0.000000 0.000000 0.000000
# 3 -0.001768 -0.002769 0.009688 0.000000 0.000000 0.000000
# 4 0.000000 0.000000 0.000000 0.041097 0.000000 0.000000
# 5 0.000000 0.000000 0.000000 0.000000 0.036957 0.000000
# 6 0.000000 0.000000 0.000000 0.000000 0.000000 0.024979
#
#
# Mechanical properties :
#
#
# Convention : Reuss Voigt Hill
#
# Bulk Modulus (GPa) = 51.84006 53.76085 52.80045
# Shear Modulus (GPa) = 30.40742 32.23481 31.32112
#
# Velocity S-wave (km/s) = 3.70805 3.81784 3.76335
# Velocity P-wave (km/s) = 6.46327 6.61394 6.53904
#
# Compressibility (1/GPa) = 0.01929010
#
# Stress axis : x y z
#
# Youngs Moduli (GPa) = 91.45531 60.57791 103.21650
#
# Poissons Ratio (x) = 0.26554 0.18244
# Poissons Ratio (y) = 0.40089 0.28582
# Poissons Ratio (z) = 0.16165 0.16775
#
# Static dielectric constant tensor:
#      x y z
#    x 4.238410 0.000000 0.000000 
#    y 0.000000 4.022860 0.000000 
#    z 0.000000 0.000000 3.910790 
# 
# 
# High freq. dielectric constant tensor:
#      x y z
#    x 1.874500 0.000000 0.000000 
#    y 0.000000 1.857410 0.000000 
#    z 0.000000 0.000000 1.855520 
# 
# From -- ./inp_files/16631.got.cif
#   From: 2010.03.12/outbox.cif.g09.slc.cpg/sg60_9_cif.got.tgz:16631.got - 2010.04.10 18:46:24.
