data_PCOD8246989
_publ_section_title
;
Structure prediction by ZEFSAII (Michael W. Deem and Ramdas Pophale) SiO2 
 PCOD8246989
Probable space group: P B C N
;
_chemical_formula_sum "Si O2"
_cell_formula_units_Z 40
_cell_length_a 12.409703
_cell_length_b 10.718603
_cell_length_c 12.892287
_cell_angle_alpha 90.000000
_cell_angle_beta 90.000000
_cell_angle_gamma 90.000000
_cell_volume 1714.863427
_symmetry_space_group_name_H-M "P B C N"
_symmetry_group_IT_number 60
_symmetry_cell_setting 'orthorhombic'
loop_
_space_group_symop_operation_xyz
x,y,z
1/2-x,1/2-y,1/2+z
1/2+x,1/2-y,-z
-x,y,1/2-z
-x,-y,-z
1/2+x,1/2+y,1/2-z
1/2-x,1/2+y,z
x,-y,1/2+z
loop_
_atom_site_type_symbol
_atom_site_label
_atom_site_fract_x
_atom_site_fract_y
_atom_site_fract_z
Si Si1 0.757669 0.554906 0.538556
Si Si2 0.618662 0.358299 0.210240
Si Si3 0.703551 0.304173 0.426052
Si Si4 0.015360 0.304466 0.943529
Si Si5 0.493591 0.936206 0.367569
O O1 0.670676 0.540700 0.632238
O O2 0.754284 0.428959 0.472940
O O3 0.735908 0.677828 0.465906
O O4 0.872012 0.569295 0.592951
O O5 0.500000 0.402192 0.250000
O O6 0.702693 0.320372 0.300597
O O7 0.607649 0.236367 0.136139
O O8 0.576895 0.299303 0.456892
O O9 0.958742 0.426048 0.888771
O O10 0.061150 0.339985 0.058677
O O11 0.500000 0.892221 0.250000
#
# Coordination Sequence:
#
# PCOD8246989 Si02
#       5
#     8   8   8   8   8
#     4  11  24  40  63  98 130 167 224 269 319 398
#     4  10  22  41  64  91 133 177 213 269 337 387
#     4  10  23  41  63  92 128 170 215 269 325 384
#     4   9  20  38  60  89 126 170 218 263 322 389
#     4  10  20  37  64  95 132 177 222 271 324 385
#
# _framework density 23.325471
#
# number of rings (size 3 to 8) (size 9 to 14) (size 15 to 20)
#    0.000    2.000    0.000    3.000    0.000   12.800 
#    0.000    6.000    0.000    0.000    0.000    7.000 
#    0.000    0.000    0.000    0.000    0.000    0.000 
#
# Total GULP energy -495527.813434 kJ/mol
# GULP energy per Si atom -12388.195336 kJ/mol
# Density = 2.327238 g / cm^3
# Si number density = 23.325471 Si / 1000 Ang^3
#
#
#
# Elastic Constant Matrix: (Units=GPa)
#
#
# Indices 1 2 3 4 5 6 
#
# 1 58.6622 29.7874 45.0014 0.0000 0.0000 0.0000
# 2 29.7874 117.6113 56.4797 0.0000 0.0000 0.0000
# 3 45.0014 56.4797 210.5731 0.0000 0.0000 0.0000
# 4 0.0000 0.0000 0.0000 26.1684 0.0000 0.0000
# 5 0.0000 0.0000 0.0000 0.0000 42.7249 0.0000
# 6 0.0000 0.0000 0.0000 0.0000 0.0000 14.8133
#
#
#
# Elastic Compliance Matrix: (Units=1/GPa)
#
#
# Indices 1 2 3 4 5 6 
#
# 1 0.021748 -0.003761 -0.003639 0.000000 0.000000 0.000000
# 2 -0.003761 0.010410 -0.001988 0.000000 0.000000 0.000000
# 3 -0.003639 -0.001988 0.006060 0.000000 0.000000 0.000000
# 4 0.000000 0.000000 0.000000 0.038214 0.000000 0.000000
# 5 0.000000 0.000000 0.000000 0.000000 0.023406 0.000000
# 6 0.000000 0.000000 0.000000 0.000000 0.000000 0.067507
#
#
# Mechanical properties :
#
#
# Convention : Reuss Voigt Hill
#
# Bulk Modulus (GPa) = 51.43592 72.15375 61.79483
# Shear Modulus (GPa) = 25.96042 33.77986 29.87014
#
# Velocity S-wave (km/s) = 3.33973 3.80965 3.58240
# Velocity P-wave (km/s) = 6.08038 7.09590 6.60768
#
# Compressibility (1/GPa) = 0.01944167
#
# Stress axis : x y z
#
# Youngs Moduli (GPa) = 45.98142 96.06213 165.01644
#
# Poissons Ratio (x) = 0.36124 0.60051
# Poissons Ratio (y) = 0.17291 0.32813
# Poissons Ratio (z) = 0.16733 0.19102
#
# Static dielectric constant tensor:
#      x y z
#    x 4.244360 0.000000 0.000000 
#    y 0.000000 4.046720 0.000000 
#    z 0.000000 0.000000 4.646860 
# 
# 
# High freq. dielectric constant tensor:
#      x y z
#    x 1.923080 0.000000 0.000000 
#    y 0.000000 1.894880 0.000000 
#    z 0.000000 0.000000 1.936650 
# 
# From -- ./inp_files/11682.got.cif
#   From: 2010.03.12/outbox.cif.g09.slc.cpg/sg60_6_cif.got.tgz:11682.got - 2010.04.10 18:46:24.
