data_PCOD8246224
_publ_section_title
;
Structure prediction by ZEFSAII (Michael W. Deem and Ramdas Pophale) SiO2 
 PCOD8246224
Probable space group: P M M N
;
_chemical_formula_sum "Si O2"
_cell_formula_units_Z 40
_cell_length_a 19.650600
_cell_length_b 9.326889
_cell_length_c 12.792361
_cell_angle_alpha 90.000000
_cell_angle_beta 90.000000
_cell_angle_gamma 90.000000
_cell_volume 2344.570684
_symmetry_space_group_name_H-M "P M M N"
_symmetry_group_IT_number 59
_space_group.IT_coordinate_system_code '2'
_symmetry_cell_setting 'orthorhombic'
loop_
_space_group_symop_operation_xyz
x,y,z
1/2-x,1/2-y,z
1/2+x,-y,-z
-x,1/2+y,-z
-x,-y,-z
1/2+x,1/2+y,-z
1/2-x,y,z
x,1/2-y,z
loop_
_atom_site_type_symbol
_atom_site_label
_atom_site_fract_x
_atom_site_fract_y
_atom_site_fract_z
Si Si1 0.672644 0.918809 0.373988
Si Si2 0.920856 0.918620 0.791885
Si Si3 0.079235 0.587683 0.782008
Si Si4 0.569409 0.083874 0.987030
Si Si5 0.674444 0.579813 0.607028
O O1 0.750000 0.963466 0.347300
O O2 0.663794 0.750000 0.366272
O O3 0.653929 0.973377 0.490900
O O4 0.621834 0.986634 0.291976
O O5 0.909801 0.750000 0.812117
O O6 0.879904 0.976206 0.691220
O O7 0.999932 0.955543 0.774774
O O8 0.890880 0.005856 0.892017
O O9 0.088463 0.750000 0.743177
O O10 0.107486 0.571702 0.901088
O O11 0.555760 0.250000 0.959305
O O12 0.500000 0.000000 0.000000
O O13 0.750000 0.522706 0.635946
O O14 0.675526 0.750000 0.606612
#
# Coordination Sequence:
#
# PCOD8246224 Si02
#       5
#     8   8   8   8   8
#     4   9  18  32  49  68  90 120 159 196 227 267
#     4   9  17  30  49  72  96 121 152 189 228 274
#     4   9  18  30  45  68  96 123 150 185 232 278
#     4   9  17  30  47  68  95 124 153 187 229 274
#     4   8  15  30  50  69  92 123 155 189 231 273
#
# _framework density 17.060692
#
# number of rings (size 3 to 8) (size 9 to 14) (size 15 to 20)
#    0.000    3.200    0.000    3.000    0.000    5.200 
#    0.000    2.000    0.000    5.400    0.000    0.000 
#    0.000    0.000    0.000    0.000    0.000    0.000 
#
# Total GULP energy -495677.407932 kJ/mol
# GULP energy per Si atom -12391.935198 kJ/mol
# Density = 1.702186 g / cm^3
# Si number density = 17.060692 Si / 1000 Ang^3
#
#
#
# Elastic Constant Matrix: (Units=GPa)
#
#
# Indices 1 2 3 4 5 6 
#
# 1 71.1132 31.2140 69.8417 0.0000 0.0000 0.0000
# 2 31.2140 53.4022 51.6790 0.0000 0.0000 0.0000
# 3 69.8417 51.6790 146.0298 0.0000 0.0000 0.0000
# 4 0.0000 0.0000 0.0000 29.0845 0.0000 0.0000
# 5 0.0000 0.0000 0.0000 0.0000 0.9911 0.0000
# 6 0.0000 0.0000 0.0000 0.0000 0.0000 20.8418
#
#
#
# Elastic Compliance Matrix: (Units=1/GPa)
#
#
# Indices 1 2 3 4 5 6 
#
# 1 0.027391 -0.005069 -0.011307 0.000000 0.000000 0.000000
# 2 -0.005069 0.029417 -0.007986 0.000000 0.000000 0.000000
# 3 -0.011307 -0.007986 0.015082 0.000000 0.000000 0.000000
# 4 0.000000 0.000000 0.000000 0.034383 0.000000 0.000000
# 5 0.000000 0.000000 0.000000 0.000000 1.008973 0.000000
# 6 0.000000 0.000000 0.000000 0.000000 0.000000 0.047980
#
#
# Mechanical properties :
#
#
# Convention : Reuss Voigt Hill
#
# Bulk Modulus (GPa) = 43.16475 64.00159 53.58317
# Shear Modulus (GPa) = 4.09946 18.03751 11.06849
#
# Velocity S-wave (km/s) = 1.55180 3.25507 2.54986
# Velocity P-wave (km/s) = 5.34476 7.19186 6.33598
#
# Compressibility (1/GPa) = 0.02316705
#
# Stress axis : x y z
#
# Youngs Moduli (GPa) = 36.50778 33.99381 66.30452
#
# Poissons Ratio (x) = 0.17230 0.74969
# Poissons Ratio (y) = 0.18504 0.52953
# Poissons Ratio (z) = 0.41278 0.27149
#
# Static dielectric constant tensor:
#      x y z
#    x 3.078210 0.000000 0.000000 
#    y 0.000000 3.083220 0.000000 
#    z 0.000000 0.000000 3.829230 
# 
# 
# High freq. dielectric constant tensor:
#      x y z
#    x 1.629490 0.000000 0.000000 
#    y 0.000000 1.640370 0.000000 
#    z 0.000000 0.000000 1.673100 
# 
# From -- ./inp_files/14047.got.cif
#   From: 2010.03.12/outbox.cif.g09.slc.cpg/sg59_8_cif.got.tgz:14047.got - 2010.04.16 16:29:54.
