data_PCOD8246469
_publ_section_title
;
Structure prediction by ZEFSAII (Michael W. Deem and Ramdas Pophale) SiO2 
 PCOD8246469
Probable space group: P B C N
;
_chemical_formula_sum "Si O2"
_cell_formula_units_Z 44
_cell_length_a 8.496589
_cell_length_b 24.790201
_cell_length_c 10.764441
_cell_angle_alpha 90.000000
_cell_angle_beta 90.000000
_cell_angle_gamma 90.000000
_cell_volume 2267.337342
_symmetry_space_group_name_H-M "P B C N"
_symmetry_group_IT_number 60
_symmetry_cell_setting 'orthorhombic'
loop_
_space_group_symop_operation_xyz
x,y,z
1/2-x,1/2-y,1/2+z
1/2+x,1/2-y,-z
-x,y,1/2-z
-x,-y,-z
1/2+x,1/2+y,1/2-z
1/2-x,1/2+y,z
x,-y,1/2+z
loop_
_atom_site_type_symbol
_atom_site_label
_atom_site_fract_x
_atom_site_fract_y
_atom_site_fract_z
Si Si1 0.000000 0.677925 0.750000
Si Si2 0.536268 0.692847 0.894021
Si Si3 0.721076 0.893240 0.420692
Si Si4 0.307639 0.788063 0.474538
Si Si5 0.405022 0.998916 0.627819
Si Si6 0.538130 0.881564 0.882112
O O1 0.125884 0.639905 0.682796
O O2 0.098079 0.716339 0.844172
O O3 0.500000 0.696618 0.750000
O O4 0.605675 0.633701 0.930148
O O5 0.378323 0.707536 0.964691
O O6 0.664276 0.736814 0.937393
O O7 0.736134 0.956813 0.382007
O O8 0.629169 0.891510 0.551184
O O9 0.355088 0.843464 0.537637
O O10 0.500000 0.017381 0.750000
O O11 0.500000 0.000000 0.500000
O O12 0.358481 0.936115 0.643023
O O13 0.500000 0.854107 0.750000
#
# Coordination Sequence:
#
# PCOD8246469 Si02
#       6
#     4   8   8   8   8   8
#     4  10  18  36  62  82 112 150 198 240 300 358
#     4  12  25  40  59  86 122 161 204 248 302 359
#     4  10  19  36  58  89 116 155 200 243 294 363
#     4  11  23  39  58  86 118 157 200 249 299 357
#     4   9  17  31  60  89 117 153 201 248 295 360
#     4   9  19  37  60  90 118 153 201 248 298 353
#
# _framework density 19.406023999999999
#
# number of rings (size 3 to 8) (size 9 to 14) (size 15 to 20)
#    0.000    1.818    2.727    2.727    0.000    0.000 
#    0.000    0.909    0.000    0.000    0.000    0.000 
#    0.000    0.000    0.000    0.000    0.000    0.000 
#
# Total GULP energy -545230.665241 kJ/mol
# GULP energy per Si atom -12391.606028 kJ/mol
# Density = 1.936185 g / cm^3
# Si number density = 19.406024 Si / 1000 Ang^3
#
#
#
# Elastic Constant Matrix: (Units=GPa)
#
#
# Indices 1 2 3 4 5 6 
#
# 1 100.5881 50.4327 29.0482 0.0000 0.0000 0.0000
# 2 50.4327 111.6394 36.0026 0.0000 0.0000 0.0000
# 3 29.0482 36.0026 108.6620 0.0000 0.0000 0.0000
# 4 0.0000 0.0000 0.0000 14.6407 0.0000 0.0000
# 5 0.0000 0.0000 0.0000 0.0000 16.8496 0.0000
# 6 0.0000 0.0000 0.0000 0.0000 0.0000 34.6957
#
#
#
# Elastic Compliance Matrix: (Units=1/GPa)
#
#
# Indices 1 2 3 4 5 6 
#
# 1 0.013137 -0.005376 -0.001730 0.000000 0.000000 0.000000
# 2 -0.005376 0.012229 -0.002615 0.000000 0.000000 0.000000
# 3 -0.001730 -0.002615 0.010532 0.000000 0.000000 0.000000
# 4 0.000000 0.000000 0.000000 0.068303 0.000000 0.000000
# 5 0.000000 0.000000 0.000000 0.000000 0.059349 0.000000
# 6 0.000000 0.000000 0.000000 0.000000 0.000000 0.028822
#
#
# Mechanical properties :
#
#
# Convention : Reuss Voigt Hill
#
# Bulk Modulus (GPa) = 60.77231 61.31738 61.04484
# Shear Modulus (GPa) = 23.00968 26.93092 24.97030
#
# Velocity S-wave (km/s) = 3.44713 3.72931 3.59099
# Velocity P-wave (km/s) = 6.87225 7.08585 6.97987
#
# Compressibility (1/GPa) = 0.01645486
#
# Stress axis : x y z
#
# Youngs Moduli (GPa) = 76.12132 81.76995 94.95091
#
# Poissons Ratio (x) = 0.43964 0.16431
# Poissons Ratio (y) = 0.40927 0.24826
# Poissons Ratio (z) = 0.13173 0.21380
#
# Static dielectric constant tensor:
#      x y z
#    x 3.482600 0.000000 0.000000 
#    y 0.000000 3.915670 0.000000 
#    z 0.000000 0.000000 3.859730 
# 
# 
# High freq. dielectric constant tensor:
#      x y z
#    x 1.713890 0.000000 0.000000 
#    y 0.000000 1.762910 0.000000 
#    z 0.000000 0.000000 1.774960 
# 
# From -- ./inp_files/10026.got.cif
#   From: 2010.03.12/outbox.cif.g09.slc.cpg/sg60_6_cif.got.tgz:10026.got - 2010.04.10 18:46:24.
