data_PCOD8246985
_publ_section_title
;
Structure prediction by ZEFSAII (Michael W. Deem and Ramdas Pophale) SiO2 
 PCOD8246985
Probable space group: P B C N
;
_chemical_formula_sum "Si O2"
_cell_formula_units_Z 48
_cell_length_a 7.339957
_cell_length_b 18.284601
_cell_length_c 18.720396
_cell_angle_alpha 90.000000
_cell_angle_beta 90.000000
_cell_angle_gamma 90.000000
_cell_volume 2512.430372
_symmetry_space_group_name_H-M "P B C N"
_symmetry_group_IT_number 60
_symmetry_cell_setting 'orthorhombic'
loop_
_space_group_symop_operation_xyz
x,y,z
1/2-x,1/2-y,1/2+z
1/2+x,1/2-y,-z
-x,y,1/2-z
-x,-y,-z
1/2+x,1/2+y,1/2-z
1/2-x,1/2+y,z
x,-y,1/2+z
loop_
_atom_site_type_symbol
_atom_site_label
_atom_site_fract_x
_atom_site_fract_y
_atom_site_fract_z
Si Si1 0.012633 0.455590 0.669407
Si Si2 0.273742 0.460472 0.425808
Si Si3 0.468195 0.786973 0.670121
Si Si4 0.363477 0.462348 0.584047
Si Si5 0.383023 0.705133 0.083926
Si Si6 0.752201 0.709727 0.571733
O O1 0.875653 0.495556 0.617200
O O2 0.000000 0.485085 0.750000
O O3 0.964052 0.370248 0.664419
O O4 0.218827 0.471374 0.646680
O O5 0.264863 0.482327 0.509314
O O6 0.474663 0.481692 0.397690
O O7 0.232027 0.375942 0.414017
O O8 0.500000 0.757208 0.750000
O O9 0.255278 0.780586 0.649382
O O10 0.583522 0.738747 0.616378
O O11 0.441638 0.379810 0.580147
O O12 0.561318 0.753109 0.097499
O O13 0.281258 0.728181 0.011139
#
# Coordination Sequence:
#
# PCOD8246985 Si02
#       6
#     8   8   8   8   8   8
#     4  10  21  39  60  83 116 156 193 232 291 353
#     4  10  21  37  57  89 114 149 192 241 293 337
#     4  10  22  40  60  86 118 154 197 245 290 352
#     4   9  20  38  60  85 114 147 195 242 284 342
#     4  10  20  37  63  87 113 155 198 237 290 354
#     4  11  21  37  60  88 117 153 196 242 294 345
#
# _framework density 19.105008000000002
#
# number of rings (size 3 to 8) (size 9 to 14) (size 15 to 20)
#    0.000    2.000    1.667    1.500    0.000    2.667 
#    9.000    5.000    0.000    0.000    0.000    0.000 
#    0.000    0.000    0.000    0.000    0.000    0.000 
#
# Total GULP energy -595379.845908 kJ/mol
# GULP energy per Si atom -12403.746790 kJ/mol
# Density = 1.906152 g / cm^3
# Si number density = 19.105008 Si / 1000 Ang^3
#
#
#
# Elastic Constant Matrix: (Units=GPa)
#
#
# Indices 1 2 3 4 5 6 
#
# 1 94.0423 47.4230 33.7556 0.0000 0.0000 0.0000
# 2 47.4230 64.2009 36.0845 0.0000 0.0000 0.0000
# 3 33.7556 36.0845 72.2849 0.0000 0.0000 0.0000
# 4 0.0000 0.0000 0.0000 -14.1916 0.0000 0.0000
# 5 0.0000 0.0000 0.0000 0.0000 26.7620 0.0000
# 6 0.0000 0.0000 0.0000 0.0000 0.0000 35.0238
#
#
#
# Elastic Compliance Matrix: (Units=1/GPa)
#
#
# Indices 1 2 3 4 5 6 
#
# 1 0.017229 -0.011404 -0.002353 0.000000 0.000000 0.000000
# 2 -0.011404 0.029199 -0.009251 0.000000 0.000000 0.000000
# 3 -0.002353 -0.009251 0.019551 0.000000 0.000000 0.000000
# 4 0.000000 0.000000 0.000000 -0.070464 0.000000 0.000000
# 5 0.000000 0.000000 0.000000 0.000000 0.037366 0.000000
# 6 0.000000 0.000000 0.000000 0.000000 0.000000 0.028552
#
#
# Mechanical properties :
#
#
# Convention : Reuss Voigt Hill
#
# Bulk Modulus (GPa) = 50.09024 51.67271 50.88147
# Shear Modulus (GPa) = 43.82043 17.06985 30.44514
#
# Velocity S-wave (km/s) = 4.79441 2.99235 3.99628
# Velocity P-wave (km/s) = 7.54479 6.24854 6.92705
#
# Compressibility (1/GPa) = 0.01996397
#
# Stress axis : x y z
#
# Youngs Moduli (GPa) = 58.04278 34.24745 51.14891
#
# Poissons Ratio (x) = 0.39056 0.12033
# Poissons Ratio (y) = 0.66192 0.47317
# Poissons Ratio (z) = 0.13655 0.31682
#
# Static dielectric constant tensor:
#      x y z
#    x 3.431800 0.000000 0.000000 
#    y 0.000000 3.471800 0.000000 
#    z 0.000000 0.000000 3.560710 
# 
# 
# High freq. dielectric constant tensor:
#      x y z
#    x 1.747770 0.000000 0.000000 
#    y 0.000000 1.738810 0.000000 
#    z 0.000000 0.000000 1.740450 
# 
# From -- ./inp_files/21592.got.cif
#   From: 2010.03.12/outbox.cif.g09.slc.cpg/sg60_11_cif.got.tgz:21592.got - 2010.04.10 18:46:24.
