data_PCOD8246851
_publ_section_title
;
Structure prediction by ZEFSAII (Michael W. Deem and Ramdas Pophale) SiO2 
 PCOD8246851
Probable space group: P B C N
;
_chemical_formula_sum "Si O2"
_cell_formula_units_Z 60
_cell_length_a 11.361183
_cell_length_b 29.614376
_cell_length_c 8.638859
_cell_angle_alpha 90.000000
_cell_angle_beta 90.000000
_cell_angle_gamma 90.000000
_cell_volume 2906.581648
_symmetry_space_group_name_H-M "P B C N"
_symmetry_group_IT_number 60
_symmetry_cell_setting 'orthorhombic'
loop_
_space_group_symop_operation_xyz
x,y,z
1/2-x,1/2-y,1/2+z
1/2+x,1/2-y,-z
-x,y,1/2-z
-x,-y,-z
1/2+x,1/2+y,1/2-z
1/2-x,1/2+y,z
x,-y,1/2+z
loop_
_atom_site_type_symbol
_atom_site_label
_atom_site_fract_x
_atom_site_fract_y
_atom_site_fract_z
Si Si1 0.500000 0.506900 0.250000
Si Si2 0.987349 0.672059 0.077478
Si Si3 0.266707 0.158977 0.932031
Si Si4 0.393664 0.560590 0.515148
Si Si5 0.636137 0.290217 0.496700
Si Si6 0.706980 0.873462 0.396345
Si Si7 0.459718 0.640071 0.077720
Si Si8 0.826996 0.249270 0.679801
O O1 0.410018 0.537863 0.347519
O O2 0.583496 0.476651 0.355593
O O3 0.921474 0.720824 0.083463
O O4 0.000000 0.651989 0.250000
O O5 0.920680 0.635140 0.972167
O O6 0.116198 0.679174 0.006584
O O7 0.300467 0.125496 0.791029
O O8 0.178129 0.198060 0.875731
O O9 0.182306 0.135254 0.060306
O O10 0.261137 0.579753 0.538567
O O11 0.484482 0.602316 0.535497
O O12 0.713249 0.332041 0.444444
O O13 0.506630 0.309356 0.534213
O O14 0.696128 0.270275 0.653274
O O15 0.636396 0.251795 0.361307
O O16 0.500000 0.628071 0.250000
#
# Coordination Sequence:
#
# PCOD8246851 Si02
#       8
#     4   8   8   8   8   8   8   8
#     4  10  20  34  66 108 130 158 186 232 316 382
#     4  11  24  38  60  85 117 160 226 265 316 360
#     4  11  24  38  61  84 116 171 218 263 316 361
#     4  10  20  39  64  97 135 157 190 244 303 379
#     4   9  21  38  57  77 111 155 207 248 319 353
#     4   9  21  42  60  84 122 161 204 246 300 377
#     4  11  24  38  59  90 125 162 209 251 312 381
#     4  10  22  38  56  79 114 157 205 283 307 357
#
# _framework density 20.642804000000002
#
# number of rings (size 3 to 8) (size 9 to 14) (size 15 to 20)
#    0.000    1.867    0.667    2.000   11.200    3.733 
#    0.000    0.000    0.000    0.000    0.000   23.333 
#    0.000    0.000    0.000    0.000    0.000    0.000 
#
# Total GULP energy -743627.196911 kJ/mol
# GULP energy per Si atom -12393.786615 kJ/mol
# Density = 2.059582 g / cm^3
# Si number density = 20.642804 Si / 1000 Ang^3
#
#
#
# Elastic Constant Matrix: (Units=GPa)
#
#
# Indices 1 2 3 4 5 6 
#
# 1 118.8456 37.4842 49.2692 0.0000 0.0000 0.0000
# 2 37.4842 84.2772 41.4645 0.0000 0.0000 0.0000
# 3 49.2692 41.4645 124.1282 0.0000 0.0000 0.0000
# 4 0.0000 0.0000 0.0000 18.2691 0.0000 0.0000
# 5 0.0000 0.0000 0.0000 0.0000 36.0065 0.0000
# 6 0.0000 0.0000 0.0000 0.0000 0.0000 19.6060
#
#
#
# Elastic Compliance Matrix: (Units=1/GPa)
#
#
# Indices 1 2 3 4 5 6 
#
# 1 0.010751 -0.003210 -0.003195 0.000000 0.000000 0.000000
# 2 -0.003210 0.015158 -0.003789 0.000000 0.000000 0.000000
# 3 -0.003195 -0.003789 0.010590 0.000000 0.000000 0.000000
# 4 0.000000 0.000000 0.000000 0.054737 0.000000 0.000000
# 5 0.000000 0.000000 0.000000 0.000000 0.027773 0.000000
# 6 0.000000 0.000000 0.000000 0.000000 0.000000 0.051005
#
#
# Mechanical properties :
#
#
# Convention : Reuss Voigt Hill
#
# Bulk Modulus (GPa) = 62.07135 64.85407 63.46271
# Shear Modulus (GPa) = 25.53984 28.04520 26.79252
#
# Velocity S-wave (km/s) = 3.52124 3.68991 3.60656
# Velocity P-wave (km/s) = 6.83130 7.04552 6.93924
#
# Compressibility (1/GPa) = 0.01611049
#
# Stress axis : x y z
#
# Youngs Moduli (GPa) = 93.01219 65.97357 94.42686
#
# Poissons Ratio (x) = 0.21176 0.30171
# Poissons Ratio (y) = 0.29855 0.35781
# Poissons Ratio (z) = 0.29719 0.24999
#
# Static dielectric constant tensor:
#      x y z
#    x 3.768540 0.000000 0.000000 
#    y 0.000000 3.674290 0.000000 
#    z 0.000000 0.000000 3.997510 
# 
# 
# High freq. dielectric constant tensor:
#      x y z
#    x 1.797970 0.000000 0.000000 
#    y 0.000000 1.774060 0.000000 
#    z 0.000000 0.000000 1.813310 
# 
# From -- ./inp_files/5295.got.cif
#   From: 2010.03.12/outbox.cif.g09.slc.cpg/sg60_3_cif.got.tgz:5295.got - 2010.04.10 18:46:24.
