data_PCOD8246143
_publ_section_title
;
Structure prediction by ZEFSAII (Michael W. Deem and Ramdas Pophale) SiO2 
 PCOD8246143
Probable space group: P M M N
;
_chemical_formula_sum "Si O2"
_cell_formula_units_Z 64
_cell_length_a 9.481639
_cell_length_b 14.089198
_cell_length_c 29.343829
_cell_angle_alpha 90.000000
_cell_angle_beta 90.000000
_cell_angle_gamma 90.000000
_cell_volume 3920.003653
_symmetry_space_group_name_H-M "P M M N"
_symmetry_group_IT_number 59
_space_group.IT_coordinate_system_code '2'
_symmetry_cell_setting 'orthorhombic'
loop_
_space_group_symop_operation_xyz
x,y,z
1/2-x,1/2-y,z
1/2+x,-y,-z
-x,1/2+y,-z
-x,-y,-z
1/2+x,1/2+y,-z
1/2-x,y,z
x,1/2-y,z
loop_
_atom_site_type_symbol
_atom_site_label
_atom_site_fract_x
_atom_site_fract_y
_atom_site_fract_z
Si Si1 0.581650 0.644159 0.073806
Si Si2 0.582670 0.643684 0.346503
Si Si3 0.415389 0.466393 0.839499
Si Si4 0.914086 0.144074 0.109968
Si Si5 0.592450 0.636624 0.974869
Si Si6 0.086531 0.642152 0.513270
Si Si7 0.585001 0.543359 0.435736
Si Si8 0.917355 0.642285 0.246307
O O1 0.750000 0.644886 0.074261
O O2 0.522037 0.750000 0.080103
O O3 0.519475 0.584095 0.115841
O O4 0.534527 0.601272 0.024419
O O5 0.750000 0.645196 0.344470
O O6 0.528447 0.750000 0.358517
O O7 0.531468 0.568749 0.384772
O O8 0.524424 0.612993 0.296512
O O9 0.250000 0.444552 0.837834
O O10 0.446015 0.578659 0.845791
O O11 0.483216 0.426939 0.792496
O O12 0.750000 0.141439 0.097673
O O13 0.965537 0.250000 0.122298
O O14 0.991504 0.101628 0.065652
O O15 0.750000 0.598008 0.965285
O O16 0.594696 0.750000 0.976755
O O17 0.250000 0.634751 0.499379
O O18 0.048856 0.750000 0.528659
O O19 0.052655 0.567858 0.554234
O O20 0.995234 0.613270 0.469853
O O21 0.750000 0.565541 0.441345
O O22 0.750000 0.633686 0.246723
O O23 0.962305 0.750000 0.234858
#
# Coordination Sequence:
#
# PCOD8246143 Si02
#       8
#     8   8   8   8   8   8   8   8
#     4   8  13  21  34  52  71  90 115 147 179 212
#     4   8  13  21  35  56  78  98 124 160 196 227
#     4   9  15  22  34  51  72  98 121 143 180 225
#     4   9  17  27  37  51  73  98 121 145 174 211
#     4   8  14  25  39  53  70  92 118 148 178 208
#     4   9  17  27  38  56  84 113 139 169 201 231
#     4   9  16  26  41  59  80 109 141 168 197 236
#     4   8  13  21  34  54  78  98 118 152 196 232
#
# _framework density 16.326515000000001
#
# number of rings (size 3 to 8) (size 9 to 14) (size 15 to 20)
#    0.000    3.500    0.000    2.250    0.000    2.750 
#    0.000    0.000    0.000    0.750    0.000    6.125 
#    0.000    2.500    0.000    4.000    0.000    4.500 
#
# Total GULP energy -792859.472621 kJ/mol
# GULP energy per Si atom -12388.429260 kJ/mol
# Density = 1.628935 g / cm^3
# Si number density = 16.326515 Si / 1000 Ang^3
#
#
#
# Elastic Constant Matrix: (Units=GPa)
#
#
# Indices 1 2 3 4 5 6 
#
# 1 17.6932 16.7815 21.7519 0.0000 0.0000 0.0000
# 2 16.7815 100.6400 79.3680 0.0000 0.0000 0.0000
# 3 21.7519 79.3680 152.1742 0.0000 0.0000 0.0000
# 4 0.0000 0.0000 0.0000 28.9029 0.0000 0.0000
# 5 0.0000 0.0000 0.0000 0.0000 13.4032 0.0000
# 6 0.0000 0.0000 0.0000 0.0000 0.0000 9.7689
#
#
#
# Elastic Compliance Matrix: (Units=1/GPa)
#
#
# Indices 1 2 3 4 5 6 
#
# 1 0.070997 -0.006515 -0.006750 0.000000 0.000000 0.000000
# 2 -0.006515 0.017477 -0.008184 0.000000 0.000000 0.000000
# 3 -0.006750 -0.008184 0.011805 0.000000 0.000000 0.000000
# 4 0.000000 0.000000 0.000000 0.034599 0.000000 0.000000
# 5 0.000000 0.000000 0.000000 0.000000 0.074609 0.000000
# 6 0.000000 0.000000 0.000000 0.000000 0.000000 0.102365
#
#
# Mechanical properties :
#
#
# Convention : Reuss Voigt Hill
#
# Bulk Modulus (GPa) = 17.42765 56.25666 36.84215
# Shear Modulus (GPa) = 13.37337 20.58875 16.98106
#
# Velocity S-wave (km/s) = 2.86513 3.55500 3.22854
# Velocity P-wave (km/s) = 4.65220 7.16817 6.04258
#
# Compressibility (1/GPa) = 0.05738009
#
# Stress axis : x y z
#
# Youngs Moduli (GPa) = 14.08505 57.21816 84.71134
#
# Poissons Ratio (x) = 0.37278 0.57184
# Poissons Ratio (y) = 0.09176 0.69328
# Poissons Ratio (z) = 0.09508 0.46828
#
# Static dielectric constant tensor:
#      x y z
#    x 2.666790 0.000000 0.000000 
#    y 0.000000 3.178740 0.000000 
#    z 0.000000 0.000000 3.439740 
# 
# 
# High freq. dielectric constant tensor:
#      x y z
#    x 1.572590 0.000000 0.000000 
#    y 0.000000 1.623790 0.000000 
#    z 0.000000 0.000000 1.620670 
# 
# From -- ./inp_files/33245.got.cif
#   From: 2010.03.12/outbox.cif.g09.slc.cpg/sg59_17_cif.got.tgz:33245.got - 2010.04.16 16:29:54.
