data_PCOD8246946
_publ_section_title
;
Structure prediction by ZEFSAII (Michael W. Deem and Ramdas Pophale) SiO2 
 PCOD8246946
Probable space group: P B C N
;
_chemical_formula_sum "Si O2"
_cell_formula_units_Z 56
_cell_length_a 22.170050
_cell_length_b 13.416017
_cell_length_c 8.880922
_cell_angle_alpha 90.000000
_cell_angle_beta 90.000000
_cell_angle_gamma 90.000000
_cell_volume 2641.486091
_symmetry_space_group_name_H-M "P B C N"
_symmetry_group_IT_number 60
_symmetry_cell_setting 'orthorhombic'
loop_
_space_group_symop_operation_xyz
x,y,z
1/2-x,1/2-y,1/2+z
1/2+x,1/2-y,-z
-x,y,1/2-z
-x,-y,-z
1/2+x,1/2+y,1/2-z
1/2-x,1/2+y,z
x,-y,1/2+z
loop_
_atom_site_type_symbol
_atom_site_label
_atom_site_fract_x
_atom_site_fract_y
_atom_site_fract_z
Si Si1 0.209586 0.491373 0.778389
Si Si2 0.500000 0.752984 0.250000
Si Si3 0.871960 0.429610 0.462222
Si Si4 0.000000 0.265659 0.750000
Si Si5 0.796868 0.160397 0.631418
Si Si6 0.426105 0.866830 0.500956
Si Si7 0.701550 0.802020 0.908324
Si Si8 0.581760 0.291391 0.999828
O O1 0.156656 0.560462 0.705451
O O2 0.268408 0.554083 0.825452
O O3 0.227228 0.404799 0.661785
O O4 0.183964 0.437044 0.924530
O O5 0.462893 0.825683 0.359625
O O6 0.454202 0.681237 0.154805
O O7 0.922404 0.513197 0.498179
O O8 0.904442 0.325546 0.483501
O O9 0.045020 0.336062 0.658857
O O10 0.962854 0.192814 0.640103
O O11 0.810801 0.217309 0.786178
O O12 0.752012 0.228750 0.530708
O O13 0.858158 0.144655 0.533274
O O14 0.358636 0.822583 0.497479
#
# Coordination Sequence:
#
# PCOD8246946 Si02
#       8
#     8   4   8   4   8   8   8   8
#     4  11  21  38  55  91 128 162 195 258 308 367
#     4  10  24  35  58  86 127 162 220 242 297 382
#     4  11  20  36  57  82 134 157 204 254 297 374
#     4  10  20  37  52  78 127 154 220 240 299 364
#     4  12  23  39  66  89 124 169 205 253 326 368
#     4  10  20  37  53  84 122 172 197 253 301 359
#     4  11  24  39  61  93 126 160 207 258 312 374
#     4  11  22  37  57  87 118 166 203 254 305 368
#
# _framework density 21.200187
#
# number of rings (size 3 to 8) (size 9 to 14) (size 15 to 20)
#    0.000    1.143    5.714    2.571    2.000    3.429 
#    0.000    0.000    0.000    0.000    0.000    3.000 
#    0.000    0.000    0.000    0.000    0.000    0.000 
#
# Total GULP energy -694353.605807 kJ/mol
# GULP energy per Si atom -12399.171532 kJ/mol
# Density = 2.115193 g / cm^3
# Si number density = 21.200187 Si / 1000 Ang^3
#
#
#
# Elastic Constant Matrix: (Units=GPa)
#
#
# Indices 1 2 3 4 5 6 
#
# 1 122.1229 17.8991 45.6655 0.0000 0.0000 0.0000
# 2 17.8991 20.1409 12.1117 0.0000 0.0000 0.0000
# 3 45.6655 12.1117 107.7464 0.0000 0.0000 0.0000
# 4 0.0000 0.0000 0.0000 12.0065 0.0000 0.0000
# 5 0.0000 0.0000 0.0000 0.0000 43.1866 0.0000
# 6 0.0000 0.0000 0.0000 0.0000 0.0000 27.4033
#
#
#
# Elastic Compliance Matrix: (Units=1/GPa)
#
#
# Indices 1 2 3 4 5 6 
#
# 1 0.010628 -0.007225 -0.003692 0.000000 0.000000 0.000000
# 2 -0.007225 0.058161 -0.003476 0.000000 0.000000 0.000000
# 3 -0.003692 -0.003476 0.011237 0.000000 0.000000 0.000000
# 4 0.000000 0.000000 0.000000 0.083288 0.000000 0.000000
# 5 0.000000 0.000000 0.000000 0.000000 0.023155 0.000000
# 6 0.000000 0.000000 0.000000 0.000000 0.000000 0.036492
#
#
# Mechanical properties :
#
#
# Convention : Reuss Voigt Hill
#
# Bulk Modulus (GPa) = 19.51602 44.59585 32.05594
# Shear Modulus (GPa) = 18.59933 28.14153 23.37043
#
# Velocity S-wave (km/s) = 2.96517 3.64733 3.32380
# Velocity P-wave (km/s) = 4.57696 6.23046 5.46659
#
# Compressibility (1/GPa) = 0.05123995
#
# Stress axis : x y z
#
# Youngs Moduli (GPa) = 94.09080 17.19368 88.99448
#
# Poissons Ratio (x) = 0.12422 0.32859
# Poissons Ratio (y) = 0.67978 0.30933
# Poissons Ratio (z) = 0.34741 0.05976
#
# Static dielectric constant tensor:
#      x y z
#    x 4.096140 0.000000 0.000000 
#    y 0.000000 3.336350 0.000000 
#    z 0.000000 0.000000 4.265300 
# 
# 
# High freq. dielectric constant tensor:
#      x y z
#    x 1.838110 0.000000 0.000000 
#    y 0.000000 1.770250 0.000000 
#    z 0.000000 0.000000 1.858260 
# 
# From -- ./inp_files/7451.got.cif
#   From: 2010.03.12/outbox.cif.g09.slc.cpg/sg60_4_cif.got.tgz:7451.got - 2010.04.10 18:46:24.
