data_PCOD8246756
_publ_section_title
;
Structure prediction by ZEFSAII (Michael W. Deem and Ramdas Pophale) SiO2 
 PCOD8246756
Probable space group: P B C N
;
_chemical_formula_sum "Si O2"
_cell_formula_units_Z 52
_cell_length_a 12.475801
_cell_length_b 9.400988
_cell_length_c 21.555431
_cell_angle_alpha 90.000000
_cell_angle_beta 90.000000
_cell_angle_gamma 90.000000
_cell_volume 2528.125610
_symmetry_space_group_name_H-M "P B C N"
_symmetry_group_IT_number 60
_symmetry_cell_setting 'orthorhombic'
loop_
_space_group_symop_operation_xyz
x,y,z
1/2-x,1/2-y,1/2+z
1/2+x,1/2-y,-z
-x,y,1/2-z
-x,-y,-z
1/2+x,1/2+y,1/2-z
1/2-x,1/2+y,z
x,-y,1/2+z
loop_
_atom_site_type_symbol
_atom_site_label
_atom_site_fract_x
_atom_site_fract_y
_atom_site_fract_z
Si Si1 0.500000 0.258695 0.750000
Si Si2 0.627570 0.496608 0.301698
Si Si3 0.835697 0.519396 0.717339
Si Si4 0.881139 0.386021 0.463084
Si Si5 0.258380 0.377140 0.594065
Si Si6 0.585322 0.804560 0.813648
Si Si7 0.569181 0.034914 0.095710
O O1 0.447331 0.364298 0.700111
O O2 0.400715 0.165969 0.773915
O O3 0.718059 0.481161 0.247446
O O4 0.671810 0.501940 0.371885
O O5 0.554397 0.356394 0.296140
O O6 0.904749 0.393491 0.749641
O O7 0.831749 0.505775 0.641757
O O8 0.824928 0.241065 0.442735
O O9 0.817213 0.533542 0.451911
O O10 0.891446 0.374113 0.537243
O O11 0.996810 0.400851 0.428463
O O12 0.199546 0.299535 0.651324
O O13 0.502568 0.867450 0.861324
#
# Coordination Sequence:
#
# PCOD8246756 Si02
#       7
#     4   8   8   8   8   8   8
#     4  12  24  38  62 100 130 162 212 268 322 392
#     4  11  24  38  65  97 125 164 215 268 321 391
#     4  11  21  41  65  92 128 168 208 264 329 386
#     4  10  21  39  63  90 117 169 215 253 312 387
#     4  10  19  39  64  87 119 160 218 256 303 384
#     4  10  20  38  63  87 122 166 204 253 323 383
#     4  10  21  38  65  85 124 167 208 254 326 377
#
# _framework density 20.568598000000001
#
# number of rings (size 3 to 8) (size 9 to 14) (size 15 to 20)
#    0.000    1.538    3.077    2.769    4.308    0.000 
#    5.538    0.769    0.000    0.000    0.000    0.000 
#    0.000    0.000    0.000    0.000    0.000    0.000 
#
# Total GULP energy -644188.701942 kJ/mol
# GULP energy per Si atom -12388.244268 kJ/mol
# Density = 2.052178 g / cm^3
# Si number density = 20.568598 Si / 1000 Ang^3
#
#
#
# Elastic Constant Matrix: (Units=GPa)
#
#
# Indices 1 2 3 4 5 6 
#
# 1 18.5542 -8.8344 13.2699 0.0000 0.0000 0.0000
# 2 -8.8344 88.2359 23.9254 0.0000 0.0000 0.0000
# 3 13.2699 23.9254 147.4816 0.0000 0.0000 0.0000
# 4 0.0000 0.0000 0.0000 5.7783 0.0000 0.0000
# 5 0.0000 0.0000 0.0000 0.0000 24.6783 0.0000
# 6 0.0000 0.0000 0.0000 0.0000 0.0000 24.3843
#
#
#
# Elastic Compliance Matrix: (Units=1/GPa)
#
#
# Indices 1 2 3 4 5 6 
#
# 1 0.062778 0.008177 -0.006975 0.000000 0.000000 0.000000
# 2 0.008177 0.012920 -0.002832 0.000000 0.000000 0.000000
# 3 -0.006975 -0.002832 0.007867 0.000000 0.000000 0.000000
# 4 0.000000 0.000000 0.000000 0.173060 0.000000 0.000000
# 5 0.000000 0.000000 0.000000 0.000000 0.040521 0.000000
# 6 0.000000 0.000000 0.000000 0.000000 0.000000 0.041010
#
#
# Mechanical properties :
#
#
# Convention : Reuss Voigt Hill
#
# Bulk Modulus (GPa) = 12.45246 34.55483 23.50364
# Shear Modulus (GPa) = 13.58013 26.02891 19.80452
#
# Velocity S-wave (km/s) = 2.57229 3.56120 3.10635
# Velocity P-wave (km/s) = 3.85869 5.80911 4.93129
#
# Compressibility (1/GPa) = 0.08030542
#
# Stress axis : x y z
#
# Youngs Moduli (GPa) = 15.92914 77.40099 127.10577
#
# Poissons Ratio (x) = -0.63289 0.88657
# Poissons Ratio (y) = -0.13025 0.35992
# Poissons Ratio (z) = 0.11111 0.21917
#
# Static dielectric constant tensor:
#      x y z
#    x 3.865890 0.000000 0.000000 
#    y 0.000000 3.663380 0.000000 
#    z 0.000000 0.000000 3.917190 
# 
# 
# High freq. dielectric constant tensor:
#      x y z
#    x 1.796410 0.000000 0.000000 
#    y 0.000000 1.803480 0.000000 
#    z 0.000000 0.000000 1.803470 
# 
# From -- ./inp_files/22841.got.cif
#   From: 2010.03.12/outbox.cif.g09.slc.cpg/sg60_12_cif.got.tgz:22841.got - 2010.04.10 18:46:24.
