data_PCOD8246931
_publ_section_title
;
Structure prediction by ZEFSAII (Michael W. Deem and Ramdas Pophale) SiO2 
 PCOD8246931
Probable space group: P B C N
;
_chemical_formula_sum "Si O2"
_cell_formula_units_Z 48
_cell_length_a 23.051876
_cell_length_b 20.828652
_cell_length_c 5.273483
_cell_angle_alpha 90.000000
_cell_angle_beta 90.000000
_cell_angle_gamma 90.000000
_cell_volume 2532.007507
_symmetry_space_group_name_H-M "P B C N"
_symmetry_group_IT_number 60
_symmetry_cell_setting 'orthorhombic'
loop_
_space_group_symop_operation_xyz
x,y,z
1/2-x,1/2-y,1/2+z
1/2+x,1/2-y,-z
-x,y,1/2-z
-x,-y,-z
1/2+x,1/2+y,1/2-z
1/2-x,1/2+y,z
x,-y,1/2+z
loop_
_atom_site_type_symbol
_atom_site_label
_atom_site_fract_x
_atom_site_fract_y
_atom_site_fract_z
Si Si1 0.876251 0.271428 0.838427
Si Si2 0.000000 0.771272 0.250000
Si Si3 0.698386 0.477747 0.087720
Si Si4 0.698725 0.668722 0.638575
Si Si5 0.814913 0.709992 0.849517
Si Si6 0.071465 0.031687 0.373513
Si Si7 0.500000 0.351696 0.750000
O O1 0.853367 0.197548 0.811060
O O2 0.847487 0.313197 0.608036
O O3 0.945547 0.273681 0.818424
O O4 0.858304 0.298019 0.112589
O O5 0.017220 0.811024 0.501874
O O6 0.733750 0.494539 0.345459
O O7 0.682921 0.403081 0.056381
O O8 0.640527 0.521368 0.120821
O O9 0.758382 0.667153 0.798547
O O10 0.706036 0.715378 0.391001
O O11 0.056139 0.106229 0.327947
O O12 0.043596 0.006720 0.635513
#
# Coordination Sequence:
#
# PCOD8246931 Si02
#       7
#     8   4   8   8   8   8   4
#     4  10  22  35  54  80 103 134 183 230 289 308
#     4  12  26  35  54  78 106 148 174 249 260 314
#     4  10  24  32  50  73 107 142 168 229 269 327
#     4  10  21  37  58  80 103 132 198 223 287 322
#     4  10  20  36  62  79  95 138 184 246 268 334
#     4  10  21  35  45  62  88 135 189 223 252 293
#     4  12  24  35  52  62 102 150 204 215 254 292
#
# _framework density 18.95729
#
# number of rings (size 3 to 8) (size 9 to 14) (size 15 to 20)
#    1.000    0.667    1.667    2.500   11.667    0.000 
#    0.000    0.000    0.000    0.000    0.000    0.000 
#    0.000    0.000    0.000   15.000    0.000    0.000 
#
# Total GULP energy -594719.274967 kJ/mol
# GULP energy per Si atom -12389.984895 kJ/mol
# Density = 1.891414 g / cm^3
# Si number density = 18.957290 Si / 1000 Ang^3
#
#
#
# Elastic Constant Matrix: (Units=GPa)
#
#
# Indices 1 2 3 4 5 6 
#
# 1 86.3334 4.9989 14.7158 0.0000 0.0000 0.0000
# 2 4.9989 25.0342 2.1900 0.0000 0.0000 0.0000
# 3 14.7158 2.1900 152.0438 0.0000 0.0000 0.0000
# 4 0.0000 0.0000 0.0000 14.5552 0.0000 0.0000
# 5 0.0000 0.0000 0.0000 0.0000 19.5324 0.0000
# 6 0.0000 0.0000 0.0000 0.0000 0.0000 12.2832
#
#
#
# Elastic Compliance Matrix: (Units=1/GPa)
#
#
# Indices 1 2 3 4 5 6 
#
# 1 0.011906 -0.002279 -0.001119 0.000000 0.000000 0.000000
# 2 -0.002279 0.040432 -0.000362 0.000000 0.000000 0.000000
# 3 -0.001119 -0.000362 0.006691 0.000000 0.000000 0.000000
# 4 0.000000 0.000000 0.000000 0.068704 0.000000 0.000000
# 5 0.000000 0.000000 0.000000 0.000000 0.051197 0.000000
# 6 0.000000 0.000000 0.000000 0.000000 0.000000 0.081412
#
#
# Mechanical properties :
#
#
# Convention : Reuss Voigt Hill
#
# Bulk Modulus (GPa) = 19.41478 34.13564 26.77521
# Shear Modulus (GPa) = 17.54189 25.37461 21.45825
#
# Velocity S-wave (km/s) = 3.04524 3.66254 3.36806
# Velocity P-wave (km/s) = 4.75691 5.99427 5.41108
#
# Compressibility (1/GPa) = 0.05150716
#
# Stress axis : x y z
#
# Youngs Moduli (GPa) = 83.99258 24.73281 149.46312
#
# Poissons Ratio (x) = 0.05638 0.16732
# Poissons Ratio (y) = 0.19146 0.05407
# Poissons Ratio (z) = 0.09403 0.00895
#
# Static dielectric constant tensor:
#      x y z
#    x 3.195060 0.000000 0.000000 
#    y 0.000000 2.837840 0.000000 
#    z 0.000000 0.000000 4.474840 
# 
# 
# High freq. dielectric constant tensor:
#      x y z
#    x 1.709190 0.000000 0.000000 
#    y 0.000000 1.663730 0.000000 
#    z 0.000000 0.000000 1.772270 
# 
# From -- ./inp_files/2369.got.cif
#   From: 2010.03.12/outbox.cif.g09.slc.cpg/sg60_2_cif.got.tgz:2369.got - 2010.04.10 18:46:24.
