data_PCOD8246409
_publ_section_title
;
Structure prediction by ZEFSAII (Michael W. Deem and Ramdas Pophale) SiO2 
 PCOD8246409
Probable space group: P B C N
;
_chemical_formula_sum "Si O2"
_cell_formula_units_Z 52
_cell_length_a 19.507562
_cell_length_b 8.336725
_cell_length_c 15.966452
_cell_angle_alpha 90.000000
_cell_angle_beta 90.000000
_cell_angle_gamma 90.000000
_cell_volume 2596.610993
_symmetry_space_group_name_H-M "P B C N"
_symmetry_group_IT_number 60
_symmetry_cell_setting 'orthorhombic'
loop_
_space_group_symop_operation_xyz
x,y,z
1/2-x,1/2-y,1/2+z
1/2+x,1/2-y,-z
-x,y,1/2-z
-x,-y,-z
1/2+x,1/2+y,1/2-z
1/2-x,1/2+y,z
x,-y,1/2+z
loop_
_atom_site_type_symbol
_atom_site_label
_atom_site_fract_x
_atom_site_fract_y
_atom_site_fract_z
Si Si1 0.614377 0.626574 0.707342
Si Si2 0.159345 0.177299 0.969674
Si Si3 0.362933 0.141500 0.158061
Si Si4 0.000000 0.108197 0.250000
Si Si5 0.280417 0.563800 0.195173
Si Si6 0.897233 0.285343 0.365295
Si Si7 0.707471 0.641764 0.967323
O O1 0.627155 0.719479 0.620488
O O2 0.590407 0.744996 0.782932
O O3 0.554364 0.497075 0.698471
O O4 0.686124 0.541038 0.732151
O O5 0.102762 0.229811 0.037984
O O6 0.230186 0.272945 0.984641
O O7 0.170420 0.983782 0.970577
O O8 0.295331 0.123280 0.217755
O O9 0.345547 0.225230 0.068658
O O10 0.401543 0.976701 0.140587
O O11 0.963836 0.216822 0.319810
O O12 0.327595 0.718234 0.176290
O O13 0.266218 0.462690 0.110716
#
# Coordination Sequence:
#
# PCOD8246409 Si02
#       7
#     8   8   8   4   8   8   8
#     4  10  24  35  60  84 122 154 201 239 289 338
#     4  11  20  36  55  94 118 157 175 256 292 343
#     4  11  18  37  62  89 110 160 187 237 289 376
#     4  10  24  46  54  80 110 172 208 238 274 360
#     4   9  17  35  55  87 113 157 180 230 289 369
#     4  10  19  37  64  76 118 150 204 233 294 335
#     4  10  18  32  57  85 128 140 184 220 311 362
#
# _framework density 20.026104
#
# number of rings (size 3 to 8) (size 9 to 14) (size 15 to 20)
#    0.000    1.846    4.615    1.846    2.154    1.231 
#    0.000    0.000    0.000    2.769    0.000    0.000 
#    0.000    0.000    0.000    0.000    0.000    0.000 
#
# Total GULP energy -644632.011605 kJ/mol
# GULP energy per Si atom -12396.769454 kJ/mol
# Density = 1.998052 g / cm^3
# Si number density = 20.026104 Si / 1000 Ang^3
#
#
#
# Elastic Constant Matrix: (Units=GPa)
#
#
# Indices 1 2 3 4 5 6 
#
# 1 50.2200 18.7484 11.8086 0.0000 0.0000 0.0000
# 2 18.7484 114.2664 13.5979 0.0000 0.0000 0.0000
# 3 11.8086 13.5979 78.2577 0.0000 0.0000 0.0000
# 4 0.0000 0.0000 0.0000 15.3365 0.0000 0.0000
# 5 0.0000 0.0000 0.0000 0.0000 19.3126 0.0000
# 6 0.0000 0.0000 0.0000 0.0000 0.0000 24.1790
#
#
#
# Elastic Compliance Matrix: (Units=1/GPa)
#
#
# Indices 1 2 3 4 5 6 
#
# 1 0.021764 -0.003247 -0.002720 0.000000 0.000000 0.000000
# 2 -0.003247 0.009421 -0.001147 0.000000 0.000000 0.000000
# 3 -0.002720 -0.001147 0.013388 0.000000 0.000000 0.000000
# 4 0.000000 0.000000 0.000000 0.065204 0.000000 0.000000
# 5 0.000000 0.000000 0.000000 0.000000 0.051780 0.000000
# 6 0.000000 0.000000 0.000000 0.000000 0.000000 0.041358
#
#
# Mechanical properties :
#
#
# Convention : Reuss Voigt Hill
#
# Bulk Modulus (GPa) = 32.95458 36.78377 34.86917
# Shear Modulus (GPa) = 22.00145 25.00490 23.50318
#
# Velocity S-wave (km/s) = 3.31817 3.53741 3.42954
# Velocity P-wave (km/s) = 5.58318 5.92386 5.75604
#
# Compressibility (1/GPa) = 0.03034479
#
# Stress axis : x y z
#
# Youngs Moduli (GPa) = 45.94695 106.14834 74.69383
#
# Poissons Ratio (x) = 0.34470 0.20316
# Poissons Ratio (y) = 0.14921 0.08567
# Poissons Ratio (z) = 0.12497 0.12174
#
# Static dielectric constant tensor:
#      x y z
#    x 3.346820 0.000000 0.000000 
#    y 0.000000 3.903430 0.000000 
#    z 0.000000 0.000000 3.398480 
# 
# 
# High freq. dielectric constant tensor:
#      x y z
#    x 1.748440 0.000000 0.000000 
#    y 0.000000 1.798320 0.000000 
#    z 0.000000 0.000000 1.759330 
# 
# From -- ./inp_files/17692.got.cif
#   From: 2010.03.12/outbox.cif.g09.slc.cpg/sg60_9_cif.got.tgz:17692.got - 2010.04.10 18:46:24.
