data_PCOD8246362
_publ_section_title
;
Structure prediction by ZEFSAII (Michael W. Deem and Ramdas Pophale) SiO2 
 PCOD8246362
Probable space group: P B C N
;
_chemical_formula_sum "Si O2"
_cell_formula_units_Z 64
_cell_length_a 31.059163
_cell_length_b 13.308952
_cell_length_c 9.442776
_cell_angle_alpha 90.000000
_cell_angle_beta 90.000000
_cell_angle_gamma 90.000000
_cell_volume 3903.312247
_symmetry_space_group_name_H-M "P B C N"
_symmetry_group_IT_number 60
_symmetry_cell_setting 'orthorhombic'
loop_
_space_group_symop_operation_xyz
x,y,z
1/2-x,1/2-y,1/2+z
1/2+x,1/2-y,-z
-x,y,1/2-z
-x,-y,-z
1/2+x,1/2+y,1/2-z
1/2-x,1/2+y,z
x,-y,1/2+z
loop_
_atom_site_type_symbol
_atom_site_label
_atom_site_fract_x
_atom_site_fract_y
_atom_site_fract_z
Si Si1 0.101104 0.384716 0.544851
Si Si2 0.455981 0.121029 0.305961
Si Si3 0.457147 0.107791 0.808890
Si Si4 0.685545 0.771827 0.381414
Si Si5 0.684957 0.772849 0.053552
Si Si6 0.770810 0.103032 0.881957
Si Si7 0.101127 0.615314 0.550326
Si Si8 0.729666 0.398006 0.052907
O O1 0.085395 0.371982 0.704305
O O2 0.059880 0.344678 0.454686
O O3 0.142581 0.318673 0.515826
O O4 0.111575 0.500589 0.503840
O O5 0.500000 0.176214 0.250000
O O6 0.436436 0.164805 0.451985
O O7 0.470141 0.007198 0.338180
O O8 0.500000 0.163775 0.750000
O O9 0.416280 0.116327 0.708092
O O10 0.677731 0.741334 0.217370
O O11 0.723037 0.853402 0.391647
O O12 0.643950 0.819363 0.454916
O O13 0.696164 0.674940 0.475070
O O14 0.722407 0.854788 0.042252
O O15 0.695588 0.676402 0.958585
O O16 0.783876 0.087154 0.717308
O O17 0.771638 0.000789 0.968141
#
# Coordination Sequence:
#
# PCOD8246362 Si02
#       8
#     8   8   8   8   8   8   8   8
#     4  10  18  29  45  69  99 133 167 203 236 284
#     4   9  18  28  42  65  97 133 167 201 240 284
#     4   9  16  28  44  63  93 133 167 195 238 286
#     4  10  20  34  50  73  99 129 167 202 238 285
#     4  10  20  34  50  73  99 129 167 202 238 285
#     4  10  21  36  53  72  98 130 161 201 246 287
#     4  10  18  29  45  69  99 133 167 203 236 284
#     4  10  21  36  53  72  98 130 161 201 246 287
#
# _framework density 16.396331
#
# number of rings (size 3 to 8) (size 9 to 14) (size 15 to 20)
#    0.000    2.250    1.250    2.250    1.750    4.000 
#    0.000    0.000    0.000    0.000    0.000    0.000 
#    0.000    6.000    0.000    0.000    0.000    0.000 
#
# Total GULP energy -793202.599978 kJ/mol
# GULP energy per Si atom -12393.790625 kJ/mol
# Density = 1.635901 g / cm^3
# Si number density = 16.396331 Si / 1000 Ang^3
#
#
#
# Elastic Constant Matrix: (Units=GPa)
#
#
# Indices 1 2 3 4 5 6 
#
# 1 66.9732 22.5915 19.9752 0.0000 0.0000 0.0000
# 2 22.5915 70.6850 40.4486 0.0000 0.0000 0.0000
# 3 19.9752 40.4486 96.7126 0.0000 0.0000 0.0000
# 4 0.0000 0.0000 0.0000 25.1204 0.0000 0.0000
# 5 0.0000 0.0000 0.0000 0.0000 27.0139 0.0000
# 6 0.0000 0.0000 0.0000 0.0000 0.0000 20.8206
#
#
#
# Elastic Compliance Matrix: (Units=1/GPa)
#
#
# Indices 1 2 3 4 5 6 
#
# 1 0.016927 -0.004482 -0.001622 0.000000 0.000000 0.000000
# 2 -0.004482 0.019785 -0.007349 0.000000 0.000000 0.000000
# 3 -0.001622 -0.007349 0.013748 0.000000 0.000000 0.000000
# 4 0.000000 0.000000 0.000000 0.039808 0.000000 0.000000
# 5 0.000000 0.000000 0.000000 0.000000 0.037018 0.000000
# 6 0.000000 0.000000 0.000000 0.000000 0.000000 0.048029
#
#
# Mechanical properties :
#
#
# Convention : Reuss Voigt Hill
#
# Bulk Modulus (GPa) = 42.45364 44.48904 43.47134
# Shear Modulus (GPa) = 23.80122 24.68136 24.24129
#
# Velocity S-wave (km/s) = 3.81414 3.88403 3.84924
# Velocity P-wave (km/s) = 6.73389 6.87798 6.80632
#
# Compressibility (1/GPa) = 0.02355511
#
# Stress axis : x y z
#
# Youngs Moduli (GPa) = 59.07761 50.54281 72.73522
#
# Poissons Ratio (x) = 0.22654 0.11795
# Poissons Ratio (y) = 0.26479 0.53454
# Poissons Ratio (z) = 0.09580 0.37145
#
# Static dielectric constant tensor:
#      x y z
#    x 3.158440 0.000000 0.000000 
#    y 0.000000 2.698020 0.000000 
#    z 0.000000 0.000000 3.333980 
# 
# 
# High freq. dielectric constant tensor:
#      x y z
#    x 1.633970 0.000000 0.000000 
#    y 0.000000 1.572480 0.000000 
#    z 0.000000 0.000000 1.656230 
# 
# From -- ./inp_files/8512.got.cif
#   From: 2010.03.12/outbox.cif.g09.slc.cpg/sg60_5_cif.got.tgz:8512.got - 2010.04.10 18:46:24.
