data_PCOD8246230
_publ_section_title
;
Structure prediction by ZEFSAII (Michael W. Deem and Ramdas Pophale) SiO2 
 PCOD8246230
Probable space group: P M M N
;
_chemical_formula_sum "Si O2"
_cell_formula_units_Z 64
_cell_length_a 9.334390
_cell_length_b 25.012097
_cell_length_c 18.453733
_cell_angle_alpha 90.000000
_cell_angle_beta 90.000000
_cell_angle_gamma 90.000000
_cell_volume 4308.442280
_symmetry_space_group_name_H-M "P M M N"
_symmetry_group_IT_number 59
_space_group.IT_coordinate_system_code '2'
_symmetry_cell_setting 'orthorhombic'
loop_
_space_group_symop_operation_xyz
x,y,z
1/2-x,1/2-y,z
1/2+x,-y,-z
-x,1/2+y,-z
-x,-y,-z
1/2+x,1/2+y,-z
1/2-x,y,z
x,1/2-y,z
loop_
_atom_site_type_symbol
_atom_site_label
_atom_site_fract_x
_atom_site_fract_y
_atom_site_fract_z
Si Si1 0.586468 0.311083 0.285518
Si Si2 0.417713 0.002069 0.610118
Si Si3 0.587795 0.043013 0.904360
Si Si4 0.414245 0.609054 0.835726
Si Si5 0.414291 0.008178 0.774089
Si Si6 0.916282 0.920897 0.516525
Si Si7 0.083142 0.309204 0.429677
Si Si8 0.088015 0.423954 0.033985
O O1 0.750000 0.326503 0.303620
O O2 0.571181 0.250000 0.261804
O O3 0.529180 0.345785 0.218723
O O4 0.494636 0.324116 0.355727
O O5 0.250000 0.988850 0.608662
O O6 0.457260 0.053563 0.560945
O O7 0.467444 0.015460 0.691544
O O8 0.497153 0.949532 0.580794
O O9 0.750000 0.064526 0.897235
O O10 0.513064 0.044643 0.825618
O O11 0.587026 0.983919 0.936654
O O12 0.498091 0.080699 0.958580
O O13 0.250000 0.618380 0.858939
O O14 0.432346 0.553182 0.795210
O O15 0.510604 0.613538 0.907380
O O16 0.250000 0.026788 0.783441
O O17 0.750000 0.930228 0.533719
O O18 0.952670 0.857157 0.513900
O O19 0.250000 0.307898 0.412230
O O20 0.034158 0.250000 0.458742
O O21 0.250000 0.403987 0.021349
#
# Coordination Sequence:
#
# PCOD8246230 Si02
#       8
#     8   8   8   8   8   8   8   8
#     4   9  17  28  41  57  77 102 133 167 199 230
#     4   9  17  28  41  57  78 105 134 164 200 240
#     4   9  16  25  37  53  74  98 123 153 185 217
#     4   9  16  25  37  53  74 100 128 157 189 226
#     4   9  16  25  37  53  74 100 128 157 191 231
#     4   9  17  28  41  57  78 104 134 166 199 238
#     4   9  17  28  41  57  78 104 133 166 202 237
#     4   9  16  25  37  53  73  98 126 152 181 218
#
# _framework density 14.854557
#
# number of rings (size 3 to 8) (size 9 to 14) (size 15 to 20)
#    0.000    3.000    0.000    1.500    0.000    5.500 
#    0.000    2.500    0.000    0.000    0.000    0.000 
#    0.000    1.000    0.000    4.000    0.000    2.250 
#
# Total GULP energy -793379.212467 kJ/mol
# GULP energy per Si atom -12396.550195 kJ/mol
# Density = 1.482075 g / cm^3
# Si number density = 14.854557 Si / 1000 Ang^3
#
#
#
# Elastic Constant Matrix: (Units=GPa)
#
#
# Indices 1 2 3 4 5 6 
#
# 1 65.3720 24.7324 45.0003 0.0000 0.0000 0.0000
# 2 24.7324 63.2118 35.5219 0.0000 0.0000 0.0000
# 3 45.0003 35.5219 104.7852 0.0000 0.0000 0.0000
# 4 0.0000 0.0000 0.0000 21.3872 0.0000 0.0000
# 5 0.0000 0.0000 0.0000 0.0000 25.2697 0.0000
# 6 0.0000 0.0000 0.0000 0.0000 0.0000 14.7210
#
#
#
# Elastic Compliance Matrix: (Units=1/GPa)
#
#
# Indices 1 2 3 4 5 6 
#
# 1 0.022578 -0.004182 -0.008279 0.000000 0.000000 0.000000
# 2 -0.004182 0.020317 -0.005092 0.000000 0.000000 0.000000
# 3 -0.008279 -0.005092 0.014825 0.000000 0.000000 0.000000
# 4 0.000000 0.000000 0.000000 0.046757 0.000000 0.000000
# 5 0.000000 0.000000 0.000000 0.000000 0.039573 0.000000
# 6 0.000000 0.000000 0.000000 0.000000 0.000000 0.067930
#
#
# Mechanical properties :
#
#
# Convention : Reuss Voigt Hill
#
# Bulk Modulus (GPa) = 44.21664 49.31979 46.76822
# Shear Modulus (GPa) = 19.63693 20.81654 20.22673
#
# Velocity S-wave (km/s) = 3.63980 3.74753 3.69406
# Velocity P-wave (km/s) = 6.89168 7.21105 7.05317
#
# Compressibility (1/GPa) = 0.02261592
#
# Stress axis : x y z
#
# Youngs Moduli (GPa) = 44.29116 49.21928 67.45543
#
# Poissons Ratio (x) = 0.20582 0.55843
# Poissons Ratio (y) = 0.18522 0.34346
# Poissons Ratio (z) = 0.36667 0.25061
#
# Static dielectric constant tensor:
#      x y z
#    x 2.980800 0.000000 0.000000 
#    y 0.000000 2.745880 0.000000 
#    z 0.000000 0.000000 2.906680 
# 
# 
# High freq. dielectric constant tensor:
#      x y z
#    x 1.574770 0.000000 0.000000 
#    y 0.000000 1.529400 0.000000 
#    z 0.000000 0.000000 1.558960 
# 
# From -- ./inp_files/26606.got.cif
#   From: 2010.03.12/outbox.cif.g09.slc.cpg/sg59_14_cif.got.tgz:26606.got - 2010.04.16 16:29:54.
