data_PCOD8246430
_publ_section_title
;
Structure prediction by ZEFSAII (Michael W. Deem and Ramdas Pophale) SiO2 
 PCOD8246430
Probable space group: P B C N
;
_chemical_formula_sum "Si O2"
_cell_formula_units_Z 64
_cell_length_a 11.736333
_cell_length_b 17.383409
_cell_length_c 16.233634
_cell_angle_alpha 90.000000
_cell_angle_beta 90.000000
_cell_angle_gamma 90.000000
_cell_volume 3311.945046
_symmetry_space_group_name_H-M "P B C N"
_symmetry_group_IT_number 60
_symmetry_cell_setting 'orthorhombic'
loop_
_space_group_symop_operation_xyz
x,y,z
1/2-x,1/2-y,1/2+z
1/2+x,1/2-y,-z
-x,y,1/2-z
-x,-y,-z
1/2+x,1/2+y,1/2-z
1/2-x,1/2+y,z
x,-y,1/2+z
loop_
_atom_site_type_symbol
_atom_site_label
_atom_site_fract_x
_atom_site_fract_y
_atom_site_fract_z
Si Si1 0.936775 0.789049 0.074624
Si Si2 0.271352 0.378038 0.310058
Si Si3 0.077289 0.081463 0.058348
Si Si4 0.634098 0.299649 0.818946
Si Si5 0.401076 0.759045 0.351373
Si Si6 0.822405 0.811602 0.358689
Si Si7 0.758284 0.329501 0.533747
Si Si8 0.332586 0.485260 0.921825
O O1 0.846234 0.819196 0.139100
O O2 0.884607 0.707498 0.042796
O O3 0.051080 0.780291 0.126649
O O4 0.960036 0.847689 0.000005
O O5 0.142438 0.343890 0.322051
O O6 0.310952 0.374741 0.214564
O O7 0.286958 0.463564 0.345729
O O8 0.131702 0.115310 0.141683
O O9 0.966772 0.033842 0.087533
O O10 0.171500 0.030687 0.009625
O O11 0.621842 0.304768 0.720359
O O12 0.538043 0.242866 0.860671
O O13 0.756972 0.265964 0.837435
O O14 0.338492 0.730355 0.434081
O O15 0.769136 0.849870 0.439632
O O16 0.749109 0.411131 0.580243
#
# Coordination Sequence:
#
# PCOD8246430 Si02
#       8
#     8   8   8   8   8   8   8   8
#     4  10  19  35  57  86 117 153 199 251 292 339
#     4   9  21  36  56  85 116 159 189 246 300 359
#     4  10  18  34  54  86 114 150 195 247 297 344
#     4  10  18  34  58  86 108 146 199 260 278 339
#     4   9  19  35  56  84 110 146 201 241 298 341
#     4  11  20  34  59  89 112 149 207 244 289 349
#     4  11  20  35  56  84 122 155 190 243 297 356
#     4  10  20  35  54  85 126 155 187 240 313 361
#
# _framework density 19.323993000000002
#
# number of rings (size 3 to 8) (size 9 to 14) (size 15 to 20)
#    0.000    2.000    3.750    0.375    0.000    0.000 
#    2.250    1.250    0.000    3.000   26.000    0.000 
#    0.000    0.000    0.000    0.000    0.000    0.000 
#
# Total GULP energy -793115.288329 kJ/mol
# GULP energy per Si atom -12392.426380 kJ/mol
# Density = 1.928001 g / cm^3
# Si number density = 19.323993 Si / 1000 Ang^3
#
#
#
# Elastic Constant Matrix: (Units=GPa)
#
#
# Indices 1 2 3 4 5 6 
#
# 1 50.4914 21.8928 -6.7283 0.0000 0.0000 0.0000
# 2 21.8928 94.6539 26.5721 0.0000 0.0000 0.0000
# 3 -6.7283 26.5721 84.7370 0.0000 0.0000 0.0000
# 4 0.0000 0.0000 0.0000 31.5702 0.0000 0.0000
# 5 0.0000 0.0000 0.0000 0.0000 21.6696 0.0000
# 6 0.0000 0.0000 0.0000 0.0000 0.0000 27.5544
#
#
#
# Elastic Compliance Matrix: (Units=1/GPa)
#
#
# Indices 1 2 3 4 5 6 
#
# 1 0.023104 -0.006424 0.003849 0.000000 0.000000 0.000000
# 2 -0.006424 0.013371 -0.004703 0.000000 0.000000 0.000000
# 3 0.003849 -0.004703 0.013582 0.000000 0.000000 0.000000
# 4 0.000000 0.000000 0.000000 0.031675 0.000000 0.000000
# 5 0.000000 0.000000 0.000000 0.000000 0.046148 0.000000
# 6 0.000000 0.000000 0.000000 0.000000 0.000000 0.036292
#
#
# Mechanical properties :
#
#
# Convention : Reuss Voigt Hill
#
# Bulk Modulus (GPa) = 28.16909 34.81728 31.49319
# Shear Modulus (GPa) = 26.23828 28.70188 27.47008
#
# Velocity S-wave (km/s) = 3.68884 3.85814 3.77444
# Velocity P-wave (km/s) = 5.72296 6.15660 5.94374
#
# Compressibility (1/GPa) = 0.03549990
#
# Stress axis : x y z
#
# Youngs Moduli (GPa) = 43.28287 74.78883 73.62886
#
# Poissons Ratio (x) = 0.48047 -0.28340
# Poissons Ratio (y) = 0.27806 0.34628
# Poissons Ratio (z) = -0.16660 0.35173
#
# Static dielectric constant tensor:
#      x y z
#    x 3.579110 0.000000 0.000000 
#    y 0.000000 3.376040 0.000000 
#    z 0.000000 0.000000 3.821090 
# 
# 
# High freq. dielectric constant tensor:
#      x y z
#    x 1.735080 0.000000 0.000000 
#    y 0.000000 1.721510 0.000000 
#    z 0.000000 0.000000 1.765040 
# 
# From -- ./inp_files/20292.got.cif
#   From: 2010.03.12/outbox.cif.g09.slc.cpg/sg60_11_cif.got.tgz:20292.got - 2010.04.10 18:46:24.
