data_PCOD8246847
_publ_section_title
;
Structure prediction by ZEFSAII (Michael W. Deem and Ramdas Pophale) SiO2 
 PCOD8246847
Probable space group: P B C N
;
_chemical_formula_sum "Si O2"
_cell_formula_units_Z 40
_cell_length_a 7.883225
_cell_length_b 23.165338
_cell_length_c 8.905968
_cell_angle_alpha 90.000000
_cell_angle_beta 90.000000
_cell_angle_gamma 90.000000
_cell_volume 1626.386249
_symmetry_space_group_name_H-M "P B C N"
_symmetry_group_IT_number 60
_symmetry_cell_setting 'orthorhombic'
loop_
_space_group_symop_operation_xyz
x,y,z
1/2-x,1/2-y,1/2+z
1/2+x,1/2-y,-z
-x,y,1/2-z
-x,-y,-z
1/2+x,1/2+y,1/2-z
1/2-x,1/2+y,z
x,-y,1/2+z
loop_
_atom_site_type_symbol
_atom_site_label
_atom_site_fract_x
_atom_site_fract_y
_atom_site_fract_z
Si Si1 0.000000 0.011313 0.750000
Si Si2 0.325706 0.426784 0.975869
Si Si3 0.257424 0.305039 0.866457
Si Si4 0.924384 0.574437 0.512276
Si Si5 0.865925 0.303368 0.952668
Si Si6 0.500000 0.993667 0.750000
O O1 0.872211 0.969338 0.660112
O O2 0.083034 0.054932 0.629150
O O3 0.363514 0.360063 0.926954
O O4 0.126778 0.427443 0.007449
O O5 0.342615 0.248054 0.932344
O O6 0.265212 0.298772 0.685756
O O7 0.060004 0.307615 0.904496
O O8 0.831453 0.635343 0.535562
O O9 0.872249 0.533653 0.650974
O O10 0.872551 0.545917 0.351671
#
# Coordination Sequence:
#
# PCOD8246847 Si02
#       6
#     4   8   8   8   8   4
#     4  10  22  38  62  94 128 174 212 254 310 378
#     4  10  21  39  61  89 127 163 211 258 311 372
#     4  10  23  43  64  91 124 164 211 265 317 377
#     4  10  20  38  61  91 124 163 205 260 315 373
#     4  10  23  42  65  91 125 163 211 264 319 378
#     4  10  20  34  60  90 120 154 200 248 314 376
#
# _framework density 24.594404000000001
#
# number of rings (size 3 to 8) (size 9 to 14) (size 15 to 20)
#    0.000    2.000    0.000    3.600    0.000    8.800 
#    0.000    6.000    0.000    4.800    0.000    0.000 
#    0.000    0.000    0.000    0.000    0.000    0.000 
#
# Total GULP energy -495654.510675 kJ/mol
# GULP energy per Si atom -12391.362767 kJ/mol
# Density = 2.453843 g / cm^3
# Si number density = 24.594404 Si / 1000 Ang^3
#
#
#
# Elastic Constant Matrix: (Units=GPa)
#
#
# Indices 1 2 3 4 5 6 
#
# 1 43.9618 49.3712 47.6240 0.0000 0.0000 0.0000
# 2 49.3712 246.7024 91.6695 0.0000 0.0000 0.0000
# 3 47.6240 91.6695 136.2053 0.0000 0.0000 0.0000
# 4 0.0000 0.0000 0.0000 43.0596 0.0000 0.0000
# 5 0.0000 0.0000 0.0000 0.0000 20.7383 0.0000
# 6 0.0000 0.0000 0.0000 0.0000 0.0000 41.2359
#
#
#
# Elastic Compliance Matrix: (Units=1/GPa)
#
#
# Indices 1 2 3 4 5 6 
#
# 1 0.038927 -0.003644 -0.011158 0.000000 0.000000 0.000000
# 2 -0.003644 0.005746 -0.002593 0.000000 0.000000 0.000000
# 3 -0.011158 -0.002593 0.012989 0.000000 0.000000 0.000000
# 4 0.000000 0.000000 0.000000 0.023224 0.000000 0.000000
# 5 0.000000 0.000000 0.000000 0.000000 0.048220 0.000000
# 6 0.000000 0.000000 0.000000 0.000000 0.000000 0.024251
#
#
# Mechanical properties :
#
#
# Convention : Reuss Voigt Hill
#
# Bulk Modulus (GPa) = 43.72355 89.35545 66.53950
# Shear Modulus (GPa) = 25.53994 36.88709 31.21352
#
# Velocity S-wave (km/s) = 3.22599 3.87695 3.56635
# Velocity P-wave (km/s) = 5.62960 7.51342 6.63867
#
# Compressibility (1/GPa) = 0.02287097
#
# Stress axis : x y z
#
# Youngs Moduli (GPa) = 25.68886 174.02348 76.99003
#
# Poissons Ratio (x) = 0.63416 0.85908
# Poissons Ratio (y) = 0.09361 0.19966
# Poissons Ratio (z) = 0.28664 0.45129
#
# Static dielectric constant tensor:
#      x y z
#    x 4.236950 0.000000 0.000000 
#    y 0.000000 4.983720 0.000000 
#    z 0.000000 0.000000 3.863840 
# 
# 
# High freq. dielectric constant tensor:
#      x y z
#    x 1.961160 0.000000 0.000000 
#    y 0.000000 1.991950 0.000000 
#    z 0.000000 0.000000 1.988850 
# 
# From -- ./inp_files/3900.got.cif
#   From: 2010.03.12/outbox.cif.g09.slc.cpg/sg60_2_cif.got.tgz:3900.got - 2010.04.10 18:46:24.
