data_PCOD8246692
_publ_section_title
;
Structure prediction by ZEFSAII (Michael W. Deem and Ramdas Pophale) SiO2 
 PCOD8246692
Probable space group: P B C N
;
_chemical_formula_sum "Si O2"
_cell_formula_units_Z 40
_cell_length_a 8.856501
_cell_length_b 24.314011
_cell_length_c 9.856814
_cell_angle_alpha 90.000000
_cell_angle_beta 90.000000
_cell_angle_gamma 90.000000
_cell_volume 2122.537375
_symmetry_space_group_name_H-M "P B C N"
_symmetry_group_IT_number 60
_symmetry_cell_setting 'orthorhombic'
loop_
_space_group_symop_operation_xyz
x,y,z
1/2-x,1/2-y,1/2+z
1/2+x,1/2-y,-z
-x,y,1/2-z
-x,-y,-z
1/2+x,1/2+y,1/2-z
1/2-x,1/2+y,z
x,-y,1/2+z
loop_
_atom_site_type_symbol
_atom_site_label
_atom_site_fract_x
_atom_site_fract_y
_atom_site_fract_z
Si Si1 0.115884 0.045011 0.130780
Si Si2 0.727311 0.675887 0.026456
Si Si3 0.330924 0.864765 0.699826
Si Si4 0.470188 0.768135 0.589708
Si Si5 0.086045 0.077381 0.616269
O O1 0.269954 0.078935 0.140283
O O2 0.000000 0.058416 0.250000
O O3 0.168099 0.981376 0.137586
O O4 0.043234 0.065264 0.992321
O O5 0.718484 0.655095 0.180733
O O6 0.883676 0.709168 0.008286
O O7 0.586715 0.715389 0.992076
O O8 0.710396 0.622480 0.928919
O O9 0.500000 0.876372 0.750000
O O10 0.342123 0.816211 0.587146
O O11 0.500000 0.754387 0.750000
O O12 0.000000 0.098619 0.750000
#
# Coordination Sequence:
#
# PCOD8246692 Si02
#       5
#     8   8   8   8   8
#     4  10  19  36  63  85 106 155 199 224 290 343
#     4  10  19  37  58  81 114 149 188 235 284 335
#     4   9  20  38  59  81 113 152 192 236 281 346
#     4   9  21  36  56  83 113 151 187 233 288 338
#     4  10  21  34  60  88 117 144 190 245 277 338
#
# _framework density 18.845369000000002
#
# number of rings (size 3 to 8) (size 9 to 14) (size 15 to 20)
#    0.000    2.800    2.000    0.600    2.800    0.000 
#    0.000    4.000    8.800    0.000    0.000    0.000 
#    0.000    0.000    0.000    0.000    0.000    0.000 
#
# Total GULP energy -495615.400104 kJ/mol
# GULP energy per Si atom -12390.385003 kJ/mol
# Density = 1.880248 g / cm^3
# Si number density = 18.845369 Si / 1000 Ang^3
#
#
#
# Elastic Constant Matrix: (Units=GPa)
#
#
# Indices 1 2 3 4 5 6 
#
# 1 61.0961 54.1463 28.7822 0.0000 0.0000 0.0000
# 2 54.1463 115.3457 22.6837 0.0000 0.0000 0.0000
# 3 28.7822 22.6837 65.4273 0.0000 0.0000 0.0000
# 4 0.0000 0.0000 0.0000 10.9934 0.0000 0.0000
# 5 0.0000 0.0000 0.0000 0.0000 25.0319 0.0000
# 6 0.0000 0.0000 0.0000 0.0000 0.0000 42.2905
#
#
#
# Elastic Compliance Matrix: (Units=1/GPa)
#
#
# Indices 1 2 3 4 5 6 
#
# 1 0.033020 -0.013569 -0.009822 0.000000 0.000000 0.000000
# 2 -0.013569 0.014880 0.000810 0.000000 0.000000 0.000000
# 3 -0.009822 0.000810 0.019324 0.000000 0.000000 0.000000
# 4 0.000000 0.000000 0.000000 0.090964 0.000000 0.000000
# 5 0.000000 0.000000 0.000000 0.000000 0.039949 0.000000
# 6 0.000000 0.000000 0.000000 0.000000 0.000000 0.023646
#
#
# Mechanical properties :
#
#
# Convention : Reuss Voigt Hill
#
# Bulk Modulus (GPa) = 45.32415 50.34374 47.83394
# Shear Modulus (GPa) = 18.22838 24.74694 21.48766
#
# Velocity S-wave (km/s) = 3.11346 3.62768 3.38036
# Velocity P-wave (km/s) = 6.08503 6.65724 6.37756
#
# Compressibility (1/GPa) = 0.02206329
#
# Stress axis : x y z
#
# Youngs Moduli (GPa) = 30.28460 67.20477 51.74956
#
# Poissons Ratio (x) = 0.91190 0.50826
# Poissons Ratio (y) = 0.41093 -0.04193
# Poissons Ratio (z) = 0.29744 -0.05446
#
# Static dielectric constant tensor:
#      x y z
#    x 3.212450 0.000000 0.000000 
#    y 0.000000 3.770780 0.000000 
#    z 0.000000 0.000000 3.530350 
# 
# 
# High freq. dielectric constant tensor:
#      x y z
#    x 1.707620 0.000000 0.000000 
#    y 0.000000 1.749790 0.000000 
#    z 0.000000 0.000000 1.722140 
# 
# From -- ./inp_files/4014.got.cif
#   From: 2010.03.12/outbox.cif.g09.slc.cpg/sg60_3_cif.got.tgz:4014.got - 2010.04.10 18:46:24.
