data_PCOD8246498
_publ_section_title
;
Structure prediction by ZEFSAII (Michael W. Deem and Ramdas Pophale) SiO2 
 PCOD8246498
Probable space group: P B C N
;
_chemical_formula_sum "Si O2"
_cell_formula_units_Z 44
_cell_length_a 27.070068
_cell_length_b 8.860888
_cell_length_c 9.545716
_cell_angle_alpha 90.000000
_cell_angle_beta 90.000000
_cell_angle_gamma 90.000000
_cell_volume 2289.681648
_symmetry_space_group_name_H-M "P B C N"
_symmetry_group_IT_number 60
_symmetry_cell_setting 'orthorhombic'
loop_
_space_group_symop_operation_xyz
x,y,z
1/2-x,1/2-y,1/2+z
1/2+x,1/2-y,-z
-x,y,1/2-z
-x,-y,-z
1/2+x,1/2+y,1/2-z
1/2-x,1/2+y,z
x,-y,1/2+z
loop_
_atom_site_type_symbol
_atom_site_label
_atom_site_fract_x
_atom_site_fract_y
_atom_site_fract_z
Si Si1 0.061824 0.625882 0.500985
Si Si2 0.000000 0.496630 0.750000
Si Si3 0.686187 0.527109 0.739093
Si Si4 0.833762 0.456037 0.517894
Si Si5 0.139742 0.140791 0.031200
Si Si6 0.215116 0.364512 0.711521
O O1 0.032180 0.601758 0.645968
O O2 0.107590 0.505504 0.497310
O O3 0.084111 0.796964 0.501995
O O4 0.031037 0.608445 0.356963
O O5 0.661405 0.534789 0.589109
O O6 0.729256 0.402700 0.744348
O O7 0.707677 0.685864 0.791043
O O8 0.641349 0.465229 0.833925
O O9 0.824173 0.287651 0.454511
O O10 0.821688 0.450554 0.682668
O O11 0.798367 0.576250 0.443459
#
# Coordination Sequence:
#
# PCOD8246498 Si02
#       6
#     8   4   8   8   8   8
#     4   9  20  37  62  96 112 148 189 247 300 357
#     4  10  18  38  70  92 118 138 194 252 302 366
#     4  11  22  37  54  84 119 167 191 247 264 350
#     4   9  20  36  56  87 114 152 195 245 278 360
#     4   9  22  38  55  83 119 151 202 233 298 334
#     4  11  21  34  56  82 119 158 204 228 286 321
#
# _framework density 19.216645
#
# number of rings (size 3 to 8) (size 9 to 14) (size 15 to 20)
#    1.091    1.091    0.000    3.273    0.000    5.818 
#    0.000    0.000    0.000    3.273    0.000    0.000 
#    0.000    0.000    0.000    0.000    0.000    0.000 
#
# Total GULP energy -545143.968116 kJ/mol
# GULP energy per Si atom -12389.635639 kJ/mol
# Density = 1.917291 g / cm^3
# Si number density = 19.216645 Si / 1000 Ang^3
#
#
#
# Elastic Constant Matrix: (Units=GPa)
#
#
# Indices 1 2 3 4 5 6 
#
# 1 104.7606 25.2864 38.8443 0.0000 0.0000 0.0000
# 2 25.2864 52.7278 24.0434 0.0000 0.0000 0.0000
# 3 38.8443 24.0434 77.1638 0.0000 0.0000 0.0000
# 4 0.0000 0.0000 0.0000 22.4434 0.0000 0.0000
# 5 0.0000 0.0000 0.0000 0.0000 34.7926 0.0000
# 6 0.0000 0.0000 0.0000 0.0000 0.0000 30.9258
#
#
#
# Elastic Compliance Matrix: (Units=1/GPa)
#
#
# Indices 1 2 3 4 5 6 
#
# 1 0.012290 -0.003582 -0.005071 0.000000 0.000000 0.000000
# 2 -0.003582 0.023150 -0.005410 0.000000 0.000000 0.000000
# 3 -0.005071 -0.005410 0.017198 0.000000 0.000000 0.000000
# 4 0.000000 0.000000 0.000000 0.044557 0.000000 0.000000
# 5 0.000000 0.000000 0.000000 0.000000 0.028742 0.000000
# 6 0.000000 0.000000 0.000000 0.000000 0.000000 0.032335
#
#
# Mechanical properties :
#
#
# Convention : Reuss Voigt Hill
#
# Bulk Modulus (GPa) = 40.79553 45.66670 43.23112
# Shear Modulus (GPa) = 25.69786 27.39757 26.54771
#
# Velocity S-wave (km/s) = 3.66084 3.77997 3.72088
# Velocity P-wave (km/s) = 6.25654 6.54726 6.40355
#
# Compressibility (1/GPa) = 0.02451249
#
# Stress axis : x y z
#
# Youngs Moduli (GPa) = 81.36447 43.19647 58.14656
#
# Poissons Ratio (x) = 0.15472 0.29486
# Poissons Ratio (y) = 0.29143 0.31459
# Poissons Ratio (z) = 0.41260 0.23370
#
# Static dielectric constant tensor:
#      x y z
#    x 3.420700 0.000000 0.000000 
#    y 0.000000 3.231680 0.000000 
#    z 0.000000 0.000000 3.498710 
# 
# 
# High freq. dielectric constant tensor:
#      x y z
#    x 1.734280 0.000000 0.000000 
#    y 0.000000 1.723760 0.000000 
#    z 0.000000 0.000000 1.759510 
# 
# From -- ./inp_files/8361.got.cif
#   From: 2010.03.12/outbox.cif.g09.slc.cpg/sg60_5_cif.got.tgz:8361.got - 2010.04.10 18:46:24.
