data_PCOD8246235
_publ_section_title
;
Structure prediction by ZEFSAII (Michael W. Deem and Ramdas Pophale) SiO2 
 PCOD8246235
Probable space group: P M M N
;
_chemical_formula_sum "Si O2"
_cell_formula_units_Z 48
_cell_length_a 13.772696
_cell_length_b 9.429839
_cell_length_c 21.133176
_cell_angle_alpha 90.000000
_cell_angle_beta 90.000000
_cell_angle_gamma 90.000000
_cell_volume 2744.656564
_symmetry_space_group_name_H-M "P M M N"
_symmetry_group_IT_number 59
_space_group.IT_coordinate_system_code '2'
_symmetry_cell_setting 'orthorhombic'
loop_
_space_group_symop_operation_xyz
x,y,z
1/2-x,1/2-y,z
1/2+x,-y,-z
-x,1/2+y,-z
-x,-y,-z
1/2+x,1/2+y,-z
1/2-x,y,z
x,1/2-y,z
loop_
_atom_site_type_symbol
_atom_site_label
_atom_site_fract_x
_atom_site_fract_y
_atom_site_fract_z
Si Si1 0.545575 0.584590 0.156934
Si Si2 0.528042 0.915459 0.407155
Si Si3 0.141772 0.585372 0.091501
Si Si4 0.639965 0.580780 0.283757
Si Si5 0.361584 0.085027 0.465072
Si Si6 0.864665 0.589344 0.028641
O O1 0.570033 0.750000 0.159730
O O2 0.429533 0.556500 0.151037
O O3 0.588205 0.516257 0.221003
O O4 0.596361 0.521998 0.094109
O O5 0.503212 0.750000 0.402188
O O6 0.579841 0.973760 0.344120
O O7 0.602058 0.947154 0.464131
O O8 0.426512 0.997477 0.415556
O O9 0.250000 0.533249 0.110224
O O10 0.142029 0.750000 0.073355
O O11 0.099325 0.503937 0.030517
O O12 0.750000 0.523043 0.286949
O O13 0.640274 0.750000 0.283503
O O14 0.250000 0.035614 0.459443
O O15 0.372454 0.250000 0.448819
O O16 0.750000 0.585588 0.031721
O O17 0.903416 0.750000 0.019673
#
# Coordination Sequence:
#
# PCOD8246235 Si02
#       6
#     8   8   8   8   8   8
#     4   9  16  26  41  62  86 111 140 175 216 260
#     4   9  17  29  47  72  96 118 150 190 226 260
#     4   9  17  28  41  58  82 111 141 174 215 260
#     4   9  16  27  45  68  92 116 144 181 224 268
#     4   9  17  30  48  69  95 126 155 183 220 266
#     4   9  16  26  42  63  83 104 136 177 216 255
#
# _framework density 17.488527999999999
#
# number of rings (size 3 to 8) (size 9 to 14) (size 15 to 20)
#    0.000    3.000    0.000    1.500    0.000    4.333 
#    0.000    0.833    0.000    6.500    0.000    2.333 
#    0.000    0.000    0.000    0.000    0.000    0.000 
#
# Total GULP energy -595010.520442 kJ/mol
# GULP energy per Si atom -12396.052509 kJ/mol
# Density = 1.744872 g / cm^3
# Si number density = 17.488528 Si / 1000 Ang^3
#
#
#
# Elastic Constant Matrix: (Units=GPa)
#
#
# Indices 1 2 3 4 5 6 
#
# 1 131.8372 32.2572 80.4348 0.0000 0.0000 0.0000
# 2 32.2572 29.3086 29.9930 0.0000 0.0000 0.0000
# 3 80.4348 29.9930 126.2370 0.0000 0.0000 0.0000
# 4 0.0000 0.0000 0.0000 17.9940 0.0000 0.0000
# 5 0.0000 0.0000 0.0000 0.0000 31.0191 0.0000
# 6 0.0000 0.0000 0.0000 0.0000 0.0000 20.9884
#
#
#
# Elastic Compliance Matrix: (Units=1/GPa)
#
#
# Indices 1 2 3 4 5 6 
#
# 1 0.013737 -0.008141 -0.006819 0.000000 0.000000 0.000000
# 2 -0.008141 0.049906 -0.006670 0.000000 0.000000 0.000000
# 3 -0.006819 -0.006670 0.013851 0.000000 0.000000 0.000000
# 4 0.000000 0.000000 0.000000 0.055574 0.000000 0.000000
# 5 0.000000 0.000000 0.000000 0.000000 0.032238 0.000000
# 6 0.000000 0.000000 0.000000 0.000000 0.000000 0.047645
#
#
# Mechanical properties :
#
#
# Convention : Reuss Voigt Hill
#
# Bulk Modulus (GPa) = 29.21053 63.63920 46.42487
# Shear Modulus (GPa) = 18.68304 23.64681 21.16493
#
# Velocity S-wave (km/s) = 3.27204 3.68113 3.48259
# Velocity P-wave (km/s) = 5.56901 7.38483 6.54024
#
# Compressibility (1/GPa) = 0.03423423
#
# Stress axis : x y z
#
# Youngs Moduli (GPa) = 72.79506 20.03782 72.19720
#
# Poissons Ratio (x) = 0.16314 0.49229
# Poissons Ratio (y) = 0.59265 0.48154
# Poissons Ratio (z) = 0.49636 0.13365
#
# Static dielectric constant tensor:
#      x y z
#    x 3.461760 0.000000 0.000000 
#    y 0.000000 2.975700 0.000000 
#    z 0.000000 0.000000 3.313740 
# 
# 
# High freq. dielectric constant tensor:
#      x y z
#    x 1.691020 0.000000 0.000000 
#    y 0.000000 1.630830 0.000000 
#    z 0.000000 0.000000 1.663770 
# 
# From -- ./inp_files/28832.got.cif
#   From: 2010.03.12/outbox.cif.g09.slc.cpg/sg59_15_cif.got.tgz:28832.got - 2010.04.16 16:29:54.
