data_PCOD8246921
_publ_section_title
;
Structure prediction by ZEFSAII (Michael W. Deem and Ramdas Pophale) SiO2 
 PCOD8246921
Probable space group: P B C N
;
_chemical_formula_sum "Si O2"
_cell_formula_units_Z 60
_cell_length_a 22.033125
_cell_length_b 13.783537
_cell_length_c 9.053986
_cell_angle_alpha 90.000000
_cell_angle_beta 90.000000
_cell_angle_gamma 90.000000
_cell_volume 2749.644789
_symmetry_space_group_name_H-M "P B C N"
_symmetry_group_IT_number 60
_symmetry_cell_setting 'orthorhombic'
loop_
_space_group_symop_operation_xyz
x,y,z
1/2-x,1/2-y,1/2+z
1/2+x,1/2-y,-z
-x,y,1/2-z
-x,-y,-z
1/2+x,1/2+y,1/2-z
1/2-x,1/2+y,z
x,-y,1/2+z
loop_
_atom_site_type_symbol
_atom_site_label
_atom_site_fract_x
_atom_site_fract_y
_atom_site_fract_z
Si Si1 0.000000 0.746276 0.250000
Si Si2 0.536166 0.057543 0.117821
Si Si3 0.393374 0.612778 0.747868
Si Si4 0.671733 0.754280 0.241134
Si Si5 0.282762 0.308049 0.073530
Si Si6 0.237259 0.514225 0.034597
Si Si7 0.656121 0.965666 0.218538
Si Si8 0.130810 0.081584 0.089979
O O1 0.026245 0.675339 0.381205
O O2 0.053440 0.815746 0.193437
O O3 0.500000 0.009749 0.250000
O O4 0.606780 0.027874 0.128249
O O5 0.500000 0.000000 0.000000
O O6 0.331291 0.662258 0.697812
O O7 0.402928 0.509640 0.665723
O O8 0.395027 0.598876 0.925509
O O9 0.732796 0.743709 0.341028
O O10 0.636356 0.857062 0.266710
O O11 0.623664 0.674100 0.300933
O O12 0.686127 0.744676 0.066077
O O13 0.249075 0.401073 0.008467
O O14 0.180104 0.529953 0.145150
O O15 0.297359 0.565629 0.088442
O O16 0.216205 0.556797 0.878658
#
# Coordination Sequence:
#
# PCOD8246921 Si02
#       8
#     4   8   8   8   8   8   8   8
#     4  10  28  46  72  92 120 184 234 284 352 398
#     4  10  24  45  65  91 126 170 222 280 332 392
#     4  11  24  45  68  93 131 180 230 286 343 403
#     4  11  22  35  62 104 134 179 217 267 343 415
#     4  10  21  36  60  95 142 173 219 271 337 418
#     4  10  20  36  59  94 130 172 205 263 334 404
#     4  11  22  36  63  91 132 167 220 265 330 406
#     4  11  22  41  66  97 139 173 219 280 343 412
#
# _framework density 21.821000999999999
#
# number of rings (size 3 to 8) (size 9 to 14) (size 15 to 20)
#    0.400    1.067    0.000    7.200    1.867    5.867 
#    0.000    0.000    1.467    0.000    0.000    0.000 
#    0.000    0.000    0.000    0.000    0.000    0.000 
#
# Total GULP energy -743369.891261 kJ/mol
# GULP energy per Si atom -12389.498188 kJ/mol
# Density = 2.177134 g / cm^3
# Si number density = 21.821001 Si / 1000 Ang^3
#
#
#
# Elastic Constant Matrix: (Units=GPa)
#
#
# Indices 1 2 3 4 5 6 
#
# 1 71.7544 43.3793 18.6185 0.0000 0.0000 0.0000
# 2 43.3793 132.8795 29.2761 0.0000 0.0000 0.0000
# 3 18.6185 29.2761 90.7554 0.0000 0.0000 0.0000
# 4 0.0000 0.0000 0.0000 29.9839 0.0000 0.0000
# 5 0.0000 0.0000 0.0000 0.0000 22.0113 0.0000
# 6 0.0000 0.0000 0.0000 0.0000 0.0000 28.8459
#
#
#
# Elastic Compliance Matrix: (Units=1/GPa)
#
#
# Indices 1 2 3 4 5 6 
#
# 1 0.017662 -0.005348 -0.001898 0.000000 0.000000 0.000000
# 2 -0.005348 0.009721 -0.002039 0.000000 0.000000 0.000000
# 3 -0.001898 -0.002039 0.012066 0.000000 0.000000 0.000000
# 4 0.000000 0.000000 0.000000 0.033351 0.000000 0.000000
# 5 0.000000 0.000000 0.000000 0.000000 0.045431 0.000000
# 6 0.000000 0.000000 0.000000 0.000000 0.000000 0.034667
#
#
# Mechanical properties :
#
#
# Convention : Reuss Voigt Hill
#
# Bulk Modulus (GPa) = 47.89481 53.10412 50.49947
# Shear Modulus (GPa) = 28.02278 29.77590 28.89934
#
# Velocity S-wave (km/s) = 3.58748 3.69799 3.64315
# Velocity P-wave (km/s) = 6.25752 6.52860 6.39450
#
# Compressibility (1/GPa) = 0.02087909
#
# Stress axis : x y z
#
# Youngs Moduli (GPa) = 56.61904 102.87514 82.87964
#
# Poissons Ratio (x) = 0.55013 0.15733
# Poissons Ratio (y) = 0.30278 0.16896
# Poissons Ratio (z) = 0.10748 0.20972
#
# Static dielectric constant tensor:
#      x y z
#    x 3.629430 0.000000 0.000000 
#    y 0.000000 4.145260 0.000000 
#    z 0.000000 0.000000 3.539860 
# 
# 
# High freq. dielectric constant tensor:
#      x y z
#    x 1.827560 0.000000 0.000000 
#    y 0.000000 1.871920 0.000000 
#    z 0.000000 0.000000 1.860420 
# 
# From -- ./inp_files/7946.got.cif
#   From: 2010.03.12/outbox.cif.g09.slc.cpg/sg60_4_cif.got.tgz:7946.got - 2010.04.10 18:46:24.
