data_PCOD8246084
_publ_section_title
;
Structure prediction by ZEFSAII (Michael W. Deem and Ramdas Pophale) SiO2 
 PCOD8246084
Probable space group: P M M N
;
_chemical_formula_sum "Si O2"
_cell_formula_units_Z 32
_cell_length_a 26.653981
_cell_length_b 8.968382
_cell_length_c 7.744683
_cell_angle_alpha 90.000000
_cell_angle_beta 90.000000
_cell_angle_gamma 90.000000
_cell_volume 1851.312904
_symmetry_space_group_name_H-M "P M M N"
_symmetry_group_IT_number 59
_space_group.IT_coordinate_system_code '2'
_symmetry_cell_setting 'orthorhombic'
loop_
_space_group_symop_operation_xyz
x,y,z
1/2-x,1/2-y,z
1/2+x,-y,-z
-x,1/2+y,-z
-x,-y,-z
1/2+x,1/2+y,-z
1/2-x,y,z
x,1/2-y,z
loop_
_atom_site_type_symbol
_atom_site_label
_atom_site_fract_x
_atom_site_fract_y
_atom_site_fract_z
Si Si1 0.806217 0.419498 0.499722
Si Si2 0.946801 0.574314 0.971191
Si Si3 0.102903 0.424918 0.386890
Si Si4 0.895083 0.080859 0.277167
O O1 0.750000 0.484221 0.480716
O O2 0.804837 0.250000 0.568847
O O3 0.839030 0.518947 0.633637
O O4 0.834767 0.423919 0.312948
O O5 0.951426 0.750000 0.994122
O O6 0.906678 0.512825 0.107355
O O7 0.928114 0.529967 0.781448
O O8 0.000000 0.500000 0.000000
O O9 0.102448 0.250000 0.419923
O O10 0.078020 0.507551 0.553430
O O11 0.914838 0.250000 0.255233
#
# Coordination Sequence:
#
# PCOD8246084 Si02
#       4
#     8   8   8   8
#     4   8  16  33  56  80 106 139 176 213 259 313
#     4  11  23  37  55  78 107 141 180 221 265 317
#     4   9  19  35  54  79 109 138 174 219 263 312
#     4   9  19  35  56  79 108 140 176 219 261 311
#
# _framework density 17.285029999999999
#
# number of rings (size 3 to 8) (size 9 to 14) (size 15 to 20)
#    1.500    1.250    0.000    1.500    0.000    5.500 
#    0.000    1.250    0.000    4.500    0.000    0.000 
#    0.000    0.000    0.000    0.000    0.000    0.000 
#
# Total GULP energy -396420.218021 kJ/mol
# GULP energy per Si atom -12388.131813 kJ/mol
# Density = 1.724569 g / cm^3
# Si number density = 17.285030 Si / 1000 Ang^3
#
#
#
# Elastic Constant Matrix: (Units=GPa)
#
#
# Indices 1 2 3 4 5 6 
#
# 1 59.8961 21.5265 2.9555 0.0000 0.0000 0.0000
# 2 21.5265 75.2557 39.2919 0.0000 0.0000 0.0000
# 3 2.9555 39.2919 68.9000 0.0000 0.0000 0.0000
# 4 0.0000 0.0000 0.0000 29.8361 0.0000 0.0000
# 5 0.0000 0.0000 0.0000 0.0000 24.3718 0.0000
# 6 0.0000 0.0000 0.0000 0.0000 0.0000 20.9453
#
#
#
# Elastic Compliance Matrix: (Units=1/GPa)
#
#
# Indices 1 2 3 4 5 6 
#
# 1 0.019113 -0.007176 0.003272 0.000000 0.000000 0.000000
# 2 -0.007176 0.021616 -0.012019 0.000000 0.000000 0.000000
# 3 0.003272 -0.012019 0.021228 0.000000 0.000000 0.000000
# 4 0.000000 0.000000 0.000000 0.033516 0.000000 0.000000
# 5 0.000000 0.000000 0.000000 0.000000 0.041031 0.000000
# 6 0.000000 0.000000 0.000000 0.000000 0.000000 0.047743
#
#
# Mechanical properties :
#
#
# Convention : Reuss Voigt Hill
#
# Bulk Modulus (GPa) = 33.21005 36.84440 35.02722
# Shear Modulus (GPa) = 22.11116 24.38249 23.24683
#
# Velocity S-wave (km/s) = 3.58048 3.75989 3.67128
# Velocity P-wave (km/s) = 6.02893 6.34122 6.18705
#
# Compressibility (1/GPa) = 0.03011137
#
# Stress axis : x y z
#
# Youngs Moduli (GPa) = 52.32035 46.26206 47.10828
#
# Poissons Ratio (x) = 0.33196 -0.15415
# Poissons Ratio (y) = 0.37543 0.56621
# Poissons Ratio (z) = -0.17120 0.55603
#
# Static dielectric constant tensor:
#      x y z
#    x 3.115410 0.000000 0.000000 
#    y 0.000000 3.283600 0.000000 
#    z 0.000000 0.000000 3.099330 
# 
# 
# High freq. dielectric constant tensor:
#      x y z
#    x 1.653280 0.000000 0.000000 
#    y 0.000000 1.680600 0.000000 
#    z 0.000000 0.000000 1.648770 
# 
# From -- ./inp_files/569.got.cif
#   From: 2010.03.12/outbox.cif.g09.slc.cpg/sg59_1_cif.got.tgz:569.got - 2010.04.16 16:29:54.
