data_PCOD8246625
_publ_section_title
;
Structure prediction by ZEFSAII (Michael W. Deem and Ramdas Pophale) SiO2 
 PCOD8246625
Probable space group: P B C N
;
_chemical_formula_sum "Si O2"
_cell_formula_units_Z 48
_cell_length_a 7.877090
_cell_length_b 15.819210
_cell_length_c 16.338477
_cell_angle_alpha 90.000000
_cell_angle_beta 90.000000
_cell_angle_gamma 90.000000
_cell_volume 2035.926850
_symmetry_space_group_name_H-M "P B C N"
_symmetry_group_IT_number 60
_symmetry_cell_setting 'orthorhombic'
loop_
_space_group_symop_operation_xyz
x,y,z
1/2-x,1/2-y,1/2+z
1/2+x,1/2-y,-z
-x,y,1/2-z
-x,-y,-z
1/2+x,1/2+y,1/2-z
1/2-x,1/2+y,z
x,-y,1/2+z
loop_
_atom_site_type_symbol
_atom_site_label
_atom_site_fract_x
_atom_site_fract_y
_atom_site_fract_z
Si Si1 0.000000 0.066214 0.750000
Si Si2 0.627560 0.064164 0.131798
Si Si3 0.261674 0.061257 0.188033
Si Si4 0.200523 0.766155 0.618639
Si Si5 0.747378 0.112664 0.625297
Si Si6 0.428614 0.238394 0.452080
Si Si7 0.000000 0.323025 0.250000
O O1 0.098243 0.125239 0.812200
O O2 0.127375 0.013608 0.692131
O O3 0.434564 0.032783 0.143690
O O4 0.705207 0.091820 0.218920
O O5 0.642342 0.147170 0.075581
O O6 0.732081 0.984489 0.091270
O O7 0.183067 0.133976 0.131542
O O8 0.391926 0.740634 0.590647
O O9 0.062182 0.735620 0.551037
O O10 0.152777 0.729059 0.707602
O O11 0.785786 0.186847 0.560453
O O12 0.575648 0.121041 0.677400
#
# Coordination Sequence:
#
# PCOD8246625 Si02
#       7
#     4   8   8   8   8   8   4
#     4  10  19  34  59  96 126 158 212 264 304 372
#     4   9  20  40  62  89 128 166 207 259 316 370
#     4   9  18  36  62  89 123 167 209 258 311 368
#     4  11  24  42  66  94 128 169 213 261 317 380
#     4  11  22  39  65  96 127 167 212 259 315 375
#     4  11  24  43  64  94 133 168 208 264 323 374
#     4  12  23  40  65  94 126 170 216 258 308 380
#
# _framework density 23.576485999999999
#
# number of rings (size 3 to 8) (size 9 to 14) (size 15 to 20)
#    0.000    1.667    0.000    5.500    0.000    6.667 
#    0.000   14.167    0.000    0.000    0.000    0.000 
#    0.000    0.000    0.000    0.000    0.000    0.000 
#
# Total GULP energy -594795.369769 kJ/mol
# GULP energy per Si atom -12391.570204 kJ/mol
# Density = 2.352282 g / cm^3
# Si number density = 23.576486 Si / 1000 Ang^3
#
#
#
# Elastic Constant Matrix: (Units=GPa)
#
#
# Indices 1 2 3 4 5 6 
#
# 1 70.9306 26.5271 17.3497 0.0000 0.0000 0.0000
# 2 26.5271 110.1415 38.9291 0.0000 0.0000 0.0000
# 3 17.3497 38.9291 71.6615 0.0000 0.0000 0.0000
# 4 0.0000 0.0000 0.0000 9.9837 0.0000 0.0000
# 5 0.0000 0.0000 0.0000 0.0000 36.8106 0.0000
# 6 0.0000 0.0000 0.0000 0.0000 0.0000 30.1100
#
#
#
# Elastic Compliance Matrix: (Units=1/GPa)
#
#
# Indices 1 2 3 4 5 6 
#
# 1 0.015762 -0.003029 -0.002171 0.000000 0.000000 0.000000
# 2 -0.003029 0.011819 -0.005687 0.000000 0.000000 0.000000
# 3 -0.002171 -0.005687 0.017569 0.000000 0.000000 0.000000
# 4 0.000000 0.000000 0.000000 0.100164 0.000000 0.000000
# 5 0.000000 0.000000 0.000000 0.000000 0.027166 0.000000
# 6 0.000000 0.000000 0.000000 0.000000 0.000000 0.033212
#
#
# Mechanical properties :
#
#
# Convention : Reuss Voigt Hill
#
# Bulk Modulus (GPa) = 42.77730 46.48283 44.63006
# Shear Modulus (GPa) = 21.25332 26.70937 23.98134
#
# Velocity S-wave (km/s) = 3.00569 3.36948 3.19277
# Velocity P-wave (km/s) = 5.49809 5.90732 5.70638
#
# Compressibility (1/GPa) = 0.02337689
#
# Stress axis : x y z
#
# Youngs Moduli (GPa) = 63.44362 84.61072 56.91700
#
# Poissons Ratio (x) = 0.25629 0.12354
# Poissons Ratio (y) = 0.19217 0.32369
# Poissons Ratio (z) = 0.13771 0.48119
#
# Static dielectric constant tensor:
#      x y z
#    x 4.378260 0.000000 0.000000 
#    y 0.000000 4.228470 0.000000 
#    z 0.000000 0.000000 4.108480 
# 
# 
# High freq. dielectric constant tensor:
#      x y z
#    x 1.940660 0.000000 0.000000 
#    y 0.000000 1.931080 0.000000 
#    z 0.000000 0.000000 1.914150 
# 
# From -- ./inp_files/19374.got.cif
#   From: 2010.03.12/outbox.cif.g09.slc.cpg/sg60_10_cif.got.tgz:19374.got - 2010.04.10 18:46:24.
