data_PCOD8246368
_publ_section_title
;
Structure prediction by ZEFSAII (Michael W. Deem and Ramdas Pophale) SiO2 
 PCOD8246368
Probable space group: P B C N
;
_chemical_formula_sum "Si O2"
_cell_formula_units_Z 60
_cell_length_a 17.685775
_cell_length_b 32.877473
_cell_length_c 5.252573
_cell_angle_alpha 90.000000
_cell_angle_beta 90.000000
_cell_angle_gamma 90.000000
_cell_volume 3054.179954
_symmetry_space_group_name_H-M "P B C N"
_symmetry_group_IT_number 60
_symmetry_cell_setting 'orthorhombic'
loop_
_space_group_symop_operation_xyz
x,y,z
1/2-x,1/2-y,1/2+z
1/2+x,1/2-y,-z
-x,y,1/2-z
-x,-y,-z
1/2+x,1/2+y,1/2-z
1/2-x,1/2+y,z
x,-y,1/2+z
loop_
_atom_site_type_symbol
_atom_site_label
_atom_site_fract_x
_atom_site_fract_y
_atom_site_fract_z
Si Si1 0.131336 0.816065 0.937375
Si Si2 0.000000 0.167398 0.750000
Si Si3 0.108075 0.886314 0.586794
Si Si4 0.206433 0.337643 0.057755
Si Si5 0.603260 0.477715 0.879714
Si Si6 0.798367 0.252705 0.346742
Si Si7 0.716526 0.977578 0.891560
Si Si8 0.219090 0.386166 0.538875
O O1 0.113237 0.862132 0.850721
O O2 0.141806 0.783905 0.705117
O O3 0.057304 0.802853 0.097405
O O4 0.208203 0.819844 0.100622
O O5 0.948653 0.137777 0.587046
O O6 0.075590 0.931277 0.633112
O O7 0.192299 0.888643 0.471328
O O8 0.158732 0.295326 0.078929
O O9 0.181221 0.368115 0.282529
O O10 0.198975 0.358143 0.781357
O O11 0.570530 0.499737 0.130697
O O12 0.693486 0.479482 0.882574
O O13 0.745467 0.239179 0.580007
O O14 0.684326 0.002341 0.133547
O O15 0.687241 0.931177 0.908540
#
# Coordination Sequence:
#
# PCOD8246368 Si02
#       8
#     8   4   8   8   8   8   8   8
#     4  10  22  34  52  70  94 121 152 196 245 298
#     4  12  22  36  50  68  94 124 160 190 248 298
#     4  10  21  34  49  66  90 116 157 197 246 295
#     4  10  18  32  49  72  89 115 149 194 241 286
#     4   9  19  32  50  64  81 110 151 199 247 290
#     4  10  20  34  54  74  95 116 148 194 247 294
#     4   9  16  26  41  65  89 116 148 188 231 278
#     4  10  18  30  49  68  92 119 153 193 240 284
#
# _framework density 19.645208
#
# number of rings (size 3 to 8) (size 9 to 14) (size 15 to 20)
#    0.000    2.133    1.333    3.600    3.733    3.200 
#    0.000    0.667    0.000    0.000    0.000    0.000 
#    0.000    0.000    0.000    0.000    0.000    0.000 
#
# Total GULP energy -743522.652010 kJ/mol
# GULP energy per Si atom -12392.044200 kJ/mol
# Density = 1.960049 g / cm^3
# Si number density = 19.645208 Si / 1000 Ang^3
#
#
#
# Elastic Constant Matrix: (Units=GPa)
#
#
# Indices 1 2 3 4 5 6 
#
# 1 11.1054 11.7712 10.7832 0.0000 0.0000 0.0000
# 2 11.7712 137.3157 50.6936 0.0000 0.0000 0.0000
# 3 10.7832 50.6936 124.2980 0.0000 0.0000 0.0000
# 4 0.0000 0.0000 0.0000 107.5969 0.0000 0.0000
# 5 0.0000 0.0000 0.0000 0.0000 15.9381 0.0000
# 6 0.0000 0.0000 0.0000 0.0000 0.0000 2.5803
#
#
#
# Elastic Compliance Matrix: (Units=1/GPa)
#
#
# Indices 1 2 3 4 5 6 
#
# 1 0.103053 -0.006514 -0.006283 0.000000 0.000000 0.000000
# 2 -0.006514 0.008985 -0.003099 0.000000 0.000000 0.000000
# 3 -0.006283 -0.003099 0.009854 0.000000 0.000000 0.000000
# 4 0.000000 0.000000 0.000000 0.009294 0.000000 0.000000
# 5 0.000000 0.000000 0.000000 0.000000 0.062743 0.000000
# 6 0.000000 0.000000 0.000000 0.000000 0.000000 0.387551
#
#
# Mechanical properties :
#
#
# Convention : Reuss Voigt Hill
#
# Bulk Modulus (GPa) = 11.09904 46.57946 28.83925
# Shear Modulus (GPa) = 7.77234 38.52113 23.14673
#
# Velocity S-wave (km/s) = 1.99122 4.43294 3.43627
# Velocity P-wave (km/s) = 3.30887 7.06846 5.51868
#
# Compressibility (1/GPa) = 0.09009792
#
# Stress axis : x y z
#
# Youngs Moduli (GPa) = 9.70379 111.29506 101.47845
#
# Poissons Ratio (x) = 0.72502 0.63762
# Poissons Ratio (y) = 0.06321 0.31452
# Poissons Ratio (z) = 0.06097 0.34494
#
# Static dielectric constant tensor:
#      x y z
#    x 4.555400 0.000000 0.000000 
#    y 0.000000 3.997930 0.000000 
#    z 0.000000 0.000000 4.284580 
# 
# 
# High freq. dielectric constant tensor:
#      x y z
#    x 1.670720 0.000000 0.000000 
#    y 0.000000 1.781600 0.000000 
#    z 0.000000 0.000000 1.782820 
# 
# From -- ./inp_files/2245.got.cif
#   From: 2010.03.12/outbox.cif.g09.slc.cpg/sg60_2_cif.got.tgz:2245.got - 2010.04.10 18:46:24.
