data_PCOD8246516
_publ_section_title
;
Structure prediction by ZEFSAII (Michael W. Deem and Ramdas Pophale) SiO2 
 PCOD8246516
Probable space group: P B C N
;
_chemical_formula_sum "Si O2"
_cell_formula_units_Z 52
_cell_length_a 20.714465
_cell_length_b 34.375797
_cell_length_c 5.223343
_cell_angle_alpha 90.000000
_cell_angle_beta 90.000000
_cell_angle_gamma 90.000000
_cell_volume 3719.418464
_symmetry_space_group_name_H-M "P B C N"
_symmetry_group_IT_number 60
_symmetry_cell_setting 'orthorhombic'
loop_
_space_group_symop_operation_xyz
x,y,z
1/2-x,1/2-y,1/2+z
1/2+x,1/2-y,-z
-x,y,1/2-z
-x,-y,-z
1/2+x,1/2+y,1/2-z
1/2-x,1/2+y,z
x,-y,1/2+z
loop_
_atom_site_type_symbol
_atom_site_label
_atom_site_fract_x
_atom_site_fract_y
_atom_site_fract_z
Si Si1 0.827328 0.770796 0.930629
Si Si2 0.000000 0.343805 0.750000
Si Si3 0.884710 0.391091 0.834679
Si Si4 0.773464 0.201000 0.926724
Si Si5 0.932675 0.288888 0.379677
Si Si6 0.424279 0.023226 0.243698
Si Si7 0.838200 0.647020 0.813250
O O1 0.774326 0.737278 0.935050
O O2 0.816751 0.798546 0.684110
O O3 0.898800 0.752129 0.939343
O O4 0.821228 0.796625 0.184986
O O5 0.954669 0.372599 0.919329
O O6 0.948413 0.315241 0.622416
O O7 0.886787 0.437311 0.817487
O O8 0.866755 0.376360 0.552159
O O9 0.833997 0.379832 0.058995
O O10 0.732654 0.161390 0.898698
O O11 0.882269 0.315874 0.222320
O O12 0.000000 0.278949 0.250000
O O13 0.500000 0.031890 0.250000
O O14 0.404081 0.006868 0.520889
#
# Coordination Sequence:
#
# PCOD8246516 Si02
#       7
#     8   4   8   8   8   8   8
#     4   9  18  27  44  52  76 101 126 158 200 252
#     4  10  20  28  40  58  86  98 132 172 208 262
#     4  11  19  31  44  62  77 105 127 168 213 242
#     4   9  17  31  40  58  71  98 131 158 200 250
#     4  10  19  28  39  59  81 102 129 166 214 252
#     4  10  20  32  44  58  80 107 133 157 194 255
#     4  10  20  29  46  59  79  98 129 173 211 244
#
# _framework density 13.980679
#
# number of rings (size 3 to 8) (size 9 to 14) (size 15 to 20)
#    0.000    2.154    2.308    1.846    2.154    3.692 
#    0.000    0.000    0.000    0.000    0.000    0.000 
#    0.000    0.000    0.000    0.000    0.000    0.000 
#
# Total GULP energy -644326.219469 kJ/mol
# GULP energy per Si atom -12390.888836 kJ/mol
# Density = 1.394886 g / cm^3
# Si number density = 13.980679 Si / 1000 Ang^3
#
#
#
# Elastic Constant Matrix: (Units=GPa)
#
#
# Indices 1 2 3 4 5 6 
#
# 1 39.9973 29.6038 12.8106 0.0000 0.0000 0.0000
# 2 29.6038 60.9534 21.0416 0.0000 0.0000 0.0000
# 3 12.8106 21.0416 80.4739 0.0000 0.0000 0.0000
# 4 0.0000 0.0000 0.0000 19.3047 0.0000 0.0000
# 5 0.0000 0.0000 0.0000 0.0000 16.2210 0.0000
# 6 0.0000 0.0000 0.0000 0.0000 0.0000 11.0102
#
#
#
# Elastic Compliance Matrix: (Units=1/GPa)
#
#
# Indices 1 2 3 4 5 6 
#
# 1 0.039173 -0.018547 -0.001386 0.000000 0.000000 0.000000
# 2 -0.018547 0.026815 -0.004059 0.000000 0.000000 0.000000
# 3 -0.001386 -0.004059 0.013708 0.000000 0.000000 0.000000
# 4 0.000000 0.000000 0.000000 0.051801 0.000000 0.000000
# 5 0.000000 0.000000 0.000000 0.000000 0.061649 0.000000
# 6 0.000000 0.000000 0.000000 0.000000 0.000000 0.090825
#
#
# Mechanical properties :
#
#
# Convention : Reuss Voigt Hill
#
# Bulk Modulus (GPa) = 31.53385 34.25962 32.89673
# Shear Modulus (GPa) = 14.59740 17.17174 15.88457
#
# Velocity S-wave (km/s) = 3.23478 3.50844 3.37438
# Velocity P-wave (km/s) = 6.04616 6.40081 6.22601
#
# Compressibility (1/GPa) = 0.03171196
#
# Stress axis : x y z
#
# Youngs Moduli (GPa) = 25.52765 37.29248 72.94816
#
# Poissons Ratio (x) = 0.69167 0.10114
# Poissons Ratio (y) = 0.47346 0.29609
# Poissons Ratio (z) = 0.03539 0.15137
#
# Static dielectric constant tensor:
#      x y z
#    x 2.652230 0.000000 0.000000 
#    y 0.000000 2.561110 0.000000 
#    z 0.000000 0.000000 2.933670 
# 
# 
# High freq. dielectric constant tensor:
#      x y z
#    x 1.490170 0.000000 0.000000 
#    y 0.000000 1.500620 0.000000 
#    z 0.000000 0.000000 1.548040 
# 
# From -- ./inp_files/1872.got.cif
#   From: 2010.03.12/outbox.cif.g09.slc.cpg/sg60_1_cif.got.tgz:1872.got - 2010.04.10 18:46:24.
