data_PCOD8246047
_publ_section_title
;
Structure prediction by ZEFSAII (Michael W. Deem and Ramdas Pophale) SiO2 
 PCOD8246047
Probable space group: P M M N
;
_chemical_formula_sum "Si O2"
_cell_formula_units_Z 48
_cell_length_a 8.897516
_cell_length_b 18.421623
_cell_length_c 16.317034
_cell_angle_alpha 90.000000
_cell_angle_beta 90.000000
_cell_angle_gamma 90.000000
_cell_volume 2674.470958
_symmetry_space_group_name_H-M "P M M N"
_symmetry_group_IT_number 59
_space_group.IT_coordinate_system_code '2'
_symmetry_cell_setting 'orthorhombic'
loop_
_space_group_symop_operation_xyz
x,y,z
1/2-x,1/2-y,z
1/2+x,-y,-z
-x,1/2+y,-z
-x,-y,-z
1/2+x,1/2+y,-z
1/2-x,y,z
x,1/2-y,z
loop_
_atom_site_type_symbol
_atom_site_label
_atom_site_fract_x
_atom_site_fract_y
_atom_site_fract_z
Si Si1 0.427053 0.831611 0.155558
Si Si2 0.572106 0.031811 0.419054
Si Si3 0.572504 0.832657 0.655285
Si Si4 0.576051 0.039799 0.732798
Si Si5 0.923649 0.834773 0.989213
Si Si6 0.423111 0.396272 0.176838
O O1 0.250000 0.833605 0.145331
O O2 0.485173 0.750000 0.174370
O O3 0.476260 0.882799 0.231066
O O4 0.494458 0.861888 0.071080
O O5 0.750000 0.033656 0.427587
O O6 0.511618 0.113748 0.407093
O O7 0.500000 0.000000 0.500000
O O8 0.526485 0.979407 0.344326
O O9 0.750000 0.848982 0.650108
O O10 0.534756 0.750000 0.631125
O O11 0.512201 0.849038 0.747230
O O12 0.750000 0.040479 0.704483
O O13 0.552805 0.981110 0.805077
O O14 0.750000 0.854574 0.000320
O O15 0.950019 0.750000 0.975457
O O16 0.997784 0.875247 0.910253
O O17 0.250000 0.374716 0.168140
#
# Coordination Sequence:
#
# PCOD8246047 Si02
#       6
#     8   8   8   8   8   8
#     4   9  18  32  48  67  95 131 168 208 255 300
#     4  11  22  37  57  79 104 132 164 205 253 305
#     4   9  17  32  55  80 107 138 169 202 245 299
#     4   9  18  34  53  71  94 127 166 207 254 307
#     4   9  16  26  42  65  94 129 168 206 242 286
#     4   8  14  26  46  71  97 129 167 202 240 291
#
# _framework density 17.947475000000001
#
# number of rings (size 3 to 8) (size 9 to 14) (size 15 to 20)
#    0.000    2.833    0.000    3.000    0.000    3.667 
#    0.000    4.167    0.000    7.000    0.000    0.000 
#    0.000    0.000    0.000    0.000    0.000    0.000 
#
# Total GULP energy -595049.734377 kJ/mol
# GULP energy per Si atom -12396.869466 kJ/mol
# Density = 1.790663 g / cm^3
# Si number density = 17.947475 Si / 1000 Ang^3
#
#
#
# Elastic Constant Matrix: (Units=GPa)
#
#
# Indices 1 2 3 4 5 6 
#
# 1 63.5164 44.1450 45.9260 0.0000 0.0000 0.0000
# 2 44.1450 113.4849 73.4998 0.0000 0.0000 0.0000
# 3 45.9260 73.4998 113.3635 0.0000 0.0000 0.0000
# 4 0.0000 0.0000 0.0000 29.1046 0.0000 0.0000
# 5 0.0000 0.0000 0.0000 0.0000 27.9014 0.0000
# 6 0.0000 0.0000 0.0000 0.0000 0.0000 21.2200
#
#
#
# Elastic Compliance Matrix: (Units=1/GPa)
#
#
# Indices 1 2 3 4 5 6 
#
# 1 0.023938 -0.005225 -0.006310 0.000000 0.000000 0.000000
# 2 -0.005225 0.016331 -0.008471 0.000000 0.000000 0.000000
# 3 -0.006310 -0.008471 0.016870 0.000000 0.000000 0.000000
# 4 0.000000 0.000000 0.000000 0.034359 0.000000 0.000000
# 5 0.000000 0.000000 0.000000 0.000000 0.035840 0.000000
# 6 0.000000 0.000000 0.000000 0.000000 0.000000 0.047125
#
#
# Mechanical properties :
#
#
# Convention : Reuss Voigt Hill
#
# Bulk Modulus (GPa) = 58.39137 68.61181 63.50159
# Shear Modulus (GPa) = 22.70814 24.09814 23.40314
#
# Velocity S-wave (km/s) = 3.56090 3.66827 3.61498
# Velocity P-wave (km/s) = 7.03647 7.50025 7.27206
#
# Compressibility (1/GPa) = 0.01712582
#
# Stress axis : x y z
#
# Youngs Moduli (GPa) = 41.77456 61.23384 59.27640
#
# Poissons Ratio (x) = 0.31994 0.37405
# Poissons Ratio (y) = 0.21827 0.50216
# Poissons Ratio (z) = 0.26361 0.51874
#
# Static dielectric constant tensor:
#      x y z
#    x 3.102560 0.000000 0.000000 
#    y 0.000000 3.445810 0.000000 
#    z 0.000000 0.000000 3.343460 
# 
# 
# High freq. dielectric constant tensor:
#      x y z
#    x 1.668490 0.000000 0.000000 
#    y 0.000000 1.694510 0.000000 
#    z 0.000000 0.000000 1.688880 
# 
# From -- ./inp_files/24089.got.cif
#   From: 2010.03.12/outbox.cif.g09.slc.cpg/sg59_13_cif.got.tgz:24089.got - 2010.04.16 16:29:54.
