data_PCOD8246767
_publ_section_title
;
Structure prediction by ZEFSAII (Michael W. Deem and Ramdas Pophale) SiO2 
 PCOD8246767
Probable space group: P B C N
;
_chemical_formula_sum "Si O2"
_cell_formula_units_Z 48
_cell_length_a 9.734609
_cell_length_b 14.123148
_cell_length_c 16.427612
_cell_angle_alpha 90.000000
_cell_angle_beta 90.000000
_cell_angle_gamma 90.000000
_cell_volume 2258.522697
_symmetry_space_group_name_H-M "P B C N"
_symmetry_group_IT_number 60
_symmetry_cell_setting 'orthorhombic'
loop_
_space_group_symop_operation_xyz
x,y,z
1/2-x,1/2-y,1/2+z
1/2+x,1/2-y,-z
-x,y,1/2-z
-x,-y,-z
1/2+x,1/2+y,1/2-z
1/2-x,1/2+y,z
x,-y,1/2+z
loop_
_atom_site_type_symbol
_atom_site_label
_atom_site_fract_x
_atom_site_fract_y
_atom_site_fract_z
Si Si1 0.386342 0.758854 0.406689
Si Si2 0.843567 0.811140 0.986349
Si Si3 0.750778 0.526597 0.368570
Si Si4 0.712690 0.580344 0.184740
Si Si5 0.012862 0.949682 0.413199
Si Si6 0.039988 0.541525 0.842396
O O1 0.543898 0.741357 0.431716
O O2 0.281990 0.745046 0.483222
O O3 0.332950 0.686787 0.337543
O O4 0.381359 0.866306 0.375497
O O5 0.776442 0.895509 0.936278
O O6 0.917570 0.848577 0.069638
O O7 0.733078 0.575412 0.281186
O O8 0.640963 0.440615 0.376763
O O9 0.899888 0.483893 0.388823
O O10 0.595977 0.510472 0.152390
O O11 0.858037 0.547940 0.145834
O O12 0.000000 0.000000 0.500000
O O13 0.000000 0.562438 0.750000
#
# Coordination Sequence:
#
# PCOD8246767 Si02
#       6
#     8   8   8   8   8   8
#     4  12  26  42  69  96 140 174 230 275 339 400
#     4  11  26  40  63 101 132 179 220 277 337 403
#     4  10  23  43  69  92 128 177 228 272 341 400
#     4  11  22  44  69  93 134 178 221 281 339 392
#     4  10  19  40  62  92 125 169 217 266 334 394
#     4  10  25  43  67 100 131 177 224 274 333 400
#
# _framework density 21.252831
#
# number of rings (size 3 to 8) (size 9 to 14) (size 15 to 20)
#    0.000    1.333    5.000    0.500    7.000    0.667 
#    0.000    0.000    0.000    0.000    0.000    0.000 
#    0.000    0.000    0.000    0.000    0.000    0.000 
#
# Total GULP energy -594956.138162 kJ/mol
# GULP energy per Si atom -12394.919545 kJ/mol
# Density = 2.120446 g / cm^3
# Si number density = 21.252831 Si / 1000 Ang^3
#
#
#
# Elastic Constant Matrix: (Units=GPa)
#
#
# Indices 1 2 3 4 5 6 
#
# 1 152.8686 31.2386 28.2745 0.0000 0.0000 0.0000
# 2 31.2386 63.8382 25.1778 0.0000 0.0000 0.0000
# 3 28.2745 25.1778 49.9857 0.0000 0.0000 0.0000
# 4 0.0000 0.0000 0.0000 23.9941 0.0000 0.0000
# 5 0.0000 0.0000 0.0000 0.0000 40.0278 0.0000
# 6 0.0000 0.0000 0.0000 0.0000 0.0000 32.9085
#
#
#
# Elastic Compliance Matrix: (Units=1/GPa)
#
#
# Indices 1 2 3 4 5 6 
#
# 1 0.007620 -0.002532 -0.003035 0.000000 0.000000 0.000000
# 2 -0.002532 0.020389 -0.008838 0.000000 0.000000 0.000000
# 3 -0.003035 -0.008838 0.026174 0.000000 0.000000 0.000000
# 4 0.000000 0.000000 0.000000 0.041677 0.000000 0.000000
# 5 0.000000 0.000000 0.000000 0.000000 0.024983 0.000000
# 6 0.000000 0.000000 0.000000 0.000000 0.000000 0.030387
#
#
# Mechanical properties :
#
#
# Convention : Reuss Voigt Hill
#
# Bulk Modulus (GPa) = 39.41057 48.45271 43.93164
# Shear Modulus (GPa) = 26.52542 31.51952 29.02247
#
# Velocity S-wave (km/s) = 3.53666 3.85525 3.69939
# Velocity P-wave (km/s) = 5.93812 6.53184 6.24204
#
# Compressibility (1/GPa) = 0.02537391
#
# Stress axis : x y z
#
# Youngs Moduli (GPa) = 131.22788 49.04553 38.20557
#
# Poissons Ratio (x) = 0.12418 0.11596
# Poissons Ratio (y) = 0.33225 0.33766
# Poissons Ratio (z) = 0.39830 0.43346
#
# Static dielectric constant tensor:
#      x y z
#    x 5.625670 0.000000 0.000000 
#    y 0.000000 3.373980 0.000000 
#    z 0.000000 0.000000 4.807720 
# 
# 
# High freq. dielectric constant tensor:
#      x y z
#    x 1.861630 0.000000 0.000000 
#    y 0.000000 1.807590 0.000000 
#    z 0.000000 0.000000 1.828760 
# 
# From -- ./inp_files/19328.got.cif
#   From: 2010.03.12/outbox.cif.g09.slc.cpg/sg60_10_cif.got.tgz:19328.got - 2010.04.10 18:46:24.
