data_PCOD8246613
_publ_section_title
;
Structure prediction by ZEFSAII (Michael W. Deem and Ramdas Pophale) SiO2 
 PCOD8246613
Probable space group: P B C N
;
_chemical_formula_sum "Si O2"
_cell_formula_units_Z 56
_cell_length_a 18.723869
_cell_length_b 9.451916
_cell_length_c 16.778749
_cell_angle_alpha 90.000000
_cell_angle_beta 90.000000
_cell_angle_gamma 90.000000
_cell_volume 2969.443215
_symmetry_space_group_name_H-M "P B C N"
_symmetry_group_IT_number 60
_symmetry_cell_setting 'orthorhombic'
loop_
_space_group_symop_operation_xyz
x,y,z
1/2-x,1/2-y,1/2+z
1/2+x,1/2-y,-z
-x,y,1/2-z
-x,-y,-z
1/2+x,1/2+y,1/2-z
1/2-x,1/2+y,z
x,-y,1/2+z
loop_
_atom_site_type_symbol
_atom_site_label
_atom_site_fract_x
_atom_site_fract_y
_atom_site_fract_z
Si Si1 0.770431 0.846241 0.967317
Si Si2 0.153049 0.041475 0.179332
Si Si3 0.303987 0.028040 0.261950
Si Si4 0.860646 0.733128 0.362285
Si Si5 0.075538 0.313254 0.207050
Si Si6 0.696195 0.077290 0.051887
Si Si7 0.433342 0.006024 0.555542
O O1 0.827353 0.867882 0.898206
O O2 0.700243 0.775559 0.929230
O O3 0.799205 0.743275 0.035784
O O4 0.761916 0.995998 0.011022
O O5 0.223116 0.000150 0.231238
O O6 0.095656 0.146857 0.220661
O O7 0.115204 0.894300 0.154186
O O8 0.332474 0.169633 0.220752
O O9 0.304970 0.050401 0.355234
O O10 0.356603 0.898016 0.242484
O O11 0.927480 0.638669 0.392508
O O12 0.065987 0.359160 0.114744
O O13 0.000000 0.345000 0.250000
O O14 0.628930 0.012307 0.008167
O O15 0.500000 0.000000 0.500000
#
# Coordination Sequence:
#
# PCOD8246613 Si02
#       7
#     8   8   8   8   8   8   8
#     4  10  19  34  57  85 120 148 196 246 304 349
#     4  11  20  39  60  88 123 163 198 253 314 362
#     4  10  22  36  62  91 123 161 211 245 300 380
#     4   9  20  37  59  84 115 162 195 244 301 364
#     4  11  23  41  61  88 124 165 201 254 311 374
#     4  11  21  34  58  92 119 150 198 259 300 350
#     4  10  21  41  62  82 114 162 207 243 301 374
#
# _framework density 18.858754000000001
#
# number of rings (size 3 to 8) (size 9 to 14) (size 15 to 20)
#    0.000    1.714    2.857    3.429    4.000    0.000 
#    0.000    5.000    0.000    0.000    0.000    0.000 
#    0.000    0.000    0.000    0.000    0.000    0.000 
#
# Total GULP energy -694039.247161 kJ/mol
# GULP energy per Si atom -12393.557985 kJ/mol
# Density = 1.881583 g / cm^3
# Si number density = 18.858754 Si / 1000 Ang^3
#
#
#
# Elastic Constant Matrix: (Units=GPa)
#
#
# Indices 1 2 3 4 5 6 
#
# 1 70.0533 35.4629 31.0510 0.0000 0.0000 0.0000
# 2 35.4629 122.7281 23.6487 0.0000 0.0000 0.0000
# 3 31.0510 23.6487 118.6748 0.0000 0.0000 0.0000
# 4 0.0000 0.0000 0.0000 14.6991 0.0000 0.0000
# 5 0.0000 0.0000 0.0000 0.0000 28.2381 0.0000
# 6 0.0000 0.0000 0.0000 0.0000 0.0000 20.9495
#
#
#
# Elastic Compliance Matrix: (Units=1/GPa)
#
#
# Indices 1 2 3 4 5 6 
#
# 1 0.018293 -0.004538 -0.003882 0.000000 0.000000 0.000000
# 2 -0.004538 0.009599 -0.000726 0.000000 0.000000 0.000000
# 3 -0.003882 -0.000726 0.009587 0.000000 0.000000 0.000000
# 4 0.000000 0.000000 0.000000 0.068032 0.000000 0.000000
# 5 0.000000 0.000000 0.000000 0.000000 0.035413 0.000000
# 6 0.000000 0.000000 0.000000 0.000000 0.000000 0.047734
#
#
# Mechanical properties :
#
#
# Convention : Reuss Voigt Hill
#
# Bulk Modulus (GPa) = 52.11617 54.64237 53.37927
# Shear Modulus (GPa) = 23.43640 27.53025 25.48332
#
# Velocity S-wave (km/s) = 3.52907 3.82489 3.67995
# Velocity P-wave (km/s) = 6.65588 6.96734 6.81339
#
# Compressibility (1/GPa) = 0.01918790
#
# Stress axis : x y z
#
# Youngs Moduli (GPa) = 54.66678 104.17637 104.31135
#
# Poissons Ratio (x) = 0.47272 0.40493
# Poissons Ratio (y) = 0.24806 0.07568
# Poissons Ratio (z) = 0.21222 0.07559
#
# Static dielectric constant tensor:
#      x y z
#    x 3.313820 0.000000 0.000000 
#    y 0.000000 3.399760 0.000000 
#    z 0.000000 0.000000 3.466020 
# 
# 
# High freq. dielectric constant tensor:
#      x y z
#    x 1.706650 0.000000 0.000000 
#    y 0.000000 1.739860 0.000000 
#    z 0.000000 0.000000 1.734770 
# 
# From -- ./inp_files/17705.got.cif
#   From: 2010.03.12/outbox.cif.g09.slc.cpg/sg60_9_cif.got.tgz:17705.got - 2010.04.10 18:46:24.
