data_PCOD8246130
_publ_section_title
;
Structure prediction by ZEFSAII (Michael W. Deem and Ramdas Pophale) SiO2 
 PCOD8246130
Probable space group: P M M N
;
_chemical_formula_sum "Si O2"
_cell_formula_units_Z 32
_cell_length_a 19.000573
_cell_length_b 8.714171
_cell_length_c 10.328287
_cell_angle_alpha 90.000000
_cell_angle_beta 90.000000
_cell_angle_gamma 90.000000
_cell_volume 1710.098293
_symmetry_space_group_name_H-M "P M M N"
_symmetry_group_IT_number 59
_space_group.IT_coordinate_system_code '2'
_symmetry_cell_setting 'orthorhombic'
loop_
_space_group_symop_operation_xyz
x,y,z
1/2-x,1/2-y,z
1/2+x,-y,-z
-x,1/2+y,-z
-x,-y,-z
1/2+x,1/2+y,-z
1/2-x,y,z
x,1/2-y,z
loop_
_atom_site_type_symbol
_atom_site_label
_atom_site_fract_x
_atom_site_fract_y
_atom_site_fract_z
Si Si1 0.966479 0.430791 0.372596
Si Si2 0.670490 0.929201 0.278609
Si Si3 0.170023 0.072564 0.021502
Si Si4 0.461745 0.570094 0.122996
O O1 0.973987 0.250000 0.376076
O O2 0.884070 0.475394 0.365055
O O3 0.000000 0.500000 0.500000
O O4 0.008553 0.496138 0.251739
O O5 0.750000 0.976778 0.317248
O O6 0.658743 0.750000 0.304320
O O7 0.656789 0.967413 0.128458
O O8 0.250000 0.036114 0.060283
O O9 0.152132 0.250000 0.046922
O O10 0.121126 0.966913 0.111303
O O11 0.475432 0.750000 0.128140
O O12 0.500000 0.500000 0.000000
#
# Coordination Sequence:
#
# PCOD8246130 Si02
#       4
#     8   8   8   8
#     4  12  25  41  61  87 120 159 200 247 296 352
#     4   9  18  35  60  88 119 154 193 240 294 352
#     4   9  18  34  58  88 121 155 193 241 297 351
#     4  12  23  37  59  88 120 154 196 244 292 347
#
# _framework density 18.712374000000001
#
# number of rings (size 3 to 8) (size 9 to 14) (size 15 to 20)
#    0.000    1.500    2.500    6.000    0.000    1.000 
#    0.000    3.750    0.000    7.500    0.000    0.000 
#    0.000    0.000    0.000    0.000    0.000    0.000 
#
# Total GULP energy -396883.041556 kJ/mol
# GULP energy per Si atom -12402.595049 kJ/mol
# Density = 1.866978 g / cm^3
# Si number density = 18.712374 Si / 1000 Ang^3
#
#
#
# Elastic Constant Matrix: (Units=GPa)
#
#
# Indices 1 2 3 4 5 6 
#
# 1 149.1203 72.5879 72.8991 0.0000 0.0000 0.0000
# 2 72.5879 146.2445 66.3471 0.0000 0.0000 0.0000
# 3 72.8991 66.3471 121.8049 0.0000 0.0000 0.0000
# 4 0.0000 0.0000 0.0000 28.8907 0.0000 0.0000
# 5 0.0000 0.0000 0.0000 0.0000 29.1556 0.0000
# 6 0.0000 0.0000 0.0000 0.0000 0.0000 38.5053
#
#
#
# Elastic Compliance Matrix: (Units=1/GPa)
#
#
# Indices 1 2 3 4 5 6 
#
# 1 0.010452 -0.003121 -0.004555 0.000000 0.000000 0.000000
# 2 -0.003121 0.010014 -0.003587 0.000000 0.000000 0.000000
# 3 -0.004555 -0.003587 0.012890 0.000000 0.000000 0.000000
# 4 0.000000 0.000000 0.000000 0.034613 0.000000 0.000000
# 5 0.000000 0.000000 0.000000 0.000000 0.034299 0.000000
# 6 0.000000 0.000000 0.000000 0.000000 0.000000 0.025970
#
#
# Mechanical properties :
#
#
# Convention : Reuss Voigt Hill
#
# Bulk Modulus (GPa) = 92.33928 93.42644 92.88286
# Shear Modulus (GPa) = 32.38851 32.99938 32.69395
#
# Velocity S-wave (km/s) = 4.16487 4.20397 4.18447
# Velocity P-wave (km/s) = 8.51951 8.57907 8.54934
#
# Compressibility (1/GPa) = 0.01082963
#
# Stress axis : x y z
#
# Youngs Moduli (GPa) = 95.67229 99.85716 77.57993
#
# Poissons Ratio (x) = 0.31168 0.35341
# Poissons Ratio (y) = 0.29862 0.27826
# Poissons Ratio (z) = 0.43583 0.35816
#
# Static dielectric constant tensor:
#      x y z
#    x 3.878530 0.000000 0.000000 
#    y 0.000000 3.470230 0.000000 
#    z 0.000000 0.000000 5.600650 
# 
# 
# High freq. dielectric constant tensor:
#      x y z
#    x 1.747570 0.000000 0.000000 
#    y 0.000000 1.728650 0.000000 
#    z 0.000000 0.000000 1.700110 
# 
# From -- ./inp_files/5334.got.cif
#   From: 2010.03.12/outbox.cif.g09.slc.cpg/sg59_3_cif.got.tgz:5334.got - 2010.04.16 16:29:54.
