data_PCOD8246079
_publ_section_title
;
Structure prediction by ZEFSAII (Michael W. Deem and Ramdas Pophale) SiO2 
 PCOD8246079
Probable space group: P M M N
;
_chemical_formula_sum "Si O2"
_cell_formula_units_Z 32
_cell_length_a 13.660282
_cell_length_b 17.503795
_cell_length_c 7.340698
_cell_angle_alpha 90.000000
_cell_angle_beta 90.000000
_cell_angle_gamma 90.000000
_cell_volume 1755.210631
_symmetry_space_group_name_H-M "P M M N"
_symmetry_group_IT_number 59
_space_group.IT_coordinate_system_code '2'
_symmetry_cell_setting 'orthorhombic'
loop_
_space_group_symop_operation_xyz
x,y,z
1/2-x,1/2-y,z
1/2+x,-y,-z
-x,1/2+y,-z
-x,-y,-z
1/2+x,1/2+y,-z
1/2-x,y,z
x,1/2-y,z
loop_
_atom_site_type_symbol
_atom_site_label
_atom_site_fract_x
_atom_site_fract_y
_atom_site_fract_z
Si Si1 0.010228 0.595892 0.328521
Si Si2 0.862052 0.337147 0.977548
Si Si3 0.361798 0.339398 0.421657
Si Si4 0.973050 0.070676 0.273234
O O1 0.909515 0.640317 0.380915
O O2 0.986895 0.517943 0.218596
O O3 0.076386 0.649904 0.205352
O O4 0.067342 0.575440 0.517674
O O5 0.750000 0.355895 0.932232
O O6 0.875743 0.250000 0.040975
O O7 0.895225 0.391563 0.140485
O O8 0.250000 0.367301 0.419431
O O9 0.370054 0.250000 0.382217
O O10 0.422334 0.384404 0.263871
#
# Coordination Sequence:
#
# PCOD8246079 Si02
#       4
#     8   8   8   8
#     4   9  20  38  57  78 110 143 184 228 273 320
#     4  11  23  36  55  83 113 149 186 221 270 328
#     4   9  17  32  55  79 103 135 176 221 272 322
#     4   9  20  38  57  78 110 143 184 228 273 320
#
# _framework density 18.23143
#
# number of rings (size 3 to 8) (size 9 to 14) (size 15 to 20)
#    1.500    1.000    0.000    2.250    0.000    3.000 
#    0.000    3.750    0.000    4.500    0.000    0.000 
#    0.000    0.000    0.000    0.000    0.000    0.000 
#
# Total GULP energy -396587.842332 kJ/mol
# GULP energy per Si atom -12393.370073 kJ/mol
# Density = 1.818993 g / cm^3
# Si number density = 18.231430 Si / 1000 Ang^3
#
#
#
# Elastic Constant Matrix: (Units=GPa)
#
#
# Indices 1 2 3 4 5 6 
#
# 1 82.5431 28.6176 6.7254 0.0000 0.0000 0.0000
# 2 28.6176 70.3245 -3.9257 0.0000 0.0000 0.0000
# 3 6.7254 -3.9257 33.8343 0.0000 0.0000 0.0000
# 4 0.0000 0.0000 0.0000 25.2034 0.0000 0.0000
# 5 0.0000 0.0000 0.0000 0.0000 32.1802 0.0000
# 6 0.0000 0.0000 0.0000 0.0000 0.0000 17.5866
#
#
#
# Elastic Compliance Matrix: (Units=1/GPa)
#
#
# Indices 1 2 3 4 5 6 
#
# 1 0.014527 -0.006112 -0.003597 0.000000 0.000000 0.000000
# 2 -0.006112 0.016884 0.003174 0.000000 0.000000 0.000000
# 3 -0.003597 0.003174 0.030639 0.000000 0.000000 0.000000
# 4 0.000000 0.000000 0.000000 0.039677 0.000000 0.000000
# 5 0.000000 0.000000 0.000000 0.000000 0.031075 0.000000
# 6 0.000000 0.000000 0.000000 0.000000 0.000000 0.056862
#
#
# Mechanical properties :
#
#
# Convention : Reuss Voigt Hill
#
# Bulk Modulus (GPa) = 20.41642 27.72625 24.07134
# Shear Modulus (GPa) = 22.82465 25.34633 24.08549
#
# Velocity S-wave (km/s) = 3.54211 3.73266 3.63863
# Velocity P-wave (km/s) = 5.28692 5.81532 5.55740
#
# Compressibility (1/GPa) = 0.04898017
#
# Stress axis : x y z
#
# Youngs Moduli (GPa) = 68.83684 59.22655 32.63808
#
# Poissons Ratio (x) = 0.36202 0.11739
# Poissons Ratio (y) = 0.42076 -0.10359
# Poissons Ratio (z) = 0.24759 -0.18799
#
# Static dielectric constant tensor:
#      x y z
#    x 3.179980 0.000000 0.000000 
#    y 0.000000 3.415540 0.000000 
#    z 0.000000 0.000000 3.067780 
# 
# 
# High freq. dielectric constant tensor:
#      x y z
#    x 1.689250 0.000000 0.000000 
#    y 0.000000 1.722290 0.000000 
#    z 0.000000 0.000000 1.685550 
# 
# From -- ./inp_files/7215.got.cif
#   From: 2010.03.12/outbox.cif.g09.slc.cpg/sg59_4_cif.got.tgz:7215.got - 2010.04.16 16:29:54.
