data_PCOD8246058
_publ_section_title
;
Structure prediction by ZEFSAII (Michael W. Deem and Ramdas Pophale) SiO2 
 PCOD8246058
Probable space group: P M M N
;
_chemical_formula_sum "Si O2"
_cell_formula_units_Z 32
_cell_length_a 7.609753
_cell_length_b 13.995339
_cell_length_c 15.895503
_cell_angle_alpha 90.000000
_cell_angle_beta 90.000000
_cell_angle_gamma 90.000000
_cell_volume 1692.888124
_symmetry_space_group_name_H-M "P M M N"
_symmetry_group_IT_number 59
_space_group.IT_coordinate_system_code '2'
_symmetry_cell_setting 'orthorhombic'
loop_
_space_group_symop_operation_xyz
x,y,z
1/2-x,1/2-y,z
1/2+x,-y,-z
-x,1/2+y,-z
-x,-y,-z
1/2+x,1/2+y,-z
1/2-x,y,z
x,1/2-y,z
loop_
_atom_site_type_symbol
_atom_site_label
_atom_site_fract_x
_atom_site_fract_y
_atom_site_fract_z
Si Si1 0.455737 0.145366 0.503629
Si Si2 0.250000 0.640504 0.104424
Si Si3 0.043519 0.498718 0.366416
Si Si4 0.053849 0.477702 0.179458
Si Si5 0.250000 0.859443 0.905136
O O1 0.250000 0.152450 0.489412
O O2 0.542667 0.250000 0.499649
O O3 0.495220 0.101605 0.595297
O O4 0.539287 0.081342 0.428715
O O5 0.250000 0.750000 0.137255
O O6 0.076357 0.584294 0.139011
O O7 0.250000 0.637529 0.004769
O O8 0.250000 0.488184 0.360909
O O9 0.968139 0.487698 0.272415
O O10 0.250000 0.429681 0.182134
O O11 0.925656 0.412112 0.125357
O O12 0.250000 0.750000 0.872418
#
# Coordination Sequence:
#
# PCOD8246058 Si02
#       5
#     8   4   8   8   4
#     4   9  18  31  50  73 104 141 176 219 269 320
#     4   9  20  40  61  86 117 148 189 236 284 345
#     4   9  18  34  51  75 105 140 178 223 266 326
#     4   9  21  37  61  83 117 153 183 238 287 333
#     4  11  22  38  61  88 115 148 193 234 282 351
#
# _framework density 18.902607
#
# number of rings (size 3 to 8) (size 9 to 14) (size 15 to 20)
#    0.750    2.000    0.000    0.750    1.750    3.000 
#    0.000    3.125    0.000    0.000    0.000    0.000 
#    0.000    0.000    0.000    0.000    0.000    0.000 
#
# Total GULP energy -396528.414826 kJ/mol
# GULP energy per Si atom -12391.512963 kJ/mol
# Density = 1.885958 g / cm^3
# Si number density = 18.902607 Si / 1000 Ang^3
#
#
#
# Elastic Constant Matrix: (Units=GPa)
#
#
# Indices 1 2 3 4 5 6 
#
# 1 53.8335 30.4244 20.3172 0.0000 0.0000 0.0000
# 2 30.4244 148.7086 52.5419 0.0000 0.0000 0.0000
# 3 20.3172 52.5419 108.3656 0.0000 0.0000 0.0000
# 4 0.0000 0.0000 0.0000 13.9404 0.0000 0.0000
# 5 0.0000 0.0000 0.0000 0.0000 5.7121 0.0000
# 6 0.0000 0.0000 0.0000 0.0000 0.0000 27.5790
#
#
#
# Elastic Compliance Matrix: (Units=1/GPa)
#
#
# Indices 1 2 3 4 5 6 
#
# 1 0.021464 -0.003583 -0.002287 0.000000 0.000000 0.000000
# 2 -0.003583 0.008713 -0.003553 0.000000 0.000000 0.000000
# 3 -0.002287 -0.003553 0.011379 0.000000 0.000000 0.000000
# 4 0.000000 0.000000 0.000000 0.071734 0.000000 0.000000
# 5 0.000000 0.000000 0.000000 0.000000 0.175066 0.000000
# 6 0.000000 0.000000 0.000000 0.000000 0.000000 0.036259
#
#
# Mechanical properties :
#
#
# Convention : Reuss Voigt Hill
#
# Bulk Modulus (GPa) = 44.03246 57.49719 50.76482
# Shear Modulus (GPa) = 14.24373 23.28792 18.76583
#
# Velocity S-wave (km/s) = 2.74803 3.51379 3.15423
# Velocity P-wave (km/s) = 5.78047 6.85171 6.33876
#
# Compressibility (1/GPa) = 0.02271052
#
# Stress axis : x y z
#
# Youngs Moduli (GPa) = 46.58963 114.77197 87.87873
#
# Poissons Ratio (x) = 0.41127 0.20096
# Poissons Ratio (y) = 0.16695 0.31221
# Poissons Ratio (z) = 0.10654 0.40775
#
# Static dielectric constant tensor:
#      x y z
#    x 3.167680 0.000000 0.000000 
#    y 0.000000 3.682250 0.000000 
#    z 0.000000 0.000000 3.659100 
# 
# 
# High freq. dielectric constant tensor:
#      x y z
#    x 1.715450 0.000000 0.000000 
#    y 0.000000 1.727900 0.000000 
#    z 0.000000 0.000000 1.740750 
# 
# From -- ./inp_files/19727.got.cif
#   From: 2010.03.12/outbox.cif.g09.slc.cpg/sg59_10_cif.got.tgz:19727.got - 2010.04.16 16:29:54.
