data_PCOD8246875
_publ_section_title
;
Structure prediction by ZEFSAII (Michael W. Deem and Ramdas Pophale) SiO2 
 PCOD8246875
Probable space group: P B C N
;
_chemical_formula_sum "Si O2"
_cell_formula_units_Z 56
_cell_length_a 7.322221
_cell_length_b 16.188668
_cell_length_c 22.097927
_cell_angle_alpha 90.000000
_cell_angle_beta 90.000000
_cell_angle_gamma 90.000000
_cell_volume 2619.422079
_symmetry_space_group_name_H-M "P B C N"
_symmetry_group_IT_number 60
_symmetry_cell_setting 'orthorhombic'
loop_
_space_group_symop_operation_xyz
x,y,z
1/2-x,1/2-y,1/2+z
1/2+x,1/2-y,-z
-x,y,1/2-z
-x,-y,-z
1/2+x,1/2+y,1/2-z
1/2-x,1/2+y,z
x,-y,1/2+z
loop_
_atom_site_type_symbol
_atom_site_label
_atom_site_fract_x
_atom_site_fract_y
_atom_site_fract_z
Si Si1 0.799433 0.281184 0.916760
Si Si2 0.323740 0.040104 0.076229
Si Si3 0.231265 0.541387 0.460528
Si Si4 0.251581 0.877761 0.384999
Si Si5 0.407775 0.320174 0.190003
Si Si6 0.083505 0.562604 0.689330
Si Si7 0.208512 0.279297 0.959661
O O1 0.717437 0.373482 0.916544
O O2 0.788812 0.244520 0.849154
O O3 0.010417 0.282708 0.932571
O O4 0.693629 0.227858 0.967267
O O5 0.514830 0.055392 0.042891
O O6 0.346977 0.006050 0.143312
O O7 0.210667 0.980792 0.030217
O O8 0.287872 0.466204 0.416947
O O9 0.313804 0.633125 0.444499
O O10 0.428006 0.881481 0.342011
O O11 0.302866 0.802942 0.431443
O O12 0.066426 0.861320 0.349360
O O13 0.500000 0.279758 0.250000
O O14 0.260072 0.387017 0.211221
O O15 0.000000 0.521004 0.750000
#
# Coordination Sequence:
#
# PCOD8246875 Si02
#       7
#     8   8   8   8   8   8   8
#     4  10  21  36  58  89 125 157 197 258 303 365
#     4   9  18  34  59  88 116 154 202 245 300 361
#     4   9  17  34  60  88 122 153 192 248 306 364
#     4  10  21  40  62  88 125 155 198 259 303 359
#     4  11  23  40  59  88 120 162 211 244 300 365
#     4  11  22  39  65  82 113 168 209 244 302 361
#     4  10  20  35  58  90 122 157 197 249 314 362
#
# _framework density 21.37876
#
# number of rings (size 3 to 8) (size 9 to 14) (size 15 to 20)
#    0.000    2.000    2.857    0.857    4.000    0.571 
#    2.571    2.143    0.000    1.714    0.000    0.000 
#    0.000    0.000    0.000    0.000    0.000    0.000 
#
# Total GULP energy -693795.366359 kJ/mol
# GULP energy per Si atom -12389.202971 kJ/mol
# Density = 2.133010 g / cm^3
# Si number density = 21.378760 Si / 1000 Ang^3
#
#
#
# Elastic Constant Matrix: (Units=GPa)
#
#
# Indices 1 2 3 4 5 6 
#
# 1 35.0903 1.6482 7.3862 0.0000 0.0000 0.0000
# 2 1.6482 137.4041 44.4764 0.0000 0.0000 0.0000
# 3 7.3862 44.4764 136.1275 0.0000 0.0000 0.0000
# 4 0.0000 0.0000 0.0000 10.8865 0.0000 0.0000
# 5 0.0000 0.0000 0.0000 0.0000 14.8585 0.0000
# 6 0.0000 0.0000 0.0000 0.0000 0.0000 13.6899
#
#
#
# Elastic Compliance Matrix: (Units=1/GPa)
#
#
# Indices 1 2 3 4 5 6 
#
# 1 0.028831 0.000180 -0.001623 0.000000 0.000000 0.000000
# 2 0.000180 0.008140 -0.002669 0.000000 0.000000 0.000000
# 3 -0.001623 -0.002669 0.008306 0.000000 0.000000 0.000000
# 4 0.000000 0.000000 0.000000 0.091857 0.000000 0.000000
# 5 0.000000 0.000000 0.000000 0.000000 0.067302 0.000000
# 6 0.000000 0.000000 0.000000 0.000000 0.000000 0.073046
#
#
# Mechanical properties :
#
#
# Convention : Reuss Voigt Hill
#
# Bulk Modulus (GPa) = 26.98935 46.18260 36.58598
# Shear Modulus (GPa) = 16.77526 24.89439 20.83482
#
# Velocity S-wave (km/s) = 2.80423 3.41610 3.12518
# Velocity P-wave (km/s) = 4.81007 6.09989 5.49297
#
# Compressibility (1/GPa) = 0.03705165
#
# Stress axis : x y z
#
# Youngs Moduli (GPa) = 34.68473 122.85563 120.39191
#
# Poissons Ratio (x) = -0.02206 0.19540
# Poissons Ratio (y) = -0.00623 0.32135
# Poissons Ratio (z) = 0.05629 0.32792
#
# Static dielectric constant tensor:
#      x y z
#    x 3.610760 0.000000 0.000000 
#    y 0.000000 4.313280 0.000000 
#    z 0.000000 0.000000 3.207030 
# 
# 
# High freq. dielectric constant tensor:
#      x y z
#    x 1.823540 0.000000 0.000000 
#    y 0.000000 1.835220 0.000000 
#    z 0.000000 0.000000 1.834440 
# 
# From -- ./inp_files/22231.got.cif
#   From: 2010.03.12/outbox.cif.g09.slc.cpg/sg60_12_cif.got.tgz:22231.got - 2010.04.10 18:46:24.
