data_PCOD8246332
_publ_section_title
;
Structure prediction by ZEFSAII (Michael W. Deem and Ramdas Pophale) SiO2 
 PCOD8246332
Probable space group: P B C N
;
_chemical_formula_sum "Si O2"
_cell_formula_units_Z 32
_cell_length_a 7.893621
_cell_length_b 19.662929
_cell_length_c 9.831189
_cell_angle_alpha 90.000000
_cell_angle_beta 90.000000
_cell_angle_gamma 90.000000
_cell_volume 1525.915649
_symmetry_space_group_name_H-M "P B C N"
_symmetry_group_IT_number 60
_symmetry_cell_setting 'orthorhombic'
loop_
_space_group_symop_operation_xyz
x,y,z
1/2-x,1/2-y,1/2+z
1/2+x,1/2-y,-z
-x,y,1/2-z
-x,-y,-z
1/2+x,1/2+y,1/2-z
1/2-x,1/2+y,z
x,-y,1/2+z
loop_
_atom_site_type_symbol
_atom_site_label
_atom_site_fract_x
_atom_site_fract_y
_atom_site_fract_z
Si Si1 0.365266 0.289132 0.859297
Si Si2 0.821212 0.966674 0.032768
Si Si3 0.092036 0.822046 0.387778
Si Si4 0.297368 0.571227 0.257171
O O1 0.500000 0.260381 0.750000
O O2 0.246883 0.229083 0.911364
O O3 0.253256 0.350525 0.793870
O O4 0.462858 0.319460 0.987875
O O5 0.839239 0.898558 0.122168
O O6 0.720296 0.020508 0.128204
O O7 0.722959 0.949285 0.891485
O O8 0.000000 0.000000 0.000000
O O9 0.000000 0.800962 0.250000
O O10 0.500000 0.565160 0.250000
#
# Coordination Sequence:
#
# PCOD8246332 Si02
#       4
#     8   8   8   8
#     4  11  22  41  55  88 125 154 198 252 300 359
#     4  10  17  33  57  87 110 147 206 249 282 342
#     4  12  23  35  63  88 116 162 198 247 304 357
#     4   9  17  32  54  80 117 140 192 254 281 339
#
# _framework density 20.971015000000001
#
# number of rings (size 3 to 8) (size 9 to 14) (size 15 to 20)
#    0.000    1.500    7.500    3.750    0.000    0.000 
#    0.000    0.000    0.000    3.000    0.000    0.000 
#    0.000    0.000    0.000    0.000    0.000    0.000 
#
# Total GULP energy -396714.066001 kJ/mol
# GULP energy per Si atom -12397.314563 kJ/mol
# Density = 2.092328 g / cm^3
# Si number density = 20.971015 Si / 1000 Ang^3
#
#
#
# Elastic Constant Matrix: (Units=GPa)
#
#
# Indices 1 2 3 4 5 6 
#
# 1 20.4825 27.3651 11.3918 0.0000 0.0000 0.0000
# 2 27.3651 148.4248 23.3678 0.0000 0.0000 0.0000
# 3 11.3918 23.3678 116.0584 0.0000 0.0000 0.0000
# 4 0.0000 0.0000 0.0000 -9.6538 0.0000 0.0000
# 5 0.0000 0.0000 0.0000 0.0000 9.4305 0.0000
# 6 0.0000 0.0000 0.0000 0.0000 0.0000 16.2803
#
#
#
# Elastic Compliance Matrix: (Units=1/GPa)
#
#
# Indices 1 2 3 4 5 6 
#
# 1 0.066708 -0.011637 -0.004205 0.000000 0.000000 0.000000
# 2 -0.011637 0.008988 -0.000667 0.000000 0.000000 0.000000
# 3 -0.004205 -0.000667 0.009163 0.000000 0.000000 0.000000
# 4 0.000000 0.000000 0.000000 -0.103586 0.000000 0.000000
# 5 0.000000 0.000000 0.000000 0.000000 0.106039 0.000000
# 6 0.000000 0.000000 0.000000 0.000000 0.000000 0.061424
#
#
# Mechanical properties :
#
#
# Convention : Reuss Voigt Hill
#
# Bulk Modulus (GPa) = 19.28970 45.46835 32.37902
# Shear Modulus (GPa) = 25.12128 18.06747 21.59437
#
# Velocity S-wave (km/s) = 3.46483 2.93839 3.21241
# Velocity P-wave (km/s) = 5.02245 5.76548 5.40674
#
# Compressibility (1/GPa) = 0.05184113
#
# Stress axis : x y z
#
# Youngs Moduli (GPa) = 14.99072 111.25931 109.12916
#
# Poissons Ratio (x) = 1.29472 0.45886
# Poissons Ratio (y) = 0.17445 0.07284
# Poissons Ratio (z) = 0.06303 0.07426
#
# Static dielectric constant tensor:
#      x y z
#    x 2.986090 0.000000 0.000000 
#    y 0.000000 4.119620 0.000000 
#    z 0.000000 0.000000 5.717600 
# 
# 
# High freq. dielectric constant tensor:
#      x y z
#    x 1.742180 0.000000 0.000000 
#    y 0.000000 1.837820 0.000000 
#    z 0.000000 0.000000 1.847470 
# 
# From -- ./inp_files/9677.got.cif
#   From: 2010.03.12/outbox.cif.g09.slc.cpg/sg60_5_cif.got.tgz:9677.got - 2010.04.10 18:46:24.
