data_PCOD8246127
_publ_section_title
;
Structure prediction by ZEFSAII (Michael W. Deem and Ramdas Pophale) SiO2 
 PCOD8246127
Probable space group: P M M N
;
_chemical_formula_sum "Si O2"
_cell_formula_units_Z 40
_cell_length_a 9.652609
_cell_length_b 21.654376
_cell_length_c 11.316434
_cell_angle_alpha 90.000000
_cell_angle_beta 90.000000
_cell_angle_gamma 90.000000
_cell_volume 2365.374894
_symmetry_space_group_name_H-M "P M M N"
_symmetry_group_IT_number 59
_space_group.IT_coordinate_system_code '2'
_symmetry_cell_setting 'orthorhombic'
loop_
_space_group_symop_operation_xyz
x,y,z
1/2-x,1/2-y,z
1/2+x,-y,-z
-x,1/2+y,-z
-x,-y,-z
1/2+x,1/2+y,-z
1/2-x,y,z
x,1/2-y,z
loop_
_atom_site_type_symbol
_atom_site_label
_atom_site_fract_x
_atom_site_fract_y
_atom_site_fract_z
Si Si1 0.750000 0.077467 0.938906
Si Si2 0.750000 0.951881 0.632008
Si Si3 0.027846 0.519057 0.217437
Si Si4 0.250000 0.816028 0.237208
Si Si5 0.750000 0.455083 0.190103
Si Si6 0.750000 0.065566 0.462061
Si Si7 0.250000 0.322932 0.491635
Si Si8 0.977709 0.370708 0.610244
O O1 0.884887 0.040389 0.895486
O O2 0.750000 0.142312 0.876341
O O3 0.750000 0.092202 0.079141
O O4 0.750000 0.877857 0.607439
O O5 0.886557 0.968428 0.707051
O O6 0.750000 0.994469 0.511687
O O7 0.981908 0.574164 0.303060
O O8 0.886560 0.493930 0.166236
O O9 0.250000 0.750000 0.178656
O O10 0.115848 0.823008 0.318753
O O11 0.750000 0.427658 0.320992
O O12 0.611035 0.100368 0.502882
O O13 0.250000 0.250000 0.446452
O O14 0.387698 0.333753 0.567981
#
# Coordination Sequence:
#
# PCOD8246127 Si02
#       8
#     4   4   8   4   4   4   4   8
#     4   9  20  32  44  70  97 119 155 193 238 281
#     4   9  18  34  48  68  98 127 156 184 236 289
#     4   9  18  32  51  68  91 123 155 200 237 269
#     4   9  17  34  53  62  85 127 161 191 224 269
#     4  12  18  26  47  74  97 119 147 187 239 284
#     4   9  18  31  53  73  93 124 155 197 239 275
#     4  12  21  27  42  73 107 126 144 182 232 292
#     4   9  18  32  48  73  95 117 156 192 234 280
#
# _framework density 16.910637999999999
#
# number of rings (size 3 to 8) (size 9 to 14) (size 15 to 20)
#    0.000    2.400    0.000    6.600    0.000    3.200 
#    0.000    0.000    0.000    7.200    0.000    0.000 
#    0.000    9.600    0.000    0.000    0.000    0.000 
#
# Total GULP energy -495534.853850 kJ/mol
# GULP energy per Si atom -12388.371346 kJ/mol
# Density = 1.687215 g / cm^3
# Si number density = 16.910638 Si / 1000 Ang^3
#
#
#
# Elastic Constant Matrix: (Units=GPa)
#
#
# Indices 1 2 3 4 5 6 
#
# 1 110.1727 42.7346 30.4702 0.0000 0.0000 0.0000
# 2 42.7346 105.4184 37.9205 0.0000 0.0000 0.0000
# 3 30.4702 37.9205 119.6000 0.0000 0.0000 0.0000
# 4 0.0000 0.0000 0.0000 1.4798 0.0000 0.0000
# 5 0.0000 0.0000 0.0000 0.0000 82.1997 0.0000
# 6 0.0000 0.0000 0.0000 0.0000 0.0000 9.3707
#
#
#
# Elastic Compliance Matrix: (Units=1/GPa)
#
#
# Indices 1 2 3 4 5 6 
#
# 1 0.011026 -0.003904 -0.001571 0.000000 0.000000 0.000000
# 2 -0.003904 0.012090 -0.002838 0.000000 0.000000 0.000000
# 3 -0.001571 -0.002838 0.009661 0.000000 0.000000 0.000000
# 4 0.000000 0.000000 0.000000 0.675788 0.000000 0.000000
# 5 0.000000 0.000000 0.000000 0.000000 0.012165 0.000000
# 6 0.000000 0.000000 0.000000 0.000000 0.000000 0.106715
#
#
# Mechanical properties :
#
#
# Convention : Reuss Voigt Hill
#
# Bulk Modulus (GPa) = 61.92347 61.93796 61.93071
# Shear Modulus (GPa) = 5.88611 33.54775 19.71693
#
# Velocity S-wave (km/s) = 1.86769 4.45885 3.41830
# Velocity P-wave (km/s) = 6.43029 7.95076 7.23060
#
# Compressibility (1/GPa) = 0.01614897
#
# Stress axis : x y z
#
# Youngs Moduli (GPa) = 90.69763 82.71399 103.50435
#
# Poissons Ratio (x) = 0.32295 0.16261
# Poissons Ratio (y) = 0.35413 0.29380
# Poissons Ratio (z) = 0.14249 0.23478
#
# Static dielectric constant tensor:
#      x y z
#    x 3.311020 0.000000 0.000000 
#    y 0.000000 3.016720 0.000000 
#    z 0.000000 0.000000 2.986750 
# 
# 
# High freq. dielectric constant tensor:
#      x y z
#    x 1.672060 0.000000 0.000000 
#    y 0.000000 1.626180 0.000000 
#    z 0.000000 0.000000 1.637100 
# 
# From -- ./inp_files/14162.got.cif
#   From: 2010.03.12/outbox.cif.g09.slc.cpg/sg59_8_cif.got.tgz:14162.got - 2010.04.16 16:29:54.
