data_PCOD8246128
_publ_section_title
;
Structure prediction by ZEFSAII (Michael W. Deem and Ramdas Pophale) SiO2 
 PCOD8246128
Probable space group: P M M N
;
_chemical_formula_sum "Si O2"
_cell_formula_units_Z 32
_cell_length_a 14.348159
_cell_length_b 20.749868
_cell_length_c 4.990998
_cell_angle_alpha 90.000000
_cell_angle_beta 90.000000
_cell_angle_gamma 90.000000
_cell_volume 1485.931929
_symmetry_space_group_name_H-M "P M M N"
_symmetry_group_IT_number 59
_space_group.IT_coordinate_system_code '2'
_symmetry_cell_setting 'orthorhombic'
loop_
_space_group_symop_operation_xyz
x,y,z
1/2-x,1/2-y,z
1/2+x,-y,-z
-x,1/2+y,-z
-x,-y,-z
1/2+x,1/2+y,-z
1/2-x,y,z
x,1/2-y,z
loop_
_atom_site_type_symbol
_atom_site_label
_atom_site_fract_x
_atom_site_fract_y
_atom_site_fract_z
Si Si1 0.146823 0.593572 0.481191
Si Si2 0.146156 0.131561 0.976371
Si Si3 0.965423 0.675690 0.523329
Si Si4 0.391800 0.988873 0.978824
O O1 0.250000 0.624083 0.519096
O O2 0.133301 0.533768 0.681127
O O3 0.069884 0.648035 0.533097
O O4 0.140465 0.566215 0.181833
O O5 0.250000 0.162260 0.973015
O O6 0.098161 0.137889 0.687668
O O7 0.157882 0.056200 0.043946
O O8 0.081865 0.168491 0.187876
O O9 0.971790 0.750000 0.442073
O O10 0.500000 0.000000 0.000000
#
# Coordination Sequence:
#
# PCOD8246128 Si02
#       4
#     8   8   8   8
#     4  12  24  42  68  97 129 166 208 262 321 377
#     4  12  25  42  67  96 127 166 211 263 321 378
#     4  12  26  44  64  91 129 173 217 259 306 371
#     4  12  22  43  68  96 131 164 202 266 326 377
#
# _framework density 21.535308000000001
#
# number of rings (size 3 to 8) (size 9 to 14) (size 15 to 20)
#    0.000    0.000    5.000    6.000    0.000    3.500 
#    0.000    0.000    0.000    6.000    0.000    0.000 
#    0.000    0.000    0.000    0.000    0.000    0.000 
#
# Total GULP energy -397016.160793 kJ/mol
# GULP energy per Si atom -12406.755025 kJ/mol
# Density = 2.148629 g / cm^3
# Si number density = 21.535308 Si / 1000 Ang^3
#
#
#
# Elastic Constant Matrix: (Units=GPa)
#
#
# Indices 1 2 3 4 5 6 
#
# 1 206.8120 33.3637 28.5918 0.0000 0.0000 0.0000
# 2 33.3637 89.4484 7.7982 0.0000 0.0000 0.0000
# 3 28.5918 7.7982 88.0575 0.0000 0.0000 0.0000
# 4 0.0000 0.0000 0.0000 15.9011 0.0000 0.0000
# 5 0.0000 0.0000 0.0000 0.0000 13.1118 0.0000
# 6 0.0000 0.0000 0.0000 0.0000 0.0000 2.9385
#
#
#
# Elastic Compliance Matrix: (Units=1/GPa)
#
#
# Indices 1 2 3 4 5 6 
#
# 1 0.005353 -0.001859 -0.001573 0.000000 0.000000 0.000000
# 2 -0.001859 0.011913 -0.000451 0.000000 0.000000 0.000000
# 3 -0.001573 -0.000451 0.011907 0.000000 0.000000 0.000000
# 4 0.000000 0.000000 0.000000 0.062889 0.000000 0.000000
# 5 0.000000 0.000000 0.000000 0.000000 0.076267 0.000000
# 6 0.000000 0.000000 0.000000 0.000000 0.000000 0.340313
#
#
# Mechanical properties :
#
#
# Convention : Reuss Voigt Hill
#
# Bulk Modulus (GPa) = 46.71936 58.20281 52.46109
# Shear Modulus (GPa) = 9.55030 27.36121 18.45576
#
# Velocity S-wave (km/s) = 2.10816 3.56831 2.93063
# Velocity P-wave (km/s) = 5.25996 6.63796 5.98873
#
# Compressibility (1/GPa) = 0.02140440
#
# Stress axis : x y z
#
# Youngs Moduli (GPa) = 186.81838 83.94535 83.98392
#
# Poissons Ratio (x) = 0.15609 0.13214
# Poissons Ratio (y) = 0.34737 0.03790
# Poissons Ratio (z) = 0.29393 0.03788
#
# Static dielectric constant tensor:
#      x y z
#    x 4.147560 0.000000 0.000000 
#    y 0.000000 3.742420 0.000000 
#    z 0.000000 0.000000 3.888760 
# 
# 
# High freq. dielectric constant tensor:
#      x y z
#    x 1.868590 0.000000 0.000000 
#    y 0.000000 1.825120 0.000000 
#    z 0.000000 0.000000 1.857900 
# 
# From -- ./inp_files/1822.got.cif
#   From: 2010.03.12/outbox.cif.g09.slc.cpg/sg59_1_cif.got.tgz:1822.got - 2010.04.16 16:29:54.
