data_PCOD8246489
_publ_section_title
;
Structure prediction by ZEFSAII (Michael W. Deem and Ramdas Pophale) SiO2 
 PCOD8246489
Probable space group: P B C N
;
_chemical_formula_sum "Si O2"
_cell_formula_units_Z 48
_cell_length_a 7.670706
_cell_length_b 27.762481
_cell_length_c 10.611741
_cell_angle_alpha 90.000000
_cell_angle_beta 90.000000
_cell_angle_gamma 90.000000
_cell_volume 2259.853331
_symmetry_space_group_name_H-M "P B C N"
_symmetry_group_IT_number 60
_symmetry_cell_setting 'orthorhombic'
loop_
_space_group_symop_operation_xyz
x,y,z
1/2-x,1/2-y,1/2+z
1/2+x,1/2-y,-z
-x,y,1/2-z
-x,-y,-z
1/2+x,1/2+y,1/2-z
1/2-x,1/2+y,z
x,-y,1/2+z
loop_
_atom_site_type_symbol
_atom_site_label
_atom_site_fract_x
_atom_site_fract_y
_atom_site_fract_z
Si Si1 0.500000 0.333603 0.750000
Si Si2 0.324742 0.827317 0.310066
Si Si3 0.500000 0.265233 0.250000
Si Si4 0.321887 0.415831 0.900192
Si Si5 0.672061 0.812594 0.896206
Si Si6 0.678297 0.584625 0.804248
Si Si7 0.500000 0.507041 0.250000
Si Si8 0.500000 0.104354 0.250000
O O1 0.401011 0.365681 0.853374
O O2 0.356832 0.301395 0.675010
O O3 0.500000 0.805538 0.250000
O O4 0.307247 0.818333 0.456692
O O5 0.322037 0.884394 0.271281
O O6 0.167845 0.798265 0.249769
O O7 0.469826 0.229323 0.130885
O O8 0.456428 0.459395 0.870505
O O9 0.139478 0.427587 0.828353
O O10 0.293482 0.408860 0.047566
O O11 0.603827 0.863974 0.850386
O O12 0.500000 0.607834 0.750000
O O13 0.670099 0.526880 0.776590
#
# Coordination Sequence:
#
# PCOD8246489 Si02
#       8
#     4   8   4   8   8   8   4   4
#     4   9  20  34  69  88 122 176 213 266 332 381
#     4  12  26  44  67  96 130 179 211 270 342 396
#     4  11  27  42  63  98 126 162 215 278 321 393
#     4  10  18  38  61  93 127 170 223 264 326 391
#     4  10  23  43  64  96 128 165 226 269 330 401
#     4  10  21  39  62  90 132 168 216 267 329 390
#     4   9  21  36  63  98 124 176 219 276 327 377
#     4   9  20  40  63  90 128 170 213 278 318 387
#
# _framework density 21.240316
#
# number of rings (size 3 to 8) (size 9 to 14) (size 15 to 20)
#    0.500    1.333    0.833    2.500    3.500    0.000 
#    1.500    0.833    0.000    0.000    0.000    0.000 
#    0.000    0.000    0.000    0.000    0.000    0.000 
#
# Total GULP energy -594751.699944 kJ/mol
# GULP energy per Si atom -12390.660415 kJ/mol
# Density = 2.119197 g / cm^3
# Si number density = 21.240316 Si / 1000 Ang^3
#
#
#
# Elastic Constant Matrix: (Units=GPa)
#
#
# Indices 1 2 3 4 5 6 
#
# 1 109.5718 32.9822 26.3466 0.0000 0.0000 0.0000
# 2 32.9822 82.4251 25.3977 0.0000 0.0000 0.0000
# 3 26.3466 25.3977 106.3893 0.0000 0.0000 0.0000
# 4 0.0000 0.0000 0.0000 -67.2130 0.0000 0.0000
# 5 0.0000 0.0000 0.0000 0.0000 30.1432 0.0000
# 6 0.0000 0.0000 0.0000 0.0000 0.0000 25.4214
#
#
#
# Elastic Compliance Matrix: (Units=1/GPa)
#
#
# Indices 1 2 3 4 5 6 
#
# 1 0.010670 -0.003730 -0.001752 0.000000 0.000000 0.000000
# 2 -0.003730 0.014399 -0.002514 0.000000 0.000000 0.000000
# 3 -0.001752 -0.002514 0.010433 0.000000 0.000000 0.000000
# 4 0.000000 0.000000 0.000000 -0.014878 0.000000 0.000000
# 5 0.000000 0.000000 0.000000 0.000000 0.033175 0.000000
# 6 0.000000 0.000000 0.000000 0.000000 0.000000 0.039337
#
#
# Mechanical properties :
#
#
# Convention : Reuss Voigt Hill
#
# Bulk Modulus (GPa) = 51.25121 51.98214 51.61667
# Shear Modulus (GPa) = 43.24049 11.91431 27.57740
#
# Velocity S-wave (km/s) = 4.51685 2.37096 3.60717
# Velocity P-wave (km/s) = 7.16828 5.65878 6.45778
#
# Compressibility (1/GPa) = 0.01951173
#
# Stress axis : x y z
#
# Youngs Moduli (GPa) = 93.71677 69.44783 95.84580
#
# Poissons Ratio (x) = 0.25903 0.16793
# Poissons Ratio (y) = 0.34955 0.24094
# Poissons Ratio (z) = 0.16420 0.17458
#
# Static dielectric constant tensor:
#      x y z
#    x 3.997080 0.000000 0.000000 
#    y 0.000000 3.773930 0.000000 
#    z 0.000000 0.000000 4.191370 
# 
# 
# High freq. dielectric constant tensor:
#      x y z
#    x 1.830550 0.000000 0.000000 
#    y 0.000000 1.824490 0.000000 
#    z 0.000000 0.000000 1.828050 
# 
# From -- ./inp_files/4310.got.cif
#   From: 2010.03.12/outbox.cif.g09.slc.cpg/sg60_3_cif.got.tgz:4310.got - 2010.04.10 18:46:24.
