data_PCOD8246698
_publ_section_title
;
Structure prediction by ZEFSAII (Michael W. Deem and Ramdas Pophale) SiO2 
 PCOD8246698
Probable space group: P B C N
;
_chemical_formula_sum "Si O2"
_cell_formula_units_Z 48
_cell_length_a 25.383165
_cell_length_b 5.653457
_cell_length_c 13.281314
_cell_angle_alpha 90.000000
_cell_angle_beta 90.000000
_cell_angle_gamma 90.000000
_cell_volume 1905.903513
_symmetry_space_group_name_H-M "P B C N"
_symmetry_group_IT_number 60
_symmetry_cell_setting 'orthorhombic'
loop_
_space_group_symop_operation_xyz
x,y,z
1/2-x,1/2-y,1/2+z
1/2+x,1/2-y,-z
-x,y,1/2-z
-x,-y,-z
1/2+x,1/2+y,1/2-z
1/2-x,1/2+y,z
x,-y,1/2+z
loop_
_atom_site_type_symbol
_atom_site_label
_atom_site_fract_x
_atom_site_fract_y
_atom_site_fract_z
Si Si1 0.111740 0.484442 0.609253
Si Si2 0.543902 0.308193 0.526979
Si Si3 0.263176 0.357960 0.356777
Si Si4 0.550705 0.024455 0.198750
Si Si5 0.774898 0.350423 0.917794
Si Si6 0.623031 0.668736 0.562798
O O1 0.056941 0.377806 0.562018
O O2 0.094690 0.563166 0.721124
O O3 0.163788 0.319117 0.614449
O O4 0.131963 0.706025 0.544163
O O5 0.500000 0.500000 0.500000
O O6 0.602694 0.408679 0.540246
O O7 0.527894 0.192549 0.632910
O O8 0.250324 0.608666 0.298216
O O9 0.229810 0.357327 0.460441
O O10 0.324889 0.350009 0.373557
O O11 0.500000 0.145997 0.250000
O O12 0.576501 0.209833 0.124449
O O13 0.751755 0.604840 0.876310
#
# Coordination Sequence:
#
# PCOD8246698 Si02
#       6
#     8   8   8   8   8   8
#     4  11  23  42  71  98 142 188 240 305 368 446
#     4  11  24  43  71  99 133 192 245 305 382 443
#     4  10  19  36  68 100 138 184 236 293 358 446
#     4  11  26  45  64 102 141 180 245 311 366 446
#     4  10  19  37  67 102 140 188 237 290 369 443
#     4  11  23  41  70  99 137 190 239 295 377 438
#
# _framework density 25.184904
#
# number of rings (size 3 to 8) (size 9 to 14) (size 15 to 20)
#    0.000    1.333    3.333    4.000    2.333    6.000 
#    0.000    1.667    0.000    0.000    0.000    0.000 
#    0.000    0.000    0.000    0.000    0.000    0.000 
#
# Total GULP energy -594812.087218 kJ/mol
# GULP energy per Si atom -12391.918484 kJ/mol
# Density = 2.512758 g / cm^3
# Si number density = 25.184904 Si / 1000 Ang^3
#
#
#
# Elastic Constant Matrix: (Units=GPa)
#
#
# Indices 1 2 3 4 5 6 
#
# 1 106.4422 18.6325 29.0501 0.0000 0.0000 0.0000
# 2 18.6325 146.3928 29.9002 0.0000 0.0000 0.0000
# 3 29.0501 29.9002 64.3008 0.0000 0.0000 0.0000
# 4 0.0000 0.0000 0.0000 -16.2501 0.0000 0.0000
# 5 0.0000 0.0000 0.0000 0.0000 19.4480 0.0000
# 6 0.0000 0.0000 0.0000 0.0000 0.0000 50.3299
#
#
#
# Elastic Compliance Matrix: (Units=1/GPa)
#
#
# Indices 1 2 3 4 5 6 
#
# 1 0.010739 -0.000415 -0.004659 0.000000 0.000000 0.000000
# 2 -0.000415 0.007564 -0.003330 0.000000 0.000000 0.000000
# 3 -0.004659 -0.003330 0.019205 0.000000 0.000000 0.000000
# 4 0.000000 0.000000 0.000000 -0.061538 0.000000 0.000000
# 5 0.000000 0.000000 0.000000 0.000000 0.051419 0.000000
# 6 0.000000 0.000000 0.000000 0.000000 0.000000 0.019869
#
#
# Mechanical properties :
#
#
# Convention : Reuss Voigt Hill
#
# Bulk Modulus (GPa) = 48.30764 52.47795 50.39280
# Shear Modulus (GPa) = 70.45745 26.67574 48.56660
#
# Velocity S-wave (km/s) = 5.29498 3.25806 4.39612
# Velocity P-wave (km/s) = 7.52364 5.91909 6.76908
#
# Compressibility (1/GPa) = 0.02070066
#
# Stress axis : x y z
#
# Youngs Moduli (GPa) = 93.11962 132.20767 52.07022
#
# Poissons Ratio (x) = 0.05491 0.24257
# Poissons Ratio (y) = 0.03868 0.17337
# Poissons Ratio (z) = 0.43380 0.44020
#
# Static dielectric constant tensor:
#      x y z
#    x 4.565870 0.000000 0.000000 
#    y 0.000000 5.028020 0.000000 
#    z 0.000000 0.000000 4.355060 
# 
# 
# High freq. dielectric constant tensor:
#      x y z
#    x 2.020410 0.000000 0.000000 
#    y 0.000000 2.002050 0.000000 
#    z 0.000000 0.000000 1.993270 
# 
# From -- ./inp_files/18069.got.cif
#   From: 2010.03.12/outbox.cif.g09.slc.cpg/sg60_10_cif.got.tgz:18069.got - 2010.04.10 18:46:24.
