data_PCOD8246846
_publ_section_title
;
Structure prediction by ZEFSAII (Michael W. Deem and Ramdas Pophale) SiO2 
 PCOD8246846
Probable space group: P B C N
;
_chemical_formula_sum "Si O2"
_cell_formula_units_Z 48
_cell_length_a 14.026022
_cell_length_b 9.433076
_cell_length_c 17.930061
_cell_angle_alpha 90.000000
_cell_angle_beta 90.000000
_cell_angle_gamma 90.000000
_cell_volume 2372.300041
_symmetry_space_group_name_H-M "P B C N"
_symmetry_group_IT_number 60
_symmetry_cell_setting 'orthorhombic'
loop_
_space_group_symop_operation_xyz
x,y,z
1/2-x,1/2-y,1/2+z
1/2+x,1/2-y,-z
-x,y,1/2-z
-x,-y,-z
1/2+x,1/2+y,1/2-z
1/2-x,1/2+y,z
x,-y,1/2+z
loop_
_atom_site_type_symbol
_atom_site_label
_atom_site_fract_x
_atom_site_fract_y
_atom_site_fract_z
Si Si1 0.854240 0.681576 0.398122
Si Si2 0.343313 0.786932 0.424994
Si Si3 0.142503 0.853251 0.584406
Si Si4 0.531448 0.076133 0.925229
Si Si5 0.474949 0.428253 0.164185
Si Si6 0.159534 0.037445 0.923642
O O1 0.857687 0.711089 0.486251
O O2 0.744464 0.658267 0.374920
O O3 0.915831 0.542411 0.375127
O O4 0.894450 0.812054 0.351538
O O5 0.437202 0.856733 0.386586
O O6 0.330193 0.625564 0.398284
O O7 0.252512 0.876242 0.398085
O O8 0.107896 0.699127 0.557136
O O9 0.147770 0.955608 0.512695
O O10 0.066932 0.918364 0.642090
O O11 0.500000 0.000000 0.000000
O O12 0.500000 0.430064 0.250000
O O13 0.568461 0.392357 0.115896
#
# Coordination Sequence:
#
# PCOD8246846 Si02
#       6
#     8   8   8   8   8   8
#     4  10  22  37  62  91 123 159 205 261 318 377
#     4  10  21  35  63  97 123 154 204 268 318 363
#     4  11  21  41  67  92 124 162 215 265 318 374
#     4  10  20  34  59  94 123 154 200 263 321 367
#     4  12  25  44  61  91 130 177 211 255 326 392
#     4  11  22  38  65  94 127 160 213 266 318 372
#
# _framework density 20.233528
#
# number of rings (size 3 to 8) (size 9 to 14) (size 15 to 20)
#    0.000    1.333    3.333    3.500   14.000    0.000 
#    3.000    0.833    0.000    0.000    0.000    0.000 
#    0.000    0.000    0.000    0.000    0.000    0.000 
#
# Total GULP energy -595263.702323 kJ/mol
# GULP energy per Si atom -12401.327132 kJ/mol
# Density = 2.018748 g / cm^3
# Si number density = 20.233528 Si / 1000 Ang^3
#
#
#
# Elastic Constant Matrix: (Units=GPa)
#
#
# Indices 1 2 3 4 5 6 
#
# 1 161.9660 57.1258 43.0281 0.0000 0.0000 0.0000
# 2 57.1258 131.0753 22.4004 0.0000 0.0000 0.0000
# 3 43.0281 22.4004 53.9279 0.0000 0.0000 0.0000
# 4 0.0000 0.0000 0.0000 11.7607 0.0000 0.0000
# 5 0.0000 0.0000 0.0000 0.0000 16.2103 0.0000
# 6 0.0000 0.0000 0.0000 0.0000 0.0000 34.2963
#
#
#
# Elastic Compliance Matrix: (Units=1/GPa)
#
#
# Indices 1 2 3 4 5 6 
#
# 1 0.008697 -0.002804 -0.005775 0.000000 0.000000 0.000000
# 2 -0.002804 0.009116 -0.001550 0.000000 0.000000 0.000000
# 3 -0.005775 -0.001550 0.023795 0.000000 0.000000 0.000000
# 4 0.000000 0.000000 0.000000 0.085029 0.000000 0.000000
# 5 0.000000 0.000000 0.000000 0.000000 0.061689 0.000000
# 6 0.000000 0.000000 0.000000 0.000000 0.000000 0.029158
#
#
# Mechanical properties :
#
#
# Convention : Reuss Voigt Hill
#
# Bulk Modulus (GPa) = 46.83468 65.78642 56.31055
# Shear Modulus (GPa) = 20.42014 27.41445 23.91729
#
# Velocity S-wave (km/s) = 3.18027 3.68489 3.44184
# Velocity P-wave (km/s) = 6.05664 7.11960 6.60952
#
# Compressibility (1/GPa) = 0.02135170
#
# Stress axis : x y z
#
# Youngs Moduli (GPa) = 114.98142 109.69885 42.02646
#
# Poissons Ratio (x) = 0.30754 0.24269
# Poissons Ratio (y) = 0.32235 0.06513
# Poissons Ratio (z) = 0.66399 0.16999
#
# Static dielectric constant tensor:
#      x y z
#    x 4.187900 0.000000 0.000000 
#    y 0.000000 3.928350 0.000000 
#    z 0.000000 0.000000 2.987780 
# 
# 
# High freq. dielectric constant tensor:
#      x y z
#    x 1.817680 0.000000 0.000000 
#    y 0.000000 1.809650 0.000000 
#    z 0.000000 0.000000 1.713850 
# 
# From -- ./inp_files/22802.got.cif
#   From: 2010.03.12/outbox.cif.g09.slc.cpg/sg60_12_cif.got.tgz:22802.got - 2010.04.10 18:46:24.
