data_PCOD8246755
_publ_section_title
;
Structure prediction by ZEFSAII (Michael W. Deem and Ramdas Pophale) SiO2 
 PCOD8246755
Probable space group: P B C N
;
_chemical_formula_sum "Si O2"
_cell_formula_units_Z 48
_cell_length_a 9.381510
_cell_length_b 15.052603
_cell_length_c 17.461155
_cell_angle_alpha 90.000000
_cell_angle_beta 90.000000
_cell_angle_gamma 90.000000
_cell_volume 2465.797006
_symmetry_space_group_name_H-M "P B C N"
_symmetry_group_IT_number 60
_symmetry_cell_setting 'orthorhombic'
loop_
_space_group_symop_operation_xyz
x,y,z
1/2-x,1/2-y,1/2+z
1/2+x,1/2-y,-z
-x,y,1/2-z
-x,-y,-z
1/2+x,1/2+y,1/2-z
1/2-x,1/2+y,z
x,-y,1/2+z
loop_
_atom_site_type_symbol
_atom_site_label
_atom_site_fract_x
_atom_site_fract_y
_atom_site_fract_z
Si Si1 0.301636 0.153663 0.961345
Si Si2 0.643109 0.277930 0.798119
Si Si3 0.852211 0.441078 0.786966
Si Si4 0.888596 0.294285 0.466325
Si Si5 0.659985 0.113168 0.715573
Si Si6 0.855466 0.509110 0.954518
O O1 0.451079 0.188898 0.996460
O O2 0.330490 0.129527 0.873969
O O3 0.185356 0.230874 0.971011
O O4 0.249999 0.064436 0.007108
O O5 0.500000 0.298188 0.750000
O O6 0.743490 0.362113 0.796498
O O7 0.604933 0.255127 0.885103
O O8 0.731788 0.196424 0.759453
O O9 0.773722 0.516848 0.734959
O O10 0.887911 0.486772 0.867196
O O11 0.000000 0.406818 0.750000
O O12 0.802279 0.388424 0.460987
O O13 0.500000 0.109837 0.750000
O O14 0.000000 0.500000 0.000000
#
# Coordination Sequence:
#
# PCOD8246755 Si02
#       6
#     8   8   8   8   8   8
#     4  11  22  38  64  90 122 154 207 252 302 359
#     4  11  21  40  62  83 122 167 195 237 314 371
#     4  11  21  37  64  92 114 155 214 249 285 363
#     4  11  21  40  60  90 119 162 198 252 304 354
#     4  10  19  39  63  85 117 168 200 238 302 368
#     4  10  20  36  62  88 121 154 199 252 299 353
#
# _framework density 19.466322000000002
#
# number of rings (size 3 to 8) (size 9 to 14) (size 15 to 20)
#    0.000    1.333    6.667    3.000    0.000    4.000 
#    0.000    3.333    0.000    0.000    0.000    0.000 
#    0.000    0.000    0.000    0.000    0.000    0.000 
#
# Total GULP energy -594814.397656 kJ/mol
# GULP energy per Si atom -12391.966618 kJ/mol
# Density = 1.942202 g / cm^3
# Si number density = 19.466322 Si / 1000 Ang^3
#
#
#
# Elastic Constant Matrix: (Units=GPa)
#
#
# Indices 1 2 3 4 5 6 
#
# 1 41.4211 41.8482 22.8258 0.0000 0.0000 0.0000
# 2 41.8482 148.8438 41.3397 0.0000 0.0000 0.0000
# 3 22.8258 41.3397 108.0108 0.0000 0.0000 0.0000
# 4 0.0000 0.0000 0.0000 68.9829 0.0000 0.0000
# 5 0.0000 0.0000 0.0000 0.0000 21.1399 0.0000
# 6 0.0000 0.0000 0.0000 0.0000 0.0000 27.0796
#
#
#
# Elastic Compliance Matrix: (Units=1/GPa)
#
#
# Indices 1 2 3 4 5 6 
#
# 1 0.035267 -0.008779 -0.004093 0.000000 0.000000 0.000000
# 2 -0.008779 0.009703 -0.001858 0.000000 0.000000 0.000000
# 3 -0.004093 -0.001858 0.010835 0.000000 0.000000 0.000000
# 4 0.000000 0.000000 0.000000 0.014496 0.000000 0.000000
# 5 0.000000 0.000000 0.000000 0.000000 0.047304 0.000000
# 6 0.000000 0.000000 0.000000 0.000000 0.000000 0.036928
#
#
# Mechanical properties :
#
#
# Convention : Reuss Voigt Hill
#
# Bulk Modulus (GPa) = 37.95909 56.70034 47.32972
# Shear Modulus (GPa) = 25.93704 36.25796 31.09750
#
# Velocity S-wave (km/s) = 3.65417 4.32047 4.00121
# Velocity P-wave (km/s) = 6.11115 7.35386 6.76112
#
# Compressibility (1/GPa) = 0.02634415
#
# Stress axis : x y z
#
# Youngs Moduli (GPa) = 28.35504 103.06321 92.29699
#
# Poissons Ratio (x) = 0.90476 0.37777
# Poissons Ratio (y) = 0.24892 0.17153
# Poissons Ratio (z) = 0.11606 0.19153
#
# Static dielectric constant tensor:
#      x y z
#    x 3.334310 0.000000 0.000000 
#    y 0.000000 4.814770 0.000000 
#    z 0.000000 0.000000 3.755360 
# 
# 
# High freq. dielectric constant tensor:
#      x y z
#    x 1.697020 0.000000 0.000000 
#    y 0.000000 1.788000 0.000000 
#    z 0.000000 0.000000 1.773900 
# 
# From -- ./inp_files/20061.got.cif
#   From: 2010.03.12/outbox.cif.g09.slc.cpg/sg60_11_cif.got.tgz:20061.got - 2010.04.10 18:46:24.
