data_PCOD8246432
_publ_section_title
;
Structure prediction by ZEFSAII (Michael W. Deem and Ramdas Pophale) SiO2 
 PCOD8246432
Probable space group: P B C N
;
_chemical_formula_sum "Si O2"
_cell_formula_units_Z 64
_cell_length_a 13.431893
_cell_length_b 25.302449
_cell_length_c 10.527263
_cell_angle_alpha 90.000000
_cell_angle_beta 90.000000
_cell_angle_gamma 90.000000
_cell_volume 3577.793367
_symmetry_space_group_name_H-M "P B C N"
_symmetry_group_IT_number 60
_symmetry_cell_setting 'orthorhombic'
loop_
_space_group_symop_operation_xyz
x,y,z
1/2-x,1/2-y,1/2+z
1/2+x,1/2-y,-z
-x,y,1/2-z
-x,-y,-z
1/2+x,1/2+y,1/2-z
1/2-x,1/2+y,z
x,-y,1/2+z
loop_
_atom_site_type_symbol
_atom_site_label
_atom_site_fract_x
_atom_site_fract_y
_atom_site_fract_z
Si Si1 0.595707 0.567800 0.045148
Si Si2 0.562649 0.283642 0.365229
Si Si3 0.892163 0.674767 0.774156
Si Si4 0.609464 0.334098 0.715912
Si Si5 0.075660 0.953752 0.364347
Si Si6 0.388512 0.277294 0.551678
Si Si7 0.690480 0.242233 0.558728
Si Si8 0.806706 0.115772 0.813362
O O1 0.602842 0.605784 0.168628
O O2 0.621550 0.509347 0.092696
O O3 0.484930 0.571969 0.982769
O O4 0.678771 0.581305 0.940219
O O5 0.500000 0.258002 0.250000
O O6 0.490953 0.296278 0.485970
O O7 0.646338 0.242338 0.414339
O O8 0.614969 0.336349 0.315707
O O9 0.902835 0.721765 0.875396
O O10 0.859895 0.696881 0.638581
O O11 0.808838 0.632551 0.815722
O O12 0.000000 0.647409 0.750000
O O13 0.500000 0.309750 0.750000
O O14 0.657412 0.323410 0.855564
O O15 0.669091 0.301027 0.611110
O O16 0.165757 0.916564 0.315282
O O17 0.000000 0.964298 0.250000
O O18 0.308085 0.267993 0.440932
#
# Coordination Sequence:
#
# PCOD8246432 Si02
#       8
#     8   8   8   8   8   8   8   8
#     4  10  18  34  55  83 111 138 179 226 279 337
#     4  12  21  33  52  75 108 149 180 224 267 327
#     4  11  21  37  56  76 111 145 191 229 266 323
#     4  11  19  32  52  72 104 141 178 219 272 320
#     4   9  20  33  54  83 113 141 176 225 282 340
#     4  11  21  34  51  77 109 146 188 225 264 324
#     4  11  21  34  48  79 106 145 184 225 266 320
#     4  11  21  36  56  81 110 149 185 227 286 334
#
# _framework density 17.888121999999999
#
# number of rings (size 3 to 8) (size 9 to 14) (size 15 to 20)
#    0.000    1.250    5.000    3.000    1.750    1.000 
#    0.000    0.000    0.000    0.750    0.000    0.000 
#    0.000    0.000    0.000    0.000    0.000    0.000 
#
# Total GULP energy -793257.792464 kJ/mol
# GULP energy per Si atom -12394.653007 kJ/mol
# Density = 1.784741 g / cm^3
# Si number density = 17.888122 Si / 1000 Ang^3
#
#
#
# Elastic Constant Matrix: (Units=GPa)
#
#
# Indices 1 2 3 4 5 6 
#
# 1 109.2724 46.6310 25.6707 0.0000 0.0000 0.0000
# 2 46.6310 80.6009 31.0983 0.0000 0.0000 0.0000
# 3 25.6707 31.0983 62.6527 0.0000 0.0000 0.0000
# 4 0.0000 0.0000 0.0000 31.0092 0.0000 0.0000
# 5 0.0000 0.0000 0.0000 0.0000 28.6001 0.0000
# 6 0.0000 0.0000 0.0000 0.0000 0.0000 24.5623
#
#
#
# Elastic Compliance Matrix: (Units=1/GPa)
#
#
# Indices 1 2 3 4 5 6 
#
# 1 0.012326 -0.006410 -0.001869 0.000000 0.000000 0.000000
# 2 -0.006410 0.018679 -0.006645 0.000000 0.000000 0.000000
# 3 -0.001869 -0.006645 0.020025 0.000000 0.000000 0.000000
# 4 0.000000 0.000000 0.000000 0.032249 0.000000 0.000000
# 5 0.000000 0.000000 0.000000 0.000000 0.034965 0.000000
# 6 0.000000 0.000000 0.000000 0.000000 0.000000 0.040713
#
#
# Mechanical properties :
#
#
# Convention : Reuss Voigt Hill
#
# Bulk Modulus (GPa) = 47.20901 51.03621 49.12261
# Shear Modulus (GPa) = 25.52781 26.77605 26.15193
#
# Velocity S-wave (km/s) = 3.78177 3.87313 3.82772
# Velocity P-wave (km/s) = 6.74667 6.97095 6.85973
#
# Compressibility (1/GPa) = 0.02118240
#
# Stress axis : x y z
#
# Youngs Moduli (GPa) = 81.13026 53.53541 49.93752
#
# Poissons Ratio (x) = 0.34317 0.09331
# Poissons Ratio (y) = 0.52005 0.33185
# Poissons Ratio (z) = 0.15160 0.35575
#
# Static dielectric constant tensor:
#      x y z
#    x 3.353170 0.000000 0.000000 
#    y 0.000000 3.085050 0.000000 
#    z 0.000000 0.000000 3.706010 
# 
# 
# High freq. dielectric constant tensor:
#      x y z
#    x 1.672630 0.000000 0.000000 
#    y 0.000000 1.655720 0.000000 
#    z 0.000000 0.000000 1.713040 
# 
# From -- ./inp_files/11358.got.cif
#   From: 2010.03.12/outbox.cif.g09.slc.cpg/sg60_6_cif.got.tgz:11358.got - 2010.04.10 18:46:24.
