data_PCOD8246975
_publ_section_title
;
Structure prediction by ZEFSAII (Michael W. Deem and Ramdas Pophale) SiO2 
 PCOD8246975
Probable space group: P B C N
;
_chemical_formula_sum "Si O2"
_cell_formula_units_Z 64
_cell_length_a 12.452736
_cell_length_b 16.242743
_cell_length_c 15.672087
_cell_angle_alpha 90.000000
_cell_angle_beta 90.000000
_cell_angle_gamma 90.000000
_cell_volume 3169.939603
_symmetry_space_group_name_H-M "P B C N"
_symmetry_group_IT_number 60
_symmetry_cell_setting 'orthorhombic'
loop_
_space_group_symop_operation_xyz
x,y,z
1/2-x,1/2-y,1/2+z
1/2+x,1/2-y,-z
-x,y,1/2-z
-x,-y,-z
1/2+x,1/2+y,1/2-z
1/2-x,1/2+y,z
x,-y,1/2+z
loop_
_atom_site_type_symbol
_atom_site_label
_atom_site_fract_x
_atom_site_fract_y
_atom_site_fract_z
Si Si1 0.617453 0.411681 0.769604
Si Si2 0.245083 0.090747 0.970786
Si Si3 0.397319 0.774109 0.518957
Si Si4 0.304540 0.001690 0.137081
Si Si5 0.739851 0.929049 0.615201
Si Si6 0.076549 0.190917 0.067022
Si Si7 0.999018 0.386725 0.658708
Si Si8 0.778772 0.662283 0.940325
O O1 0.500000 0.450827 0.750000
O O2 0.696573 0.477074 0.812143
O O3 0.678524 0.385616 0.682552
O O4 0.595299 0.335379 0.834496
O O5 0.229786 0.027440 0.891888
O O6 0.327591 0.166743 0.955487
O O7 0.130433 0.125275 0.002558
O O8 0.300741 0.035538 0.042081
O O9 0.453485 0.703692 0.460898
O O10 0.474784 0.825582 0.581305
O O11 0.316980 0.725733 0.583266
O O12 0.304707 0.902685 0.134340
O O13 0.414352 0.039484 0.173900
O O14 0.616804 0.926205 0.643713
O O15 0.755738 0.881085 0.527757
O O16 0.115748 0.283436 0.050328
O O17 0.000000 0.338766 0.750000
#
# Coordination Sequence:
#
# PCOD8246975 Si02
#       8
#     8   8   8   8   8   8   8   8
#     4  11  23  40  59  82 121 161 202 250 306 363
#     4   8  20  35  59  89 113 150 208 245 283 367
#     4  10  20  37  61  91 122 162 197 246 309 371
#     4   9  20  38  58  84 115 154 197 248 294 354
#     4  11  21  38  64  90 114 162 211 255 299 357
#     4  10  20  39  59  87 123 159 193 245 307 365
#     4  11  21  37  64  89 123 158 207 257 307 353
#     4  10  21  37  61  88 119 153 201 245 302 367
#
# _framework density 20.189658999999999
#
# number of rings (size 3 to 8) (size 9 to 14) (size 15 to 20)
#    0.000    2.000    2.500    1.500    1.750    2.500 
#    0.000   10.000    0.000    0.000    0.000    0.000 
#    0.000    0.000    0.000    0.000    0.000    0.000 
#
# Total GULP energy -792859.965522 kJ/mol
# GULP energy per Si atom -12388.436961 kJ/mol
# Density = 2.014371 g / cm^3
# Si number density = 20.189659 Si / 1000 Ang^3
#
#
#
# Elastic Constant Matrix: (Units=GPa)
#
#
# Indices 1 2 3 4 5 6 
#
# 1 121.0612 25.0044 26.6468 0.0000 0.0000 0.0000
# 2 25.0044 77.9302 23.2959 0.0000 0.0000 0.0000
# 3 26.6468 23.2959 81.4923 0.0000 0.0000 0.0000
# 4 0.0000 0.0000 0.0000 23.4212 0.0000 0.0000
# 5 0.0000 0.0000 0.0000 0.0000 30.2214 0.0000
# 6 0.0000 0.0000 0.0000 0.0000 0.0000 17.1790
#
#
#
# Elastic Compliance Matrix: (Units=1/GPa)
#
#
# Indices 1 2 3 4 5 6 
#
# 1 0.009250 -0.002257 -0.002380 0.000000 0.000000 0.000000
# 2 -0.002257 0.014582 -0.003430 0.000000 0.000000 0.000000
# 3 -0.002380 -0.003430 0.014030 0.000000 0.000000 0.000000
# 4 0.000000 0.000000 0.000000 0.042696 0.000000 0.000000
# 5 0.000000 0.000000 0.000000 0.000000 0.033089 0.000000
# 6 0.000000 0.000000 0.000000 0.000000 0.000000 0.058211
#
#
# Mechanical properties :
#
#
# Convention : Reuss Voigt Hill
#
# Bulk Modulus (GPa) = 46.02326 47.81978 46.92152
# Shear Modulus (GPa) = 25.61031 27.86674 26.73853
#
# Velocity S-wave (km/s) = 3.56545 3.71920 3.64313
# Velocity P-wave (km/s) = 6.30831 6.49461 6.40214
#
# Compressibility (1/GPa) = 0.02172814
#
# Stress axis : x y z
#
# Youngs Moduli (GPa) = 108.10639 68.57984 71.27664
#
# Poissons Ratio (x) = 0.15476 0.16961
# Poissons Ratio (y) = 0.24396 0.24451
# Poissons Ratio (z) = 0.25725 0.23526
#
# Static dielectric constant tensor:
#      x y z
#    x 3.781880 0.000000 0.000000 
#    y 0.000000 3.786410 0.000000 
#    z 0.000000 0.000000 3.646500 
# 
# 
# High freq. dielectric constant tensor:
#      x y z
#    x 1.802530 0.000000 0.000000 
#    y 0.000000 1.775330 0.000000 
#    z 0.000000 0.000000 1.769080 
# 
# From -- ./inp_files/20285.got.cif
#   From: 2010.03.12/outbox.cif.g09.slc.cpg/sg60_11_cif.got.tgz:20285.got - 2010.04.10 18:46:24.
