data_PCOD8246467
_publ_section_title
;
Structure prediction by ZEFSAII (Michael W. Deem and Ramdas Pophale) SiO2 
 PCOD8246467
Probable space group: P B C N
;
_chemical_formula_sum "Si O2"
_cell_formula_units_Z 60
_cell_length_a 10.002898
_cell_length_b 27.136705
_cell_length_c 11.331859
_cell_angle_alpha 90.000000
_cell_angle_beta 90.000000
_cell_angle_gamma 90.000000
_cell_volume 3075.984310
_symmetry_space_group_name_H-M "P B C N"
_symmetry_group_IT_number 60
_symmetry_cell_setting 'orthorhombic'
loop_
_space_group_symop_operation_xyz
x,y,z
1/2-x,1/2-y,1/2+z
1/2+x,1/2-y,-z
-x,y,1/2-z
-x,-y,-z
1/2+x,1/2+y,1/2-z
1/2-x,1/2+y,z
x,-y,1/2+z
loop_
_atom_site_type_symbol
_atom_site_label
_atom_site_fract_x
_atom_site_fract_y
_atom_site_fract_z
Si Si1 0.000000 0.168048 0.250000
Si Si2 0.102144 0.966494 0.842654
Si Si3 0.750334 0.314624 0.607890
Si Si4 0.307430 0.631745 0.056791
Si Si5 0.991524 0.068665 0.586356
Si Si6 0.348379 0.908348 0.754418
Si Si7 0.349786 0.707475 0.878619
Si Si8 0.134866 0.836546 0.138026
O O1 0.888600 0.198351 0.176469
O O2 0.924115 0.134972 0.345605
O O3 0.252461 0.952472 0.801262
O O4 0.000000 0.940625 0.750000
O O5 0.068376 0.024641 0.835174
O O6 0.080490 0.949293 0.976040
O O7 0.829502 0.359553 0.667157
O O8 0.837964 0.265955 0.617418
O O9 0.732608 0.330672 0.472498
O O10 0.180219 0.607159 0.118788
O O11 0.358736 0.596460 0.954247
O O12 0.273331 0.683910 0.992654
O O13 0.087999 0.106452 0.658241
O O14 0.500000 0.927739 0.750000
O O15 0.293806 0.683765 0.756363
O O16 0.506385 0.696718 0.890494
#
# Coordination Sequence:
#
# PCOD8246467 Si02
#       8
#     4   8   8   8   8   8   8   8
#     4  10  18  36  60  80 118 160 216 256 290 362
#     4  11  21  36  65  97 114 155 218 263 322 380
#     4  11  22  36  61  86 121 172 206 256 314 374
#     4  10  19  39  59  85 119 163 206 255 306 368
#     4  10  19  36  64  94 115 153 212 280 306 357
#     4  11  24  40  61  90 130 161 206 265 325 393
#     4  10  23  33  57  90 126 162 208 259 312 371
#     4  10  21  39  56  91 132 154 215 266 310 357
#
# _framework density 19.505952000000001
#
# number of rings (size 3 to 8) (size 9 to 14) (size 15 to 20)
#    0.000    1.600    5.333    0.800   10.267    0.000 
#    0.000    0.667    0.000    0.000    6.933    0.000 
#    0.000    0.000    0.000    0.000    0.000    0.000 
#
# Total GULP energy -743502.647176 kJ/mol
# GULP energy per Si atom -12391.710786 kJ/mol
# Density = 1.946156 g / cm^3
# Si number density = 19.505952 Si / 1000 Ang^3
#
#
#
# Elastic Constant Matrix: (Units=GPa)
#
#
# Indices 1 2 3 4 5 6 
#
# 1 90.2157 30.8668 23.5321 0.0000 0.0000 0.0000
# 2 30.8668 127.2868 35.8453 0.0000 0.0000 0.0000
# 3 23.5321 35.8453 100.9172 0.0000 0.0000 0.0000
# 4 0.0000 0.0000 0.0000 23.0465 0.0000 0.0000
# 5 0.0000 0.0000 0.0000 0.0000 20.8076 0.0000
# 6 0.0000 0.0000 0.0000 0.0000 0.0000 24.6927
#
#
#
# Elastic Compliance Matrix: (Units=1/GPa)
#
#
# Indices 1 2 3 4 5 6 
#
# 1 0.012452 -0.002447 -0.002035 0.000000 0.000000 0.000000
# 2 -0.002447 0.009210 -0.002701 0.000000 0.000000 0.000000
# 3 -0.002035 -0.002701 0.011343 0.000000 0.000000 0.000000
# 4 0.000000 0.000000 0.000000 0.043391 0.000000 0.000000
# 5 0.000000 0.000000 0.000000 0.000000 0.048059 0.000000
# 6 0.000000 0.000000 0.000000 0.000000 0.000000 0.040498
#
#
# Mechanical properties :
#
#
# Convention : Reuss Voigt Hill
#
# Bulk Modulus (GPa) = 53.64505 55.43422 54.53964
# Shear Modulus (GPa) = 26.94963 28.92105 27.93534
#
# Velocity S-wave (km/s) = 3.72103 3.85473 3.78847
# Velocity P-wave (km/s) = 6.78403 6.94930 6.86716
#
# Compressibility (1/GPa) = 0.01864105
#
# Stress axis : x y z
#
# Youngs Moduli (GPa) = 80.30584 108.57531 88.16092
#
# Poissons Ratio (x) = 0.26565 0.17937
# Poissons Ratio (y) = 0.19649 0.23811
# Poissons Ratio (z) = 0.16339 0.29325
#
# Static dielectric constant tensor:
#      x y z
#    x 3.207350 0.000000 0.000000 
#    y 0.000000 3.597880 0.000000 
#    z 0.000000 0.000000 4.046050 
# 
# 
# High freq. dielectric constant tensor:
#      x y z
#    x 1.709050 0.000000 0.000000 
#    y 0.000000 1.758870 0.000000 
#    z 0.000000 0.000000 1.783230 
# 
# From -- ./inp_files/10320.got.cif
#   From: 2010.03.12/outbox.cif.g09.slc.cpg/sg60_6_cif.got.tgz:10320.got - 2010.04.10 18:46:24.
