data_PCOD8246471
_publ_section_title
;
Structure prediction by ZEFSAII (Michael W. Deem and Ramdas Pophale) SiO2 
 PCOD8246471
Probable space group: P B C N
;
_chemical_formula_sum "Si O2"
_cell_formula_units_Z 40
_cell_length_a 12.983328
_cell_length_b 17.054414
_cell_length_c 8.696659
_cell_angle_alpha 90.000000
_cell_angle_beta 90.000000
_cell_angle_gamma 90.000000
_cell_volume 1925.640768
_symmetry_space_group_name_H-M "P B C N"
_symmetry_group_IT_number 60
_symmetry_cell_setting 'orthorhombic'
loop_
_space_group_symop_operation_xyz
x,y,z
1/2-x,1/2-y,1/2+z
1/2+x,1/2-y,-z
-x,y,1/2-z
-x,-y,-z
1/2+x,1/2+y,1/2-z
1/2-x,1/2+y,z
x,-y,1/2+z
loop_
_atom_site_type_symbol
_atom_site_label
_atom_site_fract_x
_atom_site_fract_y
_atom_site_fract_z
Si Si1 0.380760 0.981156 0.974761
Si Si2 0.885482 0.817298 0.695833
Si Si3 0.557202 0.246791 0.394871
Si Si4 0.085791 0.333719 0.136097
Si Si5 0.193134 0.398280 0.685909
O O1 0.344654 0.905550 0.077367
O O2 0.310478 0.056313 0.021830
O O3 0.364339 0.959261 0.797877
O O4 0.500000 0.000000 0.000000
O O5 0.884854 0.807978 0.509275
O O6 0.851263 0.734158 0.773692
O O7 0.808800 0.884896 0.751929
O O8 0.000000 0.839939 0.750000
O O9 0.500000 0.289272 0.250000
O O10 0.468490 0.202422 0.487182
O O11 0.637856 0.184967 0.325869
O O12 0.000000 0.369248 0.250000
#
# Coordination Sequence:
#
# PCOD8246471 Si02
#       5
#     8   8   8   8   8
#     4  12  22  37  59  96 129 159 201 256 323 380
#     4   9  24  41  60  86 125 164 212 257 302 364
#     4  10  18  36  62  91 122 154 203 256 315 365
#     4   9  18  36  58  89 125 164 188 256 310 358
#     4  12  24  37  61  94 125 165 202 250 324 380
#
# _framework density 20.772306
#
# number of rings (size 3 to 8) (size 9 to 14) (size 15 to 20)
#    0.000    2.000    4.000    1.800    5.600    0.000 
#    0.000    5.000    0.000    0.000    0.000    0.000 
#    0.000    0.000    0.000    0.000    0.000    0.000 
#
# Total GULP energy -495707.164185 kJ/mol
# GULP energy per Si atom -12392.679105 kJ/mol
# Density = 2.072503 g / cm^3
# Si number density = 20.772306 Si / 1000 Ang^3
#
#
#
# Elastic Constant Matrix: (Units=GPa)
#
#
# Indices 1 2 3 4 5 6 
#
# 1 72.3100 40.0488 37.4525 0.0000 0.0000 0.0000
# 2 40.0488 47.5821 13.2911 0.0000 0.0000 0.0000
# 3 37.4525 13.2911 107.2565 0.0000 0.0000 0.0000
# 4 0.0000 0.0000 0.0000 29.3192 0.0000 0.0000
# 5 0.0000 0.0000 0.0000 0.0000 26.6263 0.0000
# 6 0.0000 0.0000 0.0000 0.0000 0.0000 33.6659
#
#
#
# Elastic Compliance Matrix: (Units=1/GPa)
#
#
# Indices 1 2 3 4 5 6 
#
# 1 0.031310 -0.024134 -0.007942 0.000000 0.000000 0.000000
# 2 -0.024134 0.040373 0.003424 0.000000 0.000000 0.000000
# 3 -0.007942 0.003424 0.011672 0.000000 0.000000 0.000000
# 4 0.000000 0.000000 0.000000 0.034107 0.000000 0.000000
# 5 0.000000 0.000000 0.000000 0.000000 0.037557 0.000000
# 6 0.000000 0.000000 0.000000 0.000000 0.000000 0.029704
#
#
# Mechanical properties :
#
#
# Convention : Reuss Voigt Hill
#
# Bulk Modulus (GPa) = 38.38628 45.41484 41.90056
# Shear Modulus (GPa) = 19.94332 27.01269 23.47800
#
# Velocity S-wave (km/s) = 3.10190 3.61004 3.36557
# Velocity P-wave (km/s) = 5.59899 6.26795 5.94289
#
# Compressibility (1/GPa) = 0.02605097
#
# Stress axis : x y z
#
# Youngs Moduli (GPa) = 31.93906 24.76906 85.67207
#
# Poissons Ratio (x) = 0.59778 0.68043
# Poissons Ratio (y) = 0.77082 -0.29337
# Poissons Ratio (z) = 0.25367 -0.08482
#
# Static dielectric constant tensor:
#      x y z
#    x 3.327280 0.000000 0.000000 
#    y 0.000000 3.612310 0.000000 
#    z 0.000000 0.000000 4.245540 
# 
# 
# High freq. dielectric constant tensor:
#      x y z
#    x 1.769720 0.000000 0.000000 
#    y 0.000000 1.780830 0.000000 
#    z 0.000000 0.000000 1.837200 
# 
# From -- ./inp_files/4929.got.cif
#   From: 2010.03.12/outbox.cif.g09.slc.cpg/sg60_3_cif.got.tgz:4929.got - 2010.04.10 18:46:24.
