data_PCOD8246402
_publ_section_title
;
Structure prediction by ZEFSAII (Michael W. Deem and Ramdas Pophale) SiO2 
 PCOD8246402
Probable space group: P B C N
;
_chemical_formula_sum "Si O2"
_cell_formula_units_Z 48
_cell_length_a 27.595200
_cell_length_b 9.037704
_cell_length_c 9.018014
_cell_angle_alpha 90.000000
_cell_angle_beta 90.000000
_cell_angle_gamma 90.000000
_cell_volume 2249.067887
_symmetry_space_group_name_H-M "P B C N"
_symmetry_group_IT_number 60
_symmetry_cell_setting 'orthorhombic'
loop_
_space_group_symop_operation_xyz
x,y,z
1/2-x,1/2-y,1/2+z
1/2+x,1/2-y,-z
-x,y,1/2-z
-x,-y,-z
1/2+x,1/2+y,1/2-z
1/2-x,1/2+y,z
x,-y,1/2+z
loop_
_atom_site_type_symbol
_atom_site_label
_atom_site_fract_x
_atom_site_fract_y
_atom_site_fract_z
Si Si1 0.317783 0.750105 0.593310
Si Si2 0.317783 0.249897 0.406689
Si Si3 0.594770 0.659185 0.425620
Si Si4 0.905230 0.840815 0.574381
Si Si5 0.749605 0.000001 0.000000
Si Si6 0.500000 0.663018 0.928893
O O1 0.346403 0.746461 0.750000
O O2 0.356659 0.753227 0.459165
O O3 0.284851 0.895855 0.597282
O O4 0.283730 0.605639 0.596516
O O5 0.356659 0.246773 0.540834
O O6 0.283731 0.394365 0.403485
O O7 0.284850 0.104149 0.402715
O O8 0.586501 0.645984 0.250000
O O9 0.602909 0.500000 0.500001
O O10 0.548519 0.739458 0.504558
O O11 0.951480 0.760543 0.495442
O O12 0.500000 0.661217 0.750000
O O13 0.500000 0.500000 0.000000
#
# Coordination Sequence:
#
# PCOD8246402 Si02
#       6
#     8   8   8   8   8   8
#     4  11  22  39  60  86 118 156 199 243 291 347
#     4  11  22  39  60  86 118 156 199 243 291 347
#     4  11  21  34  55  84 117 152 192 240 292 347
#     4  11  21  34  55  84 117 152 192 240 292 347
#     4  10  24  38  60  86 118 154 200 244 292 342
#     4  10  18  32  54  81 114 149 188 237 290 346
#
# _framework density 21.342175999999998
#
# number of rings (size 3 to 8) (size 9 to 14) (size 15 to 20)
#    0.000    1.333    1.667    7.500    0.000    6.667 
#    0.000    0.000    0.000    1.000    0.000    0.000 
#    0.000    0.000    0.000    0.000    0.000    0.000 
#
# Total GULP energy -594700.222961 kJ/mol
# GULP energy per Si atom -12389.587978 kJ/mol
# Density = 2.129360 g / cm^3
# Si number density = 21.342176 Si / 1000 Ang^3
#
#
#
# Elastic Constant Matrix: (Units=GPa)
#
#
# Indices 1 2 3 4 5 6 
#
# 1 159.1555 36.6052 63.1271 0.0000 0.0000 0.0000
# 2 36.6052 79.0953 23.2479 0.0000 0.0000 0.0000
# 3 63.1271 23.2479 198.1335 0.0000 0.0000 0.0000
# 4 0.0000 0.0000 0.0000 3.8836 0.0000 0.0000
# 5 0.0000 0.0000 0.0000 0.0000 30.9415 0.0000
# 6 0.0000 0.0000 0.0000 0.0000 0.0000 2.3030
#
#
#
# Elastic Compliance Matrix: (Units=1/GPa)
#
#
# Indices 1 2 3 4 5 6 
#
# 1 0.007820 -0.002990 -0.002141 0.000000 0.000000 0.000000
# 2 -0.002990 0.014238 -0.000718 0.000000 0.000000 0.000000
# 3 -0.002141 -0.000718 0.005813 0.000000 0.000000 0.000000
# 4 0.000000 0.000000 0.000000 0.257493 0.000000 0.000000
# 5 0.000000 0.000000 0.000000 0.000000 0.032319 0.000000
# 6 0.000000 0.000000 0.000000 0.000000 0.000000 0.434225
#
#
# Mechanical properties :
#
#
# Convention : Reuss Voigt Hill
#
# Bulk Modulus (GPa) = 61.82771 75.81609 68.82190
# Shear Modulus (GPa) = 6.50198 28.31921 17.41059
#
# Velocity S-wave (km/s) = 1.74733 3.64663 2.85929
# Velocity P-wave (km/s) = 5.75356 7.30286 6.57401
#
# Compressibility (1/GPa) = 0.01617398
#
# Stress axis : x y z
#
# Youngs Moduli (GPa) = 127.87895 70.23600 172.01683
#
# Poissons Ratio (x) = 0.21000 0.36823
# Poissons Ratio (y) = 0.38234 0.12350
# Poissons Ratio (z) = 0.27375 0.05043
#
# Static dielectric constant tensor:
#      x y z
#    x 4.714960 0.000000 0.000000 
#    y 0.000000 3.499480 0.000000 
#    z 0.000000 0.000000 3.830070 
# 
# 
# High freq. dielectric constant tensor:
#      x y z
#    x 1.856930 0.000000 0.000000 
#    y 0.000000 1.784400 0.000000 
#    z 0.000000 0.000000 1.845770 
# 
# From -- ./inp_files/8390.got.cif
#   From: 2010.03.12/outbox.cif.g09.slc.cpg/sg60_5_cif.got.tgz:8390.got - 2010.04.10 18:46:24.
