data_PCOD8246863
_publ_section_title
;
Structure prediction by ZEFSAII (Michael W. Deem and Ramdas Pophale) SiO2 
 PCOD8246863
Probable space group: P B C N
;
_chemical_formula_sum "Si O2"
_cell_formula_units_Z 40
_cell_length_a 8.119959
_cell_length_b 31.021606
_cell_length_c 7.656994
_cell_angle_alpha 90.000000
_cell_angle_beta 90.000000
_cell_angle_gamma 90.000000
_cell_volume 1928.752139
_symmetry_space_group_name_H-M "P B C N"
_symmetry_group_IT_number 60
_symmetry_cell_setting 'orthorhombic'
loop_
_space_group_symop_operation_xyz
x,y,z
1/2-x,1/2-y,1/2+z
1/2+x,1/2-y,-z
-x,y,1/2-z
-x,-y,-z
1/2+x,1/2+y,1/2-z
1/2-x,1/2+y,z
x,-y,1/2+z
loop_
_atom_site_type_symbol
_atom_site_label
_atom_site_fract_x
_atom_site_fract_y
_atom_site_fract_z
Si Si1 0.190032 0.051792 0.202631
Si Si2 0.624915 0.974499 0.117618
Si Si3 0.694660 0.855779 0.744246
Si Si4 0.310089 0.205511 0.557471
Si Si5 0.699773 0.201038 0.555727
O O1 0.250299 0.095549 0.292515
O O2 0.000000 0.047545 0.250000
O O3 0.269959 0.008966 0.276515
O O4 0.247258 0.054463 0.996836
O O5 0.500000 0.947844 0.250000
O O6 0.500000 0.000000 0.000000
O O7 0.500000 0.853901 0.750000
O O8 0.765909 0.826935 0.585674
O O9 0.765182 0.836755 0.926992
O O10 0.504575 0.201833 0.555621
O O11 0.264658 0.254096 0.515797
O O12 0.236180 0.192798 0.747312
#
# Coordination Sequence:
#
# PCOD8246863 Si02
#       5
#     8   8   8   8   8
#     4  11  22  39  62  93 124 153 196 258 310 359
#     4   9  19  39  65  87 114 160 197 233 300 379
#     4  10  21  38  56  83 119 160 203 248 299 372
#     4  10  20  35  57  82 113 154 201 250 298 361
#     4  10  20  35  56  83 111 155 202 246 302 358
#
# _framework density 20.738797000000002
#
# number of rings (size 3 to 8) (size 9 to 14) (size 15 to 20)
#    0.000    2.000    2.000    2.400    0.000    1.600 
#   14.400    0.000    0.000    0.000    0.000    0.000 
#    0.000    0.000    0.000    0.000    0.000    0.000 
#
# Total GULP energy -495564.428929 kJ/mol
# GULP energy per Si atom -12389.110723 kJ/mol
# Density = 2.069159 g / cm^3
# Si number density = 20.738797 Si / 1000 Ang^3
#
#
#
# Elastic Constant Matrix: (Units=GPa)
#
#
# Indices 1 2 3 4 5 6 
#
# 1 41.2343 10.8562 54.2788 0.0000 0.0000 0.0000
# 2 10.8562 80.0168 28.0732 0.0000 0.0000 0.0000
# 3 54.2788 28.0732 143.3922 0.0000 0.0000 0.0000
# 4 0.0000 0.0000 0.0000 36.1044 0.0000 0.0000
# 5 0.0000 0.0000 0.0000 0.0000 31.8884 0.0000
# 6 0.0000 0.0000 0.0000 0.0000 0.0000 26.3182
#
#
#
# Elastic Compliance Matrix: (Units=1/GPa)
#
#
# Indices 1 2 3 4 5 6 
#
# 1 0.048339 -0.000149 -0.018269 0.000000 0.000000 0.000000
# 2 -0.000149 0.013420 -0.002571 0.000000 0.000000 0.000000
# 3 -0.018269 -0.002571 0.014393 0.000000 0.000000 0.000000
# 4 0.000000 0.000000 0.000000 0.027697 0.000000 0.000000
# 5 0.000000 0.000000 0.000000 0.000000 0.031359 0.000000
# 6 0.000000 0.000000 0.000000 0.000000 0.000000 0.037997
#
#
# Mechanical properties :
#
#
# Convention : Reuss Voigt Hill
#
# Bulk Modulus (GPa) = 29.26215 50.11776 39.68995
# Shear Modulus (GPa) = 22.06797 30.29120 26.17958
#
# Velocity S-wave (km/s) = 3.26558 3.82593 3.55681
# Velocity P-wave (km/s) = 5.32533 6.61329 6.00395
#
# Compressibility (1/GPa) = 0.03417384
#
# Stress axis : x y z
#
# Youngs Moduli (GPa) = 20.68730 74.51810 69.48044
#
# Poissons Ratio (x) = 0.01110 1.26932
# Poissons Ratio (y) = 0.00308 0.17863
# Poissons Ratio (z) = 0.37793 0.19158
#
# Static dielectric constant tensor:
#      x y z
#    x 3.733650 0.000000 0.000000 
#    y 0.000000 3.520430 0.000000 
#    z 0.000000 0.000000 4.372420 
# 
# 
# High freq. dielectric constant tensor:
#      x y z
#    x 1.799130 0.000000 0.000000 
#    y 0.000000 1.793040 0.000000 
#    z 0.000000 0.000000 1.830860 
# 
# From -- ./inp_files/4011.got.cif
#   From: 2010.03.12/outbox.cif.g09.slc.cpg/sg60_3_cif.got.tgz:4011.got - 2010.04.10 18:46:24.
