data_PCOD8246768
_publ_section_title
;
Structure prediction by ZEFSAII (Michael W. Deem and Ramdas Pophale) SiO2 
 PCOD8246768
Probable space group: P B C N
;
_chemical_formula_sum "Si O2"
_cell_formula_units_Z 60
_cell_length_a 19.309700
_cell_length_b 12.534300
_cell_length_c 11.888728
_cell_angle_alpha 90.000000
_cell_angle_beta 90.000000
_cell_angle_gamma 90.000000
_cell_volume 2877.471313
_symmetry_space_group_name_H-M "P B C N"
_symmetry_group_IT_number 60
_symmetry_cell_setting 'orthorhombic'
loop_
_space_group_symop_operation_xyz
x,y,z
1/2-x,1/2-y,1/2+z
1/2+x,1/2-y,-z
-x,y,1/2-z
-x,-y,-z
1/2+x,1/2+y,1/2-z
1/2-x,1/2+y,z
x,-y,1/2+z
loop_
_atom_site_type_symbol
_atom_site_label
_atom_site_fract_x
_atom_site_fract_y
_atom_site_fract_z
Si Si1 0.539727 0.848478 0.544860
Si Si2 0.687046 0.182175 0.508193
Si Si3 0.866624 0.352299 0.343131
Si Si4 0.067056 0.419122 0.371853
Si Si5 0.739833 0.285228 0.713347
Si Si6 0.355444 0.659425 0.671157
Si Si7 0.749131 0.477554 0.850714
Si Si8 0.000000 0.800143 0.250000
O O1 0.607771 0.823871 0.469237
O O2 0.479065 0.845155 0.452298
O O3 0.526569 0.764670 0.642427
O O4 0.544994 0.959331 0.611879
O O5 0.645536 0.099966 0.586313
O O6 0.724422 0.271762 0.582599
O O7 0.638247 0.250707 0.425422
O O8 0.746142 0.114862 0.444760
O O9 0.932094 0.385425 0.261206
O O10 0.823511 0.254335 0.292793
O O11 0.819222 0.456230 0.352620
O O12 0.808660 0.215030 0.733509
O O13 0.747714 0.412032 0.732963
O O14 0.319232 0.549388 0.631875
O O15 0.433049 0.630303 0.713303
#
# Coordination Sequence:
#
# PCOD8246768 Si02
#       8
#     8   8   8   8   8   8   8   4
#     4  11  23  35  59  89 127 170 196 261 312 390
#     4  10  19  40  62  93 123 160 209 271 321 378
#     4  10  21  39  59  93 122 164 209 259 325 378
#     4  10  21  33  58  91 125 161 200 252 328 382
#     4   9  22  38  65  90 121 159 216 270 317 371
#     4  10  23  40  61  90 124 168 213 259 322 377
#     4  10  21  40  63  92 124 159 211 267 319 379
#     4  12  26  40  62  90 134 174 220 260 312 398
#
# _framework density 20.851641999999998
#
# number of rings (size 3 to 8) (size 9 to 14) (size 15 to 20)
#    0.000    1.867    2.667    0.400    7.467    6.400 
#    0.000    0.000    5.867    2.400    0.000    0.000 
#    0.000    0.000    0.000    0.000    0.000    0.000 
#
# Total GULP energy -743633.519558 kJ/mol
# GULP energy per Si atom -12393.891993 kJ/mol
# Density = 2.080418 g / cm^3
# Si number density = 20.851642 Si / 1000 Ang^3
#
#
#
# Elastic Constant Matrix: (Units=GPa)
#
#
# Indices 1 2 3 4 5 6 
#
# 1 94.0462 32.4727 31.4971 0.0000 0.0000 0.0000
# 2 32.4727 74.1813 24.6422 0.0000 0.0000 0.0000
# 3 31.4971 24.6422 108.2741 0.0000 0.0000 0.0000
# 4 0.0000 0.0000 0.0000 21.3885 0.0000 0.0000
# 5 0.0000 0.0000 0.0000 0.0000 26.7623 0.0000
# 6 0.0000 0.0000 0.0000 0.0000 0.0000 22.8214
#
#
#
# Elastic Compliance Matrix: (Units=1/GPa)
#
#
# Indices 1 2 3 4 5 6 
#
# 1 0.013237 -0.004885 -0.002739 0.000000 0.000000 0.000000
# 2 -0.004885 0.016386 -0.002308 0.000000 0.000000 0.000000
# 3 -0.002739 -0.002308 0.010558 0.000000 0.000000 0.000000
# 4 0.000000 0.000000 0.000000 0.046754 0.000000 0.000000
# 5 0.000000 0.000000 0.000000 0.000000 0.037366 0.000000
# 6 0.000000 0.000000 0.000000 0.000000 0.000000 0.043819
#
#
# Mechanical properties :
#
#
# Convention : Reuss Voigt Hill
#
# Bulk Modulus (GPa) = 49.22047 50.41394 49.81720
# Shear Modulus (GPa) = 25.67328 26.72040 26.19684
#
# Velocity S-wave (km/s) = 3.51270 3.58362 3.54834
# Velocity P-wave (km/s) = 6.33312 6.43063 6.38206
#
# Compressibility (1/GPa) = 0.02031675
#
# Stress axis : x y z
#
# Youngs Moduli (GPa) = 75.54601 61.02955 94.71560
#
# Poissons Ratio (x) = 0.29811 0.25942
# Poissons Ratio (y) = 0.36901 0.21863
# Poissons Ratio (z) = 0.20692 0.14087
#
# Static dielectric constant tensor:
#      x y z
#    x 3.825820 0.000000 0.000000 
#    y 0.000000 3.490350 0.000000 
#    z 0.000000 0.000000 3.966960 
# 
# 
# High freq. dielectric constant tensor:
#      x y z
#    x 1.816430 0.000000 0.000000 
#    y 0.000000 1.783970 0.000000 
#    z 0.000000 0.000000 1.829470 
# 
# From -- ./inp_files/12862.got.cif
#   From: 2010.03.12/outbox.cif.g09.slc.cpg/sg60_7_cif.got.tgz:12862.got - 2010.04.10 18:46:24.
