data_PCOD8246051
_publ_section_title
;
Structure prediction by ZEFSAII (Michael W. Deem and Ramdas Pophale) SiO2 
 PCOD8246051
Probable space group: P M M N
;
_chemical_formula_sum "Si O2"
_cell_formula_units_Z 56
_cell_length_a 8.762331
_cell_length_b 23.329070
_cell_length_c 15.330432
_cell_angle_alpha 90.000000
_cell_angle_beta 90.000000
_cell_angle_gamma 90.000000
_cell_volume 3133.801428
_symmetry_space_group_name_H-M "P M M N"
_symmetry_group_IT_number 59
_space_group.IT_coordinate_system_code '2'
_symmetry_cell_setting 'orthorhombic'
loop_
_space_group_symop_operation_xyz
x,y,z
1/2-x,1/2-y,z
1/2+x,-y,-z
-x,1/2+y,-z
-x,-y,-z
1/2+x,1/2+y,-z
1/2-x,y,z
x,1/2-y,z
loop_
_atom_site_type_symbol
_atom_site_label
_atom_site_fract_x
_atom_site_fract_y
_atom_site_fract_z
Si Si1 0.429317 0.367012 0.152075
Si Si2 0.573085 0.436783 0.689817
Si Si3 0.069944 0.132105 0.842227
Si Si4 0.426595 0.067730 0.326831
Si Si5 0.069419 0.937747 0.999916
Si Si6 0.068858 0.750000 0.904806
Si Si7 0.074968 0.938808 0.503266
Si Si8 0.930531 0.250000 0.890724
O O1 0.250000 0.369215 0.129515
O O2 0.463292 0.388805 0.249195
O O3 0.522997 0.407946 0.089140
O O4 0.493435 0.303542 0.143061
O O5 0.750000 0.432800 0.719203
O O6 0.468392 0.398453 0.751511
O O7 0.515965 0.503040 0.695009
O O8 0.551411 0.410409 0.592123
O O9 0.250000 0.134611 0.856104
O O10 0.001881 0.195623 0.842505
O O11 0.994269 0.097269 0.919683
O O12 0.250000 0.063057 0.347206
O O13 0.502392 0.094729 0.414399
O O14 0.250000 0.941003 0.007742
O O15 0.000000 0.000000 0.000000
O O16 0.250000 0.750000 0.891437
O O17 0.026316 0.750000 0.006965
O O18 0.250000 0.946764 0.524633
O O19 0.000000 0.000000 0.500000
O O20 0.750000 0.250000 0.877905
#
# Coordination Sequence:
#
# PCOD8246051 Si02
#       8
#     8   8   8   8   8   4   8   4
#     4  11  22  37  58  82 110 145 183 229 277 325
#     4   9  18  34  54  80 115 149 181 220 272 331
#     4  12  24  37  57  83 109 142 184 230 275 326
#     4   9  19  34  54  82 114 146 180 222 274 326
#     4  12  24  38  55  79 111 146 180 221 273 327
#     4  11  23  39  59  80 104 145 192 232 275 323
#     4   9  17  30  52  79 110 147 182 220 266 321
#     4  11  23  41  61  78 104 145 188 232 277 323
#
# _framework density 17.869672000000001
#
# number of rings (size 3 to 8) (size 9 to 14) (size 15 to 20)
#    0.000    1.571    1.429    5.571    0.000    5.714 
#    0.000    0.000    0.000    0.857    0.000    4.000 
#    0.000    0.000    0.000    0.000    0.000    0.000 
#
# Total GULP energy -694363.007768 kJ/mol
# GULP energy per Si atom -12399.339424 kJ/mol
# Density = 1.782900 g / cm^3
# Si number density = 17.869672 Si / 1000 Ang^3
#
#
#
# Elastic Constant Matrix: (Units=GPa)
#
#
# Indices 1 2 3 4 5 6 
#
# 1 125.3157 64.6372 79.3586 0.0000 0.0000 0.0000
# 2 64.6372 155.0649 95.0675 0.0000 0.0000 0.0000
# 3 79.3586 95.0675 168.0099 0.0000 0.0000 0.0000
# 4 0.0000 0.0000 0.0000 55.0441 0.0000 0.0000
# 5 0.0000 0.0000 0.0000 0.0000 35.5058 0.0000
# 6 0.0000 0.0000 0.0000 0.0000 0.0000 27.5442
#
#
#
# Elastic Compliance Matrix: (Units=1/GPa)
#
#
# Indices 1 2 3 4 5 6 
#
# 1 0.011907 -0.002320 -0.004311 0.000000 0.000000 0.000000
# 2 -0.002320 0.010327 -0.004747 0.000000 0.000000 0.000000
# 3 -0.004311 -0.004747 0.010675 0.000000 0.000000 0.000000
# 4 0.000000 0.000000 0.000000 0.018167 0.000000 0.000000
# 5 0.000000 0.000000 0.000000 0.000000 0.028164 0.000000
# 6 0.000000 0.000000 0.000000 0.000000 0.000000 0.036305
#
#
# Mechanical properties :
#
#
# Convention : Reuss Voigt Hill
#
# Bulk Modulus (GPa) = 98.51637 102.94634 100.73136
# Shear Modulus (GPa) = 35.28936 37.57397 36.43166
#
# Velocity S-wave (km/s) = 4.44871 4.59046 4.52014
# Velocity P-wave (km/s) = 9.03539 9.26450 9.15066
#
# Compressibility (1/GPa) = 0.01015060
#
# Stress axis : x y z
#
# Youngs Moduli (GPa) = 83.98618 96.83818 93.67923
#
# Poissons Ratio (x) = 0.22467 0.40388
# Poissons Ratio (y) = 0.19485 0.44473
# Poissons Ratio (z) = 0.36209 0.45973
#
# Static dielectric constant tensor:
#      x y z
#    x 3.505210 0.000000 0.000000 
#    y 0.000000 3.183260 0.000000 
#    z 0.000000 0.000000 3.712550 
# 
# 
# High freq. dielectric constant tensor:
#      x y z
#    x 1.706060 0.000000 0.000000 
#    y 0.000000 1.669800 0.000000 
#    z 0.000000 0.000000 1.700990 
# 
# From -- ./inp_files/21197.got.cif
#   From: 2010.03.12/outbox.cif.g09.slc.cpg/sg59_11_cif.got.tgz:21197.got - 2010.04.16 16:29:54.
