data_PCOD8246154
_publ_section_title
;
Structure prediction by ZEFSAII (Michael W. Deem and Ramdas Pophale) SiO2 
 PCOD8246154
Probable space group: P M M N
;
_chemical_formula_sum "Si O2"
_cell_formula_units_Z 48
_cell_length_a 19.600206
_cell_length_b 9.371200
_cell_length_c 16.222144
_cell_angle_alpha 90.000000
_cell_angle_beta 90.000000
_cell_angle_gamma 90.000000
_cell_volume 2979.642051
_symmetry_space_group_name_H-M "P M M N"
_symmetry_group_IT_number 59
_space_group.IT_coordinate_system_code '2'
_symmetry_cell_setting 'orthorhombic'
loop_
_space_group_symop_operation_xyz
x,y,z
1/2-x,1/2-y,z
1/2+x,-y,-z
-x,1/2+y,-z
-x,-y,-z
1/2+x,1/2+y,-z
1/2-x,y,z
x,1/2-y,z
loop_
_atom_site_type_symbol
_atom_site_label
_atom_site_fract_x
_atom_site_fract_y
_atom_site_fract_z
Si Si1 0.134228 0.591728 0.686309
Si Si2 0.482360 0.092847 0.251154
Si Si3 0.943168 0.410508 0.606091
Si Si4 0.466122 0.581348 0.925305
Si Si5 0.675734 0.419199 0.139191
Si Si6 0.097104 0.089404 0.542110
O O1 0.162808 0.750000 0.664806
O O2 0.171147 0.524397 0.766639
O O3 0.146013 0.487242 0.608952
O O4 0.054707 0.605686 0.705012
O O5 0.447713 0.250000 0.252814
O O6 0.491778 0.041178 0.156980
O O7 0.437018 0.980786 0.302799
O O8 0.913986 0.250000 0.611057
O O9 0.897737 0.502605 0.543152
O O10 0.020365 0.407525 0.575022
O O11 0.468161 0.750000 0.941721
O O12 0.387419 0.525492 0.916251
O O13 0.500000 0.500000 0.000000
O O14 0.750000 0.464413 0.102168
O O15 0.668037 0.250000 0.144958
O O16 0.123601 0.250000 0.527224
#
# Coordination Sequence:
#
# PCOD8246154 Si02
#       6
#     8   8   8   8   8   8
#     4   8  13  22  36  52  71  97 130 165 195 228
#     4   8  14  24  35  49  72 101 130 160 200 246
#     4   9  15  21  31  48  69  96 130 163 192 225
#     4   9  17  28  43  62  84 111 141 176 219 266
#     4   8  14  26  44  63  82 108 143 178 211 250
#     4   9  15  21  30  46  71 101 128 155 189 228
#
# _framework density 16.109317999999998
#
# number of rings (size 3 to 8) (size 9 to 14) (size 15 to 20)
#    0.000    3.500    0.000    3.000    0.000    4.667 
#    0.000    2.500    0.000    2.000    0.000    0.000 
#    0.000    1.333    0.000   13.000    0.000   15.167 
#
# Total GULP energy -594713.960987 kJ/mol
# GULP energy per Si atom -12389.874187 kJ/mol
# Density = 1.607265 g / cm^3
# Si number density = 16.109318 Si / 1000 Ang^3
#
#
#
# Elastic Constant Matrix: (Units=GPa)
#
#
# Indices 1 2 3 4 5 6 
#
# 1 49.1002 24.2198 42.0981 0.0000 0.0000 0.0000
# 2 24.2198 96.4330 63.3308 0.0000 0.0000 0.0000
# 3 42.0981 63.3308 124.3884 0.0000 0.0000 0.0000
# 4 0.0000 0.0000 0.0000 30.4160 0.0000 0.0000
# 5 0.0000 0.0000 0.0000 0.0000 11.6191 0.0000
# 6 0.0000 0.0000 0.0000 0.0000 0.0000 7.2470
#
#
#
# Elastic Compliance Matrix: (Units=1/GPa)
#
#
# Indices 1 2 3 4 5 6 
#
# 1 0.028792 -0.001250 -0.009108 0.000000 0.000000 0.000000
# 2 -0.001250 0.015633 -0.007537 0.000000 0.000000 0.000000
# 3 -0.009108 -0.007537 0.014959 0.000000 0.000000 0.000000
# 4 0.000000 0.000000 0.000000 0.032877 0.000000 0.000000
# 5 0.000000 0.000000 0.000000 0.000000 0.086065 0.000000
# 6 0.000000 0.000000 0.000000 0.000000 0.000000 0.137988
#
#
# Mechanical properties :
#
#
# Convention : Reuss Voigt Hill
#
# Bulk Modulus (GPa) = 42.38061 58.80211 50.59136
# Shear Modulus (GPa) = 13.89009 19.20796 16.54902
#
# Velocity S-wave (km/s) = 2.93958 3.45679 3.20862
# Velocity P-wave (km/s) = 6.15522 7.24663 6.72311
#
# Compressibility (1/GPa) = 0.02359570
#
# Stress axis : x y z
#
# Youngs Moduli (GPa) = 34.73151 63.96619 66.84919
#
# Poissons Ratio (x) = 0.07994 0.60888
# Poissons Ratio (y) = 0.04340 0.50381
# Poissons Ratio (z) = 0.31634 0.48208
#
# Static dielectric constant tensor:
#      x y z
#    x 2.670820 0.000000 0.000000 
#    y 0.000000 3.205820 0.000000 
#    z 0.000000 0.000000 3.054840 
# 
# 
# High freq. dielectric constant tensor:
#      x y z
#    x 1.556440 0.000000 0.000000 
#    y 0.000000 1.610090 0.000000 
#    z 0.000000 0.000000 1.609760 
# 
# From -- ./inp_files/24499.got.cif
#   From: 2010.03.12/outbox.cif.g09.slc.cpg/sg59_13_cif.got.tgz:24499.got - 2010.04.16 16:29:54.
