data_PCOD8246361
_publ_section_title
;
Structure prediction by ZEFSAII (Michael W. Deem and Ramdas Pophale) SiO2 
 PCOD8246361
Probable space group: P B C N
;
_chemical_formula_sum "Si O2"
_cell_formula_units_Z 64
_cell_length_a 31.173655
_cell_length_b 13.261883
_cell_length_c 9.503410
_cell_angle_alpha 90.000000
_cell_angle_beta 90.000000
_cell_angle_gamma 90.000000
_cell_volume 3928.912737
_symmetry_space_group_name_H-M "P B C N"
_symmetry_group_IT_number 60
_symmetry_cell_setting 'orthorhombic'
loop_
_space_group_symop_operation_xyz
x,y,z
1/2-x,1/2-y,1/2+z
1/2+x,1/2-y,-z
-x,y,1/2-z
-x,-y,-z
1/2+x,1/2+y,1/2-z
1/2-x,1/2+y,z
x,-y,1/2+z
loop_
_atom_site_type_symbol
_atom_site_label
_atom_site_fract_x
_atom_site_fract_y
_atom_site_fract_z
Si Si1 0.049325 0.119858 0.516940
Si Si2 0.769830 0.597377 0.347883
Si Si3 0.603269 0.612337 0.230036
Si Si4 0.271396 0.106932 0.824546
Si Si5 0.103076 0.119524 0.785639
Si Si6 0.043633 0.111759 0.023511
Si Si7 0.687191 0.266210 0.172533
Si Si8 0.314742 0.275972 0.652573
O O1 0.087742 0.161085 0.417291
O O2 0.065769 0.137540 0.672779
O O3 0.002030 0.169452 0.497067
O O4 0.041369 0.004031 0.472994
O O5 0.772558 0.491936 0.269622
O O6 0.783097 0.585924 0.512025
O O7 0.802934 0.669511 0.267296
O O8 0.721812 0.639516 0.334453
O O9 0.618778 0.496776 0.212792
O O10 0.559058 0.618716 0.317172
O O11 0.640820 0.675558 0.299851
O O12 0.224016 0.151114 0.811687
O O13 0.305540 0.184276 0.758270
O O14 0.081367 0.159228 0.928786
O O15 0.144557 0.187172 0.760038
O O16 0.681986 0.236545 0.008100
#
# Coordination Sequence:
#
# PCOD8246361 Si02
#       8
#     8   8   8   8   8   8   8   8
#     4   9  18  26  44  65  95 131 169 199 236 284
#     4  10  21  36  53  72  97 128 161 201 244 286
#     4  10  18  29  45  69  99 133 167 202 235 281
#     4  10  21  36  53  72  97 128 161 201 244 286
#     4  10  18  29  45  69  99 133 167 202 235 281
#     4   9  16  30  42  63  95 135 165 197 240 284
#     4  10  20  34  50  72  99 130 165 199 237 285
#     4  10  20  34  50  72  99 130 165 199 237 285
#
# _framework density 16.289494000000001
#
# number of rings (size 3 to 8) (size 9 to 14) (size 15 to 20)
#    0.000    2.250    1.250    2.250    1.750    4.000 
#    0.000    0.000    0.000    0.000    0.000    0.000 
#    0.000    6.000    0.000    0.000    0.000    0.000 
#
# Total GULP energy -793263.238678 kJ/mol
# GULP energy per Si atom -12394.738104 kJ/mol
# Density = 1.625242 g / cm^3
# Si number density = 16.289494 Si / 1000 Ang^3
#
#
#
# Elastic Constant Matrix: (Units=GPa)
#
#
# Indices 1 2 3 4 5 6 
#
# 1 84.0278 28.9303 26.6832 0.0000 0.0000 0.0000
# 2 28.9303 67.3717 42.8465 0.0000 0.0000 0.0000
# 3 26.6832 42.8465 98.1297 0.0000 0.0000 0.0000
# 4 0.0000 0.0000 0.0000 25.6135 0.0000 0.0000
# 5 0.0000 0.0000 0.0000 0.0000 26.4554 0.0000
# 6 0.0000 0.0000 0.0000 0.0000 0.0000 16.5755
#
#
#
# Elastic Compliance Matrix: (Units=1/GPa)
#
#
# Indices 1 2 3 4 5 6 
#
# 1 0.014157 -0.005027 -0.001655 0.000000 0.000000 0.000000
# 2 -0.005027 0.022334 -0.008385 0.000000 0.000000 0.000000
# 3 -0.001655 -0.008385 0.014302 0.000000 0.000000 0.000000
# 4 0.000000 0.000000 0.000000 0.039042 0.000000 0.000000
# 5 0.000000 0.000000 0.000000 0.000000 0.037799 0.000000
# 6 0.000000 0.000000 0.000000 0.000000 0.000000 0.060330
#
#
# Mechanical properties :
#
#
# Convention : Reuss Voigt Hill
#
# Bulk Modulus (GPa) = 48.40285 49.60548 49.00416
# Shear Modulus (GPa) = 22.22384 23.80017 23.01200
#
# Velocity S-wave (km/s) = 3.69766 3.82655 3.76265
# Velocity P-wave (km/s) = 6.92884 7.07403 7.00181
#
# Compressibility (1/GPa) = 0.02065994
#
# Stress axis : x y z
#
# Youngs Moduli (GPa) = 70.63651 44.77444 69.92215
#
# Poissons Ratio (x) = 0.22508 0.11570
# Poissons Ratio (y) = 0.35508 0.58629
# Poissons Ratio (z) = 0.11688 0.37543
#
# Static dielectric constant tensor:
#      x y z
#    x 3.072710 0.000000 0.000000 
#    y 0.000000 2.689040 0.000000 
#    z 0.000000 0.000000 3.278120 
# 
# 
# High freq. dielectric constant tensor:
#      x y z
#    x 1.630160 0.000000 0.000000 
#    y 0.000000 1.570740 0.000000 
#    z 0.000000 0.000000 1.649570 
# 
# From -- ./inp_files/8509.got.cif
#   From: 2010.03.12/outbox.cif.g09.slc.cpg/sg60_5_cif.got.tgz:8509.got - 2010.04.10 18:46:24.
