data_PCOD8246828
_publ_section_title
;
Structure prediction by ZEFSAII (Michael W. Deem and Ramdas Pophale) SiO2 
 PCOD8246828
Probable space group: P B C N
;
_chemical_formula_sum "Si O2"
_cell_formula_units_Z 48
_cell_length_a 13.567130
_cell_length_b 8.974011
_cell_length_c 14.823382
_cell_angle_alpha 90.000000
_cell_angle_beta 90.000000
_cell_angle_gamma 90.000000
_cell_volume 1804.770088
_symmetry_space_group_name_H-M "P B C N"
_symmetry_group_IT_number 60
_symmetry_cell_setting 'orthorhombic'
loop_
_space_group_symop_operation_xyz
x,y,z
1/2-x,1/2-y,1/2+z
1/2+x,1/2-y,-z
-x,y,1/2-z
-x,-y,-z
1/2+x,1/2+y,1/2-z
1/2-x,1/2+y,z
x,-y,1/2+z
loop_
_atom_site_type_symbol
_atom_site_label
_atom_site_fract_x
_atom_site_fract_y
_atom_site_fract_z
Si Si1 0.887799 0.582990 0.083876
Si Si2 0.863035 0.978474 0.473025
Si Si3 0.340670 0.564701 0.717418
Si Si4 0.000000 0.703414 0.250000
Si Si5 0.743692 0.832675 0.108158
Si Si6 0.493811 0.734800 0.442144
Si Si7 0.000000 0.825043 0.750000
O O1 0.949810 0.605092 0.173343
O O2 0.777128 0.659677 0.091678
O O3 0.864228 0.402681 0.075853
O O4 0.947239 0.637720 0.996445
O O5 0.793490 0.959779 0.383143
O O6 0.888223 0.812901 0.512831
O O7 0.824205 0.084030 0.550178
O O8 0.957204 0.069618 0.435623
O O9 0.419138 0.696031 0.701088
O O10 0.256556 0.619523 0.787016
O O11 0.398162 0.420127 0.754462
O O12 0.490080 0.782730 0.337002
#
# Coordination Sequence:
#
# PCOD8246828 Si02
#       7
#     8   8   8   4   8   8   4
#     4  10  20  35  58  86 120 151 196 245 307 353
#     4   9  15  28  51  81 109 142 190 243 281 336
#     4   9  15  27  52  83 108 139 197 244 286 326
#     4   9  16  30  54  83 104 153 198 239 272 359
#     4  10  20  34  53  87 120 148 187 254 301 348
#     4   9  15  27  50  83 109 142 192 244 286 343
#     4   9  14  24  50  81 110 135 188 253 280 329
#
# _framework density 26.596185999999999
#
# number of rings (size 3 to 8) (size 9 to 14) (size 15 to 20)
#    0.000    2.667    3.333    0.000    0.000    0.000 
#    0.000   10.000    0.000    6.000    0.000    0.000 
#    0.000    0.000    0.000    0.000    0.000    0.000 
#
# Total GULP energy -594639.315820 kJ/mol
# GULP energy per Si atom -12388.319080 kJ/mol
# Density = 2.653565 g / cm^3
# Si number density = 26.596186 Si / 1000 Ang^3
#
#
#
# Elastic Constant Matrix: (Units=GPa)
#
#
# Indices 1 2 3 4 5 6 
#
# 1 56.7145 4.2303 -1.2415 0.0000 0.0000 0.0000
# 2 4.2303 109.7927 25.0431 0.0000 0.0000 0.0000
# 3 -1.2415 25.0431 151.8725 0.0000 0.0000 0.0000
# 4 0.0000 0.0000 0.0000 1.3018 0.0000 0.0000
# 5 0.0000 0.0000 0.0000 0.0000 13.0580 0.0000
# 6 0.0000 0.0000 0.0000 0.0000 0.0000 27.4603
#
#
#
# Elastic Compliance Matrix: (Units=1/GPa)
#
#
# Indices 1 2 3 4 5 6 
#
# 1 0.017693 -0.000743 0.000267 0.000000 0.000000 0.000000
# 2 -0.000743 0.009495 -0.001572 0.000000 0.000000 0.000000
# 3 0.000267 -0.001572 0.006846 0.000000 0.000000 0.000000
# 4 0.000000 0.000000 0.000000 0.768173 0.000000 0.000000
# 5 0.000000 0.000000 0.000000 0.000000 0.076581 0.000000
# 6 0.000000 0.000000 0.000000 0.000000 0.000000 0.036416
#
#
# Mechanical properties :
#
#
# Convention : Reuss Voigt Hill
#
# Bulk Modulus (GPa) = 33.40038 41.60484 37.50261
# Shear Modulus (GPa) = 5.38051 27.72054 16.55053
#
# Velocity S-wave (km/s) = 1.42388 3.23193 2.49728
# Velocity P-wave (km/s) = 3.91009 5.44098 4.73778
#
# Compressibility (1/GPa) = 0.02993978
#
# Stress axis : x y z
#
# Youngs Moduli (GPa) = 56.51817 105.31632 146.07416
#
# Poissons Ratio (x) = 0.07821 -0.03902
# Poissons Ratio (y) = 0.04197 0.22960
# Poissons Ratio (z) = -0.01510 0.16554
#
# Static dielectric constant tensor:
#      x y z
#    x 4.373470 0.000000 0.000000 
#    y 0.000000 4.889460 0.000000 
#    z 0.000000 0.000000 4.980000 
# 
# 
# High freq. dielectric constant tensor:
#      x y z
#    x 2.048000 0.000000 0.000000 
#    y 0.000000 2.082410 0.000000 
#    z 0.000000 0.000000 2.082850 
# 
# From -- ./inp_files/16805.got.cif
#   From: 2010.03.12/outbox.cif.g09.slc.cpg/sg60_9_cif.got.tgz:16805.got - 2010.04.10 18:46:24.
