data_PCOD8246077
_publ_section_title
;
Structure prediction by ZEFSAII (Michael W. Deem and Ramdas Pophale) SiO2 
 PCOD8246077
Probable space group: P M M N
;
_chemical_formula_sum "Si O2"
_cell_formula_units_Z 64
_cell_length_a 9.251397
_cell_length_b 29.852371
_cell_length_c 12.188532
_cell_angle_alpha 90.000000
_cell_angle_beta 90.000000
_cell_angle_gamma 90.000000
_cell_volume 3366.181665
_symmetry_space_group_name_H-M "P M M N"
_symmetry_group_IT_number 59
_space_group.IT_coordinate_system_code '2'
_symmetry_cell_setting 'orthorhombic'
loop_
_space_group_symop_operation_xyz
x,y,z
1/2-x,1/2-y,z
1/2+x,-y,-z
-x,1/2+y,-z
-x,-y,-z
1/2+x,1/2+y,-z
1/2-x,y,z
x,1/2-y,z
loop_
_atom_site_type_symbol
_atom_site_label
_atom_site_fract_x
_atom_site_fract_y
_atom_site_fract_z
Si Si1 0.922229 0.625227 0.364019
Si Si2 0.419396 0.801886 0.227438
Si Si3 0.420522 0.124226 0.388787
Si Si4 0.081282 0.449155 0.219094
Si Si5 0.908926 0.196960 0.016469
Si Si6 0.579429 0.800904 0.773864
Si Si7 0.916273 0.454312 0.013927
Si Si8 0.085541 0.553261 0.228729
O O1 0.750000 0.626701 0.357932
O O2 0.982177 0.623149 0.488438
O O3 0.985903 0.670040 0.311738
O O4 0.976841 0.580878 0.303461
O O5 0.250000 0.811374 0.246036
O O6 0.455583 0.750000 0.247875
O O7 0.464168 0.817227 0.104307
O O8 0.250000 0.127901 0.394684
O O9 0.466111 0.078825 0.325945
O O10 0.480013 0.167862 0.324071
O O11 0.250000 0.443145 0.192396
O O12 0.042592 0.501048 0.239251
O O13 0.992668 0.428691 0.115159
O O14 0.750000 0.175931 0.038464
O O15 0.895469 0.250000 0.016993
O O16 0.016577 0.180661 0.111211
O O17 0.750000 0.804301 0.785389
O O18 0.529534 0.750000 0.749333
O O19 0.750000 0.463834 0.043213
O O20 0.928435 0.428842 0.897109
O O21 0.000000 0.500000 0.000000
O O22 0.250000 0.560452 0.269280
#
# Coordination Sequence:
#
# PCOD8246077 Si02
#       8
#     8   8   8   8   8   8   8   8
#     4  11  23  36  53  77 104 138 181 223 257 302
#     4   9  19  37  58  78 106 142 172 208 263 315
#     4   9  20  37  52  72 104 139 177 219 263 306
#     4   9  18  35  57  77 103 139 174 214 265 317
#     4   8  15  30  52  77 104 132 163 202 251 306
#     4   9  17  31  53  78 104 134 165 203 255 311
#     4   9  17  31  53  81 109 135 167 210 262 320
#     4   9  19  35  54  76 105 139 170 210 265 315
#
# _framework density 19.012640000000001
#
# number of rings (size 3 to 8) (size 9 to 14) (size 15 to 20)
#    0.000    2.875    0.000    2.250    0.000    5.250 
#    0.000    8.125    0.000    1.500    0.000    0.000 
#    0.000    0.000    0.000    0.000    0.000    0.000 
#
# Total GULP energy -793282.955775 kJ/mol
# GULP energy per Si atom -12395.046184 kJ/mol
# Density = 1.896937 g / cm^3
# Si number density = 19.012640 Si / 1000 Ang^3
#
#
#
# Elastic Constant Matrix: (Units=GPa)
#
#
# Indices 1 2 3 4 5 6 
#
# 1 70.2120 39.4574 64.2686 0.0000 0.0000 0.0000
# 2 39.4574 95.6863 70.4675 0.0000 0.0000 0.0000
# 3 64.2686 70.4675 175.4445 0.0000 0.0000 0.0000
# 4 0.0000 0.0000 0.0000 20.2792 0.0000 0.0000
# 5 0.0000 0.0000 0.0000 0.0000 25.6319 0.0000
# 6 0.0000 0.0000 0.0000 0.0000 0.0000 24.3488
#
#
#
# Elastic Compliance Matrix: (Units=1/GPa)
#
#
# Indices 1 2 3 4 5 6 
#
# 1 0.022776 -0.004612 -0.006491 0.000000 0.000000 0.000000
# 2 -0.004612 0.015774 -0.004646 0.000000 0.000000 0.000000
# 3 -0.006491 -0.004646 0.009944 0.000000 0.000000 0.000000
# 4 0.000000 0.000000 0.000000 0.049312 0.000000 0.000000
# 5 0.000000 0.000000 0.000000 0.000000 0.039014 0.000000
# 6 0.000000 0.000000 0.000000 0.000000 0.000000 0.041070
#
#
# Mechanical properties :
#
#
# Convention : Reuss Voigt Hill
#
# Bulk Modulus (GPa) = 58.83802 76.63663 67.73733
# Shear Modulus (GPa) = 23.25018 25.19528 24.22273
#
# Velocity S-wave (km/s) = 3.50076 3.64426 3.57323
# Velocity P-wave (km/s) = 6.88146 7.62255 7.26146
#
# Compressibility (1/GPa) = 0.01699581
#
# Stress axis : x y z
#
# Youngs Moduli (GPa) = 43.90656 63.39409 100.56543
#
# Poissons Ratio (x) = 0.29235 0.65276
# Poissons Ratio (y) = 0.20248 0.46727
# Poissons Ratio (z) = 0.28499 0.29456
#
# Static dielectric constant tensor:
#      x y z
#    x 3.452170 0.000000 0.000000 
#    y 0.000000 3.410550 0.000000 
#    z 0.000000 0.000000 4.049440 
# 
# 
# High freq. dielectric constant tensor:
#      x y z
#    x 1.722620 0.000000 0.000000 
#    y 0.000000 1.733470 0.000000 
#    z 0.000000 0.000000 1.740710 
# 
# From -- ./inp_files/14926.got.cif
#   From: 2010.03.12/outbox.cif.g09.slc.cpg/sg59_8_cif.got.tgz:14926.got - 2010.04.16 16:29:54.
