data_PCOD8246980
_publ_section_title
;
Structure prediction by ZEFSAII (Michael W. Deem and Ramdas Pophale) SiO2 
 PCOD8246980
Probable space group: P B C N
;
_chemical_formula_sum "Si O2"
_cell_formula_units_Z 48
_cell_length_a 13.267071
_cell_length_b 8.391596
_cell_length_c 20.291360
_cell_angle_alpha 90.000000
_cell_angle_beta 90.000000
_cell_angle_gamma 90.000000
_cell_volume 2259.075661
_symmetry_space_group_name_H-M "P B C N"
_symmetry_group_IT_number 60
_symmetry_cell_setting 'orthorhombic'
loop_
_space_group_symop_operation_xyz
x,y,z
1/2-x,1/2-y,1/2+z
1/2+x,1/2-y,-z
-x,y,1/2-z
-x,-y,-z
1/2+x,1/2+y,1/2-z
1/2-x,1/2+y,z
x,-y,1/2+z
loop_
_atom_site_type_symbol
_atom_site_label
_atom_site_fract_x
_atom_site_fract_y
_atom_site_fract_z
Si Si1 0.618082 0.862916 0.759749
Si Si2 0.161580 0.186074 0.401559
Si Si3 0.637310 0.781941 0.908350
Si Si4 0.717296 0.913274 0.473990
Si Si5 0.991499 0.312577 0.489823
Si Si6 0.775932 0.921163 0.187036
O O1 0.500000 0.896616 0.750000
O O2 0.631653 0.859264 0.837843
O O3 0.652185 0.695041 0.728844
O O4 0.685900 0.006325 0.731918
O O5 0.220575 0.095384 0.459049
O O6 0.052740 0.245787 0.426639
O O7 0.224362 0.335535 0.374801
O O8 0.151551 0.060677 0.340992
O O9 0.712969 0.632611 0.910964
O O10 0.679809 0.907038 0.963191
O O11 0.529036 0.732088 0.940739
O O12 0.626444 0.782386 0.477169
O O13 0.000000 0.500000 0.500000
#
# Coordination Sequence:
#
# PCOD8246980 Si02
#       6
#     8   8   8   8   8   8
#     4  11  25  43  66  93 128 182 215 270 325 383
#     4  10  20  39  62  95 122 166 210 269 328 392
#     4  10  21  38  58  89 121 156 211 256 318 387
#     4  10  20  37  62  88 123 155 199 272 322 379
#     4   9  19  33  61  90 116 157 198 255 325 385
#     4  10  23  42  63  90 131 167 222 264 316 401
#
# _framework density 21.247627999999999
#
# number of rings (size 3 to 8) (size 9 to 14) (size 15 to 20)
#    0.000    2.000    0.000    4.000    9.333    0.000 
#    6.000    4.167    0.000    0.000    0.000    0.000 
#    0.000    0.000    0.000    0.000    0.000    0.000 
#
# Total GULP energy -594883.295025 kJ/mol
# GULP energy per Si atom -12393.401980 kJ/mol
# Density = 2.119927 g / cm^3
# Si number density = 21.247628 Si / 1000 Ang^3
#
#
#
# Elastic Constant Matrix: (Units=GPa)
#
#
# Indices 1 2 3 4 5 6 
#
# 1 62.8890 -7.0708 0.8651 0.0000 0.0000 0.0000
# 2 -7.0708 41.2550 -2.1786 0.0000 0.0000 0.0000
# 3 0.8651 -2.1786 82.0578 0.0000 0.0000 0.0000
# 4 0.0000 0.0000 0.0000 33.8807 0.0000 0.0000
# 5 0.0000 0.0000 0.0000 0.0000 19.9802 0.0000
# 6 0.0000 0.0000 0.0000 0.0000 0.0000 25.2013
#
#
#
# Elastic Compliance Matrix: (Units=1/GPa)
#
#
# Indices 1 2 3 4 5 6 
#
# 1 0.016214 0.002774 -0.000097 0.000000 0.000000 0.000000
# 2 0.002774 0.024748 0.000628 0.000000 0.000000 0.000000
# 3 -0.000097 0.000628 0.012204 0.000000 0.000000 0.000000
# 4 0.000000 0.000000 0.000000 0.029515 0.000000 0.000000
# 5 0.000000 0.000000 0.000000 0.000000 0.050050 0.000000
# 6 0.000000 0.000000 0.000000 0.000000 0.000000 0.039680
#
#
# Mechanical properties :
#
#
# Convention : Reuss Voigt Hill
#
# Bulk Modulus (GPa) = 16.72931 18.82590 17.77761
# Shear Modulus (GPa) = 26.92105 28.78484 27.85294
#
# Velocity S-wave (km/s) = 3.56338 3.68466 3.62453
# Velocity P-wave (km/s) = 4.98205 5.19440 5.08933
#
# Compressibility (1/GPa) = 0.05977533
#
# Stress axis : x y z
#
# Youngs Moduli (GPa) = 61.67416 40.40717 81.93886
#
# Poissons Ratio (x) = -0.11208 0.00797
# Poissons Ratio (y) = -0.17108 -0.05144
# Poissons Ratio (z) = 0.00600 -0.02537
#
# Static dielectric constant tensor:
#      x y z
#    x 4.482130 0.000000 0.000000 
#    y 0.000000 3.780800 0.000000 
#    z 0.000000 0.000000 3.805020 
# 
# 
# High freq. dielectric constant tensor:
#      x y z
#    x 1.836000 0.000000 0.000000 
#    y 0.000000 1.828670 0.000000 
#    z 0.000000 0.000000 1.831030 
# 
# From -- ./inp_files/20464.got.cif
#   From: 2010.03.12/outbox.cif.g09.slc.cpg/sg60_11_cif.got.tgz:20464.got - 2010.04.10 18:46:24.
