data_PCOD8246924
_publ_section_title
;
Structure prediction by ZEFSAII (Michael W. Deem and Ramdas Pophale) SiO2 
 PCOD8246924
Probable space group: P B C N
;
_chemical_formula_sum "Si O2"
_cell_formula_units_Z 44
_cell_length_a 14.487040
_cell_length_b 5.011026
_cell_length_c 27.416498
_cell_angle_alpha 90.000000
_cell_angle_beta 90.000000
_cell_angle_gamma 90.000000
_cell_volume 1990.298866
_symmetry_space_group_name_H-M "P B C N"
_symmetry_group_IT_number 60
_symmetry_cell_setting 'orthorhombic'
loop_
_space_group_symop_operation_xyz
x,y,z
1/2-x,1/2-y,1/2+z
1/2+x,1/2-y,-z
-x,y,1/2-z
-x,-y,-z
1/2+x,1/2+y,1/2-z
1/2-x,1/2+y,z
x,-y,1/2+z
loop_
_atom_site_type_symbol
_atom_site_label
_atom_site_fract_x
_atom_site_fract_y
_atom_site_fract_z
Si Si1 0.690230 0.167545 0.586743
Si Si2 0.500000 0.540670 0.750000
Si Si3 0.086546 0.320036 0.617434
Si Si4 0.189857 0.747163 0.020859
Si Si5 0.811029 0.754246 0.288405
Si Si6 0.980336 0.172256 0.146665
O O1 0.777312 0.363670 0.592920
O O2 0.645486 0.206647 0.532886
O O3 0.617765 0.225970 0.628734
O O4 0.590320 0.723370 0.760661
O O5 0.521428 0.346589 0.704959
O O6 0.113874 0.316596 0.561095
O O7 0.169918 0.231415 0.653272
O O8 0.059103 0.619759 0.631431
O O9 0.001102 0.117536 0.623723
O O10 0.277094 0.550842 0.027148
O O11 0.760895 0.482709 0.273204
#
# Coordination Sequence:
#
# PCOD8246924 Si02
#       6
#     8   4   8   8   8   8
#     4  10  22  40  61  88 120 160 205 245 305 381
#     4  10  26  44  62  94 128 162 218 268 310 370
#     4  11  22  38  61  91 122 156 202 255 313 374
#     4  10  20  36  60  88 122 158 196 248 303 371
#     4  11  23  40  64  90 121 163 206 255 316 371
#     4  11  24  40  61  86 123 162 202 264 312 360
#
# _framework density 22.107234999999999
#
# number of rings (size 3 to 8) (size 9 to 14) (size 15 to 20)
#    0.000    1.455    0.000    5.455    0.000    9.455 
#    0.000    0.000    0.000    0.000    0.000    0.000 
#    0.000    0.000    0.000    0.000    0.000    0.000 
#
# Total GULP energy -545773.717066 kJ/mol
# GULP energy per Si atom -12403.948115 kJ/mol
# Density = 2.205692 g / cm^3
# Si number density = 22.107235 Si / 1000 Ang^3
#
#
#
# Elastic Constant Matrix: (Units=GPa)
#
#
# Indices 1 2 3 4 5 6 
#
# 1 94.1118 12.3159 49.0943 0.0000 0.0000 0.0000
# 2 12.3159 81.4122 13.7024 0.0000 0.0000 0.0000
# 3 49.0943 13.7024 131.9725 0.0000 0.0000 0.0000
# 4 0.0000 0.0000 0.0000 24.9070 0.0000 0.0000
# 5 0.0000 0.0000 0.0000 0.0000 36.8386 0.0000
# 6 0.0000 0.0000 0.0000 0.0000 0.0000 25.6751
#
#
#
# Elastic Compliance Matrix: (Units=1/GPa)
#
#
# Indices 1 2 3 4 5 6 
#
# 1 0.013298 -0.001200 -0.004822 0.000000 0.000000 0.000000
# 2 -0.001200 0.012610 -0.000863 0.000000 0.000000 0.000000
# 3 -0.004822 -0.000863 0.009461 0.000000 0.000000 0.000000
# 4 0.000000 0.000000 0.000000 0.040149 0.000000 0.000000
# 5 0.000000 0.000000 0.000000 0.000000 0.027145 0.000000
# 6 0.000000 0.000000 0.000000 0.000000 0.000000 0.038948
#
#
# Mechanical properties :
#
#
# Convention : Reuss Voigt Hill
#
# Bulk Modulus (GPa) = 46.29956 50.85798 48.57877
# Shear Modulus (GPa) = 30.75363 32.97641 31.86502
#
# Velocity S-wave (km/s) = 3.73381 3.86639 3.80068
# Velocity P-wave (km/s) = 6.29103 6.55645 6.42511
#
# Compressibility (1/GPa) = 0.02159848
#
# Stress axis : x y z
#
# Youngs Moduli (GPa) = 75.19710 79.30254 105.69825
#
# Poissons Ratio (x) = 0.09517 0.50972
# Poissons Ratio (y) = 0.09024 0.09120
# Poissons Ratio (z) = 0.36263 0.06842
#
# Static dielectric constant tensor:
#      x y z
#    x 3.685140 0.000000 0.000000 
#    y 0.000000 4.125860 0.000000 
#    z 0.000000 0.000000 4.082190 
# 
# 
# High freq. dielectric constant tensor:
#      x y z
#    x 1.851190 0.000000 0.000000 
#    y 0.000000 1.886270 0.000000 
#    z 0.000000 0.000000 1.872650 
# 
# From -- ./inp_files/25389.got.cif
#   From: 2010.03.12/outbox.cif.g09.slc.cpg/sg60_13_cif.got.tgz:25389.got - 2010.04.10 18:46:24.
