data_PCOD8246531
_publ_section_title
;
Structure prediction by ZEFSAII (Michael W. Deem and Ramdas Pophale) SiO2 
 PCOD8246531
Probable space group: P B C N
;
_chemical_formula_sum "Si O2"
_cell_formula_units_Z 48
_cell_length_a 20.398875
_cell_length_b 21.251150
_cell_length_c 5.335228
_cell_angle_alpha 90.000000
_cell_angle_beta 90.000000
_cell_angle_gamma 90.000000
_cell_volume 2312.818950
_symmetry_space_group_name_H-M "P B C N"
_symmetry_group_IT_number 60
_symmetry_cell_setting 'orthorhombic'
loop_
_space_group_symop_operation_xyz
x,y,z
1/2-x,1/2-y,1/2+z
1/2+x,1/2-y,-z
-x,y,1/2-z
-x,-y,-z
1/2+x,1/2+y,1/2-z
1/2-x,1/2+y,z
x,-y,1/2+z
loop_
_atom_site_type_symbol
_atom_site_label
_atom_site_fract_x
_atom_site_fract_y
_atom_site_fract_z
Si Si1 0.262131 0.837211 0.989679
Si Si2 0.617504 0.840932 0.173535
Si Si3 0.278886 0.970452 0.819996
Si Si4 0.077016 0.477740 0.388094
Si Si5 0.538877 0.245944 0.991084
Si Si6 0.655849 0.262237 0.284774
O O1 0.309881 0.853633 0.221605
O O2 0.188167 0.822994 0.084017
O O3 0.262949 0.896326 0.803235
O O4 0.284828 0.775257 0.843515
O O5 0.591471 0.904947 0.048556
O O6 0.566921 0.821541 0.395356
O O7 0.617304 0.783854 0.975586
O O8 0.246493 0.001201 0.572702
O O9 0.356743 0.983086 0.817947
O O10 0.039734 0.513538 0.618711
O O11 0.500000 0.276787 0.750000
O O12 0.500000 0.236144 0.250000
O O13 0.603517 0.286199 0.074004
#
# Coordination Sequence:
#
# PCOD8246531 Si02
#       6
#     8   8   8   8   8   8
#     4  11  21  32  55  91 126 146 192 229 312 363
#     4  11  21  36  59  82 116 152 191 240 292 353
#     4  10  19  33  50  75 116 163 184 220 269 368
#     4  10  19  31  51  78 105 153 190 222 278 347
#     4  11  24  43  59  78 108 157 208 243 288 341
#     4  11  22  35  58  91 119 154 181 252 300 361
#
# _framework density 20.753895
#
# number of rings (size 3 to 8) (size 9 to 14) (size 15 to 20)
#    0.000    1.333    6.667    2.000    2.333    0.000 
#    0.000    0.000    0.000    3.000    0.000    0.000 
#    0.000    4.000    0.000    0.000    0.000    0.000 
#
# Total GULP energy -594849.130695 kJ/mol
# GULP energy per Si atom -12392.690223 kJ/mol
# Density = 2.070666 g / cm^3
# Si number density = 20.753895 Si / 1000 Ang^3
#
#
#
# Elastic Constant Matrix: (Units=GPa)
#
#
# Indices 1 2 3 4 5 6 
#
# 1 71.9001 29.3894 39.2279 0.0000 0.0000 0.0000
# 2 29.3894 41.1746 12.4411 0.0000 0.0000 0.0000
# 3 39.2279 12.4411 133.1064 0.0000 0.0000 0.0000
# 4 0.0000 0.0000 0.0000 24.3165 0.0000 0.0000
# 5 0.0000 0.0000 0.0000 0.0000 36.9834 0.0000
# 6 0.0000 0.0000 0.0000 0.0000 0.0000 12.8581
#
#
#
# Elastic Compliance Matrix: (Units=1/GPa)
#
#
# Indices 1 2 3 4 5 6 
#
# 1 0.022830 -0.014677 -0.005356 0.000000 0.000000 0.000000
# 2 -0.014677 0.034428 0.001108 0.000000 0.000000 0.000000
# 3 -0.005356 0.001108 0.008988 0.000000 0.000000 0.000000
# 4 0.000000 0.000000 0.000000 0.041124 0.000000 0.000000
# 5 0.000000 0.000000 0.000000 0.000000 0.027039 0.000000
# 6 0.000000 0.000000 0.000000 0.000000 0.000000 0.077772
#
#
# Mechanical properties :
#
#
# Convention : Reuss Voigt Hill
#
# Bulk Modulus (GPa) = 35.21829 45.36644 40.29237
# Shear Modulus (GPa) = 19.26799 25.83976 22.55387
#
# Velocity S-wave (km/s) = 3.05028 3.53236 3.30013
# Velocity P-wave (km/s) = 5.42327 6.20834 5.82904
#
# Compressibility (1/GPa) = 0.02839434
#
# Stress axis : x y z
#
# Youngs Moduli (GPa) = 43.80237 29.04600 111.26123
#
# Poissons Ratio (x) = 0.42630 0.59596
# Poissons Ratio (y) = 0.64288 -0.12323
# Poissons Ratio (z) = 0.23462 -0.03217
#
# Static dielectric constant tensor:
#      x y z
#    x 3.715070 0.000000 0.000000 
#    y 0.000000 3.302600 0.000000 
#    z 0.000000 0.000000 4.639350 
# 
# 
# High freq. dielectric constant tensor:
#      x y z
#    x 1.791060 0.000000 0.000000 
#    y 0.000000 1.754800 0.000000 
#    z 0.000000 0.000000 1.850400 
# 
# From -- ./inp_files/2059.got.cif
#   From: 2010.03.12/outbox.cif.g09.slc.cpg/sg60_2_cif.got.tgz:2059.got - 2010.04.10 18:46:24.
