data_PCOD8246044
_publ_section_title
;
Structure prediction by ZEFSAII (Michael W. Deem and Ramdas Pophale) SiO2 
 PCOD8246044
Probable space group: P M M N
;
_chemical_formula_sum "Si O2"
_cell_formula_units_Z 64
_cell_length_a 14.709880
_cell_length_b 9.081730
_cell_length_c 23.919850
_cell_angle_alpha 90.000000
_cell_angle_beta 90.000000
_cell_angle_gamma 90.000000
_cell_volume 3195.480472
_symmetry_space_group_name_H-M "P M M N"
_symmetry_group_IT_number 59
_space_group.IT_coordinate_system_code '2'
_symmetry_cell_setting 'orthorhombic'
loop_
_space_group_symop_operation_xyz
x,y,z
1/2-x,1/2-y,z
1/2+x,-y,-z
-x,1/2+y,-z
-x,-y,-z
1/2+x,1/2+y,-z
1/2-x,y,z
x,1/2-y,z
loop_
_atom_site_type_symbol
_atom_site_label
_atom_site_fract_x
_atom_site_fract_y
_atom_site_fract_z
Si Si1 0.982464 0.425257 0.252425
Si Si2 0.354521 0.924097 0.307243
Si Si3 0.649737 0.575351 0.043871
Si Si4 0.512624 0.574802 0.138490
Si Si5 0.856207 0.577658 0.341057
Si Si6 0.141954 0.412367 0.534686
Si Si7 0.357511 0.588837 0.431176
Si Si8 0.644255 0.920053 0.918477
O O1 0.982755 0.250000 0.248084
O O2 0.951043 0.497047 0.194281
O O3 0.912279 0.476857 0.299311
O O4 0.083747 0.483709 0.265109
O O5 0.250000 0.959221 0.293011
O O6 0.373470 0.750000 0.301415
O O7 0.379273 0.978944 0.370202
O O8 0.750000 0.513301 0.059098
O O9 0.653503 0.750000 0.044418
O O10 0.577737 0.517128 0.088794
O O11 0.622332 0.524517 0.981460
O O12 0.514901 0.750000 0.146173
O O13 0.410928 0.521636 0.124513
O O14 0.750000 0.550684 0.330073
O O15 0.879853 0.750000 0.332683
O O16 0.883712 0.525589 0.403921
O O17 0.250000 0.409330 0.529345
O O18 0.101822 0.250000 0.529123
O O19 0.098267 0.501419 0.482959
O O20 0.250000 0.598614 0.438315
O O21 0.401157 0.750000 0.433974
O O22 0.750000 0.941202 0.904917
O O23 0.615722 0.750000 0.910518
#
# Coordination Sequence:
#
# PCOD8246044 Si02
#       8
#     8   8   8   8   8   8   8   8
#     4  12  26  40  55  79 111 146 189 237 281 327
#     4   9  19  38  61  81 105 141 184 230 280 334
#     4   8  16  33  58  87 115 144 179 217 263 321
#     4  11  22  36  57  82 110 147 188 228 269 318
#     4   9  19  38  61  81 106 144 186 228 276 329
#     4   8  14  26  48  78 107 135 170 214 267 328
#     4   8  14  26  48  78 107 134 167 213 272 333
#     4   9  18  35  59  86 117 148 177 217 269 320
#
# _framework density 20.028286000000001
#
# number of rings (size 3 to 8) (size 9 to 14) (size 15 to 20)
#    0.000    2.750    0.000    4.125    0.000    2.750 
#    0.000    5.000    0.000    2.625    0.000    0.000 
#    0.000    0.000    0.000    0.000    0.000    0.000 
#
# Total GULP energy -793341.222178 kJ/mol
# GULP energy per Si atom -12395.956597 kJ/mol
# Density = 1.998270 g / cm^3
# Si number density = 20.028286 Si / 1000 Ang^3
#
#
#
# Elastic Constant Matrix: (Units=GPa)
#
#
# Indices 1 2 3 4 5 6 
#
# 1 41.9067 19.7182 9.6699 0.0000 0.0000 0.0000
# 2 19.7182 76.6272 29.8355 0.0000 0.0000 0.0000
# 3 9.6699 29.8355 77.0491 0.0000 0.0000 0.0000
# 4 0.0000 0.0000 0.0000 34.3531 0.0000 0.0000
# 5 0.0000 0.0000 0.0000 0.0000 2.1733 0.0000
# 6 0.0000 0.0000 0.0000 0.0000 0.0000 24.9095
#
#
#
# Elastic Compliance Matrix: (Units=1/GPa)
#
#
# Indices 1 2 3 4 5 6 
#
# 1 0.027195 -0.006675 -0.000828 0.000000 0.000000 0.000000
# 2 -0.006675 0.017006 -0.005747 0.000000 0.000000 0.000000
# 3 -0.000828 -0.005747 0.015308 0.000000 0.000000 0.000000
# 4 0.000000 0.000000 0.000000 0.029109 0.000000 0.000000
# 5 0.000000 0.000000 0.000000 0.000000 0.460126 0.000000
# 6 0.000000 0.000000 0.000000 0.000000 0.000000 0.040145
#
#
# Mechanical properties :
#
#
# Convention : Reuss Voigt Hill
#
# Bulk Modulus (GPa) = 30.29675 34.89224 32.59449
# Shear Modulus (GPa) = 7.98220 21.37780 14.68000
#
# Velocity S-wave (km/s) = 1.99853 3.27062 2.71027
# Velocity P-wave (km/s) = 4.52607 5.63222 5.10917
#
# Compressibility (1/GPa) = 0.03300684
#
# Stress axis : x y z
#
# Youngs Moduli (GPa) = 36.77199 58.80365 65.32459
#
# Poissons Ratio (x) = 0.39254 0.05409
# Poissons Ratio (y) = 0.24547 0.37544
# Poissons Ratio (z) = 0.03045 0.33796
#
# Static dielectric constant tensor:
#      x y z
#    x 3.564680 0.000000 0.000000 
#    y 0.000000 3.511760 0.000000 
#    z 0.000000 0.000000 3.825240 
# 
# 
# High freq. dielectric constant tensor:
#      x y z
#    x 1.776680 0.000000 0.000000 
#    y 0.000000 1.754660 0.000000 
#    z 0.000000 0.000000 1.788840 
# 
# From -- ./inp_files/32188.got.cif
#   From: 2010.03.12/outbox.cif.g09.slc.cpg/sg59_17_cif.got.tgz:32188.got - 2010.04.16 16:29:54.
