data_PCOD8246909
_publ_section_title
;
Structure prediction by ZEFSAII (Michael W. Deem and Ramdas Pophale) SiO2 
 PCOD8246909
Probable space group: P B C N
;
_chemical_formula_sum "Si O2"
_cell_formula_units_Z 64
_cell_length_a 28.149599
_cell_length_b 18.224589
_cell_length_c 5.347535
_cell_angle_alpha 90.000000
_cell_angle_beta 90.000000
_cell_angle_gamma 90.000000
_cell_volume 2743.364985
_symmetry_space_group_name_H-M "P B C N"
_symmetry_group_IT_number 60
_symmetry_cell_setting 'orthorhombic'
loop_
_space_group_symop_operation_xyz
x,y,z
1/2-x,1/2-y,1/2+z
1/2+x,1/2-y,-z
-x,y,1/2-z
-x,-y,-z
1/2+x,1/2+y,1/2-z
1/2-x,1/2+y,z
x,-y,1/2+z
loop_
_atom_site_type_symbol
_atom_site_label
_atom_site_fract_x
_atom_site_fract_y
_atom_site_fract_z
Si Si1 0.395701 0.027631 0.049561
Si Si2 0.554195 0.721501 0.265472
Si Si3 0.790622 0.467737 0.529690
Si Si4 0.680951 0.297398 0.209964
Si Si5 0.446391 0.630343 0.735063
Si Si6 0.630118 0.814107 0.034009
Si Si7 0.642994 0.542562 0.726801
Si Si8 0.713969 0.186444 0.862475
O O1 0.390808 0.114500 0.106307
O O2 0.422682 0.010955 0.784590
O O3 0.345840 0.987886 0.983664
O O4 0.500000 0.750660 0.250000
O O5 0.564514 0.686403 0.536883
O O6 0.590594 0.789514 0.237491
O O7 0.562976 0.664745 0.038017
O O8 0.765379 0.495133 0.271887
O O9 0.784368 0.380098 0.561785
O O10 0.639376 0.256942 0.362214
O O11 0.671380 0.382552 0.186496
O O12 0.682996 0.257299 0.943500
O O13 0.733212 0.284765 0.321716
O O14 0.500000 0.601439 0.750000
O O15 0.413159 0.559463 0.771017
O O16 0.681878 0.842094 0.132087
O O17 0.657408 0.491346 0.494223
#
# Coordination Sequence:
#
# PCOD8246909 Si02
#       8
#     8   8   8   8   8   8   8   8
#     4  10  20  36  58  92 122 161 214 251 317 382
#     4  10  22  40  70 104 131 170 223 281 344 400
#     4  10  20  38  59  88 123 158 211 259 307 377
#     4  12  27  43  64  97 128 176 231 275 334 402
#     4  10  21  43  71  99 133 170 227 283 332 413
#     4  12  23  41  69  92 132 176 209 293 324 392
#     4  12  28  47  67  97 142 184 220 280 356 404
#     4  12  25  40  68  92 130 173 228 276 325 390
#
# _framework density 23.329015999999999
#
# number of rings (size 3 to 8) (size 9 to 14) (size 15 to 20)
#    0.000    1.000    5.000    3.000    1.750    1.500 
#    0.000    0.000    0.000    0.750    0.000    0.000 
#    0.000    0.000    0.000    0.000    0.000    0.000 
#
# Total GULP energy -793204.266452 kJ/mol
# GULP energy per Si atom -12393.816663 kJ/mol
# Density = 2.327592 g / cm^3
# Si number density = 23.329016 Si / 1000 Ang^3
#
#
#
# Elastic Constant Matrix: (Units=GPa)
#
#
# Indices 1 2 3 4 5 6 
#
# 1 48.9507 19.0056 18.5806 0.0000 0.0000 0.0000
# 2 19.0056 114.7143 28.1348 0.0000 0.0000 0.0000
# 3 18.5806 28.1348 134.7505 0.0000 0.0000 0.0000
# 4 0.0000 0.0000 0.0000 34.8671 0.0000 0.0000
# 5 0.0000 0.0000 0.0000 0.0000 25.7825 0.0000
# 6 0.0000 0.0000 0.0000 0.0000 0.0000 19.4047
#
#
#
# Elastic Compliance Matrix: (Units=1/GPa)
#
#
# Indices 1 2 3 4 5 6 
#
# 1 0.022580 -0.003138 -0.002458 0.000000 0.000000 0.000000
# 2 -0.003138 0.009624 -0.001577 0.000000 0.000000 0.000000
# 3 -0.002458 -0.001577 0.008089 0.000000 0.000000 0.000000
# 4 0.000000 0.000000 0.000000 0.028680 0.000000 0.000000
# 5 0.000000 0.000000 0.000000 0.000000 0.038786 0.000000
# 6 0.000000 0.000000 0.000000 0.000000 0.000000 0.051534
#
#
# Mechanical properties :
#
#
# Convention : Reuss Voigt Hill
#
# Bulk Modulus (GPa) = 38.53984 47.76196 43.15090
# Shear Modulus (GPa) = 27.42893 31.52380 29.47636
#
# Velocity S-wave (km/s) = 3.43263 3.67995 3.55844
# Velocity P-wave (km/s) = 5.68037 6.21077 5.95148
#
# Compressibility (1/GPa) = 0.02594718
#
# Stress axis : x y z
#
# Youngs Moduli (GPa) = 44.28643 103.90770 123.62007
#
# Poissons Ratio (x) = 0.32608 0.30390
# Poissons Ratio (y) = 0.13898 0.19491
# Poissons Ratio (z) = 0.10887 0.16383
#
# Static dielectric constant tensor:
#      x y z
#    x 4.057800 0.000000 0.000000 
#    y 0.000000 4.038380 0.000000 
#    z 0.000000 0.000000 5.107640 
# 
# 
# High freq. dielectric constant tensor:
#      x y z
#    x 1.900020 0.000000 0.000000 
#    y 0.000000 1.919150 0.000000 
#    z 0.000000 0.000000 1.933020 
# 
# From -- ./inp_files/2735.got.cif
#   From: 2010.03.12/outbox.cif.g09.slc.cpg/sg60_2_cif.got.tgz:2735.got - 2010.04.10 18:46:24.
