data_PCOD8246533
_publ_section_title
;
Structure prediction by ZEFSAII (Michael W. Deem and Ramdas Pophale) SiO2 
 PCOD8246533
Probable space group: P B C N
;
_chemical_formula_sum "Si O2"
_cell_formula_units_Z 64
_cell_length_a 20.178695
_cell_length_b 8.873736
_cell_length_c 19.217603
_cell_angle_alpha 90.000000
_cell_angle_beta 90.000000
_cell_angle_gamma 90.000000
_cell_volume 3441.111916
_symmetry_space_group_name_H-M "P B C N"
_symmetry_group_IT_number 60
_symmetry_cell_setting 'orthorhombic'
loop_
_space_group_symop_operation_xyz
x,y,z
1/2-x,1/2-y,1/2+z
1/2+x,1/2-y,-z
-x,y,1/2-z
-x,-y,-z
1/2+x,1/2+y,1/2-z
1/2-x,1/2+y,z
x,-y,1/2+z
loop_
_atom_site_type_symbol
_atom_site_label
_atom_site_fract_x
_atom_site_fract_y
_atom_site_fract_z
Si Si1 0.901868 0.995539 0.460672
Si Si2 0.708190 0.360227 0.040373
Si Si3 0.495292 0.253117 0.506948
Si Si4 0.746288 0.295245 0.752042
Si Si5 0.291390 0.557039 0.652084
Si Si6 0.198744 0.549788 0.840335
Si Si7 0.418288 0.996071 0.947363
Si Si8 0.694669 0.052836 0.964692
O O1 0.854556 0.951848 0.397461
O O2 0.946398 0.850925 0.473882
O O3 0.859035 0.042838 0.528853
O O4 0.947991 0.141459 0.445352
O O5 0.736880 0.396454 0.115908
O O6 0.700641 0.182591 0.024742
O O7 0.759971 0.410684 0.982044
O O8 0.454263 0.167900 0.444921
O O9 0.526946 0.126646 0.556717
O O10 0.709226 0.401104 0.806655
O O11 0.800064 0.193264 0.793443
O O12 0.786434 0.390667 0.695259
O O13 0.691561 0.184002 0.716442
O O14 0.220574 0.595213 0.612250
O O15 0.132379 0.526875 0.884655
O O16 0.381193 0.001408 0.024072
#
# Coordination Sequence:
#
# PCOD8246533 Si02
#       8
#     8   8   8   8   8   8   8   8
#     4  10  21  36  57  84 115 141 186 236 288 340
#     4  10  19  31  56  87 110 140 176 239 307 335
#     4  10  22  36  54  90 108 152 178 224 304 324
#     4  10  22  36  54  88 108 156 186 220 296 320
#     4  10  21  36  57  84 116 144 188 237 282 344
#     4  10  21  36  57  84 116 144 188 237 282 344
#     4  10  21  36  57  84 115 141 186 236 288 340
#     4  10  19  31  56  87 110 140 176 239 307 335
#
# _framework density 18.59864
#
# number of rings (size 3 to 8) (size 9 to 14) (size 15 to 20)
#    0.000    2.000    1.250    3.000   10.500    0.000 
#    0.000    0.000    0.000    4.500    0.000    0.000 
#    0.000    0.000    0.000    0.000    0.000    0.000 
#
# Total GULP energy -792859.839827 kJ/mol
# GULP energy per Si atom -12388.434997 kJ/mol
# Density = 1.855631 g / cm^3
# Si number density = 18.598640 Si / 1000 Ang^3
#
#
#
# Elastic Constant Matrix: (Units=GPa)
#
#
# Indices 1 2 3 4 5 6 
#
# 1 87.3055 26.0158 30.6260 0.0000 0.0000 0.0000
# 2 26.0158 100.2922 30.3985 0.0000 0.0000 0.0000
# 3 30.6260 30.3985 83.1047 0.0000 0.0000 0.0000
# 4 0.0000 0.0000 0.0000 25.4264 0.0000 0.0000
# 5 0.0000 0.0000 0.0000 0.0000 23.5703 0.0000
# 6 0.0000 0.0000 0.0000 0.0000 0.0000 27.7336
#
#
#
# Elastic Compliance Matrix: (Units=1/GPa)
#
#
# Indices 1 2 3 4 5 6 
#
# 1 0.013595 -0.002258 -0.004184 0.000000 0.000000 0.000000
# 2 -0.002258 0.011589 -0.003407 0.000000 0.000000 0.000000
# 3 -0.004184 -0.003407 0.014821 0.000000 0.000000 0.000000
# 4 0.000000 0.000000 0.000000 0.039329 0.000000 0.000000
# 5 0.000000 0.000000 0.000000 0.000000 0.042426 0.000000
# 6 0.000000 0.000000 0.000000 0.000000 0.000000 0.036057
#
#
# Mechanical properties :
#
#
# Convention : Reuss Voigt Hill
#
# Bulk Modulus (GPa) = 49.24479 49.42036 49.33257
# Shear Modulus (GPa) = 27.13186 27.59019 27.36102
#
# Velocity S-wave (km/s) = 3.82358 3.85574 3.83969
# Velocity P-wave (km/s) = 6.78440 6.81557 6.80000
#
# Compressibility (1/GPa) = 0.02030672
#
# Stress axis : x y z
#
# Youngs Moduli (GPa) = 73.55839 86.28636 67.47145
#
# Poissons Ratio (x) = 0.19486 0.28229
# Poissons Ratio (y) = 0.16612 0.22987
# Poissons Ratio (z) = 0.30776 0.29397
#
# Static dielectric constant tensor:
#      x y z
#    x 3.518670 0.000000 0.000000 
#    y 0.000000 3.709510 0.000000 
#    z 0.000000 0.000000 3.369520 
# 
# 
# High freq. dielectric constant tensor:
#      x y z
#    x 1.707340 0.000000 0.000000 
#    y 0.000000 1.752660 0.000000 
#    z 0.000000 0.000000 1.690910 
# 
# From -- ./inp_files/23230.got.cif
#   From: 2010.03.12/outbox.cif.g09.slc.cpg/sg60_12_cif.got.tgz:23230.got - 2010.04.10 18:46:24.
