data_PCOD8246316
_publ_section_title
;
Structure prediction by ZEFSAII (Michael W. Deem and Ramdas Pophale) SiO2 
 PCOD8246316
Probable space group: P B C N
;
_chemical_formula_sum "Si O2"
_cell_formula_units_Z 48
_cell_length_a 23.827582
_cell_length_b 26.597121
_cell_length_c 4.929668
_cell_angle_alpha 90.000000
_cell_angle_beta 90.000000
_cell_angle_gamma 90.000000
_cell_volume 3124.152849
_symmetry_space_group_name_H-M "P B C N"
_symmetry_group_IT_number 60
_symmetry_cell_setting 'orthorhombic'
loop_
_space_group_symop_operation_xyz
x,y,z
1/2-x,1/2-y,1/2+z
1/2+x,1/2-y,-z
-x,y,1/2-z
-x,-y,-z
1/2+x,1/2+y,1/2-z
1/2-x,1/2+y,z
x,-y,1/2+z
loop_
_atom_site_type_symbol
_atom_site_label
_atom_site_fract_x
_atom_site_fract_y
_atom_site_fract_z
Si Si1 0.218977 0.233817 0.180184
Si Si2 0.914179 0.531278 0.251641
Si Si3 0.723049 0.860299 0.928958
Si Si4 0.154897 0.325088 0.071317
Si Si5 0.036027 0.631706 0.485493
Si Si6 0.782423 0.531592 0.258645
O O1 0.234337 0.236770 0.497636
O O2 0.221112 0.175524 0.081959
O O3 0.161327 0.264872 0.131323
O O4 0.930999 0.514930 0.554415
O O5 0.848359 0.542355 0.248908
O O6 0.946018 0.580709 0.164020
O O7 0.676509 0.838398 0.726166
O O8 0.745119 0.915758 0.850204
O O9 0.692159 0.858872 0.220615
O O10 0.089107 0.336408 0.087005
O O11 0.000000 0.619783 0.750000
O O12 0.000000 0.660643 0.250000
O O13 0.763675 0.487222 0.463434
#
# Coordination Sequence:
#
# PCOD8246316 Si02
#       6
#     8   8   8   8   8   8
#     4   8  16  28  46  67  78  96 125 162 214 247
#     4  10  21  33  44  54  73 104 143 181 213 237
#     4  10  17  30  49  63  81 103 130 168 207 248
#     4  10  19  32  46  61  82 100 131 179 206 251
#     4  12  24  33  44  58  76 108 141 175 219 244
#     4  10  19  28  43  62  82 108 135 163 208 248
#
# _framework density 15.364166000000001
#
# number of rings (size 3 to 8) (size 9 to 14) (size 15 to 20)
#    0.000    2.000    1.667    3.000    4.667    2.000 
#    0.000    0.000    0.000    0.000    0.000    0.000 
#    0.000    0.000    0.000    0.000    0.000    5.000 
#
# Total GULP energy -594780.601183 kJ/mol
# GULP energy per Si atom -12391.262525 kJ/mol
# Density = 1.532920 g / cm^3
# Si number density = 15.364166 Si / 1000 Ang^3
#
#
#
# Elastic Constant Matrix: (Units=GPa)
#
#
# Indices 1 2 3 4 5 6 
#
# 1 34.4587 37.8295 5.6828 0.0000 0.0000 0.0000
# 2 37.8295 91.3895 8.9793 0.0000 0.0000 0.0000
# 3 5.6828 8.9793 63.5870 0.0000 0.0000 0.0000
# 4 0.0000 0.0000 0.0000 17.6179 0.0000 0.0000
# 5 0.0000 0.0000 0.0000 0.0000 14.8872 0.0000
# 6 0.0000 0.0000 0.0000 0.0000 0.0000 10.1108
#
#
#
# Elastic Compliance Matrix: (Units=1/GPa)
#
#
# Indices 1 2 3 4 5 6 
#
# 1 0.053368 -0.021926 -0.001673 0.000000 0.000000 0.000000
# 2 -0.021926 0.020105 -0.000879 0.000000 0.000000 0.000000
# 3 -0.001673 -0.000879 0.016000 0.000000 0.000000 0.000000
# 4 0.000000 0.000000 0.000000 0.056760 0.000000 0.000000
# 5 0.000000 0.000000 0.000000 0.000000 0.067172 0.000000
# 6 0.000000 0.000000 0.000000 0.000000 0.000000 0.098904
#
#
# Mechanical properties :
#
#
# Convention : Reuss Voigt Hill
#
# Bulk Modulus (GPa) = 24.68260 32.71315 28.69788
# Shear Modulus (GPa) = 13.34147 17.65277 15.49712
#
# Velocity S-wave (km/s) = 2.94997 3.39330 3.17938
# Velocity P-wave (km/s) = 5.26337 6.05729 5.67423
#
# Compressibility (1/GPa) = 0.04051437
#
# Stress axis : x y z
#
# Youngs Moduli (GPa) = 18.73798 49.73950 62.49917
#
# Poissons Ratio (x) = 1.09061 0.10457
# Poissons Ratio (y) = 0.41086 0.05497
# Poissons Ratio (z) = 0.03135 0.04375
#
# Static dielectric constant tensor:
#      x y z
#    x 2.722710 0.000000 0.000000 
#    y 0.000000 3.089190 0.000000 
#    z 0.000000 0.000000 3.255300 
# 
# 
# High freq. dielectric constant tensor:
#      x y z
#    x 1.521660 0.000000 0.000000 
#    y 0.000000 1.576650 0.000000 
#    z 0.000000 0.000000 1.621530 
# 
# From -- ./inp_files/1318.got.cif
#   From: 2010.03.12/outbox.cif.g09.slc.cpg/sg60_1_cif.got.tgz:1318.got - 2010.04.10 18:46:24.
