data_PCOD8246866
_publ_section_title
;
Structure prediction by ZEFSAII (Michael W. Deem and Ramdas Pophale) SiO2 
 PCOD8246866
Probable space group: P B C N
;
_chemical_formula_sum "Si O2"
_cell_formula_units_Z 40
_cell_length_a 16.990638
_cell_length_b 14.425806
_cell_length_c 9.711635
_cell_angle_alpha 90.000000
_cell_angle_beta 90.000000
_cell_angle_gamma 90.000000
_cell_volume 2380.357163
_symmetry_space_group_name_H-M "P B C N"
_symmetry_group_IT_number 60
_symmetry_cell_setting 'orthorhombic'
loop_
_space_group_symop_operation_xyz
x,y,z
1/2-x,1/2-y,1/2+z
1/2+x,1/2-y,-z
-x,y,1/2-z
-x,-y,-z
1/2+x,1/2+y,1/2-z
1/2-x,1/2+y,z
x,-y,1/2+z
loop_
_atom_site_type_symbol
_atom_site_label
_atom_site_fract_x
_atom_site_fract_y
_atom_site_fract_z
Si Si1 0.258309 0.307709 0.341734
Si Si2 0.816904 0.509728 0.538247
Si Si3 0.413081 0.072311 0.214852
Si Si4 0.716100 0.346635 0.454458
Si Si5 0.586686 0.708839 0.779463
O O1 0.217709 0.392240 0.418209
O O2 0.230078 0.212927 0.409515
O O3 0.354476 0.312850 0.349430
O O4 0.235504 0.305789 0.178502
O O5 0.854070 0.453097 0.663137
O O6 0.883916 0.523103 0.423900
O O7 0.743432 0.451435 0.479547
O O8 0.500000 0.034279 0.250000
O O9 0.415299 0.181870 0.191160
O O10 0.622899 0.342714 0.414915
O O11 0.500000 0.669213 0.750000
#
# Coordination Sequence:
#
# PCOD8246866 Si02
#       5
#     8   8   8   8   8
#     4  10  20  35  57  79 105 142 181 219 259 323
#     4  12  19  36  53  84 108 142 186 218 265 324
#     4  11  21  32  54  81 114 144 172 220 279 325
#     4  10  20  35  57  79 105 142 181 219 259 323
#     4   9  19  36  54  75 106 144 174 216 273 313
#
# _framework density 16.804200999999999
#
# number of rings (size 3 to 8) (size 9 to 14) (size 15 to 20)
#    1.200    0.400    6.000    0.600    0.000    0.000 
#    0.000    1.000    0.000    0.000    0.000    0.000 
#    0.000    0.000    0.000    0.000    0.000    0.000 
#
# Total GULP energy -495624.360386 kJ/mol
# GULP energy per Si atom -12390.609010 kJ/mol
# Density = 1.676595 g / cm^3
# Si number density = 16.804201 Si / 1000 Ang^3
#
#
#
# Elastic Constant Matrix: (Units=GPa)
#
#
# Indices 1 2 3 4 5 6 
#
# 1 84.5579 1.1101 -6.4749 0.0000 0.0000 0.0000
# 2 1.1101 41.7456 -5.6665 0.0000 0.0000 0.0000
# 3 -6.4749 -5.6665 52.2524 0.0000 0.0000 0.0000
# 4 0.0000 0.0000 0.0000 11.8564 0.0000 0.0000
# 5 0.0000 0.0000 0.0000 0.0000 27.9486 0.0000
# 6 0.0000 0.0000 0.0000 0.0000 0.0000 20.9509
#
#
#
# Elastic Compliance Matrix: (Units=1/GPa)
#
#
# Indices 1 2 3 4 5 6 
#
# 1 0.011940 -0.000118 0.001467 0.000000 0.000000 0.000000
# 2 -0.000118 0.024314 0.002622 0.000000 0.000000 0.000000
# 3 0.001467 0.002622 0.019604 0.000000 0.000000 0.000000
# 4 0.000000 0.000000 0.000000 0.084343 0.000000 0.000000
# 5 0.000000 0.000000 0.000000 0.000000 0.035780 0.000000
# 6 0.000000 0.000000 0.000000 0.000000 0.000000 0.047731
#
#
# Mechanical properties :
#
#
# Convention : Reuss Voigt Hill
#
# Bulk Modulus (GPa) = 15.67436 17.38813 16.53125
# Shear Modulus (GPa) = 21.09380 24.79032 22.94206
#
# Velocity S-wave (km/s) = 3.54682 3.84506 3.69895
# Velocity P-wave (km/s) = 5.11089 5.48476 5.30112
#
# Compressibility (1/GPa) = 0.06379844
#
# Stress axis : x y z
#
# Youngs Moduli (GPa) = 83.75152 41.12912 51.01002
#
# Poissons Ratio (x) = 0.00487 -0.07482
# Poissons Ratio (y) = 0.00992 -0.13375
# Poissons Ratio (z) = -0.12284 -0.10784
#
# Static dielectric constant tensor:
#      x y z
#    x 3.219580 0.000000 0.000000 
#    y 0.000000 2.997430 0.000000 
#    z 0.000000 0.000000 3.128340 
# 
# 
# High freq. dielectric constant tensor:
#      x y z
#    x 1.636780 0.000000 0.000000 
#    y 0.000000 1.639580 0.000000 
#    z 0.000000 0.000000 1.646330 
# 
# From -- ./inp_files/6622.got.cif
#   From: 2010.03.12/outbox.cif.g09.slc.cpg/sg60_4_cif.got.tgz:6622.got - 2010.04.10 18:46:24.
