data_PCOD8246683
_publ_section_title
;
Structure prediction by ZEFSAII (Michael W. Deem and Ramdas Pophale) SiO2 
 PCOD8246683
Probable space group: P B C N
;
_chemical_formula_sum "Si O2"
_cell_formula_units_Z 40
_cell_length_a 8.776912
_cell_length_b 8.945255
_cell_length_c 21.913666
_cell_angle_alpha 90.000000
_cell_angle_beta 90.000000
_cell_angle_gamma 90.000000
_cell_volume 1720.479520
_symmetry_space_group_name_H-M "P B C N"
_symmetry_group_IT_number 60
_symmetry_cell_setting 'orthorhombic'
loop_
_space_group_symop_operation_xyz
x,y,z
1/2-x,1/2-y,1/2+z
1/2+x,1/2-y,-z
-x,y,1/2-z
-x,-y,-z
1/2+x,1/2+y,1/2-z
1/2-x,1/2+y,z
x,-y,1/2+z
loop_
_atom_site_type_symbol
_atom_site_label
_atom_site_fract_x
_atom_site_fract_y
_atom_site_fract_z
Si Si1 0.745898 0.042295 0.281000
Si Si2 0.916940 0.207427 0.039707
Si Si3 0.949784 0.706107 0.840636
Si Si4 0.699596 0.708025 0.697558
Si Si5 0.626932 0.625600 0.565794
O O1 0.854594 0.149352 0.320023
O O2 0.649873 0.140249 0.231682
O O3 0.634266 0.949144 0.325226
O O4 0.848276 0.928079 0.241386
O O5 0.775228 0.316817 0.030534
O O6 0.035930 0.285481 0.085849
O O7 0.862695 0.052832 0.071048
O O8 0.981331 0.178147 0.972504
O O9 0.115955 0.706768 0.809419
O O10 0.613382 0.696095 0.633161
#
# Coordination Sequence:
#
# PCOD8246683 Si02
#       5
#     8   8   8   8   8
#     4  10  19  36  60  85 120 162 203 253 304 366
#     4  10  23  44  65  94 128 165 214 264 319 376
#     4  10  22  39  58  87 126 160 207 260 310 373
#     4  10  20  39  60  87 123 164 206 252 313 374
#     4  10  22  42  68  93 127 168 210 265 317 379
#
# _framework density 23.249331999999999
#
# number of rings (size 3 to 8) (size 9 to 14) (size 15 to 20)
#    0.000    2.000    0.000    4.800    0.000    4.000 
#    0.000   38.000    0.000    0.000    0.000    0.000 
#    0.000    0.000    0.000    0.000    0.000    0.000 
#
# Total GULP energy -496011.512335 kJ/mol
# GULP energy per Si atom -12400.287808 kJ/mol
# Density = 2.319642 g / cm^3
# Si number density = 23.249332 Si / 1000 Ang^3
#
#
#
# Elastic Constant Matrix: (Units=GPa)
#
#
# Indices 1 2 3 4 5 6 
#
# 1 58.6507 28.5748 15.5438 0.0000 0.0000 0.0000
# 2 28.5748 135.3149 35.5823 0.0000 0.0000 0.0000
# 3 15.5438 35.5823 47.1461 0.0000 0.0000 0.0000
# 4 0.0000 0.0000 0.0000 -31.8235 0.0000 0.0000
# 5 0.0000 0.0000 0.0000 0.0000 32.7156 0.0000
# 6 0.0000 0.0000 0.0000 0.0000 0.0000 33.9661
#
#
#
# Elastic Compliance Matrix: (Units=1/GPa)
#
#
# Indices 1 2 3 4 5 6 
#
# 1 0.019642 -0.003050 -0.004174 0.000000 0.000000 0.000000
# 2 -0.003050 0.009694 -0.006310 0.000000 0.000000 0.000000
# 3 -0.004174 -0.006310 0.027349 0.000000 0.000000 0.000000
# 4 0.000000 0.000000 0.000000 -0.031423 0.000000 0.000000
# 5 0.000000 0.000000 0.000000 0.000000 0.030566 0.000000
# 6 0.000000 0.000000 0.000000 0.000000 0.000000 0.029441
#
#
# Mechanical properties :
#
#
# Convention : Reuss Voigt Hill
#
# Bulk Modulus (GPa) = 33.76516 44.50149 39.13333
# Shear Modulus (GPa) = 40.91289 17.73237 29.32263
#
# Velocity S-wave (km/s) = 4.19948 2.76471 3.55523
# Velocity P-wave (km/s) = 6.16999 5.41978 5.80701
#
# Compressibility (1/GPa) = 0.02961632
#
# Stress axis : x y z
#
# Youngs Moduli (GPa) = 50.91021 103.15987 36.56399
#
# Poissons Ratio (x) = 0.31468 0.15261
# Poissons Ratio (y) = 0.15530 0.23073
# Poissons Ratio (z) = 0.21249 0.65098
#
# Static dielectric constant tensor:
#      x y z
#    x 3.909140 0.000000 0.000000 
#    y 0.000000 4.386480 0.000000 
#    z 0.000000 0.000000 4.251620 
# 
# 
# High freq. dielectric constant tensor:
#      x y z
#    x 1.903590 0.000000 0.000000 
#    y 0.000000 1.934000 0.000000 
#    z 0.000000 0.000000 1.922760 
# 
# From -- ./inp_files/23833.got.cif
#   From: 2010.03.12/outbox.cif.g09.slc.cpg/sg60_12_cif.got.tgz:23833.got - 2010.04.10 18:46:24.
