data_PCOD8246375
_publ_section_title
;
Structure prediction by ZEFSAII (Michael W. Deem and Ramdas Pophale) SiO2 
 PCOD8246375
Probable space group: P B C N
;
_chemical_formula_sum "Si O2"
_cell_formula_units_Z 48
_cell_length_a 8.843842
_cell_length_b 16.813288
_cell_length_c 17.690102
_cell_angle_alpha 90.000000
_cell_angle_beta 90.000000
_cell_angle_gamma 90.000000
_cell_volume 2630.413134
_symmetry_space_group_name_H-M "P B C N"
_symmetry_group_IT_number 60
_symmetry_cell_setting 'orthorhombic'
loop_
_space_group_symop_operation_xyz
x,y,z
1/2-x,1/2-y,1/2+z
1/2+x,1/2-y,-z
-x,y,1/2-z
-x,-y,-z
1/2+x,1/2+y,1/2-z
1/2-x,1/2+y,z
x,-y,1/2+z
loop_
_atom_site_type_symbol
_atom_site_label
_atom_site_fract_x
_atom_site_fract_y
_atom_site_fract_z
Si Si1 0.264622 0.315005 0.411736
Si Si2 0.538707 0.596688 0.926109
Si Si3 0.882680 0.073971 0.414194
Si Si4 0.832257 0.694652 0.964576
Si Si5 0.012199 0.225486 0.338069
Si Si6 0.420868 0.084152 0.009347
O O1 0.424352 0.346863 0.376822
O O2 0.289780 0.276801 0.495168
O O3 0.186041 0.247919 0.359501
O O4 0.158937 0.391718 0.429411
O O5 0.579036 0.514799 0.883052
O O6 0.689030 0.641735 0.947800
O O7 0.448083 0.579991 0.002402
O O8 0.699447 0.083605 0.420849
O O9 0.964534 0.135249 0.357592
O O10 0.905173 0.714513 0.883651
O O11 0.946479 0.649135 0.021795
O O12 0.000000 0.240938 0.250000
O O13 0.500000 0.000000 0.000000
#
# Coordination Sequence:
#
# PCOD8246375 Si02
#       6
#     8   8   8   8   8   8
#     4  10  20  34  56  87 111 149 198 243 282 347
#     4  10  18  32  60  88 112 140 201 242 282 330
#     4  10  19  34  55  89 116 150 186 246 288 350
#     4  11  18  34  59  87 115 147 195 244 280 347
#     4  11  23  39  56  82 122 159 190 244 313 350
#     4  10  18  30  54  88 113 142 190 239 284 329
#
# _framework density 18.248082
#
# number of rings (size 3 to 8) (size 9 to 14) (size 15 to 20)
#    0.000    1.667    6.667    1.000    0.000    0.000 
#    0.000    2.500    0.000    0.000    0.000    0.000 
#    0.000    0.000    0.000    0.000    0.000    0.000 
#
# Total GULP energy -594718.901686 kJ/mol
# GULP energy per Si atom -12389.977118 kJ/mol
# Density = 1.820655 g / cm^3
# Si number density = 18.248082 Si / 1000 Ang^3
#
#
#
# Elastic Constant Matrix: (Units=GPa)
#
#
# Indices 1 2 3 4 5 6 
#
# 1 144.1925 71.5967 29.1110 0.0000 0.0000 0.0000
# 2 71.5967 131.9827 24.5800 0.0000 0.0000 0.0000
# 3 29.1110 24.5800 56.3902 0.0000 0.0000 0.0000
# 4 0.0000 0.0000 0.0000 12.0507 0.0000 0.0000
# 5 0.0000 0.0000 0.0000 0.0000 6.6248 0.0000
# 6 0.0000 0.0000 0.0000 0.0000 0.0000 37.2870
#
#
#
# Elastic Compliance Matrix: (Units=1/GPa)
#
#
# Indices 1 2 3 4 5 6 
#
# 1 0.009945 -0.004831 -0.003028 0.000000 0.000000 0.000000
# 2 -0.004831 0.010593 -0.002123 0.000000 0.000000 0.000000
# 3 -0.003028 -0.002123 0.020223 0.000000 0.000000 0.000000
# 4 0.000000 0.000000 0.000000 0.082983 0.000000 0.000000
# 5 0.000000 0.000000 0.000000 0.000000 0.150947 0.000000
# 6 0.000000 0.000000 0.000000 0.000000 0.000000 0.026819
#
#
# Mechanical properties :
#
#
# Convention : Reuss Voigt Hill
#
# Bulk Modulus (GPa) = 48.08815 64.79345 56.44080
# Shear Modulus (GPa) = 15.22503 25.01103 20.11803
#
# Velocity S-wave (km/s) = 2.89162 3.70619 3.32395
# Velocity P-wave (km/s) = 6.12848 7.34156 6.76228
#
# Compressibility (1/GPa) = 0.02079514
#
# Stress axis : x y z
#
# Youngs Moduli (GPa) = 100.54923 94.40273 49.44981
#
# Poissons Ratio (x) = 0.45607 0.14975
# Poissons Ratio (y) = 0.48576 0.10500
# Poissons Ratio (z) = 0.30450 0.20045
#
# Static dielectric constant tensor:
#      x y z
#    x 3.968870 0.000000 0.000000 
#    y 0.000000 3.876190 0.000000 
#    z 0.000000 0.000000 2.700940 
# 
# 
# High freq. dielectric constant tensor:
#      x y z
#    x 1.731880 0.000000 0.000000 
#    y 0.000000 1.729420 0.000000 
#    z 0.000000 0.000000 1.623910 
# 
# From -- ./inp_files/19435.got.cif
#   From: 2010.03.12/outbox.cif.g09.slc.cpg/sg60_10_cif.got.tgz:19435.got - 2010.04.10 18:46:24.
