data_PCOD8246031
_publ_section_title
;
Structure prediction by ZEFSAII (Michael W. Deem and Ramdas Pophale) SiO2 
 PCOD8246031
Probable space group: P M M N
;
_chemical_formula_sum "Si O2"
_cell_formula_units_Z 56
_cell_length_a 14.820487
_cell_length_b 8.858193
_cell_length_c 21.743966
_cell_angle_alpha 90.000000
_cell_angle_beta 90.000000
_cell_angle_gamma 90.000000
_cell_volume 2854.607309
_symmetry_space_group_name_H-M "P M M N"
_symmetry_group_IT_number 59
_space_group.IT_coordinate_system_code '2'
_symmetry_cell_setting 'orthorhombic'
loop_
_space_group_symop_operation_xyz
x,y,z
1/2-x,1/2-y,z
1/2+x,-y,-z
-x,1/2+y,-z
-x,-y,-z
1/2+x,1/2+y,-z
1/2-x,y,z
x,1/2-y,z
loop_
_atom_site_type_symbol
_atom_site_label
_atom_site_fract_x
_atom_site_fract_y
_atom_site_fract_z
Si Si1 0.647293 0.569936 0.885208
Si Si2 0.511252 0.071588 0.652785
Si Si3 0.512129 0.928824 0.781287
Si Si4 0.852687 0.927770 0.017370
Si Si5 0.645348 0.424418 0.413662
Si Si6 0.355641 0.072337 0.849563
Si Si7 0.150196 0.570588 0.448569
O O1 0.750000 0.510808 0.875243
O O2 0.648339 0.750000 0.884785
O O3 0.583414 0.507516 0.831384
O O4 0.605749 0.514383 0.952069
O O5 0.517045 0.250000 0.659551
O O6 0.579019 0.007810 0.600625
O O7 0.541225 0.997069 0.716383
O O8 0.410326 0.023726 0.634632
O O9 0.513916 0.750000 0.777177
O O10 0.411648 0.983108 0.798364
O O11 0.750000 0.978526 0.013735
O O12 0.860308 0.750000 0.021210
O O13 0.890698 0.988188 0.082847
O O14 0.750000 0.447814 0.398240
O O15 0.617819 0.250000 0.406102
O O16 0.623831 0.483062 0.482736
O O17 0.250000 0.035840 0.840694
O O18 0.373093 0.250000 0.841733
O O19 0.250000 0.509391 0.431434
O O20 0.151861 0.750000 0.448390
#
# Coordination Sequence:
#
# PCOD8246031 Si02
#       7
#     8   8   8   8   8   8   8
#     4   8  15  30  51  74 101 132 167 208 254 306
#     4  11  22  35  53  76 105 140 174 209 246 291
#     4  11  23  35  49  73 104 139 176 210 249 297
#     4   7  11  24  49  76  97 122 160 206 257 308
#     4   9  18  35  59  83 106 132 163 204 255 305
#     4   9  18  34  55  76  99 129 167 212 259 308
#     4   8  16  33  57  83 107 132 164 203 252 305
#
# _framework density 19.617408999999999
#
# number of rings (size 3 to 8) (size 9 to 14) (size 15 to 20)
#    0.000    3.000    0.000    3.857    0.000    2.286 
#    0.000    0.714    0.000    5.143    0.000    4.000 
#    0.000    0.000    0.000    0.000    0.000    0.000 
#
# Total GULP energy -693877.612753 kJ/mol
# GULP energy per Si atom -12390.671656 kJ/mol
# Density = 1.957276 g / cm^3
# Si number density = 19.617409 Si / 1000 Ang^3
#
#
#
# Elastic Constant Matrix: (Units=GPa)
#
#
# Indices 1 2 3 4 5 6 
#
# 1 53.7121 13.9773 17.9990 0.0000 0.0000 0.0000
# 2 13.9773 37.1957 14.9609 0.0000 0.0000 0.0000
# 3 17.9990 14.9609 84.1728 0.0000 0.0000 0.0000
# 4 0.0000 0.0000 0.0000 19.9178 0.0000 0.0000
# 5 0.0000 0.0000 0.0000 0.0000 29.0298 0.0000
# 6 0.0000 0.0000 0.0000 0.0000 0.0000 18.3429
#
#
#
# Elastic Compliance Matrix: (Units=1/GPa)
#
#
# Indices 1 2 3 4 5 6 
#
# 1 0.021506 -0.006711 -0.003406 0.000000 0.000000 0.000000
# 2 -0.006711 0.031049 -0.004084 0.000000 0.000000 0.000000
# 3 -0.003406 -0.004084 0.013334 0.000000 0.000000 0.000000
# 4 0.000000 0.000000 0.000000 0.050206 0.000000 0.000000
# 5 0.000000 0.000000 0.000000 0.000000 0.034447 0.000000
# 6 0.000000 0.000000 0.000000 0.000000 0.000000 0.054517
#
#
# Mechanical properties :
#
#
# Convention : Reuss Voigt Hill
#
# Bulk Modulus (GPa) = 26.67535 29.88388 28.27962
# Shear Modulus (GPa) = 20.32873 22.00099 21.16486
#
# Velocity S-wave (km/s) = 3.22259 3.35252 3.28820
# Velocity P-wave (km/s) = 5.24157 5.50021 5.37245
#
# Compressibility (1/GPa) = 0.03748779
#
# Stress axis : x y z
#
# Youngs Moduli (GPa) = 46.49966 32.20687 74.99396
#
# Poissons Ratio (x) = 0.21615 0.25541
# Poissons Ratio (y) = 0.31208 0.30624
# Poissons Ratio (z) = 0.15837 0.13152
#
# Static dielectric constant tensor:
#      x y z
#    x 3.570790 0.000000 0.000000 
#    y 0.000000 3.049910 0.000000 
#    z 0.000000 0.000000 3.902030 
# 
# 
# High freq. dielectric constant tensor:
#      x y z
#    x 1.757460 0.000000 0.000000 
#    y 0.000000 1.718040 0.000000 
#    z 0.000000 0.000000 1.777670 
# 
# From -- ./inp_files/29067.got.cif
#   From: 2010.03.12/outbox.cif.g09.slc.cpg/sg59_15_cif.got.tgz:29067.got - 2010.04.16 16:29:54.
