data_PCOD8246228
_publ_section_title
;
Structure prediction by ZEFSAII (Michael W. Deem and Ramdas Pophale) SiO2 
 PCOD8246228
Probable space group: P M M N
;
_chemical_formula_sum "Si O2"
_cell_formula_units_Z 56
_cell_length_a 21.940143
_cell_length_b 9.325163
_cell_length_c 17.582942
_cell_angle_alpha 90.000000
_cell_angle_beta 90.000000
_cell_angle_gamma 90.000000
_cell_volume 3597.389223
_symmetry_space_group_name_H-M "P M M N"
_symmetry_group_IT_number 59
_space_group.IT_coordinate_system_code '2'
_symmetry_cell_setting 'orthorhombic'
loop_
_space_group_symop_operation_xyz
x,y,z
1/2-x,1/2-y,z
1/2+x,-y,-z
-x,1/2+y,-z
-x,-y,-z
1/2+x,1/2+y,-z
1/2-x,y,z
x,1/2-y,z
loop_
_atom_site_type_symbol
_atom_site_label
_atom_site_fract_x
_atom_site_fract_y
_atom_site_fract_z
Si Si1 0.582734 0.412423 0.552458
Si Si2 0.605380 0.583843 0.696289
Si Si3 0.059582 0.412111 0.588621
Si Si4 0.412290 0.081979 0.036928
Si Si5 0.034578 0.585572 0.730215
Si Si6 0.455903 0.916169 0.901604
Si Si7 0.818519 0.920690 0.839228
O O1 0.606939 0.250000 0.544487
O O2 0.617848 0.491019 0.620945
O O3 0.596446 0.498209 0.474723
O O4 0.511250 0.413533 0.568625
O O5 0.616689 0.750000 0.676034
O O6 0.537644 0.560545 0.727827
O O7 0.651512 0.526378 0.760548
O O8 0.084801 0.250000 0.590888
O O9 0.069868 0.485245 0.670549
O O10 0.406344 0.250000 0.022382
O O11 0.474402 0.042486 0.080557
O O12 0.356849 0.023006 0.088470
O O13 0.410074 0.004871 0.955110
O O14 0.049489 0.750000 0.709825
O O15 0.058167 0.545276 0.814167
O O16 0.444664 0.750000 0.917799
O O17 0.750000 0.981170 0.845069
O O18 0.819978 0.750000 0.839574
#
# Coordination Sequence:
#
# PCOD8246228 Si02
#       7
#     8   8   8   8   8   8   8
#     4   9  16  25  36  52  76 106 136 163 194 234
#     4   9  15  25  40  56  76 104 138 172 204 238
#     4   9  16  24  35  54  78 104 134 164 195 232
#     4   9  16  27  41  59  80 105 139 175 211 249
#     4   9  15  24  38  55  79 108 136 166 202 246
#     4   9  16  26  40  58  81 109 138 170 209 254
#     4   9  16  27  44  63  82 107 142 180 214 248
#
# _framework density 15.566845000000001
#
# number of rings (size 3 to 8) (size 9 to 14) (size 15 to 20)
#    0.000    3.000    1.429    0.857    0.000    4.000 
#    0.000    0.714    0.000    1.714    0.000    0.000 
#    0.000    1.143    0.000   11.143    0.000    3.429 
#
# Total GULP energy -694264.835999 kJ/mol
# GULP energy per Si atom -12397.586357 kJ/mol
# Density = 1.553141 g / cm^3
# Si number density = 15.566845 Si / 1000 Ang^3
#
#
#
# Elastic Constant Matrix: (Units=GPa)
#
#
# Indices 1 2 3 4 5 6 
#
# 1 47.8270 24.7215 46.5920 0.0000 0.0000 0.0000
# 2 24.7215 81.5394 70.3454 0.0000 0.0000 0.0000
# 3 46.5920 70.3454 153.0879 0.0000 0.0000 0.0000
# 4 0.0000 0.0000 0.0000 32.3080 0.0000 0.0000
# 5 0.0000 0.0000 0.0000 0.0000 14.5156 0.0000
# 6 0.0000 0.0000 0.0000 0.0000 0.0000 8.7664
#
#
#
# Elastic Compliance Matrix: (Units=1/GPa)
#
#
# Indices 1 2 3 4 5 6 
#
# 1 0.029919 -0.002013 -0.008180 0.000000 0.000000 0.000000
# 2 -0.002013 0.020455 -0.008786 0.000000 0.000000 0.000000
# 3 -0.008180 -0.008786 0.013059 0.000000 0.000000 0.000000
# 4 0.000000 0.000000 0.000000 0.030952 0.000000 0.000000
# 5 0.000000 0.000000 0.000000 0.000000 0.068892 0.000000
# 6 0.000000 0.000000 0.000000 0.000000 0.000000 0.114072
#
#
# Mechanical properties :
#
#
# Convention : Reuss Voigt Hill
#
# Bulk Modulus (GPa) = 39.25868 62.86357 51.06112
# Shear Modulus (GPa) = 15.44166 20.50435 17.97301
#
# Velocity S-wave (km/s) = 3.15295 3.63324 3.40158
# Velocity P-wave (km/s) = 6.20717 7.62045 6.94983
#
# Compressibility (1/GPa) = 0.02547207
#
# Stress axis : x y z
#
# Youngs Moduli (GPa) = 33.42394 48.88897 76.57392
#
# Poissons Ratio (x) = 0.09844 0.62641
# Poissons Ratio (y) = 0.06730 0.67280
# Poissons Ratio (z) = 0.27342 0.42955
#
# Static dielectric constant tensor:
#      x y z
#    x 2.545140 0.000000 0.000000 
#    y 0.000000 2.932890 0.000000 
#    z 0.000000 0.000000 3.169580 
# 
# 
# High freq. dielectric constant tensor:
#      x y z
#    x 1.527930 0.000000 0.000000 
#    y 0.000000 1.588860 0.000000 
#    z 0.000000 0.000000 1.610450 
# 
# From -- ./inp_files/26120.got.cif
#   From: 2010.03.12/outbox.cif.g09.slc.cpg/sg59_14_cif.got.tgz:26120.got - 2010.04.16 16:29:54.
