data_PCOD8246124
_publ_section_title
;
Structure prediction by ZEFSAII (Michael W. Deem and Ramdas Pophale) SiO2 
 PCOD8246124
Probable space group: P M M N
;
_chemical_formula_sum "Si O2"
_cell_formula_units_Z 24
_cell_length_a 12.525894
_cell_length_b 8.638474
_cell_length_c 11.161203
_cell_angle_alpha 90.000000
_cell_angle_beta 90.000000
_cell_angle_gamma 90.000000
_cell_volume 1207.693614
_symmetry_space_group_name_H-M "P M M N"
_symmetry_group_IT_number 59
_space_group.IT_coordinate_system_code '2'
_symmetry_cell_setting 'orthorhombic'
loop_
_space_group_symop_operation_xyz
x,y,z
1/2-x,1/2-y,z
1/2+x,-y,-z
-x,1/2+y,-z
-x,-y,-z
1/2+x,1/2+y,-z
1/2-x,y,z
x,1/2-y,z
loop_
_atom_site_type_symbol
_atom_site_label
_atom_site_fract_x
_atom_site_fract_y
_atom_site_fract_z
Si Si1 0.750000 0.066833 0.274047
Si Si2 0.964859 0.931790 0.374545
Si Si3 0.368336 0.074690 0.199378
Si Si4 0.750000 0.066440 0.001047
O O1 0.750000 0.250000 0.279439
O O2 0.852529 0.004171 0.341113
O O3 0.750000 0.008035 0.137072
O O4 0.952366 0.750000 0.386628
O O5 0.000000 0.000000 0.500000
O O6 0.052153 0.970113 0.274500
O O7 0.250000 0.073628 0.260651
O O8 0.412970 0.250000 0.190739
O O9 0.355672 0.002296 0.065465
O O10 0.750000 0.250000 0.991219
#
# Coordination Sequence:
#
# PCOD8246124 Si02
#       4
#     4   8   8   4
#     4  11  25  44  65  94 129 163 209 261 312 369
#     4  12  26  43  66  92 126 167 211 259 313 374
#     4   9  20  39  65  93 125 164 207 252 307 369
#     4   9  19  38  65  96 127 163 207 257 310 369
#
# _framework density 19.872589999999999
#
# number of rings (size 3 to 8) (size 9 to 14) (size 15 to 20)
#    1.000    0.667    0.000    4.500    2.333    4.000 
#    0.000    0.000    0.000    0.000    0.000    0.000 
#    0.000    0.000    0.000    0.000    0.000    0.000 
#
# Total GULP energy -297540.947564 kJ/mol
# GULP energy per Si atom -12397.539482 kJ/mol
# Density = 1.982736 g / cm^3
# Si number density = 19.872590 Si / 1000 Ang^3
#
#
#
# Elastic Constant Matrix: (Units=GPa)
#
#
# Indices 1 2 3 4 5 6 
#
# 1 127.0650 43.7087 79.6812 0.0000 0.0000 0.0000
# 2 43.7087 116.7279 58.6776 0.0000 0.0000 0.0000
# 3 79.6812 58.6776 166.2688 0.0000 0.0000 0.0000
# 4 0.0000 0.0000 0.0000 34.8652 0.0000 0.0000
# 5 0.0000 0.0000 0.0000 0.0000 37.9745 0.0000
# 6 0.0000 0.0000 0.0000 0.0000 0.0000 38.6950
#
#
#
# Elastic Compliance Matrix: (Units=1/GPa)
#
#
# Indices 1 2 3 4 5 6 
#
# 1 0.011581 -0.001880 -0.004886 0.000000 0.000000 0.000000
# 2 -0.001880 0.010720 -0.002882 0.000000 0.000000 0.000000
# 3 -0.004886 -0.002882 0.009373 0.000000 0.000000 0.000000
# 4 0.000000 0.000000 0.000000 0.028682 0.000000 0.000000
# 5 0.000000 0.000000 0.000000 0.000000 0.026333 0.000000
# 6 0.000000 0.000000 0.000000 0.000000 0.000000 0.025843
#
#
# Mechanical properties :
#
#
# Convention : Reuss Voigt Hill
#
# Bulk Modulus (GPa) = 80.79758 86.02185 83.40971
# Shear Modulus (GPa) = 36.77681 37.50654 37.14167
#
# Velocity S-wave (km/s) = 4.30656 4.34908 4.32787
# Velocity P-wave (km/s) = 8.09164 8.28251 8.18763
#
# Compressibility (1/GPa) = 0.01237661
#
# Stress axis : x y z
#
# Youngs Moduli (GPa) = 86.34859 93.28596 106.68721
#
# Poissons Ratio (x) = 0.17539 0.52132
# Poissons Ratio (y) = 0.16235 0.30748
# Poissons Ratio (z) = 0.42194 0.26886
#
# Static dielectric constant tensor:
#      x y z
#    x 3.572790 0.000000 0.000000 
#    y 0.000000 3.732300 0.000000 
#    z 0.000000 0.000000 3.677110 
# 
# 
# High freq. dielectric constant tensor:
#      x y z
#    x 1.773300 0.000000 0.000000 
#    y 0.000000 1.793290 0.000000 
#    z 0.000000 0.000000 1.774570 
# 
# From -- ./inp_files/15124.got.cif
#   From: 2010.03.12/outbox.cif.g09.slc.cpg/sg59_8_cif.got.tgz:15124.got - 2010.04.16 16:29:54.
