data_PCOD8246045
_publ_section_title
;
Structure prediction by ZEFSAII (Michael W. Deem and Ramdas Pophale) SiO2 
 PCOD8246045
Probable space group: P M M N
;
_chemical_formula_sum "Si O2"
_cell_formula_units_Z 56
_cell_length_a 8.924550
_cell_length_b 14.216064
_cell_length_c 21.657656
_cell_angle_alpha 90.000000
_cell_angle_beta 90.000000
_cell_angle_gamma 90.000000
_cell_volume 2747.749568
_symmetry_space_group_name_H-M "P M M N"
_symmetry_group_IT_number 59
_space_group.IT_coordinate_system_code '2'
_symmetry_cell_setting 'orthorhombic'
loop_
_space_group_symop_operation_xyz
x,y,z
1/2-x,1/2-y,z
1/2+x,-y,-z
-x,1/2+y,-z
-x,-y,-z
1/2+x,1/2+y,-z
1/2-x,y,z
x,1/2-y,z
loop_
_atom_site_type_symbol
_atom_site_label
_atom_site_fract_x
_atom_site_fract_y
_atom_site_fract_z
Si Si1 0.927357 0.643319 0.970161
Si Si2 0.075483 0.483650 0.565464
Si Si3 0.423400 0.473222 0.912788
Si Si4 0.574456 0.358734 0.664639
Si Si5 0.083890 0.353036 0.232190
Si Si6 0.078938 0.038224 0.776951
Si Si7 0.085563 0.352796 0.377490
O O1 0.750000 0.645243 0.965200
O O2 0.990295 0.750000 0.962825
O O3 0.989544 0.573293 0.917312
O O4 0.980474 0.601316 0.036295
O O5 0.250000 0.464797 0.557077
O O6 0.000000 0.500000 0.500000
O O7 0.005492 0.396510 0.603030
O O8 0.047553 0.577948 0.604153
O O9 0.250000 0.497355 0.922803
O O10 0.448197 0.422501 0.846208
O O11 0.750000 0.375606 0.656522
O O12 0.532539 0.250000 0.672030
O O13 0.525073 0.411677 0.726885
O O14 0.250000 0.382208 0.207659
O O15 0.040955 0.250000 0.204745
O O16 0.090825 0.345183 0.305064
O O17 0.958287 0.428173 0.215003
O O18 0.250000 0.050995 0.755257
O O19 0.250000 0.388223 0.401232
O O20 0.051952 0.250000 0.406324
#
# Coordination Sequence:
#
# PCOD8246045 Si02
#       7
#     8   8   8   8   8   8   8
#     4   9  18  35  58  81 109 151 200 246 292 344
#     4  12  25  41  64  91 120 155 195 242 294 349
#     4   9  20  36  54  82 118 153 192 240 295 350
#     4  11  25  45  66  88 119 158 200 247 295 346
#     4   9  18  33  55  81 112 151 189 229 282 344
#     4  11  22  36  58  88 121 157 195 241 297 357
#     4   9  18  35  59  85 114 148 185 229 283 340
#
# _framework density 20.380313999999998
#
# number of rings (size 3 to 8) (size 9 to 14) (size 15 to 20)
#    0.000    2.000    1.429    3.000    0.000    4.857 
#    0.000    5.714    0.000    0.000    0.000    0.000 
#    0.000    0.000    0.000    0.000    0.000    0.000 
#
# Total GULP energy -694154.222835 kJ/mol
# GULP energy per Si atom -12395.611122 kJ/mol
# Density = 2.033393 g / cm^3
# Si number density = 20.380314 Si / 1000 Ang^3
#
#
#
# Elastic Constant Matrix: (Units=GPa)
#
#
# Indices 1 2 3 4 5 6 
#
# 1 81.8031 32.6282 30.0667 0.0000 0.0000 0.0000
# 2 32.6282 106.6467 25.1211 0.0000 0.0000 0.0000
# 3 30.0667 25.1211 82.0000 0.0000 0.0000 0.0000
# 4 0.0000 0.0000 0.0000 12.5383 0.0000 0.0000
# 5 0.0000 0.0000 0.0000 0.0000 29.3491 0.0000
# 6 0.0000 0.0000 0.0000 0.0000 0.0000 20.1986
#
#
#
# Elastic Compliance Matrix: (Units=1/GPa)
#
#
# Indices 1 2 3 4 5 6 
#
# 1 0.015329 -0.003628 -0.004509 0.000000 0.000000 0.000000
# 2 -0.003628 0.010965 -0.002029 0.000000 0.000000 0.000000
# 3 -0.004509 -0.002029 0.014470 0.000000 0.000000 0.000000
# 4 0.000000 0.000000 0.000000 0.079756 0.000000 0.000000
# 5 0.000000 0.000000 0.000000 0.000000 0.034073 0.000000
# 6 0.000000 0.000000 0.000000 0.000000 0.000000 0.049508
#
#
# Mechanical properties :
#
#
# Convention : Reuss Voigt Hill
#
# Bulk Modulus (GPa) = 48.94313 49.56464 49.25389
# Shear Modulus (GPa) = 21.62234 24.59277 23.10756
#
# Velocity S-wave (km/s) = 3.26074 3.47752 3.37087
# Velocity P-wave (km/s) = 6.18414 6.36371 6.27457
#
# Compressibility (1/GPa) = 0.02043188
#
# Stress axis : x y z
#
# Youngs Moduli (GPa) = 65.23690 91.20313 69.10816
#
# Poissons Ratio (x) = 0.33085 0.31162
# Poissons Ratio (y) = 0.23665 0.14021
# Poissons Ratio (z) = 0.29417 0.18504
#
# Static dielectric constant tensor:
#      x y z
#    x 2.734270 0.000000 0.000000 
#    y 0.000000 2.688100 0.000000 
#    z 0.000000 0.000000 4.065640 
# 
# 
# High freq. dielectric constant tensor:
#      x y z
#    x 1.788350 0.000000 0.000000 
#    y 0.000000 1.794010 0.000000 
#    z 0.000000 0.000000 1.799110 
# 
# From -- ./inp_files/29075.got.cif
#   From: 2010.03.12/outbox.cif.g09.slc.cpg/sg59_15_cif.got.tgz:29075.got - 2010.04.16 16:29:54.
