data_PCOD8246285
_publ_section_title
;
Structure prediction by ZEFSAII (Michael W. Deem and Ramdas Pophale) SiO2 
 PCOD8246285
Probable space group: P B C N
;
_chemical_formula_sum "Si O2"
_cell_formula_units_Z 64
_cell_length_a 24.970164
_cell_length_b 5.282077
_cell_length_c 27.516936
_cell_angle_alpha 90.000000
_cell_angle_beta 90.000000
_cell_angle_gamma 90.000000
_cell_volume 3629.327808
_symmetry_space_group_name_H-M "P B C N"
_symmetry_group_IT_number 60
_symmetry_cell_setting 'orthorhombic'
loop_
_space_group_symop_operation_xyz
x,y,z
1/2-x,1/2-y,1/2+z
1/2+x,1/2-y,-z
-x,y,1/2-z
-x,-y,-z
1/2+x,1/2+y,1/2-z
1/2-x,1/2+y,z
x,-y,1/2+z
loop_
_atom_site_type_symbol
_atom_site_label
_atom_site_fract_x
_atom_site_fract_y
_atom_site_fract_z
Si Si1 0.192869 0.984506 0.642727
Si Si2 0.032397 0.026413 0.700267
Si Si3 0.149092 0.005842 0.741778
Si Si4 0.012501 0.526375 0.806645
Si Si5 0.784672 0.519749 0.608875
Si Si6 0.717136 0.963137 0.501743
Si Si7 0.813452 0.515549 0.398105
Si Si8 0.862480 0.494119 0.196811
O O1 0.250997 0.980258 0.618026
O O2 0.160264 0.733579 0.625979
O O3 0.196379 0.994048 0.701533
O O4 0.159981 0.229728 0.623272
O O5 0.019432 0.286081 0.670867
O O6 0.000000 0.064524 0.750000
O O7 0.094620 0.995389 0.711090
O O8 0.010046 0.786495 0.669483
O O9 0.154787 0.265189 0.771293
O O10 0.153930 0.765025 0.776718
O O11 0.075197 0.496063 0.815439
O O12 0.000000 0.564003 0.750000
O O13 0.742800 0.291967 0.616911
O O14 0.810052 0.502653 0.554492
O O15 0.833064 0.490414 0.645713
O O16 0.763757 0.173110 0.497235
O O17 0.677740 0.009968 0.456321
#
# Coordination Sequence:
#
# PCOD8246285 Si02
#       8
#     8   8   8   8   8   8   8   8
#     4  10  20  30  46  73  92 124 170 190 234 295
#     4  10  16  30  48  68  89 127 165 200 244 268
#     4  12  21  32  48  69 105 138 158 201 234 293
#     4  10  16  30  51  69  88 127 170 205 240 271
#     4  10  23  38  49  74  99 132 174 200 239 301
#     4  10  16  32  59  68  85 122 158 214 261 270
#     4  10  17  35  49  68  92 122 157 215 244 274
#     4  12  21  35  50  69 104 142 165 202 236 285
#
# _framework density 17.634119999999999
#
# number of rings (size 3 to 8) (size 9 to 14) (size 15 to 20)
#    0.000    1.500    7.500    1.500    0.000    0.000 
#   13.500    0.000    0.000    0.000    0.000    0.000 
#    0.000    6.000    0.000    0.000    0.000    0.000 
#
# Total GULP energy -793005.495695 kJ/mol
# GULP energy per Si atom -12390.710870 kJ/mol
# Density = 1.759398 g / cm^3
# Si number density = 17.634120 Si / 1000 Ang^3
#
#
#
# Elastic Constant Matrix: (Units=GPa)
#
#
# Indices 1 2 3 4 5 6 
#
# 1 21.1959 -2.0511 13.7164 0.0000 0.0000 0.0000
# 2 -2.0511 150.1839 23.7312 0.0000 0.0000 0.0000
# 3 13.7164 23.7312 79.7679 0.0000 0.0000 0.0000
# 4 0.0000 0.0000 0.0000 21.2204 0.0000 0.0000
# 5 0.0000 0.0000 0.0000 0.0000 1.8691 0.0000
# 6 0.0000 0.0000 0.0000 0.0000 0.0000 12.0312
#
#
#
# Elastic Compliance Matrix: (Units=1/GPa)
#
#
# Indices 1 2 3 4 5 6 
#
# 1 0.053837 0.002307 -0.009944 0.000000 0.000000 0.000000
# 2 0.002307 0.007086 -0.002505 0.000000 0.000000 0.000000
# 3 -0.009944 -0.002505 0.014991 0.000000 0.000000 0.000000
# 4 0.000000 0.000000 0.000000 0.047124 0.000000 0.000000
# 5 0.000000 0.000000 0.000000 0.000000 0.535026 0.000000
# 6 0.000000 0.000000 0.000000 0.000000 0.000000 0.083117
#
#
# Mechanical properties :
#
#
# Convention : Reuss Voigt Hill
#
# Bulk Modulus (GPa) = 17.97577 35.77121 26.87349
# Shear Modulus (GPa) = 6.41018 21.40755 13.90886
#
# Velocity S-wave (km/s) = 1.90866 3.48801 2.81151
# Velocity P-wave (km/s) = 3.88242 6.04573 5.08055
#
# Compressibility (1/GPa) = 0.05563043
#
# Stress axis : x y z
#
# Youngs Moduli (GPa) = 18.57460 141.12781 66.70501
#
# Poissons Ratio (x) = -0.32551 0.66329
# Poissons Ratio (y) = -0.04284 0.16707
# Poissons Ratio (z) = 0.18470 0.35348
#
# Static dielectric constant tensor:
#      x y z
#    x 2.897690 0.000000 0.000000 
#    y 0.000000 5.281310 0.000000 
#    z 0.000000 0.000000 2.938250 
# 
# 
# High freq. dielectric constant tensor:
#      x y z
#    x 1.627330 0.000000 0.000000 
#    y 0.000000 1.729300 0.000000 
#    z 0.000000 0.000000 1.649010 
# 
# From -- ./inp_files/23354.got.cif
#   From: 2010.03.12/outbox.cif.g09.slc.cpg/sg60_12_cif.got.tgz:23354.got - 2010.04.10 18:46:24.
