data_PCOD8246383
_publ_section_title
;
Structure prediction by ZEFSAII (Michael W. Deem and Ramdas Pophale) SiO2 
 PCOD8246383
Probable space group: P B C N
;
_chemical_formula_sum "Si O2"
_cell_formula_units_Z 56
_cell_length_a 25.809902
_cell_length_b 9.769672
_cell_length_c 11.931328
_cell_angle_alpha 90.000000
_cell_angle_beta 90.000000
_cell_angle_gamma 90.000000
_cell_volume 3008.535384
_symmetry_space_group_name_H-M "P B C N"
_symmetry_group_IT_number 60
_symmetry_cell_setting 'orthorhombic'
loop_
_space_group_symop_operation_xyz
x,y,z
1/2-x,1/2-y,1/2+z
1/2+x,1/2-y,-z
-x,y,1/2-z
-x,-y,-z
1/2+x,1/2+y,1/2-z
1/2-x,1/2+y,z
x,-y,1/2+z
loop_
_atom_site_type_symbol
_atom_site_label
_atom_site_fract_x
_atom_site_fract_y
_atom_site_fract_z
Si Si1 0.768534 0.395712 0.376287
Si Si2 0.685830 0.454904 0.195360
Si Si3 0.987134 0.859651 0.438759
Si Si4 0.262019 0.147550 0.981141
Si Si5 0.071398 0.095124 0.779115
Si Si6 0.160362 0.272273 0.296604
Si Si7 0.954843 0.782017 0.669533
O O1 0.719955 0.389674 0.293104
O O2 0.755957 0.296807 0.479820
O O3 0.778111 0.550727 0.415907
O O4 0.821005 0.347267 0.315947
O O5 0.713362 0.426171 0.077841
O O6 0.631133 0.376329 0.195708
O O7 0.676610 0.614653 0.213699
O O8 0.939307 0.872866 0.351681
O O9 0.971345 0.756577 0.539245
O O10 0.037266 0.811932 0.365356
O O11 0.000000 0.000000 0.500000
O O12 0.311834 0.159442 0.902469
O O13 0.054074 0.940304 0.802301
O O14 0.098986 0.296529 0.307981
O O15 0.000000 0.722745 0.750000
#
# Coordination Sequence:
#
# PCOD8246383 Si02
#       7
#     8   8   8   8   8   8   8
#     4  11  22  38  57  82 118 155 190 237 288 343
#     4  10  21  33  54  84 118 149 200 227 285 358
#     4   9  15  27  43  71 110 148 176 231 287 338
#     4  11  22  38  57  82 115 155 189 240 285 343
#     4   9  17  28  45  78 111 151 182 233 295 340
#     4  10  22  36  55  88 110 154 195 237 290 352
#     4  10  18  31  51  77 112 146 195 235 287 343
#
# _framework density 18.613707999999999
#
# number of rings (size 3 to 8) (size 9 to 14) (size 15 to 20)
#    0.000    2.000    5.714    0.000    2.000    2.286 
#    0.000    0.000    0.000    0.857    0.000    0.000 
#    0.000    0.000    0.000    0.000    0.000    0.000 
#
# Total GULP energy -694251.315365 kJ/mol
# GULP energy per Si atom -12397.344917 kJ/mol
# Density = 1.857134 g / cm^3
# Si number density = 18.613708 Si / 1000 Ang^3
#
#
#
# Elastic Constant Matrix: (Units=GPa)
#
#
# Indices 1 2 3 4 5 6 
#
# 1 161.0562 19.7645 58.0064 0.0000 0.0000 0.0000
# 2 19.7645 35.0931 12.9635 0.0000 0.0000 0.0000
# 3 58.0064 12.9635 114.7539 0.0000 0.0000 0.0000
# 4 0.0000 0.0000 0.0000 21.8918 0.0000 0.0000
# 5 0.0000 0.0000 0.0000 0.0000 20.1134 0.0000
# 6 0.0000 0.0000 0.0000 0.0000 0.0000 18.9032
#
#
#
# Elastic Compliance Matrix: (Units=1/GPa)
#
#
# Indices 1 2 3 4 5 6 
#
# 1 0.007902 -0.003105 -0.003644 0.000000 0.000000 0.000000
# 2 -0.003105 0.030956 -0.001928 0.000000 0.000000 0.000000
# 3 -0.003644 -0.001928 0.010774 0.000000 0.000000 0.000000
# 4 0.000000 0.000000 0.000000 0.045679 0.000000 0.000000
# 5 0.000000 0.000000 0.000000 0.000000 0.049718 0.000000
# 6 0.000000 0.000000 0.000000 0.000000 0.000000 0.052901
#
#
# Mechanical properties :
#
#
# Convention : Reuss Voigt Hill
#
# Bulk Modulus (GPa) = 30.97865 54.70802 42.84333
# Shear Modulus (GPa) = 22.11964 26.85959 24.48961
#
# Velocity S-wave (km/s) = 3.45099 3.80281 3.63116
# Velocity P-wave (km/s) = 5.70597 6.98118 6.37554
#
# Compressibility (1/GPa) = 0.03228030
#
# Stress axis : x y z
#
# Youngs Moduli (GPa) = 126.54436 32.30365 92.81635
#
# Poissons Ratio (x) = 0.10029 0.33821
# Poissons Ratio (y) = 0.39287 0.17893
# Poissons Ratio (z) = 0.46110 0.06227
#
# Static dielectric constant tensor:
#      x y z
#    x 3.872160 0.000000 0.000000 
#    y 0.000000 2.979180 0.000000 
#    z 0.000000 0.000000 4.028720 
# 
# 
# High freq. dielectric constant tensor:
#      x y z
#    x 1.726260 0.000000 0.000000 
#    y 0.000000 1.668190 0.000000 
#    z 0.000000 0.000000 1.739250 
# 
# From -- ./inp_files/13129.got.cif
#   From: 2010.03.12/outbox.cif.g09.slc.cpg/sg60_7_cif.got.tgz:13129.got - 2010.04.10 18:46:24.
