data_PCOD8246245
_publ_section_title
;
Structure prediction by ZEFSAII (Michael W. Deem and Ramdas Pophale) SiO2 
 PCOD8246245
Probable space group: P M M N
;
_chemical_formula_sum "Si O2"
_cell_formula_units_Z 40
_cell_length_a 9.173628
_cell_length_b 22.757192
_cell_length_c 11.481110
_cell_angle_alpha 90.000000
_cell_angle_beta 90.000000
_cell_angle_gamma 90.000000
_cell_volume 2396.865568
_symmetry_space_group_name_H-M "P M M N"
_symmetry_group_IT_number 59
_space_group.IT_coordinate_system_code '2'
_symmetry_cell_setting 'orthorhombic'
loop_
_space_group_symop_operation_xyz
x,y,z
1/2-x,1/2-y,z
1/2+x,-y,-z
-x,1/2+y,-z
-x,-y,-z
1/2+x,1/2+y,-z
1/2-x,y,z
x,1/2-y,z
loop_
_atom_site_type_symbol
_atom_site_label
_atom_site_fract_x
_atom_site_fract_y
_atom_site_fract_z
Si Si1 0.582107 0.480434 0.885617
Si Si2 0.084654 0.394151 0.183488
Si Si3 0.577402 0.750000 0.194942
Si Si4 0.923290 0.750000 0.460361
Si Si5 0.414643 0.814492 0.642119
Si Si6 0.578782 0.870058 0.083589
O O1 0.750000 0.467214 0.914637
O O2 0.569663 0.535362 0.796468
O O3 0.504303 0.420722 0.841610
O O4 0.500000 0.500000 0.000000
O O5 0.250000 0.373641 0.207574
O O6 0.978605 0.363156 0.273305
O O7 0.040262 0.375715 0.052674
O O8 0.750000 0.750000 0.190823
O O9 0.522750 0.750000 0.327613
O O10 0.519025 0.807660 0.128782
O O11 0.750000 0.750000 0.471833
O O12 0.989443 0.691570 0.523370
O O13 0.250000 0.832858 0.609273
O O14 0.416438 0.750000 0.704499
O O15 0.750000 0.877984 0.105888
#
# Coordination Sequence:
#
# PCOD8246245 Si02
#       6
#     8   8   4   4   8   8
#     4   9  17  30  46  68  97 130 161 189 227 278
#     4   9  17  28  48  72  96 127 156 186 229 281
#     4   9  18  32  51  72  94 125 162 195 230 281
#     4   9  17  32  51  66  88 125 162 195 234 283
#     4   9  19  31  45  69  96 119 151 198 240 276
#     4   9  18  31  48  73 101 128 157 190 230 278
#
# _framework density 16.688462000000001
#
# number of rings (size 3 to 8) (size 9 to 14) (size 15 to 20)
#    0.600    2.400    0.000    2.400    1.400    4.000 
#    0.000    2.500    0.000    1.200    0.000    0.000 
#    0.000    0.000    0.000    0.000    0.000    0.000 
#
# Total GULP energy -495606.508282 kJ/mol
# GULP energy per Si atom -12390.162707 kJ/mol
# Density = 1.665048 g / cm^3
# Si number density = 16.688462 Si / 1000 Ang^3
#
#
#
# Elastic Constant Matrix: (Units=GPa)
#
#
# Indices 1 2 3 4 5 6 
#
# 1 85.3804 50.0345 33.5831 0.0000 0.0000 0.0000
# 2 50.0345 131.3163 49.4054 0.0000 0.0000 0.0000
# 3 33.5831 49.4054 67.2926 0.0000 0.0000 0.0000
# 4 0.0000 0.0000 0.0000 3.9124 0.0000 0.0000
# 5 0.0000 0.0000 0.0000 0.0000 12.5726 0.0000
# 6 0.0000 0.0000 0.0000 0.0000 0.0000 31.8176
#
#
#
# Elastic Compliance Matrix: (Units=1/GPa)
#
#
# Indices 1 2 3 4 5 6 
#
# 1 0.016170 -0.004318 -0.004900 0.000000 0.000000 0.000000
# 2 -0.004318 0.011674 -0.006416 0.000000 0.000000 0.000000
# 3 -0.004900 -0.006416 0.022017 0.000000 0.000000 0.000000
# 4 0.000000 0.000000 0.000000 0.255596 0.000000 0.000000
# 5 0.000000 0.000000 0.000000 0.000000 0.079538 0.000000
# 6 0.000000 0.000000 0.000000 0.000000 0.000000 0.031429
#
#
# Mechanical properties :
#
#
# Convention : Reuss Voigt Hill
#
# Bulk Modulus (GPa) = 53.78326 61.11503 57.44915
# Shear Modulus (GPa) = 11.01590 19.72495 15.37043
#
# Velocity S-wave (km/s) = 2.57201 3.44168 3.03813
# Velocity P-wave (km/s) = 6.41234 7.24529 6.84150
#
# Compressibility (1/GPa) = 0.01859315
#
# Stress axis : x y z
#
# Youngs Moduli (GPa) = 61.84403 85.65771 45.42021
#
# Poissons Ratio (x) = 0.36983 0.22255
# Poissons Ratio (y) = 0.26702 0.29144
# Poissons Ratio (z) = 0.30302 0.54962
#
# Static dielectric constant tensor:
#      x y z
#    x 3.176310 0.000000 0.000000 
#    y 0.000000 3.910780 0.000000 
#    z 0.000000 0.000000 2.797310 
# 
# 
# High freq. dielectric constant tensor:
#      x y z
#    x 1.645360 0.000000 0.000000 
#    y 0.000000 1.644400 0.000000 
#    z 0.000000 0.000000 1.599450 
# 
# From -- ./inp_files/20671.got.cif
#   From: 2010.03.12/outbox.cif.g09.slc.cpg/sg59_11_cif.got.tgz:20671.got - 2010.04.16 16:29:54.
