data_PCOD8246854
_publ_section_title
;
Structure prediction by ZEFSAII (Michael W. Deem and Ramdas Pophale) SiO2 
 PCOD8246854
Probable space group: P B C N
;
_chemical_formula_sum "Si O2"
_cell_formula_units_Z 56
_cell_length_a 22.993166
_cell_length_b 14.703829
_cell_length_c 9.208573
_cell_angle_alpha 90.000000
_cell_angle_beta 90.000000
_cell_angle_gamma 90.000000
_cell_volume 3113.304170
_symmetry_space_group_name_H-M "P B C N"
_symmetry_group_IT_number 60
_symmetry_cell_setting 'orthorhombic'
loop_
_space_group_symop_operation_xyz
x,y,z
1/2-x,1/2-y,1/2+z
1/2+x,1/2-y,-z
-x,y,1/2-z
-x,-y,-z
1/2+x,1/2+y,1/2-z
1/2-x,1/2+y,z
x,-y,1/2+z
loop_
_atom_site_type_symbol
_atom_site_label
_atom_site_fract_x
_atom_site_fract_y
_atom_site_fract_z
Si Si1 0.005567 0.402745 0.078416
Si Si2 0.406284 0.813628 0.589032
Si Si3 0.391605 0.118786 0.391633
Si Si4 0.235127 0.328765 0.817912
Si Si5 0.690810 0.687804 0.906521
Si Si6 0.671838 0.950853 0.059901
Si Si7 0.253957 0.023555 0.685081
O O1 0.000000 0.413504 0.250000
O O2 0.068212 0.359880 0.032276
O O3 0.000000 0.500000 0.000000
O O4 0.957697 0.329259 0.024751
O O5 0.426157 0.847694 0.747835
O O6 0.378855 0.711825 0.593459
O O7 0.348370 0.869212 0.541711
O O8 0.328048 0.164191 0.396943
O O9 0.383852 0.008793 0.382722
O O10 0.229558 0.251976 0.696414
O O11 0.257743 0.422580 0.744157
O O12 0.283805 0.299777 0.932401
O O13 0.696371 0.583236 0.849175
O O14 0.708377 0.918208 0.198585
O O15 0.711002 0.019842 0.965421
#
# Coordination Sequence:
#
# PCOD8246854 Si02
#       7
#     8   8   8   8   8   8   8
#     4  12  25  34  53  77 108 153 194 229 278 340
#     4  11  22  36  51  79 110 147 194 230 279 332
#     4  10  20  35  50  73 106 146 188 231 266 331
#     4  10  22  35  53  82 111 151 192 229 286 336
#     4  11  21  35  55  79 116 153 189 237 279 342
#     4  11  18  32  52  73 111 152 187 223 272 329
#     4  11  20  34  52  78 115 157 187 229 281 335
#
# _framework density 17.98732
#
# number of rings (size 3 to 8) (size 9 to 14) (size 15 to 20)
#    0.000    1.143    8.571    2.143    2.000    1.143 
#    0.000    0.000    0.000    0.000    0.000    0.000 
#    0.000   36.571    0.000    0.000    0.000    0.000 
#
# Total GULP energy -693954.535148 kJ/mol
# GULP energy per Si atom -12392.045271 kJ/mol
# Density = 1.794638 g / cm^3
# Si number density = 17.987320 Si / 1000 Ang^3
#
#
#
# Elastic Constant Matrix: (Units=GPa)
#
#
# Indices 1 2 3 4 5 6 
#
# 1 63.0357 30.0897 37.5143 0.0000 0.0000 0.0000
# 2 30.0897 67.9525 25.0320 0.0000 0.0000 0.0000
# 3 37.5143 25.0320 114.1780 0.0000 0.0000 0.0000
# 4 0.0000 0.0000 0.0000 24.9482 0.0000 0.0000
# 5 0.0000 0.0000 0.0000 0.0000 26.6392 0.0000
# 6 0.0000 0.0000 0.0000 0.0000 0.0000 24.7131
#
#
#
# Elastic Compliance Matrix: (Units=1/GPa)
#
#
# Indices 1 2 3 4 5 6 
#
# 1 0.023225 -0.008130 -0.005849 0.000000 0.000000 0.000000
# 2 -0.008130 0.018855 -0.001463 0.000000 0.000000 0.000000
# 3 -0.005849 -0.001463 0.011001 0.000000 0.000000 0.000000
# 4 0.000000 0.000000 0.000000 0.040083 0.000000 0.000000
# 5 0.000000 0.000000 0.000000 0.000000 0.037539 0.000000
# 6 0.000000 0.000000 0.000000 0.000000 0.000000 0.040464
#
#
# Mechanical properties :
#
#
# Convention : Reuss Voigt Hill
#
# Bulk Modulus (GPa) = 45.04741 47.82649 46.43695
# Shear Modulus (GPa) = 23.87223 25.42878 24.65050
#
# Velocity S-wave (km/s) = 3.64699 3.76401 3.70596
# Velocity P-wave (km/s) = 6.54464 6.74812 6.64716
#
# Compressibility (1/GPa) = 0.02219883
#
# Stress axis : x y z
#
# Youngs Moduli (GPa) = 43.05629 53.03673 90.90496
#
# Poissons Ratio (x) = 0.43118 0.53166
# Poissons Ratio (y) = 0.35004 0.13295
# Poissons Ratio (z) = 0.25182 0.07757
#
# Static dielectric constant tensor:
#      x y z
#    x 3.180320 0.000000 0.000000 
#    y 0.000000 3.122980 0.000000 
#    z 0.000000 0.000000 3.520630 
# 
# 
# High freq. dielectric constant tensor:
#      x y z
#    x 1.666150 0.000000 0.000000 
#    y 0.000000 1.661890 0.000000 
#    z 0.000000 0.000000 1.717860 
# 
# From -- ./inp_files/7436.got.cif
#   From: 2010.03.12/outbox.cif.g09.slc.cpg/sg60_4_cif.got.tgz:7436.got - 2010.04.10 18:46:24.
