data_PCOD8246370
_publ_section_title
;
Structure prediction by ZEFSAII (Michael W. Deem and Ramdas Pophale) SiO2 
 PCOD8246370
Probable space group: P B C N
;
_chemical_formula_sum "Si O2"
_cell_formula_units_Z 40
_cell_length_a 8.987203
_cell_length_b 23.650814
_cell_length_c 8.688946
_cell_angle_alpha 90.000000
_cell_angle_beta 90.000000
_cell_angle_gamma 90.000000
_cell_volume 1846.876020
_symmetry_space_group_name_H-M "P B C N"
_symmetry_group_IT_number 60
_symmetry_cell_setting 'orthorhombic'
loop_
_space_group_symop_operation_xyz
x,y,z
1/2-x,1/2-y,1/2+z
1/2+x,1/2-y,-z
-x,y,1/2-z
-x,-y,-z
1/2+x,1/2+y,1/2-z
1/2-x,1/2+y,z
x,-y,1/2+z
loop_
_atom_site_type_symbol
_atom_site_label
_atom_site_fract_x
_atom_site_fract_y
_atom_site_fract_z
Si Si1 0.828645 0.052581 0.432466
Si Si2 0.682137 0.436968 0.585935
Si Si3 0.789787 0.321346 0.442204
Si Si4 0.860704 0.147422 0.647441
Si Si5 0.017615 0.233833 0.426645
O O1 0.762356 0.060342 0.262192
O O2 0.772411 0.097371 0.559448
O O3 0.004917 0.064364 0.425850
O O4 0.770790 0.991883 0.489478
O O5 0.763515 0.382631 0.514821
O O6 0.757204 0.322455 0.259634
O O7 0.958230 0.297859 0.459927
O O8 0.687309 0.273083 0.521072
O O9 0.918551 0.190545 0.522120
O O10 0.000000 0.123639 0.750000
O O11 0.000000 0.216046 0.250000
#
# Coordination Sequence:
#
# PCOD8246370 Si02
#       5
#     8   8   8   8   8
#     4  10  18  30  52  81 118 147 187 248 308 334
#     4  10  19  30  53  82 117 147 189 247 303 347
#     4  11  22  37  57  86 120 154 198 240 293 353
#     4  10  19  32  51  78 115 148 193 238 287 343
#     4  11  22  38  57  83 117 159 196 241 287 345
#
# _framework density 21.658196
#
# number of rings (size 3 to 8) (size 9 to 14) (size 15 to 20)
#    0.000    1.600    4.000    3.600    2.800    0.000 
#    0.000    2.000    0.000    0.000    0.000   12.600 
#    0.000    0.000    0.000    3.000    0.000    0.000 
#
# Total GULP energy -495799.419345 kJ/mol
# GULP energy per Si atom -12394.985484 kJ/mol
# Density = 2.160890 g / cm^3
# Si number density = 21.658196 Si / 1000 Ang^3
#
#
#
# Elastic Constant Matrix: (Units=GPa)
#
#
# Indices 1 2 3 4 5 6 
#
# 1 16.7556 21.4852 11.4706 0.0000 0.0000 0.0000
# 2 21.4852 111.4558 54.1377 0.0000 0.0000 0.0000
# 3 11.4706 54.1377 170.6041 0.0000 0.0000 0.0000
# 4 0.0000 0.0000 0.0000 27.4602 0.0000 0.0000
# 5 0.0000 0.0000 0.0000 0.0000 8.4059 0.0000
# 6 0.0000 0.0000 0.0000 0.0000 0.0000 14.0947
#
#
#
# Elastic Compliance Matrix: (Units=1/GPa)
#
#
# Indices 1 2 3 4 5 6 
#
# 1 0.079324 -0.015015 -0.000569 0.000000 0.000000 0.000000
# 2 -0.015015 0.013449 -0.003258 0.000000 0.000000 0.000000
# 3 -0.000569 -0.003258 0.006934 0.000000 0.000000 0.000000
# 4 0.000000 0.000000 0.000000 0.036416 0.000000 0.000000
# 5 0.000000 0.000000 0.000000 0.000000 0.118964 0.000000
# 6 0.000000 0.000000 0.000000 0.000000 0.000000 0.070949
#
#
# Mechanical properties :
#
#
# Convention : Reuss Voigt Hill
#
# Bulk Modulus (GPa) = 16.12302 52.55583 34.33943
# Shear Modulus (GPa) = 13.00749 24.10696 18.55723
#
# Velocity S-wave (km/s) = 2.45333 3.33988 2.93033
# Velocity P-wave (km/s) = 3.93517 6.26033 5.22864
#
# Compressibility (1/GPa) = 0.06202311
#
# Stress axis : x y z
#
# Youngs Moduli (GPa) = 12.60653 74.35362 144.22277
#
# Poissons Ratio (x) = 1.11642 0.08201
# Poissons Ratio (y) = 0.18929 0.46992
# Poissons Ratio (z) = 0.00717 0.24227
#
# Static dielectric constant tensor:
#      x y z
#    x 3.402120 0.000000 0.000000 
#    y 0.000000 3.948630 0.000000 
#    z 0.000000 0.000000 4.473220 
# 
# 
# High freq. dielectric constant tensor:
#      x y z
#    x 1.785030 0.000000 0.000000 
#    y 0.000000 1.855960 0.000000 
#    z 0.000000 0.000000 1.878980 
# 
# From -- ./inp_files/4905.got.cif
#   From: 2010.03.12/outbox.cif.g09.slc.cpg/sg60_3_cif.got.tgz:4905.got - 2010.04.10 18:46:24.
