data_PCOD8246206
_publ_section_title
;
Structure prediction by ZEFSAII (Michael W. Deem and Ramdas Pophale) SiO2 
 PCOD8246206
Probable space group: P M M N
;
_chemical_formula_sum "Si O2"
_cell_formula_units_Z 64
_cell_length_a 17.770397
_cell_length_b 9.527435
_cell_length_c 22.846815
_cell_angle_alpha 90.000000
_cell_angle_beta 90.000000
_cell_angle_gamma 90.000000
_cell_volume 3868.109768
_symmetry_space_group_name_H-M "P M M N"
_symmetry_group_IT_number 59
_space_group.IT_coordinate_system_code '2'
_symmetry_cell_setting 'orthorhombic'
loop_
_space_group_symop_operation_xyz
x,y,z
1/2-x,1/2-y,z
1/2+x,-y,-z
-x,1/2+y,-z
-x,-y,-z
1/2+x,1/2+y,-z
1/2-x,y,z
x,1/2-y,z
loop_
_atom_site_type_symbol
_atom_site_label
_atom_site_fract_x
_atom_site_fract_y
_atom_site_fract_z
Si Si1 0.530339 0.586811 0.119097
Si Si2 0.029389 0.586399 0.243964
Si Si3 0.059382 0.591900 0.468160
Si Si4 0.462178 0.413041 0.635030
Si Si5 0.831518 0.584009 0.045707
Si Si6 0.164836 0.087728 0.201462
Si Si7 0.396569 0.086535 0.076070
Si Si8 0.664240 0.414600 0.433777
O O1 0.515352 0.750000 0.106268
O O2 0.522010 0.552852 0.187677
O O3 0.612694 0.538948 0.097788
O O4 0.473234 0.498582 0.080469
O O5 0.049770 0.750000 0.249000
O O6 0.108055 0.503730 0.240448
O O7 0.980016 0.536479 0.299284
O O8 0.038523 0.750000 0.484027
O O9 0.141222 0.558928 0.497154
O O10 0.000000 0.500000 0.500000
O O11 0.042959 0.565635 0.399232
O O12 0.437548 0.250000 0.633275
O O13 0.392692 0.502550 0.609073
O O14 0.750000 0.519326 0.060888
O O15 0.826483 0.750000 0.041957
O O16 0.855787 0.528831 0.981801
O O17 0.250000 0.048007 0.219110
O O18 0.147801 0.250000 0.214739
O O19 0.155297 0.056347 0.132468
O O20 0.416742 0.250000 0.070867
O O21 0.750000 0.468534 0.425641
O O22 0.658979 0.250000 0.418301
#
# Coordination Sequence:
#
# PCOD8246206 Si02
#       8
#     8   8   8   8   8   8   8   8
#     4   9  17  29  44  62  86 114 143 177 215 257
#     4   9  18  31  45  64  90 119 151 182 212 251
#     4   8  14  26  44  64  86 112 140 172 211 253
#     4   9  17  30  47  66  89 119 154 184 211 253
#     4   9  16  26  42  63  84 108 141 180 220 261
#     4   9  17  29  45  65  87 111 142 181 223 265
#     4   9  16  27  45  65  83 106 139 179 221 266
#     4   9  17  29  46  69  93 114 141 181 225 263
#
# _framework density 16.545549999999999
#
# number of rings (size 3 to 8) (size 9 to 14) (size 15 to 20)
#    0.000    3.125    0.000    0.750    0.000    2.500 
#    0.000    1.250    0.000    6.750    0.000    0.000 
#    0.000    0.000    0.000    0.000    0.000    0.000 
#
# Total GULP energy -792901.908942 kJ/mol
# GULP energy per Si atom -12389.092327 kJ/mol
# Density = 1.650789 g / cm^3
# Si number density = 16.545550 Si / 1000 Ang^3
#
#
#
# Elastic Constant Matrix: (Units=GPa)
#
#
# Indices 1 2 3 4 5 6 
#
# 1 144.2862 43.6287 72.2471 0.0000 0.0000 0.0000
# 2 43.6287 37.9589 29.5072 0.0000 0.0000 0.0000
# 3 72.2471 29.5072 89.8415 0.0000 0.0000 0.0000
# 4 0.0000 0.0000 0.0000 17.6328 0.0000 0.0000
# 5 0.0000 0.0000 0.0000 0.0000 21.6101 0.0000
# 6 0.0000 0.0000 0.0000 0.0000 0.0000 23.9434
#
#
#
# Elastic Compliance Matrix: (Units=1/GPa)
#
#
# Indices 1 2 3 4 5 6 
#
# 1 0.013855 -0.009753 -0.007938 0.000000 0.000000 0.000000
# 2 -0.009753 0.042243 -0.006031 0.000000 0.000000 0.000000
# 3 -0.007938 -0.006031 0.019495 0.000000 0.000000 0.000000
# 4 0.000000 0.000000 0.000000 0.056713 0.000000 0.000000
# 5 0.000000 0.000000 0.000000 0.000000 0.046275 0.000000
# 6 0.000000 0.000000 0.000000 0.000000 0.000000 0.041765
#
#
# Mechanical properties :
#
#
# Convention : Reuss Voigt Hill
#
# Bulk Modulus (GPa) = 35.52671 62.53919 49.03295
# Shear Modulus (GPa) = 18.03943 21.08418 19.56180
#
# Velocity S-wave (km/s) = 3.30553 3.57362 3.44219
# Velocity P-wave (km/s) = 6.00728 7.40999 6.74520
#
# Compressibility (1/GPa) = 0.02814784
#
# Stress axis : x y z
#
# Youngs Moduli (GPa) = 72.17838 23.67283 51.29592
#
# Poissons Ratio (x) = 0.23089 0.40718
# Poissons Ratio (y) = 0.70399 0.30934
# Poissons Ratio (z) = 0.57295 0.14276
#
# Static dielectric constant tensor:
#      x y z
#    x 3.309270 0.000000 0.000000 
#    y 0.000000 3.010270 0.000000 
#    z 0.000000 0.000000 3.448130 
# 
# 
# High freq. dielectric constant tensor:
#      x y z
#    x 1.628070 0.000000 0.000000 
#    y 0.000000 1.623730 0.000000 
#    z 0.000000 0.000000 1.630600 
# 
# From -- ./inp_files/30720.got.cif
#   From: 2010.03.12/outbox.cif.g09.slc.cpg/sg59_16_cif.got.tgz:30720.got - 2010.04.16 16:29:54.
