data_PCOD8246599
_publ_section_title
;
Structure prediction by ZEFSAII (Michael W. Deem and Ramdas Pophale) SiO2 
 PCOD8246599
Probable space group: P B C N
;
_chemical_formula_sum "Si O2"
_cell_formula_units_Z 64
_cell_length_a 13.660194
_cell_length_b 17.212250
_cell_length_c 14.619398
_cell_angle_alpha 90.000000
_cell_angle_beta 90.000000
_cell_angle_gamma 90.000000
_cell_volume 3437.351953
_symmetry_space_group_name_H-M "P B C N"
_symmetry_group_IT_number 60
_symmetry_cell_setting 'orthorhombic'
loop_
_space_group_symop_operation_xyz
x,y,z
1/2-x,1/2-y,1/2+z
1/2+x,1/2-y,-z
-x,y,1/2-z
-x,-y,-z
1/2+x,1/2+y,1/2-z
1/2-x,1/2+y,z
x,-y,1/2+z
loop_
_atom_site_type_symbol
_atom_site_label
_atom_site_fract_x
_atom_site_fract_y
_atom_site_fract_z
Si Si1 0.605924 0.469494 0.474992
Si Si2 0.403981 0.753496 0.689684
Si Si3 0.400467 0.216138 0.800872
Si Si4 0.434113 0.694066 0.487439
Si Si5 0.780673 0.159949 0.311573
Si Si6 0.349089 0.635763 0.999158
Si Si7 0.790201 0.864959 0.194471
Si Si8 0.611526 0.503124 0.274071
O O1 0.500000 0.500000 0.500000
O O2 0.634252 0.384826 0.518881
O O3 0.675515 0.542308 0.501839
O O4 0.608805 0.453702 0.366566
O O5 0.500000 0.765721 0.750000
O O6 0.426062 0.741298 0.582346
O O7 0.334669 0.828420 0.708499
O O8 0.343470 0.679569 0.723931
O O9 0.500000 0.191386 0.750000
O O10 0.348969 0.282788 0.744136
O O11 0.328138 0.140993 0.798766
O O12 0.416387 0.246619 0.904369
O O13 0.539402 0.654948 0.479413
O O14 0.788649 0.176400 0.420083
O O15 0.818082 0.075832 0.285217
O O16 0.318035 0.673096 0.903071
O O17 0.834469 0.952020 0.196455
O O18 0.500000 0.527543 0.250000
#
# Coordination Sequence:
#
# PCOD8246599 Si02
#       8
#     8   8   8   8   8   8   8   8
#     4   9  19  29  50  85 113 143 180 230 292 338
#     4  11  21  38  57  83 116 154 194 232 280 345
#     4  11  23  38  55  81 117 158 191 231 283 349
#     4  11  19  34  57  81 118 157 182 237 289 334
#     4  10  23  36  57  86 115 150 193 236 286 344
#     4  10  19  34  54  87 115 144 191 239 291 342
#     4  11  22  36  59  87 112 150 194 234 291 342
#     4  11  20  35  59  85 115 144 185 244 294 336
#
# _framework density 18.618984000000001
#
# number of rings (size 3 to 8) (size 9 to 14) (size 15 to 20)
#    0.000    1.500    3.750    3.000    5.250    0.000 
#    0.000    0.625    0.000    0.000    0.000    4.375 
#    0.000    0.000    0.000    0.000    0.000    0.000 
#
# Total GULP energy -792867.636813 kJ/mol
# GULP energy per Si atom -12388.556825 kJ/mol
# Density = 1.857661 g / cm^3
# Si number density = 18.618984 Si / 1000 Ang^3
#
#
#
# Elastic Constant Matrix: (Units=GPa)
#
#
# Indices 1 2 3 4 5 6 
#
# 1 112.9595 44.3635 27.8068 0.0000 0.0000 0.0000
# 2 44.3635 60.8841 21.4030 0.0000 0.0000 0.0000
# 3 27.8068 21.4030 101.6428 0.0000 0.0000 0.0000
# 4 0.0000 0.0000 0.0000 8.4498 0.0000 0.0000
# 5 0.0000 0.0000 0.0000 0.0000 13.8361 0.0000
# 6 0.0000 0.0000 0.0000 0.0000 0.0000 19.1550
#
#
#
# Elastic Compliance Matrix: (Units=1/GPa)
#
#
# Indices 1 2 3 4 5 6 
#
# 1 0.012650 -0.008641 -0.001641 0.000000 0.000000 0.000000
# 2 -0.008641 0.023640 -0.002614 0.000000 0.000000 0.000000
# 3 -0.001641 -0.002614 0.010838 0.000000 0.000000 0.000000
# 4 0.000000 0.000000 0.000000 0.118346 0.000000 0.000000
# 5 0.000000 0.000000 0.000000 0.000000 0.072275 0.000000
# 6 0.000000 0.000000 0.000000 0.000000 0.000000 0.052206
#
#
# Mechanical properties :
#
#
# Convention : Reuss Voigt Hill
#
# Bulk Modulus (GPa) = 46.86955 51.40368 49.13661
# Shear Modulus (GPa) = 15.48667 20.41572 17.95119
#
# Velocity S-wave (km/s) = 2.88717 3.31494 3.10842
# Velocity P-wave (km/s) = 6.02843 6.50537 6.27144
#
# Compressibility (1/GPa) = 0.02133582
#
# Stress axis : x y z
#
# Youngs Moduli (GPa) = 79.04948 42.30181 92.26957
#
# Poissons Ratio (x) = 0.36552 0.15144
# Poissons Ratio (y) = 0.68304 0.24119
# Poissons Ratio (z) = 0.12974 0.11057
#
# Static dielectric constant tensor:
#      x y z
#    x 3.419410 0.000000 0.000000 
#    y 0.000000 3.487960 0.000000 
#    z 0.000000 0.000000 3.679320 
# 
# 
# High freq. dielectric constant tensor:
#      x y z
#    x 1.697990 0.000000 0.000000 
#    y 0.000000 1.699760 0.000000 
#    z 0.000000 0.000000 1.746140 
# 
# From -- ./inp_files/17067.got.cif
#   From: 2010.03.12/outbox.cif.g09.slc.cpg/sg60_9_cif.got.tgz:17067.got - 2010.04.10 18:46:24.
