data_PCOD8246659
_publ_section_title
;
Structure prediction by ZEFSAII (Michael W. Deem and Ramdas Pophale) SiO2 
 PCOD8246659
Probable space group: P B C N
;
_chemical_formula_sum "Si O2"
_cell_formula_units_Z 60
_cell_length_a 6.055610
_cell_length_b 18.962086
_cell_length_c 25.819519
_cell_angle_alpha 90.000000
_cell_angle_beta 90.000000
_cell_angle_gamma 90.000000
_cell_volume 2964.777846
_symmetry_space_group_name_H-M "P B C N"
_symmetry_group_IT_number 60
_symmetry_cell_setting 'orthorhombic'
loop_
_space_group_symop_operation_xyz
x,y,z
1/2-x,1/2-y,1/2+z
1/2+x,1/2-y,-z
-x,y,1/2-z
-x,-y,-z
1/2+x,1/2+y,1/2-z
1/2-x,1/2+y,z
x,-y,1/2+z
loop_
_atom_site_type_symbol
_atom_site_label
_atom_site_fract_x
_atom_site_fract_y
_atom_site_fract_z
Si Si1 0.776592 0.731386 0.561632
Si Si2 0.593566 0.201264 0.376806
Si Si3 0.169309 0.662642 0.610272
Si Si4 0.286151 0.984617 0.158692
Si Si5 0.334297 0.090617 0.325431
Si Si6 0.933614 0.848585 0.489953
Si Si7 0.454905 0.409984 0.591717
Si Si8 0.000000 0.038116 0.250000
O O1 0.604344 0.790092 0.582229
O O2 0.907608 0.772141 0.516977
O O3 0.662684 0.660111 0.540735
O O4 0.934692 0.701782 0.606790
O O5 0.666416 0.280753 0.362867
O O6 0.498118 0.158432 0.327088
O O7 0.800140 0.158792 0.401010
O O8 0.161485 0.596560 0.648413
O O9 0.241125 0.637927 0.552171
O O10 0.518111 0.020186 0.173108
O O11 0.183345 0.020451 0.106919
O O12 0.107887 0.990252 0.205198
O O13 0.190463 0.089157 0.273013
O O14 0.173348 0.094735 0.374189
O O15 0.961309 0.911626 0.531952
#
# Coordination Sequence:
#
# PCOD8246659 Si02
#       8
#     8   8   8   8   8   8   8   4
#     4  11  19  32  56  86 123 170 210 246 295 358
#     4  10  19  35  62  90 122 158 202 257 302 356
#     4  11  23  35  57  91 131 171 208 251 305 369
#     4  10  24  41  62  91 122 162 205 257 324 381
#     4  10  20  39  68  94 115 157 208 263 316 376
#     4  11  19  32  55  85 123 173 212 246 297 355
#     4  10  20  37  60  87 124 161 210 260 297 365
#     4  10  22  44  72  88 114 156 208 262 328 388
#
# _framework density 20.237601999999999
#
# number of rings (size 3 to 8) (size 9 to 14) (size 15 to 20)
#    0.000    1.600    4.000    1.200    0.000    4.800 
#    0.000    1.333   11.733    0.000    0.000    0.000 
#    0.000    0.000    0.000    0.000    0.000    0.000 
#
# Total GULP energy -743637.592099 kJ/mol
# GULP energy per Si atom -12393.959868 kJ/mol
# Density = 2.019154 g / cm^3
# Si number density = 20.237602 Si / 1000 Ang^3
#
#
#
# Elastic Constant Matrix: (Units=GPa)
#
#
# Indices 1 2 3 4 5 6 
#
# 1 106.6554 42.2385 36.1853 0.0000 0.0000 0.0000
# 2 42.2385 106.3583 43.1124 0.0000 0.0000 0.0000
# 3 36.1853 43.1124 75.5586 0.0000 0.0000 0.0000
# 4 0.0000 0.0000 0.0000 21.4443 0.0000 0.0000
# 5 0.0000 0.0000 0.0000 0.0000 36.1580 0.0000
# 6 0.0000 0.0000 0.0000 0.0000 0.0000 22.7961
#
#
#
# Elastic Compliance Matrix: (Units=1/GPa)
#
#
# Indices 1 2 3 4 5 6 
#
# 1 0.011958 -0.003158 -0.003925 0.000000 0.000000 0.000000
# 2 -0.003158 0.013065 -0.005942 0.000000 0.000000 0.000000
# 3 -0.003925 -0.005942 0.018505 0.000000 0.000000 0.000000
# 4 0.000000 0.000000 0.000000 0.046632 0.000000 0.000000
# 5 0.000000 0.000000 0.000000 0.000000 0.027656 0.000000
# 6 0.000000 0.000000 0.000000 0.000000 0.000000 0.043867
#
#
# Mechanical properties :
#
#
# Convention : Reuss Voigt Hill
#
# Bulk Modulus (GPa) = 57.21553 59.07164 58.14359
# Shear Modulus (GPa) = 25.83166 27.21541 26.52354
#
# Velocity S-wave (km/s) = 3.57658 3.67112 3.62416
# Velocity P-wave (km/s) = 6.73715 6.87182 6.80482
#
# Compressibility (1/GPa) = 0.01747777
#
# Stress axis : x y z
#
# Youngs Moduli (GPa) = 83.62385 76.53994 54.03947
#
# Poissons Ratio (x) = 0.24172 0.21210
# Poissons Ratio (y) = 0.26409 0.32112
# Poissons Ratio (z) = 0.32822 0.45482
#
# Static dielectric constant tensor:
#      x y z
#    x 3.976070 0.000000 0.000000 
#    y 0.000000 3.393570 0.000000 
#    z 0.000000 0.000000 3.509820 
# 
# 
# High freq. dielectric constant tensor:
#      x y z
#    x 1.814990 0.000000 0.000000 
#    y 0.000000 1.764030 0.000000 
#    z 0.000000 0.000000 1.762020 
# 
# From -- ./inp_files/25781.got.cif
#   From: 2010.03.12/outbox.cif.g09.slc.cpg/sg60_13_cif.got.tgz:25781.got - 2010.04.10 18:46:24.
