data_PCOD8246080
_publ_section_title
;
Structure prediction by ZEFSAII (Michael W. Deem and Ramdas Pophale) SiO2 
 PCOD8246080
Probable space group: P M M N
;
_chemical_formula_sum "Si O2"
_cell_formula_units_Z 40
_cell_length_a 9.145533
_cell_length_b 26.297730
_cell_length_c 9.151202
_cell_angle_alpha 90.000000
_cell_angle_beta 90.000000
_cell_angle_gamma 90.000000
_cell_volume 2200.925921
_symmetry_space_group_name_H-M "P M M N"
_symmetry_group_IT_number 59
_space_group.IT_coordinate_system_code '2'
_symmetry_cell_setting 'orthorhombic'
loop_
_space_group_symop_operation_xyz
x,y,z
1/2-x,1/2-y,z
1/2+x,-y,-z
-x,1/2+y,-z
-x,-y,-z
1/2+x,1/2+y,-z
1/2-x,y,z
x,1/2-y,z
loop_
_atom_site_type_symbol
_atom_site_label
_atom_site_fract_x
_atom_site_fract_y
_atom_site_fract_z
Si Si1 0.916343 0.913265 0.176874
Si Si2 0.580848 0.596391 0.834047
Si Si3 0.084748 0.195816 0.854592
Si Si4 0.579633 0.194356 0.151048
Si Si5 0.923211 0.001019 0.654710
O O1 0.750000 0.931801 0.205292
O O2 0.939990 0.855465 0.240391
O O3 0.952271 0.913057 0.004560
O O4 0.029772 0.948965 0.257962
O O5 0.750000 0.604513 0.804231
O O6 0.502031 0.647168 0.771579
O O7 0.522647 0.547963 0.744918
O O8 0.250000 0.191784 0.920849
O O9 0.069008 0.250000 0.766717
O O10 0.968919 0.196449 0.983629
O O11 0.750000 0.182705 0.157583
O O12 0.544895 0.250000 0.223356
O O13 0.750000 0.001861 0.634396
O O14 0.000000 0.000000 0.500000
#
# Coordination Sequence:
#
# PCOD8246080 Si02
#       5
#     8   8   8   8   8
#     4   9  17  31  52  77 102 128 162 203 243 286
#     4   9  19  34  52  74  99 130 167 202 239 290
#     4   8  14  26  45  70 101 133 161 193 236 286
#     4   9  16  25  42  72 104 129 156 195 242 287
#     4  11  23  37  52  71  97 130 167 206 249 295
#
# _framework density 18.174168999999999
#
# number of rings (size 3 to 8) (size 9 to 14) (size 15 to 20)
#    0.000    2.800    0.000    3.000    0.000    6.000 
#    0.000    0.000    0.000    1.200    0.000    2.800 
#    0.000    0.000    0.000    0.000    0.000    0.000 
#
# Total GULP energy -495529.747600 kJ/mol
# GULP energy per Si atom -12388.243690 kJ/mol
# Density = 1.813280 g / cm^3
# Si number density = 18.174169 Si / 1000 Ang^3
#
#
#
# Elastic Constant Matrix: (Units=GPa)
#
#
# Indices 1 2 3 4 5 6 
#
# 1 64.0225 64.2625 29.8035 0.0000 0.0000 0.0000
# 2 64.2625 198.0728 50.8123 0.0000 0.0000 0.0000
# 3 29.8035 50.8123 48.7840 0.0000 0.0000 0.0000
# 4 0.0000 0.0000 0.0000 0.2323 0.0000 0.0000
# 5 0.0000 0.0000 0.0000 0.0000 20.7557 0.0000
# 6 0.0000 0.0000 0.0000 0.0000 0.0000 34.9776
#
#
#
# Elastic Compliance Matrix: (Units=1/GPa)
#
#
# Indices 1 2 3 4 5 6 
#
# 1 0.026170 -0.005989 -0.009749 0.000000 0.000000 0.000000
# 2 -0.005989 0.008260 -0.004945 0.000000 0.000000 0.000000
# 3 -0.009749 -0.004945 0.031605 0.000000 0.000000 0.000000
# 4 0.000000 0.000000 0.000000 4.305407 0.000000 0.000000
# 5 0.000000 0.000000 0.000000 0.000000 0.048179 0.000000
# 6 0.000000 0.000000 0.000000 0.000000 0.000000 0.028590
#
#
# Mechanical properties :
#
#
# Convention : Reuss Voigt Hill
#
# Bulk Modulus (GPa) = 40.53818 66.73732 53.63775
# Shear Modulus (GPa) = 1.11165 22.25987 11.68576
#
# Velocity S-wave (km/s) = 0.78294 3.50352 2.53847
# Velocity P-wave (km/s) = 4.81364 7.29156 6.17811
#
# Compressibility (1/GPa) = 0.02466810
#
# Stress axis : x y z
#
# Youngs Moduli (GPa) = 38.21172 121.06054 31.64062
#
# Poissons Ratio (x) = 0.72509 0.30848
# Poissons Ratio (y) = 0.22887 0.15645
# Poissons Ratio (z) = 0.37254 0.59860
#
# Static dielectric constant tensor:
#      x y z
#    x 3.323840 0.000000 0.000000 
#    y 0.000000 4.114740 0.000000 
#    z 0.000000 0.000000 2.882120 
# 
# 
# High freq. dielectric constant tensor:
#      x y z
#    x 1.706150 0.000000 0.000000 
#    y 0.000000 1.738590 0.000000 
#    z 0.000000 0.000000 1.633700 
# 
# From -- ./inp_files/5692.got.cif
#   From: 2010.03.12/outbox.cif.g09.slc.cpg/sg59_3_cif.got.tgz:5692.got - 2010.04.16 16:29:54.
