data_PCOD8246288
_publ_section_title
;
Structure prediction by ZEFSAII (Michael W. Deem and Ramdas Pophale) SiO2 
 PCOD8246288
Probable space group: P B C N
;
_chemical_formula_sum "Si O2"
_cell_formula_units_Z 24
_cell_length_a 7.920952
_cell_length_b 27.123733
_cell_length_c 5.145611
_cell_angle_alpha 90.000000
_cell_angle_beta 90.000000
_cell_angle_gamma 90.000000
_cell_volume 1105.512846
_symmetry_space_group_name_H-M "P B C N"
_symmetry_group_IT_number 60
_symmetry_cell_setting 'orthorhombic'
loop_
_space_group_symop_operation_xyz
x,y,z
1/2-x,1/2-y,1/2+z
1/2+x,1/2-y,-z
-x,y,1/2-z
-x,-y,-z
1/2+x,1/2+y,1/2-z
1/2-x,1/2+y,z
x,-y,1/2+z
loop_
_atom_site_type_symbol
_atom_site_label
_atom_site_fract_x
_atom_site_fract_y
_atom_site_fract_z
Si Si1 0.811180 0.521572 0.524953
Si Si2 0.890749 0.368592 0.004807
Si Si3 0.689442 0.275788 0.847844
O O1 0.715757 0.493538 0.760250
O O2 0.805594 0.579755 0.581126
O O3 0.000000 0.500000 0.500000
O O4 0.000000 0.349020 0.250000
O O5 0.746160 0.329273 0.945157
O O6 0.000000 0.377860 0.750000
O O7 0.803304 0.259899 0.600171
O O8 0.500000 0.277781 0.750000
#
# Coordination Sequence:
#
# PCOD8246288 Si02
#       3
#     8   8   8
#     4  10  16  30  51  88 123 149 201 253 284 357
#     4  12  21  35  63  93 120 163 206 256 312 364
#     4  12  26  45  64  89 126 164 215 267 318 376
#
# _framework density 21.709381
#
# number of rings (size 3 to 8) (size 9 to 14) (size 15 to 20)
#    0.000    0.667    6.667    6.000    0.000    0.000 
#    0.000    0.000    0.000    2.000    0.000    0.000 
#    0.000    0.000    0.000    0.000    0.000    0.000 
#
# Total GULP energy -297546.978582 kJ/mol
# GULP energy per Si atom -12397.790774 kJ/mol
# Density = 2.165997 g / cm^3
# Si number density = 21.709381 Si / 1000 Ang^3
#
#
#
# Elastic Constant Matrix: (Units=GPa)
#
#
# Indices 1 2 3 4 5 6 
#
# 1 66.0688 52.4709 35.3776 0.0000 0.0000 0.0000
# 2 52.4709 161.4914 49.7822 0.0000 0.0000 0.0000
# 3 35.3776 49.7822 197.6123 0.0000 0.0000 0.0000
# 4 0.0000 0.0000 0.0000 37.9091 0.0000 0.0000
# 5 0.0000 0.0000 0.0000 0.0000 26.3068 0.0000
# 6 0.0000 0.0000 0.0000 0.0000 0.0000 16.9785
#
#
#
# Elastic Compliance Matrix: (Units=1/GPa)
#
#
# Indices 1 2 3 4 5 6 
#
# 1 0.021278 -0.006222 -0.002242 0.000000 0.000000 0.000000
# 2 -0.006222 0.008533 -0.001036 0.000000 0.000000 0.000000
# 3 -0.002242 -0.001036 0.005723 0.000000 0.000000 0.000000
# 4 0.000000 0.000000 0.000000 0.026379 0.000000 0.000000
# 5 0.000000 0.000000 0.000000 0.000000 0.038013 0.000000
# 6 0.000000 0.000000 0.000000 0.000000 0.000000 0.058898
#
#
# Mechanical properties :
#
#
# Convention : Reuss Voigt Hill
#
# Bulk Modulus (GPa) = 60.48123 77.82600 69.15362
# Shear Modulus (GPa) = 27.27252 35.40834 31.34043
#
# Velocity S-wave (km/s) = 3.54821 4.04297 3.80364
# Velocity P-wave (km/s) = 6.68628 7.59743 7.15637
#
# Compressibility (1/GPa) = 0.01653405
#
# Stress axis : x y z
#
# Youngs Moduli (GPa) = 46.99717 117.18766 174.74391
#
# Poissons Ratio (x) = 0.72919 0.39173
# Poissons Ratio (y) = 0.29244 0.18099
# Poissons Ratio (z) = 0.10536 0.12137
#
# Static dielectric constant tensor:
#      x y z
#    x 3.216720 0.000000 0.000000 
#    y 0.000000 4.049360 0.000000 
#    z 0.000000 0.000000 -38.306820 
# 
# 
# High freq. dielectric constant tensor:
#      x y z
#    x 1.786880 0.000000 0.000000 
#    y 0.000000 1.866750 0.000000 
#    z 0.000000 0.000000 1.897310 
# 
# From -- ./inp_files/227.got.cif
#   From: 2010.03.12/outbox.cif.g09.slc.cpg/sg60_1_cif.got.tgz:227.got - 2010.04.10 18:46:24.
