data_PCOD8246735
_publ_section_title
;
Structure prediction by ZEFSAII (Michael W. Deem and Ramdas Pophale) SiO2 
 PCOD8246735
Probable space group: P B C N
;
_chemical_formula_sum "Si O2"
_cell_formula_units_Z 64
_cell_length_a 10.795096
_cell_length_b 12.587068
_cell_length_c 22.392712
_cell_angle_alpha 90.000000
_cell_angle_beta 90.000000
_cell_angle_gamma 90.000000
_cell_volume 3042.690523
_symmetry_space_group_name_H-M "P B C N"
_symmetry_group_IT_number 60
_symmetry_cell_setting 'orthorhombic'
loop_
_space_group_symop_operation_xyz
x,y,z
1/2-x,1/2-y,1/2+z
1/2+x,1/2-y,-z
-x,y,1/2-z
-x,-y,-z
1/2+x,1/2+y,1/2-z
1/2-x,1/2+y,z
x,-y,1/2+z
loop_
_atom_site_type_symbol
_atom_site_label
_atom_site_fract_x
_atom_site_fract_y
_atom_site_fract_z
Si Si1 0.060623 0.927458 0.580172
Si Si2 0.147843 0.648636 0.515524
Si Si3 0.557653 0.965190 0.314655
Si Si4 0.804296 0.882658 0.366624
Si Si5 0.313112 0.515275 0.966161
Si Si6 0.467300 0.788328 0.395141
Si Si7 0.193263 0.220538 0.905578
Si Si8 0.018596 0.703658 0.179453
O O1 0.164078 0.923686 0.528627
O O2 0.060282 0.812946 0.614051
O O3 0.092938 0.024409 0.624907
O O4 0.927270 0.937746 0.548221
O O5 0.247414 0.652892 0.569761
O O6 0.183435 0.548119 0.473977
O O7 0.145896 0.747826 0.471090
O O8 0.010041 0.648839 0.544256
O O9 0.500000 0.974487 0.250000
O O10 0.699902 0.926241 0.320784
O O11 0.472058 0.875346 0.343705
O O12 0.548968 0.083690 0.342814
O O13 0.868708 0.779993 0.338387
O O14 0.298821 0.592665 0.909350
O O15 0.331680 0.736958 0.396147
O O16 0.107620 0.259495 0.852116
O O17 0.000000 0.710197 0.250000
#
# Coordination Sequence:
#
# PCOD8246735 Si02
#       8
#     8   8   8   8   8   8   8   8
#     4  10  19  38  60  99 133 177 231 259 339 421
#     4  10  23  38  60 103 135 180 216 277 354 410
#     4  10  26  48  70  96 134 171 234 306 347 406
#     4  10  23  44  74  94 136 183 227 281 347 431
#     4  10  20  37  59  90 142 181 212 279 330 415
#     4  11  24  39  65 102 137 181 225 278 353 409
#     4  12  24  39  67  96 143 175 226 292 335 425
#     4  11  27  49  70  99 132 189 237 284 350 406
#
# _framework density 21.034016000000001
#
# number of rings (size 3 to 8) (size 9 to 14) (size 15 to 20)
#    0.000    1.500    3.750    0.000    8.750    1.500 
#    0.000    0.625    0.000    0.000    0.000    0.000 
#    0.000    0.000    0.000    0.000    0.000    0.000 
#
# Total GULP energy -793047.395338 kJ/mol
# GULP energy per Si atom -12391.365552 kJ/mol
# Density = 2.098614 g / cm^3
# Si number density = 21.034016 Si / 1000 Ang^3
#
#
#
# Elastic Constant Matrix: (Units=GPa)
#
#
# Indices 1 2 3 4 5 6 
#
# 1 104.3063 26.1123 35.3353 0.0000 0.0000 0.0000
# 2 26.1123 112.7712 44.1232 0.0000 0.0000 0.0000
# 3 35.3353 44.1232 78.8539 0.0000 0.0000 0.0000
# 4 0.0000 0.0000 0.0000 34.9129 0.0000 0.0000
# 5 0.0000 0.0000 0.0000 0.0000 29.3312 0.0000
# 6 0.0000 0.0000 0.0000 0.0000 0.0000 29.8542
#
#
#
# Elastic Compliance Matrix: (Units=1/GPa)
#
#
# Indices 1 2 3 4 5 6 
#
# 1 0.011362 -0.000818 -0.004634 0.000000 0.000000 0.000000
# 2 -0.000818 0.011412 -0.006019 0.000000 0.000000 0.000000
# 3 -0.004634 -0.006019 0.018126 0.000000 0.000000 0.000000
# 4 0.000000 0.000000 0.000000 0.028643 0.000000 0.000000
# 5 0.000000 0.000000 0.000000 0.000000 0.034093 0.000000
# 6 0.000000 0.000000 0.000000 0.000000 0.000000 0.033496
#
#
# Mechanical properties :
#
#
# Convention : Reuss Voigt Hill
#
# Bulk Modulus (GPa) = 55.68411 56.34143 56.01277
# Shear Modulus (GPa) = 30.10972 31.51036 30.81004
#
# Velocity S-wave (km/s) = 3.78759 3.87469 3.83139
# Velocity P-wave (km/s) = 6.75712 6.84555 6.80148
#
# Compressibility (1/GPa) = 0.01795845
#
# Stress axis : x y z
#
# Youngs Moduli (GPa) = 88.01574 87.62744 55.16898
#
# Poissons Ratio (x) = 0.07166 0.25563
# Poissons Ratio (y) = 0.07198 0.33207
# Poissons Ratio (z) = 0.40783 0.52744
#
# Static dielectric constant tensor:
#      x y z
#    x 3.784050 0.000000 0.000000 
#    y 0.000000 4.116160 0.000000 
#    z 0.000000 0.000000 3.488950 
# 
# 
# High freq. dielectric constant tensor:
#      x y z
#    x 1.821180 0.000000 0.000000 
#    y 0.000000 1.845290 0.000000 
#    z 0.000000 0.000000 1.792110 
# 
# From -- ./inp_files/24304.got.cif
#   From: 2010.03.12/outbox.cif.g09.slc.cpg/sg60_13_cif.got.tgz:24304.got - 2010.04.10 18:46:24.
