data_PCOD8246929
_publ_section_title
;
Structure prediction by ZEFSAII (Michael W. Deem and Ramdas Pophale) SiO2 
 PCOD8246929
Probable space group: P B C N
;
_chemical_formula_sum "Si O2"
_cell_formula_units_Z 48
_cell_length_a 8.871946
_cell_length_b 19.909639
_cell_length_c 13.536763
_cell_angle_alpha 90.000000
_cell_angle_beta 90.000000
_cell_angle_gamma 90.000000
_cell_volume 2391.096483
_symmetry_space_group_name_H-M "P B C N"
_symmetry_group_IT_number 60
_symmetry_cell_setting 'orthorhombic'
loop_
_space_group_symop_operation_xyz
x,y,z
1/2-x,1/2-y,1/2+z
1/2+x,1/2-y,-z
-x,y,1/2-z
-x,-y,-z
1/2+x,1/2+y,1/2-z
1/2-x,1/2+y,z
x,-y,1/2+z
loop_
_atom_site_type_symbol
_atom_site_label
_atom_site_fract_x
_atom_site_fract_y
_atom_site_fract_z
Si Si1 0.000000 0.834855 0.750000
Si Si2 0.316500 0.887148 0.706103
Si Si3 0.161338 0.432141 0.921603
Si Si4 0.144168 0.422971 0.490942
Si Si5 0.876318 0.814066 0.551479
Si Si6 0.500000 0.765008 0.750000
Si Si7 0.838156 0.199626 0.577463
O O1 0.861072 0.882206 0.777006
O O2 0.951053 0.790230 0.655517
O O3 0.393666 0.917546 0.807495
O O4 0.320091 0.932035 0.607617
O O5 0.392949 0.814037 0.683709
O O6 0.310696 0.389246 0.942144
O O7 0.036939 0.412212 0.005213
O O8 0.196076 0.510878 0.932330
O O9 0.226146 0.363103 0.432749
O O10 0.742337 0.762832 0.525091
O O11 0.002524 0.816275 0.469906
O O12 0.383109 0.718811 0.810774
#
# Coordination Sequence:
#
# PCOD8246929 Si02
#       7
#     4   8   8   8   8   4   8
#     4  10  20  36  61  91 112 164 216 238 306 398
#     4  11  19  42  65  89 123 174 208 253 323 393
#     4  10  22  41  67  93 124 174 218 248 326 395
#     4  11  22  41  67  93 125 166 213 272 310 381
#     4  11  22  39  64  94 120 169 212 262 317 393
#     4  12  22  40  63  89 130 172 208 258 328 384
#     4  12  24  38  63  96 128 161 216 276 321 370
#
# _framework density 20.074470999999999
#
# number of rings (size 3 to 8) (size 9 to 14) (size 15 to 20)
#    0.000    1.000    6.667    2.000    0.000    0.667 
#    3.000    0.833    3.667    0.000    0.000    0.000 
#    0.000    0.000    0.000    0.000    0.000    0.000 
#
# Total GULP energy -594812.765023 kJ/mol
# GULP energy per Si atom -12391.932605 kJ/mol
# Density = 2.002878 g / cm^3
# Si number density = 20.074471 Si / 1000 Ang^3
#
#
#
# Elastic Constant Matrix: (Units=GPa)
#
#
# Indices 1 2 3 4 5 6 
#
# 1 83.6187 42.0590 22.0079 0.0000 0.0000 0.0000
# 2 42.0590 118.9286 52.7402 0.0000 0.0000 0.0000
# 3 22.0079 52.7402 77.0851 0.0000 0.0000 0.0000
# 4 0.0000 0.0000 0.0000 34.5458 0.0000 0.0000
# 5 0.0000 0.0000 0.0000 0.0000 37.0862 0.0000
# 6 0.0000 0.0000 0.0000 0.0000 0.0000 31.8230
#
#
#
# Elastic Compliance Matrix: (Units=1/GPa)
#
#
# Indices 1 2 3 4 5 6 
#
# 1 0.014591 -0.004756 -0.000912 0.000000 0.000000 0.000000
# 2 -0.004756 0.013621 -0.007961 0.000000 0.000000 0.000000
# 3 -0.000912 -0.007961 0.018680 0.000000 0.000000 0.000000
# 4 0.000000 0.000000 0.000000 0.028947 0.000000 0.000000
# 5 0.000000 0.000000 0.000000 0.000000 0.026964 0.000000
# 6 0.000000 0.000000 0.000000 0.000000 0.000000 0.031424
#
#
# Mechanical properties :
#
#
# Convention : Reuss Voigt Hill
#
# Bulk Modulus (GPa) = 50.93242 57.02739 53.97991
# Shear Modulus (GPa) = 29.75662 31.54602 30.65132
#
# Velocity S-wave (km/s) = 3.85426 3.96845 3.91177
# Velocity P-wave (km/s) = 6.72561 7.03333 6.88119
#
# Compressibility (1/GPa) = 0.01963386
#
# Stress axis : x y z
#
# Youngs Moduli (GPa) = 68.53482 73.41717 53.53300
#
# Poissons Ratio (x) = 0.34915 0.04882
# Poissons Ratio (y) = 0.32593 0.42619
# Poissons Ratio (z) = 0.06251 0.58450
#
# Static dielectric constant tensor:
#      x y z
#    x 3.995470 0.000000 0.000000 
#    y 0.000000 3.427310 0.000000 
#    z 0.000000 0.000000 3.717930 
# 
# 
# High freq. dielectric constant tensor:
#      x y z
#    x 1.809870 0.000000 0.000000 
#    y 0.000000 1.753710 0.000000 
#    z 0.000000 0.000000 1.774100 
# 
# From -- ./inp_files/15059.got.cif
#   From: 2010.03.12/outbox.cif.g09.slc.cpg/sg60_8_cif.got.tgz:15059.got - 2010.04.10 18:46:24.
