data_PCOD8246943
_publ_section_title
;
Structure prediction by ZEFSAII (Michael W. Deem and Ramdas Pophale) SiO2 
 PCOD8246943
Probable space group: P B C N
;
_chemical_formula_sum "Si O2"
_cell_formula_units_Z 48
_cell_length_a 8.501685
_cell_length_b 27.789797
_cell_length_c 9.571721
_cell_angle_alpha 90.000000
_cell_angle_beta 90.000000
_cell_angle_gamma 90.000000
_cell_volume 2261.415764
_symmetry_space_group_name_H-M "P B C N"
_symmetry_group_IT_number 60
_symmetry_cell_setting 'orthorhombic'
loop_
_space_group_symop_operation_xyz
x,y,z
1/2-x,1/2-y,1/2+z
1/2+x,1/2-y,-z
-x,y,1/2-z
-x,-y,-z
1/2+x,1/2+y,1/2-z
1/2-x,1/2+y,z
x,-y,1/2+z
loop_
_atom_site_type_symbol
_atom_site_label
_atom_site_fract_x
_atom_site_fract_y
_atom_site_fract_z
Si Si1 0.692999 0.312614 0.984932
Si Si2 0.686551 0.638858 0.761496
Si Si3 0.683180 0.146041 0.220644
Si Si4 0.160652 0.951045 0.832542
Si Si5 0.338671 0.463579 0.160877
Si Si6 0.827312 0.209873 0.997156
O O1 0.755708 0.342814 0.116431
O O2 0.800157 0.265689 0.967010
O O3 0.718537 0.350133 0.861930
O O4 0.512376 0.297867 0.990167
O O5 0.500000 0.635402 0.750000
O O6 0.752183 0.586281 0.805577
O O7 0.742083 0.678223 0.872185
O O8 0.500000 0.147732 0.250000
O O9 0.731551 0.096011 0.148934
O O10 0.732645 0.192962 0.132749
O O11 0.000000 0.937277 0.750000
O O12 0.251149 0.990841 0.733813
O O13 0.133069 0.969521 0.993325
O O14 0.500000 0.465016 0.250000
#
# Coordination Sequence:
#
# PCOD8246943 Si02
#       6
#     8   8   8   8   8   8
#     4  11  23  38  69  92 127 166 208 264 323 384
#     4   9  20  36  61  92 123 154 200 259 317 383
#     4  12  26  42  60  89 131 175 218 259 306 375
#     4  11  22  38  68  96 123 160 210 267 325 386
#     4  10  20  36  65  99 125 151 206 266 324 393
#     4  11  21  42  63  96 125 163 210 262 324 380
#
# _framework density 21.225639999999999
#
# number of rings (size 3 to 8) (size 9 to 14) (size 15 to 20)
#    0.000    1.333    1.667    5.500    7.000    1.333 
#    0.000    3.333    0.000    0.000    0.000    0.000 
#    0.000    0.000    0.000    0.000    0.000    0.000 
#
# Total GULP energy -594880.156061 kJ/mol
# GULP energy per Si atom -12393.336585 kJ/mol
# Density = 2.117733 g / cm^3
# Si number density = 21.225640 Si / 1000 Ang^3
#
#
#
# Elastic Constant Matrix: (Units=GPa)
#
#
# Indices 1 2 3 4 5 6 
#
# 1 48.1082 12.0076 25.0416 0.0000 0.0000 0.0000
# 2 12.0076 113.9845 35.5907 0.0000 0.0000 0.0000
# 3 25.0416 35.5907 158.0774 0.0000 0.0000 0.0000
# 4 0.0000 0.0000 0.0000 49.7479 0.0000 0.0000
# 5 0.0000 0.0000 0.0000 0.0000 14.3521 0.0000
# 6 0.0000 0.0000 0.0000 0.0000 0.0000 32.4437
#
#
#
# Elastic Compliance Matrix: (Units=1/GPa)
#
#
# Indices 1 2 3 4 5 6 
#
# 1 0.022853 -0.001374 -0.003311 0.000000 0.000000 0.000000
# 2 -0.001374 0.009519 -0.001926 0.000000 0.000000 0.000000
# 3 -0.003311 -0.001926 0.007284 0.000000 0.000000 0.000000
# 4 0.000000 0.000000 0.000000 0.020101 0.000000 0.000000
# 5 0.000000 0.000000 0.000000 0.000000 0.069676 0.000000
# 6 0.000000 0.000000 0.000000 0.000000 0.000000 0.030823
#
#
# Mechanical properties :
#
#
# Convention : Reuss Voigt Hill
#
# Bulk Modulus (GPa) = 37.82772 51.71666 44.77219
# Shear Modulus (GPa) = 27.42906 35.81074 31.61990
#
# Velocity S-wave (km/s) = 3.59870 4.11194 3.86385
# Velocity P-wave (km/s) = 5.92688 6.85290 6.40664
#
# Compressibility (1/GPa) = 0.02643564
#
# Stress axis : x y z
#
# Youngs Moduli (GPa) = 43.75842 105.05221 137.28624
#
# Poissons Ratio (x) = 0.14430 0.45454
# Poissons Ratio (y) = 0.06011 0.26436
# Poissons Ratio (z) = 0.14488 0.20229
#
# Static dielectric constant tensor:
#      x y z
#    x 3.267770 0.000000 0.000000 
#    y 0.000000 4.459700 0.000000 
#    z 0.000000 0.000000 4.145430 
# 
# 
# High freq. dielectric constant tensor:
#      x y z
#    x 1.779520 0.000000 0.000000 
#    y 0.000000 1.854870 0.000000 
#    z 0.000000 0.000000 1.853530 
# 
# From -- ./inp_files/4182.got.cif
#   From: 2010.03.12/outbox.cif.g09.slc.cpg/sg60_3_cif.got.tgz:4182.got - 2010.04.10 18:46:24.
