data_PCOD8246197
_publ_section_title
;
Structure prediction by ZEFSAII (Michael W. Deem and Ramdas Pophale) SiO2 
 PCOD8246197
Probable space group: P M M N
;
_chemical_formula_sum "Si O2"
_cell_formula_units_Z 64
_cell_length_a 9.111746
_cell_length_b 15.470793
_cell_length_c 24.055725
_cell_angle_alpha 90.000000
_cell_angle_beta 90.000000
_cell_angle_gamma 90.000000
_cell_volume 3391.037796
_symmetry_space_group_name_H-M "P M M N"
_symmetry_group_IT_number 59
_space_group.IT_coordinate_system_code '2'
_symmetry_cell_setting 'orthorhombic'
loop_
_space_group_symop_operation_xyz
x,y,z
1/2-x,1/2-y,z
1/2+x,-y,-z
-x,1/2+y,-z
-x,-y,-z
1/2+x,1/2+y,-z
1/2-x,y,z
x,1/2-y,z
loop_
_atom_site_type_symbol
_atom_site_label
_atom_site_fract_x
_atom_site_fract_y
_atom_site_fract_z
Si Si1 0.585755 0.147657 0.937964
Si Si2 0.080866 0.425566 0.466830
Si Si3 0.414880 0.147319 0.044159
Si Si4 0.074853 0.514868 0.631874
Si Si5 0.423541 0.989428 0.756668
Si Si6 0.080601 0.341772 0.576165
Si Si7 0.922721 0.848343 0.173802
Si Si8 0.922840 0.349276 0.155440
O O1 0.750000 0.108941 0.936488
O O2 0.592164 0.250000 0.943381
O O3 0.501517 0.121092 0.882262
O O4 0.500069 0.108454 0.990937
O O5 0.250000 0.449517 0.455906
O O6 0.066017 0.344806 0.508740
O O7 0.000000 0.500000 0.500000
O O8 0.999121 0.411551 0.407404
O O9 0.250000 0.109917 0.044983
O O10 0.411901 0.250000 0.040200
O O11 0.497805 0.118230 0.099819
O O12 0.250000 0.522881 0.627292
O O13 0.016008 0.525612 0.694561
O O14 0.012073 0.422805 0.609159
O O15 0.250000 0.986984 0.754722
O O16 0.480603 0.911005 0.795144
O O17 0.473405 0.084041 0.778746
O O18 0.250000 0.341782 0.593097
O O19 0.008992 0.250000 0.595057
O O20 0.750000 0.853951 0.162653
O O21 0.967128 0.750000 0.191068
O O22 0.750000 0.359286 0.145683
O O23 0.963445 0.250000 0.170157
#
# Coordination Sequence:
#
# PCOD8246197 Si02
#       8
#     8   8   8   8   8   8   8   8
#     4   9  16  27  45  69  96 125 156 190 234 292
#     4   9  16  28  47  68  91 119 149 183 223 266
#     4   9  16  27  46  71  95 118 150 197 248 292
#     4   9  17  30  48  68  93 125 158 192 228 270
#     4   9  18  32  49  70  95 124 161 199 232 273
#     4   8  14  25  44  70  95 119 150 187 225 266
#     4   9  17  30  48  69  94 124 157 195 237 278
#     4   9  17  31  50  68  89 121 158 195 237 285
#
# _framework density 18.873277000000002
#
# number of rings (size 3 to 8) (size 9 to 14) (size 15 to 20)
#    0.000    3.125    0.000    1.875    0.000    3.500 
#    0.000    5.625    0.000   10.125    0.000    0.000 
#    0.000    0.000    0.000    0.000    0.000    0.000 
#
# Total GULP energy -793011.545303 kJ/mol
# GULP energy per Si atom -12390.805395 kJ/mol
# Density = 1.883032 g / cm^3
# Si number density = 18.873277 Si / 1000 Ang^3
#
#
#
# Elastic Constant Matrix: (Units=GPa)
#
#
# Indices 1 2 3 4 5 6 
#
# 1 61.3921 8.0217 35.3354 0.0000 0.0000 0.0000
# 2 8.0217 37.6621 15.3438 0.0000 0.0000 0.0000
# 3 35.3354 15.3438 133.8353 0.0000 0.0000 0.0000
# 4 0.0000 0.0000 0.0000 17.3360 0.0000 0.0000
# 5 0.0000 0.0000 0.0000 0.0000 28.6142 0.0000
# 6 0.0000 0.0000 0.0000 0.0000 0.0000 8.4515
#
#
#
# Elastic Compliance Matrix: (Units=1/GPa)
#
#
# Indices 1 2 3 4 5 6 
#
# 1 0.019371 -0.002142 -0.004869 0.000000 0.000000 0.000000
# 2 -0.002142 0.028090 -0.002655 0.000000 0.000000 0.000000
# 3 -0.004869 -0.002655 0.009062 0.000000 0.000000 0.000000
# 4 0.000000 0.000000 0.000000 0.057683 0.000000 0.000000
# 5 0.000000 0.000000 0.000000 0.000000 0.034948 0.000000
# 6 0.000000 0.000000 0.000000 0.000000 0.000000 0.118323
#
#
# Mechanical properties :
#
#
# Convention : Reuss Voigt Hill
#
# Bulk Modulus (GPa) = 26.88839 38.92125 32.90482
# Shear Modulus (GPa) = 16.71097 22.49292 19.60194
#
# Velocity S-wave (km/s) = 2.97885 3.45597 3.22624
# Velocity P-wave (km/s) = 5.10971 6.04915 5.59916
#
# Compressibility (1/GPa) = 0.03719077
#
# Stress axis : x y z
#
# Youngs Moduli (GPa) = 51.62365 35.60015 110.35471
#
# Poissons Ratio (x) = 0.07627 0.53729
# Poissons Ratio (y) = 0.11059 0.29297
# Poissons Ratio (z) = 0.25134 0.09451
#
# Static dielectric constant tensor:
#      x y z
#    x 3.351320 0.000000 0.000000 
#    y 0.000000 3.423640 0.000000 
#    z 0.000000 0.000000 3.843710 
# 
# 
# High freq. dielectric constant tensor:
#      x y z
#    x 1.706560 0.000000 0.000000 
#    y 0.000000 1.710820 0.000000 
#    z 0.000000 0.000000 1.732860 
# 
# From -- ./inp_files/31763.got.cif
#   From: 2010.03.12/outbox.cif.g09.slc.cpg/sg59_16_cif.got.tgz:31763.got - 2010.04.16 16:29:54.
