data_PCOD8246437
_publ_section_title
;
Structure prediction by ZEFSAII (Michael W. Deem and Ramdas Pophale) SiO2 
 PCOD8246437
Probable space group: P B C N
;
_chemical_formula_sum "Si O2"
_cell_formula_units_Z 40
_cell_length_a 8.303122
_cell_length_b 24.568210
_cell_length_c 9.023271
_cell_angle_alpha 90.000000
_cell_angle_beta 90.000000
_cell_angle_gamma 90.000000
_cell_volume 1840.682722
_symmetry_space_group_name_H-M "P B C N"
_symmetry_group_IT_number 60
_symmetry_cell_setting 'orthorhombic'
loop_
_space_group_symop_operation_xyz
x,y,z
1/2-x,1/2-y,1/2+z
1/2+x,1/2-y,-z
-x,y,1/2-z
-x,-y,-z
1/2+x,1/2+y,1/2-z
1/2-x,1/2+y,z
x,-y,1/2+z
loop_
_atom_site_type_symbol
_atom_site_label
_atom_site_fract_x
_atom_site_fract_y
_atom_site_fract_z
Si Si1 0.121147 0.018818 0.379484
Si Si2 0.351219 0.189337 0.044995
Si Si3 0.283661 0.597437 0.866160
Si Si4 0.215219 0.713601 0.377693
Si Si5 0.150417 0.119086 0.549647
O O1 0.217614 0.071864 0.438443
O O2 0.000000 0.035917 0.250000
O O3 0.243878 0.968219 0.351759
O O4 0.000000 0.000000 0.500000
O O5 0.538354 0.201530 0.060900
O O6 0.267419 0.201807 0.202856
O O7 0.329354 0.126642 0.989548
O O8 0.266256 0.224872 0.915893
O O9 0.466078 0.608796 0.911802
O O10 0.246944 0.620657 0.701773
O O11 0.339553 0.676208 0.466790
#
# Coordination Sequence:
#
# PCOD8246437 Si02
#       5
#     8   8   8   8   8
#     4  10  18  34  57  92 125 158 199 243 288 349
#     4  11  25  42  61  85 121 152 202 248 303 362
#     4  10  20  37  59  91 122 155 197 249 289 351
#     4  11  25  42  60  88 116 157 198 250 301 364
#     4  10  21  35  61  91 121 155 201 242 295 351
#
# _framework density 21.731068
#
# number of rings (size 3 to 8) (size 9 to 14) (size 15 to 20)
#    0.000    1.600    4.000    2.400    5.600    8.000 
#    0.000    1.000    0.000    0.000    0.000    0.000 
#    0.000    0.000    0.000    0.000    0.000    0.000 
#
# Total GULP energy -495715.618345 kJ/mol
# GULP energy per Si atom -12392.890459 kJ/mol
# Density = 2.168161 g / cm^3
# Si number density = 21.731068 Si / 1000 Ang^3
#
#
#
# Elastic Constant Matrix: (Units=GPa)
#
#
# Indices 1 2 3 4 5 6 
#
# 1 29.7613 14.5137 18.9718 0.0000 0.0000 0.0000
# 2 14.5137 104.3980 38.9604 0.0000 0.0000 0.0000
# 3 18.9718 38.9604 138.5665 0.0000 0.0000 0.0000
# 4 0.0000 0.0000 0.0000 43.5884 0.0000 0.0000
# 5 0.0000 0.0000 0.0000 0.0000 24.2774 0.0000
# 6 0.0000 0.0000 0.0000 0.0000 0.0000 21.3991
#
#
#
# Elastic Compliance Matrix: (Units=1/GPa)
#
#
# Indices 1 2 3 4 5 6 
#
# 1 0.038078 -0.003741 -0.004162 0.000000 0.000000 0.000000
# 2 -0.003741 0.011069 -0.002600 0.000000 0.000000 0.000000
# 3 -0.004162 -0.002600 0.008518 0.000000 0.000000 0.000000
# 4 0.000000 0.000000 0.000000 0.022942 0.000000 0.000000
# 5 0.000000 0.000000 0.000000 0.000000 0.041191 0.000000
# 6 0.000000 0.000000 0.000000 0.000000 0.000000 0.046731
#
#
# Mechanical properties :
#
#
# Convention : Reuss Voigt Hill
#
# Bulk Modulus (GPa) = 27.27793 46.40196 36.83994
# Shear Modulus (GPa) = 24.78284 31.20497 27.99390
#
# Velocity S-wave (km/s) = 3.38069 3.79352 3.59304
# Velocity P-wave (km/s) = 5.27433 6.37078 5.84831
#
# Compressibility (1/GPa) = 0.03665968
#
# Stress axis : x y z
#
# Youngs Moduli (GPa) = 26.26208 90.34157 117.40366
#
# Poissons Ratio (x) = 0.33793 0.48860
# Poissons Ratio (y) = 0.09824 0.30526
# Poissons Ratio (z) = 0.10929 0.23490
#
# Static dielectric constant tensor:
#      x y z
#    x 3.379790 0.000000 0.000000 
#    y 0.000000 2.906770 0.000000 
#    z 0.000000 0.000000 7.077270 
# 
# 
# High freq. dielectric constant tensor:
#      x y z
#    x 1.802390 0.000000 0.000000 
#    y 0.000000 1.866020 0.000000 
#    z 0.000000 0.000000 1.874050 
# 
# From -- ./inp_files/3810.got.cif
#   From: 2010.03.12/outbox.cif.g09.slc.cpg/sg60_2_cif.got.tgz:3810.got - 2010.04.10 18:46:24.
