data_PCOD8246099
_publ_section_title
;
Structure prediction by ZEFSAII (Michael W. Deem and Ramdas Pophale) SiO2 
 PCOD8246099
Probable space group: P M M N
;
_chemical_formula_sum "Si O2"
_cell_formula_units_Z 48
_cell_length_a 8.775187
_cell_length_b 17.818973
_cell_length_c 15.463403
_cell_angle_alpha 90.000000
_cell_angle_beta 90.000000
_cell_angle_gamma 90.000000
_cell_volume 2417.932230
_symmetry_space_group_name_H-M "P M M N"
_symmetry_group_IT_number 59
_space_group.IT_coordinate_system_code '2'
_symmetry_cell_setting 'orthorhombic'
loop_
_space_group_symop_operation_xyz
x,y,z
1/2-x,1/2-y,z
1/2+x,-y,-z
-x,1/2+y,-z
-x,-y,-z
1/2+x,1/2+y,-z
1/2-x,y,z
x,1/2-y,z
loop_
_atom_site_type_symbol
_atom_site_label
_atom_site_fract_x
_atom_site_fract_y
_atom_site_fract_z
Si Si1 0.570895 0.162693 0.802157
Si Si2 0.418720 0.660795 0.006454
Si Si3 0.924972 0.162361 0.499482
Si Si4 0.571617 0.928962 0.349377
Si Si5 0.070953 0.165888 0.164348
Si Si6 0.930347 0.910187 0.661696
O O1 0.750000 0.147958 0.786249
O O2 0.533553 0.250000 0.787648
O O3 0.470352 0.114706 0.737412
O O4 0.522588 0.135684 0.898729
O O5 0.250000 0.628778 0.991455
O O6 0.416723 0.750000 0.006820
O O7 0.520699 0.630036 0.927575
O O8 0.750000 0.135934 0.508760
O O9 0.939720 0.250000 0.518053
O O10 0.029829 0.120040 0.567852
O O11 0.985462 0.145039 0.404130
O O12 0.750000 0.947117 0.350413
O O13 0.476936 0.004994 0.355718
O O14 0.250000 0.170179 0.164302
O O15 0.002738 0.250000 0.175662
O O16 0.013993 0.113698 0.242527
O O17 0.750000 0.900932 0.650612
#
# Coordination Sequence:
#
# PCOD8246099 Si02
#       6
#     8   8   8   8   8   8
#     4   9  18  35  58  83 112 147 188 232 279 331
#     4   8  15  29  52  81 111 144 182 227 277 327
#     4  11  24  42  64  88 113 143 181 226 276 331
#     4  12  25  39  57  83 115 149 187 230 278 332
#     4   9  18  33  55  83 112 143 182 229 278 327
#     4  11  23  40  60  82 114 152 188 228 277 331
#
# _framework density 19.851673999999999
#
# number of rings (size 3 to 8) (size 9 to 14) (size 15 to 20)
#    0.000    2.000    0.000    5.000    0.000    6.333 
#    0.000    4.167    0.000    0.000    0.000    0.000 
#    0.000    0.000    0.000    0.000    0.000    0.000 
#
# Total GULP energy -595200.502708 kJ/mol
# GULP energy per Si atom -12400.010473 kJ/mol
# Density = 1.980649 g / cm^3
# Si number density = 19.851674 Si / 1000 Ang^3
#
#
#
# Elastic Constant Matrix: (Units=GPa)
#
#
# Indices 1 2 3 4 5 6 
#
# 1 48.8787 15.8113 26.0786 0.0000 0.0000 0.0000
# 2 15.8113 46.5075 13.6501 0.0000 0.0000 0.0000
# 3 26.0786 13.6501 119.8340 0.0000 0.0000 0.0000
# 4 0.0000 0.0000 0.0000 35.2925 0.0000 0.0000
# 5 0.0000 0.0000 0.0000 0.0000 37.9408 0.0000
# 6 0.0000 0.0000 0.0000 0.0000 0.0000 22.5345
#
#
#
# Elastic Compliance Matrix: (Units=1/GPa)
#
#
# Indices 1 2 3 4 5 6 
#
# 1 0.025294 -0.007225 -0.004682 0.000000 0.000000 0.000000
# 2 -0.007225 0.024310 -0.001197 0.000000 0.000000 0.000000
# 3 -0.004682 -0.001197 0.009500 0.000000 0.000000 0.000000
# 4 0.000000 0.000000 0.000000 0.028335 0.000000 0.000000
# 5 0.000000 0.000000 0.000000 0.000000 0.026357 0.000000
# 6 0.000000 0.000000 0.000000 0.000000 0.000000 0.044376
#
#
# Mechanical properties :
#
#
# Convention : Reuss Voigt Hill
#
# Bulk Modulus (GPa) = 30.39833 36.25558 33.32696
# Shear Modulus (GPa) = 25.59595 29.79891 27.69743
#
# Velocity S-wave (km/s) = 3.59466 3.87858 3.73932
# Velocity P-wave (km/s) = 5.70743 6.19360 5.95548
#
# Compressibility (1/GPa) = 0.03289654
#
# Stress axis : x y z
#
# Youngs Moduli (GPa) = 39.53542 41.13613 105.26321
#
# Poissons Ratio (x) = 0.29722 0.49279
# Poissons Ratio (y) = 0.28565 0.12597
# Poissons Ratio (z) = 0.18509 0.04923
#
# Static dielectric constant tensor:
#      x y z
#    x 3.601060 0.000000 0.000000 
#    y 0.000000 3.485080 0.000000 
#    z 0.000000 0.000000 3.974720 
# 
# 
# High freq. dielectric constant tensor:
#      x y z
#    x 1.768790 0.000000 0.000000 
#    y 0.000000 1.754100 0.000000 
#    z 0.000000 0.000000 1.795600 
# 
# From -- ./inp_files/20481.got.cif
#   From: 2010.03.12/outbox.cif.g09.slc.cpg/sg59_11_cif.got.tgz:20481.got - 2010.04.16 16:29:54.
