data_PCOD8246543
_publ_section_title
;
Structure prediction by ZEFSAII (Michael W. Deem and Ramdas Pophale) SiO2 
 PCOD8246543
Probable space group: P B C N
;
_chemical_formula_sum "Si O2"
_cell_formula_units_Z 60
_cell_length_a 16.420581
_cell_length_b 19.380356
_cell_length_c 10.352446
_cell_angle_alpha 90.000000
_cell_angle_beta 90.000000
_cell_angle_gamma 90.000000
_cell_volume 3294.528309
_symmetry_space_group_name_H-M "P B C N"
_symmetry_group_IT_number 60
_symmetry_cell_setting 'orthorhombic'
loop_
_space_group_symop_operation_xyz
x,y,z
1/2-x,1/2-y,1/2+z
1/2+x,1/2-y,-z
-x,y,1/2-z
-x,-y,-z
1/2+x,1/2+y,1/2-z
1/2-x,1/2+y,z
x,-y,1/2+z
loop_
_atom_site_type_symbol
_atom_site_label
_atom_site_fract_x
_atom_site_fract_y
_atom_site_fract_z
Si Si1 0.500000 0.103766 0.750000
Si Si2 0.653216 0.823151 0.202707
Si Si3 0.790025 0.382148 0.473064
Si Si4 0.784548 0.395180 0.955435
Si Si5 0.847196 0.987161 0.448571
Si Si6 0.912978 0.490211 0.438065
Si Si7 0.586593 0.448317 0.708332
Si Si8 0.216013 0.172434 0.284945
O O1 0.440889 0.155116 0.831263
O O2 0.567876 0.052910 0.809617
O O3 0.677927 0.843169 0.347677
O O4 0.663661 0.741323 0.201902
O O5 0.708398 0.858306 0.093684
O O6 0.705006 0.417776 0.437119
O O7 0.853926 0.440849 0.522226
O O8 0.777714 0.330476 0.593140
O O9 0.709150 0.446324 0.970299
O O10 0.866802 0.437334 0.914648
O O11 0.768378 0.336237 0.846976
O O12 0.911861 0.982564 0.566306
O O13 0.894709 0.992725 0.313944
O O14 0.000000 0.500000 0.500000
O O15 0.500000 0.416060 0.750000
O O16 0.654256 0.390294 0.711197
#
# Coordination Sequence:
#
# PCOD8246543 Si02
#       8
#     4   8   8   8   8   8   8   8
#     4  10  22  32  54  84 110 146 170 238 272 328
#     4  11  20  36  53  74 108 142 185 204 267 316
#     4   9  20  34  53  77 105 137 172 222 260 317
#     4  10  20  34  57  79 104 141 175 225 262 320
#     4   9  18  33  52  78 102 125 175 214 272 306
#     4  10  19  33  54  84 113 133 175 225 289 320
#     4  10  19  32  51  76 101 134 165 221 262 305
#     4  10  22  35  52  76 105 144 184 212 252 319
#
# _framework density 18.212015000000001
#
# number of rings (size 3 to 8) (size 9 to 14) (size 15 to 20)
#    0.000    2.133    1.333    2.000    2.800    3.200 
#    0.000    0.000    0.000    0.000    0.000    0.000 
#    0.000    0.000    0.000    0.000    0.000    0.000 
#
# Total GULP energy -743398.531279 kJ/mol
# GULP energy per Si atom -12389.975521 kJ/mol
# Density = 1.817056 g / cm^3
# Si number density = 18.212015 Si / 1000 Ang^3
#
#
#
# Elastic Constant Matrix: (Units=GPa)
#
#
# Indices 1 2 3 4 5 6 
#
# 1 65.2419 8.9805 20.2337 0.0000 0.0000 0.0000
# 2 8.9805 68.6003 24.8295 0.0000 0.0000 0.0000
# 3 20.2337 24.8295 92.9506 0.0000 0.0000 0.0000
# 4 0.0000 0.0000 0.0000 25.2179 0.0000 0.0000
# 5 0.0000 0.0000 0.0000 0.0000 26.8533 0.0000
# 6 0.0000 0.0000 0.0000 0.0000 0.0000 27.3262
#
#
#
# Elastic Compliance Matrix: (Units=1/GPa)
#
#
# Indices 1 2 3 4 5 6 
#
# 1 0.016493 -0.000952 -0.003336 0.000000 0.000000 0.000000
# 2 -0.000952 0.016192 -0.004118 0.000000 0.000000 0.000000
# 3 -0.003336 -0.004118 0.012585 0.000000 0.000000 0.000000
# 4 0.000000 0.000000 0.000000 0.039654 0.000000 0.000000
# 5 0.000000 0.000000 0.000000 0.000000 0.037239 0.000000
# 6 0.000000 0.000000 0.000000 0.000000 0.000000 0.036595
#
#
# Mechanical properties :
#
#
# Convention : Reuss Voigt Hill
#
# Bulk Modulus (GPa) = 35.13911 37.20891 36.17401
# Shear Modulus (GPa) = 27.01873 27.39611 27.20742
#
# Velocity S-wave (km/s) = 3.85589 3.88272 3.86933
# Velocity P-wave (km/s) = 6.25781 6.36993 6.31412
#
# Compressibility (1/GPa) = 0.02845832
#
# Stress axis : x y z
#
# Youngs Moduli (GPa) = 60.63110 61.75761 79.46165
#
# Poissons Ratio (x) = 0.05877 0.26509
# Poissons Ratio (y) = 0.05770 0.32724
# Poissons Ratio (z) = 0.20227 0.25433
#
# Static dielectric constant tensor:
#      x y z
#    x 3.540810 0.000000 0.000000 
#    y 0.000000 3.449550 0.000000 
#    z 0.000000 0.000000 3.108230 
# 
# 
# High freq. dielectric constant tensor:
#      x y z
#    x 1.706500 0.000000 0.000000 
#    y 0.000000 1.690610 0.000000 
#    z 0.000000 0.000000 1.706730 
# 
# From -- ./inp_files/12100.got.cif
#   From: 2010.03.12/outbox.cif.g09.slc.cpg/sg60_7_cif.got.tgz:12100.got - 2010.04.10 18:46:24.
