data_PCOD8246778
_publ_section_title
;
Structure prediction by ZEFSAII (Michael W. Deem and Ramdas Pophale) SiO2 
 PCOD8246778
Probable space group: P B C N
;
_chemical_formula_sum "Si O2"
_cell_formula_units_Z 36
_cell_length_a 11.533992
_cell_length_b 9.442920
_cell_length_c 15.320768
_cell_angle_alpha 90.000000
_cell_angle_beta 90.000000
_cell_angle_gamma 90.000000
_cell_volume 1668.654763
_symmetry_space_group_name_H-M "P B C N"
_symmetry_group_IT_number 60
_symmetry_cell_setting 'orthorhombic'
loop_
_space_group_symop_operation_xyz
x,y,z
1/2-x,1/2-y,1/2+z
1/2+x,1/2-y,-z
-x,y,1/2-z
-x,-y,-z
1/2+x,1/2+y,1/2-z
1/2-x,1/2+y,z
x,-y,1/2+z
loop_
_atom_site_type_symbol
_atom_site_label
_atom_site_fract_x
_atom_site_fract_y
_atom_site_fract_z
Si Si1 0.842285 0.202274 0.394032
Si Si2 0.500000 0.672332 0.250000
Si Si3 0.874038 0.225570 0.586887
Si Si4 0.875470 0.870576 0.420474
Si Si5 0.683132 0.573231 0.115152
O O1 0.926272 0.265635 0.318678
O O2 0.884683 0.266439 0.485286
O O3 0.713827 0.261053 0.376912
O O4 0.849312 0.030857 0.389565
O O5 0.593359 0.580966 0.195002
O O6 0.807324 0.352685 0.636645
O O7 0.002287 0.183939 0.619029
O O8 0.789029 0.090952 0.598382
O O9 0.874836 0.862728 0.526408
#
# Coordination Sequence:
#
# PCOD8246778 Si02
#       5
#     8   4   8   8   8
#     4  10  21  36  65  84 121 150 199 235 306 326
#     4  12  20  38  58  92 120 156 180 266 288 342
#     4  10  19  42  61  87 110 164 194 239 275 378
#     4  10  19  42  61  87 110 164 194 239 275 378
#     4  10  21  36  65  84 121 150 199 235 306 326
#
# _framework density 21.574265
#
# number of rings (size 3 to 8) (size 9 to 14) (size 15 to 20)
#    0.000    1.778    4.444    1.333    0.000    1.778 
#    4.000    4.444    0.000    0.000    0.000    0.000 
#    0.000    0.000    0.000    0.000    0.000    0.000 
#
# Total GULP energy -446032.959713 kJ/mol
# GULP energy per Si atom -12389.804436 kJ/mol
# Density = 2.152516 g / cm^3
# Si number density = 21.574265 Si / 1000 Ang^3
#
#
#
# Elastic Constant Matrix: (Units=GPa)
#
#
# Indices 1 2 3 4 5 6 
#
# 1 143.3288 69.0115 35.8740 0.0000 0.0000 0.0000
# 2 69.0115 65.3010 20.1122 0.0000 0.0000 0.0000
# 3 35.8740 20.1122 90.3675 0.0000 0.0000 0.0000
# 4 0.0000 0.0000 0.0000 7.9774 0.0000 0.0000
# 5 0.0000 0.0000 0.0000 0.0000 40.1086 0.0000
# 6 0.0000 0.0000 0.0000 0.0000 0.0000 34.5638
#
#
#
# Elastic Compliance Matrix: (Units=1/GPa)
#
#
# Indices 1 2 3 4 5 6 
#
# 1 0.014737 -0.014786 -0.002559 0.000000 0.000000 0.000000
# 2 -0.014786 0.031276 -0.001091 0.000000 0.000000 0.000000
# 3 -0.002559 -0.001091 0.012325 0.000000 0.000000 0.000000
# 4 0.000000 0.000000 0.000000 0.125355 0.000000 0.000000
# 5 0.000000 0.000000 0.000000 0.000000 0.024932 0.000000
# 6 0.000000 0.000000 0.000000 0.000000 0.000000 0.028932
#
#
# Mechanical properties :
#
#
# Convention : Reuss Voigt Hill
#
# Bulk Modulus (GPa) = 46.58836 60.99918 53.79377
# Shear Modulus (GPa) = 17.75667 28.12993 22.94330
#
# Velocity S-wave (km/s) = 2.87200 3.61482 3.26461
# Velocity P-wave (km/s) = 5.71306 6.76447 6.26088
#
# Compressibility (1/GPa) = 0.02146459
#
# Stress axis : x y z
#
# Youngs Moduli (GPa) = 67.85702 31.97359 81.13720
#
# Poissons Ratio (x) = 0.47276 0.20767
# Poissons Ratio (y) = 1.00333 0.08852
# Poissons Ratio (z) = 0.17368 0.03488
#
# Static dielectric constant tensor:
#      x y z
#    x 4.118440 0.000000 0.000000 
#    y 0.000000 3.625300 0.000000 
#    z 0.000000 0.000000 3.966510 
# 
# 
# High freq. dielectric constant tensor:
#      x y z
#    x 1.850860 0.000000 0.000000 
#    y 0.000000 1.810210 0.000000 
#    z 0.000000 0.000000 1.837700 
# 
# From -- ./inp_files/15763.got.cif
#   From: 2010.03.12/outbox.cif.g09.slc.cpg/sg60_8_cif.got.tgz:15763.got - 2010.04.10 18:46:24.
