data_PCOD8246757
_publ_section_title
;
Structure prediction by ZEFSAII (Michael W. Deem and Ramdas Pophale) SiO2 
 PCOD8246757
Probable space group: P B C N
;
_chemical_formula_sum "Si O2"
_cell_formula_units_Z 56
_cell_length_a 15.278004
_cell_length_b 20.931428
_cell_length_c 8.798102
_cell_angle_alpha 90.000000
_cell_angle_beta 90.000000
_cell_angle_gamma 90.000000
_cell_volume 2813.548916
_symmetry_space_group_name_H-M "P B C N"
_symmetry_group_IT_number 60
_symmetry_cell_setting 'orthorhombic'
loop_
_space_group_symop_operation_xyz
x,y,z
1/2-x,1/2-y,1/2+z
1/2+x,1/2-y,-z
-x,y,1/2-z
-x,-y,-z
1/2+x,1/2+y,1/2-z
1/2-x,1/2+y,z
x,-y,1/2+z
loop_
_atom_site_type_symbol
_atom_site_label
_atom_site_fract_x
_atom_site_fract_y
_atom_site_fract_z
Si Si1 0.267335 0.491211 0.730932
Si Si2 0.087129 0.313137 0.339260
Si Si3 0.248571 0.296675 0.120124
Si Si4 0.660733 0.412854 0.502807
Si Si5 0.202376 0.415161 0.464452
Si Si6 0.517128 0.682663 0.074458
Si Si7 0.668553 0.307639 0.079141
O O1 0.333304 0.534315 0.629803
O O2 0.203156 0.448618 0.627570
O O3 0.200184 0.532229 0.831508
O O4 0.327712 0.445707 0.833802
O O5 0.159706 0.305024 0.211682
O O6 0.117253 0.369573 0.453109
O O7 0.075413 0.247220 0.433685
O O8 0.000000 0.332892 0.250000
O O9 0.263577 0.359858 0.019052
O O10 0.328319 0.288099 0.242007
O O11 0.238312 0.236263 0.010925
O O12 0.567095 0.376863 0.498027
O O13 0.294945 0.378883 0.441196
O O14 0.500000 0.666396 0.250000
O O15 0.428999 0.696649 0.982470
#
# Coordination Sequence:
#
# PCOD8246757 Si02
#       7
#     8   8   8   8   8   8   8
#     4  10  22  40  65  84 121 169 220 249 296 368
#     4  10  19  39  64  95 128 158 194 262 328 362
#     4  11  22  39  66  90 122 163 201 254 315 377
#     4  11  22  42  64  89 122 169 210 261 304 370
#     4  10  21  40  61  90 116 166 210 249 300 372
#     4  11  22  39  62  97 132 158 198 263 323 368
#     4  11  22  39  65  97 122 160 205 250 319 378
#
# _framework density 19.903687000000001
#
# number of rings (size 3 to 8) (size 9 to 14) (size 15 to 20)
#    0.000    1.429    5.714    2.571    2.000    0.571 
#    0.000    8.571    0.000    0.000    0.000    0.000 
#    0.000    0.000    0.000    0.000    0.000    0.000 
#
# Total GULP energy -694355.467599 kJ/mol
# GULP energy per Si atom -12399.204779 kJ/mol
# Density = 1.985839 g / cm^3
# Si number density = 19.903687 Si / 1000 Ang^3
#
#
#
# Elastic Constant Matrix: (Units=GPa)
#
#
# Indices 1 2 3 4 5 6 
#
# 1 83.2220 39.9609 28.1066 0.0000 0.0000 0.0000
# 2 39.9609 116.0699 62.2397 0.0000 0.0000 0.0000
# 3 28.1066 62.2397 117.5967 0.0000 0.0000 0.0000
# 4 0.0000 0.0000 0.0000 36.3885 0.0000 0.0000
# 5 0.0000 0.0000 0.0000 0.0000 28.5561 0.0000
# 6 0.0000 0.0000 0.0000 0.0000 0.0000 31.5979
#
#
#
# Elastic Compliance Matrix: (Units=1/GPa)
#
#
# Indices 1 2 3 4 5 6 
#
# 1 0.014507 -0.004378 -0.001150 0.000000 0.000000 0.000000
# 2 -0.004378 0.013351 -0.006020 0.000000 0.000000 0.000000
# 3 -0.001150 -0.006020 0.011965 0.000000 0.000000 0.000000
# 4 0.000000 0.000000 0.000000 0.027481 0.000000 0.000000
# 5 0.000000 0.000000 0.000000 0.000000 0.035019 0.000000
# 6 0.000000 0.000000 0.000000 0.000000 0.000000 0.031648
#
#
# Mechanical properties :
#
#
# Convention : Reuss Voigt Hill
#
# Bulk Modulus (GPa) = 59.78511 64.16699 61.97605
# Shear Modulus (GPa) = 30.74277 31.74726 31.24502
#
# Velocity S-wave (km/s) = 3.93437 3.99813 3.96638
# Velocity P-wave (km/s) = 7.12331 7.32272 7.22370
#
# Compressibility (1/GPa) = 0.01672657
#
# Stress axis : x y z
#
# Youngs Moduli (GPa) = 68.93450 74.90345 83.58012
#
# Poissons Ratio (x) = 0.32789 0.09614
# Poissons Ratio (y) = 0.30176 0.50313
# Poissons Ratio (z) = 0.07930 0.45089
#
# Static dielectric constant tensor:
#      x y z
#    x 3.466290 0.000000 0.000000 
#    y 0.000000 3.919970 0.000000 
#    z 0.000000 0.000000 3.876030 
# 
# 
# High freq. dielectric constant tensor:
#      x y z
#    x 1.751810 0.000000 0.000000 
#    y 0.000000 1.786700 0.000000 
#    z 0.000000 0.000000 1.786270 
# 
# From -- ./inp_files/6133.got.cif
#   From: 2010.03.12/outbox.cif.g09.slc.cpg/sg60_4_cif.got.tgz:6133.got - 2010.04.10 18:46:24.
