data_PCOD8246736
_publ_section_title
;
Structure prediction by ZEFSAII (Michael W. Deem and Ramdas Pophale) SiO2 
 PCOD8246736
Probable space group: P B C N
;
_chemical_formula_sum "Si O2"
_cell_formula_units_Z 48
_cell_length_a 13.533045
_cell_length_b 12.966081
_cell_length_c 12.193744
_cell_angle_alpha 90.000000
_cell_angle_beta 90.000000
_cell_angle_gamma 90.000000
_cell_volume 2139.643059
_symmetry_space_group_name_H-M "P B C N"
_symmetry_group_IT_number 60
_symmetry_cell_setting 'orthorhombic'
loop_
_space_group_symop_operation_xyz
x,y,z
1/2-x,1/2-y,1/2+z
1/2+x,1/2-y,-z
-x,y,1/2-z
-x,-y,-z
1/2+x,1/2+y,1/2-z
1/2-x,1/2+y,z
x,-y,1/2+z
loop_
_atom_site_type_symbol
_atom_site_label
_atom_site_fract_x
_atom_site_fract_y
_atom_site_fract_z
Si Si1 0.927058 0.644997 0.846808
Si Si2 0.650563 0.220537 0.254397
Si Si3 0.640649 0.639540 0.262503
Si Si4 0.495075 0.803959 0.568005
Si Si5 0.291445 0.572798 0.645496
Si Si6 0.563588 0.597684 0.030341
O O1 0.902743 0.766939 0.835415
O O2 0.827343 0.576454 0.843987
O O3 0.000000 0.607130 0.750000
O O4 0.983183 0.623160 0.962583
O O5 0.754179 0.175211 0.217569
O O6 0.608064 0.170228 0.368693
O O7 0.581549 0.189722 0.155275
O O8 0.659984 0.344042 0.271348
O O9 0.659429 0.537507 0.331970
O O10 0.568363 0.614301 0.161196
O O11 0.496352 0.689260 0.523417
O O12 0.325275 0.595361 0.520346
O O13 0.500000 0.500000 0.000000
#
# Coordination Sequence:
#
# PCOD8246736 Si02
#       6
#     8   8   8   8   8   8
#     4  11  22  41  63  89 124 171 209 260 317 381
#     4   9  21  39  61  86 124 164 202 258 315 372
#     4  11  22  40  59  92 126 164 209 258 320 375
#     4  10  19  38  61  86 117 161 208 252 311 378
#     4  10  23  38  58  93 125 159 213 260 318 372
#     4  11  21  35  63  94 123 159 210 272 315 371
#
# _framework density 22.433647000000001
#
# number of rings (size 3 to 8) (size 9 to 14) (size 15 to 20)
#    0.000    1.667    1.667    3.000    0.000    1.333 
#    6.000    0.833    0.000    0.000    0.000    0.000 
#    0.000    0.000    0.000    0.000    0.000    0.000 
#
# Total GULP energy -594877.922263 kJ/mol
# GULP energy per Si atom -12393.290047 kJ/mol
# Density = 2.238259 g / cm^3
# Si number density = 22.433647 Si / 1000 Ang^3
#
#
#
# Elastic Constant Matrix: (Units=GPa)
#
#
# Indices 1 2 3 4 5 6 
#
# 1 91.0981 -4.9825 31.2372 0.0000 0.0000 0.0000
# 2 -4.9825 27.3538 9.6741 0.0000 0.0000 0.0000
# 3 31.2372 9.6741 130.2236 0.0000 0.0000 0.0000
# 4 0.0000 0.0000 0.0000 17.4223 0.0000 0.0000
# 5 0.0000 0.0000 0.0000 0.0000 40.5057 0.0000
# 6 0.0000 0.0000 0.0000 0.0000 0.0000 27.0244
#
#
#
# Elastic Compliance Matrix: (Units=1/GPa)
#
#
# Indices 1 2 3 4 5 6 
#
# 1 0.012254 0.003360 -0.003189 0.000000 0.000000 0.000000
# 2 0.003360 0.038466 -0.003664 0.000000 0.000000 0.000000
# 3 -0.003189 -0.003664 0.008716 0.000000 0.000000 0.000000
# 4 0.000000 0.000000 0.000000 0.057398 0.000000 0.000000
# 5 0.000000 0.000000 0.000000 0.000000 0.024688 0.000000
# 6 0.000000 0.000000 0.000000 0.000000 0.000000 0.037004
#
#
# Mechanical properties :
#
#
# Convention : Reuss Voigt Hill
#
# Bulk Modulus (GPa) = 19.06535 35.61481 27.34008
# Shear Modulus (GPa) = 24.63118 31.17358 27.90238
#
# Velocity S-wave (km/s) = 3.31714 3.73177 3.53054
# Velocity P-wave (km/s) = 4.81541 5.87181 5.36966
#
# Compressibility (1/GPa) = 0.05245117
#
# Stress axis : x y z
#
# Youngs Moduli (GPa) = 81.60273 25.99717 114.72821
#
# Poissons Ratio (x) = -0.08735 0.36588
# Poissons Ratio (y) = -0.27419 0.42031
# Poissons Ratio (z) = 0.26024 0.09524
#
# Static dielectric constant tensor:
#      x y z
#    x 4.391340 0.000000 0.000000 
#    y 0.000000 3.785740 0.000000 
#    z 0.000000 0.000000 4.529270 
# 
# 
# High freq. dielectric constant tensor:
#      x y z
#    x 1.899560 0.000000 0.000000 
#    y 0.000000 1.865860 0.000000 
#    z 0.000000 0.000000 1.885510 
# 
# From -- ./inp_files/11893.got.cif
#   From: 2010.03.12/outbox.cif.g09.slc.cpg/sg60_6_cif.got.tgz:11893.got - 2010.04.10 18:46:24.
