data_PCOD8246907
_publ_section_title
;
Structure prediction by ZEFSAII (Michael W. Deem and Ramdas Pophale) SiO2 
 PCOD8246907
Probable space group: P B C N
;
_chemical_formula_sum "Si O2"
_cell_formula_units_Z 48
_cell_length_a 8.561736
_cell_length_b 31.833579
_cell_length_c 9.016775
_cell_angle_alpha 90.000000
_cell_angle_beta 90.000000
_cell_angle_gamma 90.000000
_cell_volume 2457.528332
_symmetry_space_group_name_H-M "P B C N"
_symmetry_group_IT_number 60
_symmetry_cell_setting 'orthorhombic'
loop_
_space_group_symop_operation_xyz
x,y,z
1/2-x,1/2-y,1/2+z
1/2+x,1/2-y,-z
-x,y,1/2-z
-x,-y,-z
1/2+x,1/2+y,1/2-z
1/2-x,1/2+y,z
x,-y,1/2+z
loop_
_atom_site_type_symbol
_atom_site_label
_atom_site_fract_x
_atom_site_fract_y
_atom_site_fract_z
Si Si1 0.150677 0.084538 0.156339
Si Si2 0.839757 0.617340 0.071651
Si Si3 0.421290 0.789757 0.902113
Si Si4 0.935719 0.778472 0.590825
Si Si5 0.030315 0.862238 0.076974
Si Si6 0.947040 0.459670 0.912497
O O1 0.263924 0.111080 0.265161
O O2 0.258097 0.047259 0.086922
O O3 0.000000 0.067466 0.250000
O O4 0.097156 0.112780 0.019000
O O5 0.936108 0.660515 0.072394
O O6 0.961034 0.581138 0.026274
O O7 0.702272 0.618903 0.951065
O O8 0.500000 0.775671 0.750000
O O9 0.246901 0.773663 0.892940
O O10 0.501086 0.766659 0.040857
O O11 0.980428 0.813723 0.470421
O O12 0.000000 0.792516 0.750000
O O13 0.000000 0.867299 0.250000
O O14 0.000000 0.470164 0.750000
O O15 0.000000 0.500000 0.000000
#
# Coordination Sequence:
#
# PCOD8246907 Si02
#       6
#     8   8   8   8   8   8
#     4   9  18  37  62  83 111 150 188 227 284 343
#     4   9  20  39  59  82 111 149 186 227 287 344
#     4  11  21  37  58  81 110 148 194 239 280 334
#     4  11  23  37  55  82 116 153 189 232 286 339
#     4  10  20  36  58  85 114 147 190 234 275 331
#     4  10  21  38  59  85 116 147 185 233 286 343
#
# _framework density 19.531818999999999
#
# number of rings (size 3 to 8) (size 9 to 14) (size 15 to 20)
#    0.000    2.000    0.000    5.500    0.000    4.000 
#    0.000    9.167    0.000    0.000    0.000    0.000 
#    0.000    0.000    0.000    0.000    0.000    0.000 
#
# Total GULP energy -595165.707556 kJ/mol
# GULP energy per Si atom -12399.285574 kJ/mol
# Density = 1.948736 g / cm^3
# Si number density = 19.531819 Si / 1000 Ang^3
#
#
#
# Elastic Constant Matrix: (Units=GPa)
#
#
# Indices 1 2 3 4 5 6 
#
# 1 127.8737 82.0609 49.5298 0.0000 0.0000 0.0000
# 2 82.0609 125.0740 49.0045 0.0000 0.0000 0.0000
# 3 49.5298 49.0045 113.0326 0.0000 0.0000 0.0000
# 4 0.0000 0.0000 0.0000 16.1350 0.0000 0.0000
# 5 0.0000 0.0000 0.0000 0.0000 28.6534 0.0000
# 6 0.0000 0.0000 0.0000 0.0000 0.0000 25.3740
#
#
#
# Elastic Compliance Matrix: (Units=1/GPa)
#
#
# Indices 1 2 3 4 5 6 
#
# 1 0.014121 -0.008240 -0.002615 0.000000 0.000000 0.000000
# 2 -0.008240 0.014440 -0.002649 0.000000 0.000000 0.000000
# 3 -0.002615 -0.002649 0.011142 0.000000 0.000000 0.000000
# 4 0.000000 0.000000 0.000000 0.061977 0.000000 0.000000
# 5 0.000000 0.000000 0.000000 0.000000 0.034900 0.000000
# 6 0.000000 0.000000 0.000000 0.000000 0.000000 0.039410
#
#
# Mechanical properties :
#
#
# Convention : Reuss Voigt Hill
#
# Bulk Modulus (GPa) = 78.78571 80.79675 79.79123
# Shear Modulus (GPa) = 24.12769 26.39150 25.25960
#
# Velocity S-wave (km/s) = 3.51850 3.67986 3.60008
# Velocity P-wave (km/s) = 7.54527 7.71438 7.63030
#
# Compressibility (1/GPa) = 0.01269266
#
# Stress axis : x y z
#
# Youngs Moduli (GPa) = 70.81518 69.25326 89.75334
#
# Poissons Ratio (x) = 0.57067 0.23473
# Poissons Ratio (y) = 0.58354 0.23780
# Poissons Ratio (z) = 0.18520 0.18348
#
# Static dielectric constant tensor:
#      x y z
#    x 3.944560 0.000000 0.000000 
#    y 0.000000 3.472490 0.000000 
#    z 0.000000 0.000000 3.444620 
# 
# 
# High freq. dielectric constant tensor:
#      x y z
#    x 1.777120 0.000000 0.000000 
#    y 0.000000 1.748330 0.000000 
#    z 0.000000 0.000000 1.753080 
# 
# From -- ./inp_files/4201.got.cif
#   From: 2010.03.12/outbox.cif.g09.slc.cpg/sg60_3_cif.got.tgz:4201.got - 2010.04.10 18:46:24.
