data_PCOD8246663
_publ_section_title
;
Structure prediction by ZEFSAII (Michael W. Deem and Ramdas Pophale) SiO2 
 PCOD8246663
Probable space group: P B C N
;
_chemical_formula_sum "Si O2"
_cell_formula_units_Z 64
_cell_length_a 18.258308
_cell_length_b 5.095036
_cell_length_c 33.304266
_cell_angle_alpha 90.000000
_cell_angle_beta 90.000000
_cell_angle_gamma 90.000000
_cell_volume 3098.187179
_symmetry_space_group_name_H-M "P B C N"
_symmetry_group_IT_number 60
_symmetry_cell_setting 'orthorhombic'
loop_
_space_group_symop_operation_xyz
x,y,z
1/2-x,1/2-y,1/2+z
1/2+x,1/2-y,-z
-x,y,1/2-z
-x,-y,-z
1/2+x,1/2+y,1/2-z
1/2-x,1/2+y,z
x,-y,1/2+z
loop_
_atom_site_type_symbol
_atom_site_label
_atom_site_fract_x
_atom_site_fract_y
_atom_site_fract_z
Si Si1 0.294283 0.465743 0.881880
Si Si2 0.013523 0.550297 0.795370
Si Si3 0.585750 0.941540 0.369065
Si Si4 0.084181 0.963959 0.326066
Si Si5 0.799520 0.542765 0.425623
Si Si6 0.015527 0.045497 0.601893
Si Si7 0.411932 0.012813 0.504068
Si Si8 0.603643 0.511469 0.043575
O O1 0.274979 0.159042 0.884537
O O2 0.330788 0.518726 0.838101
O O3 0.345677 0.547707 0.918602
O O4 0.066157 0.330438 0.813635
O O5 0.000000 0.464092 0.750000
O O6 0.937365 0.569992 0.821684
O O7 0.058178 0.824221 0.792984
O O8 0.669594 0.030591 0.379182
O O9 0.582415 0.656223 0.391080
O O10 0.532648 0.151400 0.390447
O O11 0.043060 0.059749 0.366085
O O12 0.756659 0.809497 0.434347
O O13 0.874495 0.536301 0.452484
O O14 0.982022 0.011974 0.557384
O O15 0.378927 0.794757 0.474287
O O16 0.500000 0.000000 0.500000
O O17 0.381980 0.293911 0.490110
#
# Coordination Sequence:
#
# PCOD8246663 Si02
#       8
#     8   8   8   8   8   8   8   8
#     4  11  22  36  56  80 114 161 196 224 279 353
#     4  10  19  35  63  93 114 139 180 244 303 341
#     4  10  20  37  59  82 112 145 183 230 287 356
#     4   9  19  33  53  85 120 146 183 229 278 345
#     4  12  26  42  59  81 115 160 202 242 294 360
#     4   9  17  33  57  83 108 140 181 234 293 341
#     4  12  25  40  60  84 114 153 202 258 309 345
#     4  11  22  36  56  82 110 142 191 249 293 337
#
# _framework density 20.657242
#
# number of rings (size 3 to 8) (size 9 to 14) (size 15 to 20)
#    0.000    1.500    0.000    6.000    0.000    7.000 
#    0.000    0.000    0.000    4.500    0.000    0.000 
#    0.000    0.000    0.000    0.000    0.000    0.000 
#
# Total GULP energy -793160.331243 kJ/mol
# GULP energy per Si atom -12393.130176 kJ/mol
# Density = 2.061023 g / cm^3
# Si number density = 20.657242 Si / 1000 Ang^3
#
#
#
# Elastic Constant Matrix: (Units=GPa)
#
#
# Indices 1 2 3 4 5 6 
#
# 1 78.9624 13.2364 32.0637 0.0000 0.0000 0.0000
# 2 13.2364 100.1065 12.7312 0.0000 0.0000 0.0000
# 3 32.0637 12.7312 85.5584 0.0000 0.0000 0.0000
# 4 0.0000 0.0000 0.0000 25.9689 0.0000 0.0000
# 5 0.0000 0.0000 0.0000 0.0000 22.4332 0.0000
# 6 0.0000 0.0000 0.0000 0.0000 0.0000 26.9540
#
#
#
# Elastic Compliance Matrix: (Units=1/GPa)
#
#
# Indices 1 2 3 4 5 6 
#
# 1 0.015102 -0.001302 -0.005466 0.000000 0.000000 0.000000
# 2 -0.001302 0.010294 -0.001044 0.000000 0.000000 0.000000
# 3 -0.005466 -0.001044 0.013892 0.000000 0.000000 0.000000
# 4 0.000000 0.000000 0.000000 0.038508 0.000000 0.000000
# 5 0.000000 0.000000 0.000000 0.000000 0.044577 0.000000
# 6 0.000000 0.000000 0.000000 0.000000 0.000000 0.037100
#
#
# Mechanical properties :
#
#
# Convention : Reuss Voigt Hill
#
# Bulk Modulus (GPa) = 42.25695 42.29886 42.27791
# Shear Modulus (GPa) = 27.32481 28.84428 28.08455
#
# Velocity S-wave (km/s) = 3.64094 3.74080 3.69121
# Velocity P-wave (km/s) = 6.17866 6.25932 6.21912
#
# Compressibility (1/GPa) = 0.02366475
#
# Stress axis : x y z
#
# Youngs Moduli (GPa) = 66.21665 97.14165 71.98571
#
# Poissons Ratio (x) = 0.12645 0.39346
# Poissons Ratio (y) = 0.08619 0.07515
# Poissons Ratio (z) = 0.36193 0.10141
#
# Static dielectric constant tensor:
#      x y z
#    x 3.670040 0.000000 0.000000 
#    y 0.000000 3.823920 0.000000 
#    z 0.000000 0.000000 3.658630 
# 
# 
# High freq. dielectric constant tensor:
#      x y z
#    x 1.785660 0.000000 0.000000 
#    y 0.000000 1.831280 0.000000 
#    z 0.000000 0.000000 1.784540 
# 
# From -- ./inp_files/26223.got.cif
#   From: 2010.03.12/outbox.cif.g09.slc.cpg/sg60_14_cif.got.tgz:26223.got - 2010.04.10 18:46:24.
