data_PCOD8246258
_publ_section_title
;
Structure prediction by ZEFSAII (Michael W. Deem and Ramdas Pophale) SiO2 
 PCOD8246258
Probable space group: P M M N
;
_chemical_formula_sum "Si O2"
_cell_formula_units_Z 64
_cell_length_a 15.000000
_cell_length_b 24.000000
_cell_length_c 9.000000
_cell_angle_alpha 90.000000
_cell_angle_beta 90.000000
_cell_angle_gamma 90.000000
_cell_volume 3240.000000
_symmetry_space_group_name_H-M "P M M N"
_symmetry_group_IT_number 59
_space_group.IT_coordinate_system_code '2'
_symmetry_cell_setting 'orthorhombic'
loop_
_space_group_symop_operation_xyz
x,y,z
1/2-x,1/2-y,z
1/2+x,-y,-z
-x,1/2+y,-z
-x,-y,-z
1/2+x,1/2+y,-z
1/2-x,y,z
x,1/2-y,z
loop_
_atom_site_type_symbol
_atom_site_label
_atom_site_fract_x
_atom_site_fract_y
_atom_site_fract_z
Si Si1 0.921499 0.543101 0.974481
Si Si2 0.349306 0.090765 0.728556
Si Si3 0.850716 0.106108 0.267600
Si Si4 0.943895 0.124996 0.983100
Si Si5 0.099024 0.509555 0.544726
Si Si6 0.152103 0.542698 0.227258
Si Si7 0.849225 0.185612 0.523985
Si Si8 0.992435 0.813046 0.262537
O O1 0.859395 0.519378 0.843312
O O2 0.866298 0.554165 0.124525
O O3 0.000000 0.500000 0.000000
O O4 0.969438 0.601090 0.929122
O O5 0.250000 0.115233 0.733942
O O6 0.412871 0.144089 0.707978
O O7 0.357330 0.049302 0.588177
O O8 0.750000 0.087455 0.285227
O O9 0.904358 0.050876 0.313452
O O10 0.876507 0.157428 0.370574
O O11 0.864458 0.127757 0.099795
O O12 0.920291 0.084491 0.843056
O O13 0.972942 0.183409 0.909047
O O14 0.147749 0.538965 0.405896
O O15 0.000000 0.500000 0.500000
O O16 0.250000 0.564773 0.185259
O O17 0.750000 0.167274 0.579281
O O18 0.851291 0.250000 0.489305
O O19 0.921712 0.168280 0.643834
O O20 0.961239 0.750000 0.296773
#
# Coordination Sequence:
#
# PCOD8246258 Si02
#       8
#     8   8   8   8   8   8   8   8
#     4   9  18  33  50  72 105 143 176 212 260 313
#     4  11  22  37  57  82 113 148 189 234 280 332
#     4  11  21  33  52  80 115 148 179 220 275 337
#     4  10  20  34  51  75 105 140 177 218 266 324
#     4  12  22  34  52  78 112 149 184 221 267 323
#     4  11  20  31  50  77 109 141 175 211 254 315
#     4   9  19  36  56  78 107 145 187 230 280 339
#     4  10  22  40  60  80 104 140 187 239 291 338
#
# _framework density 19.753086
#
# number of rings (size 3 to 8) (size 9 to 14) (size 15 to 20)
#    0.000    1.625    0.000    7.875    0.000    2.750 
#    0.000    0.000    0.000    0.000    0.000    0.000 
#    0.000    7.000    0.000    0.000    0.000    0.000 
#
# Total GULP energy -793049.266041 kJ/mol
# GULP energy per Si atom -12391.394782 kJ/mol
# Density = 1.970813 g / cm^3
# Si number density = 19.753086 Si / 1000 Ang^3
#
#
#
# Elastic Constant Matrix: (Units=GPa)
#
#
# Indices 1 2 3 4 5 6 
#
# 1 88.4780 56.8581 25.9426 0.0000 0.0000 0.0000
# 2 56.8581 41.9416 43.7524 0.0000 0.0000 0.0000
# 3 25.9426 43.7524 83.5653 0.0000 0.0000 0.0000
# 4 0.0000 0.0000 0.0000 27.2775 0.0000 0.0000
# 5 0.0000 0.0000 0.0000 0.0000 26.2836 0.0000
# 6 0.0000 0.0000 0.0000 0.0000 0.0000 14.3867
#
#
#
# Elastic Compliance Matrix: (Units=1/GPa)
#
#
# Indices 1 2 3 4 5 6 
#
# 1 -0.055664 0.126556 -0.048980 0.000000 0.000000 0.000000
# 2 0.126556 -0.235197 0.083853 0.000000 0.000000 0.000000
# 3 -0.048980 0.083853 -0.016731 0.000000 0.000000 0.000000
# 4 0.000000 0.000000 0.000000 0.036660 0.000000 0.000000
# 5 0.000000 0.000000 0.000000 0.000000 0.038047 0.000000
# 6 0.000000 0.000000 0.000000 0.000000 0.000000 0.069509
#
#
# Mechanical properties :
#
#
# Convention : Reuss Voigt Hill
#
# Bulk Modulus (GPa) = 65.50256 51.89899 58.70078
# Shear Modulus (GPa) = -10.39186 19.41836 4.51325
#
# Velocity S-wave (km/s) = -2.29615 3.13877 1.51321
# Velocity P-wave (km/s) = 5.11888 6.28226 5.73017
#
# Compressibility (1/GPa) = 0.01526658
#
# Stress axis : x y z
#
# Youngs Moduli (GPa) = -17.96480 -4.25176 -59.77095
#
# Poissons Ratio (x) = 0.53809 -2.92761
# Poissons Ratio (y) = 2.27356 5.01198
# Poissons Ratio (z) = -0.87992 0.35652
#
# Static dielectric constant tensor:
#      x y z
#    x 4.266910 0.000000 0.000000 
#    y 0.000000 3.538500 0.000000 
#    z 0.000000 0.000000 3.851920 
# 
# 
# High freq. dielectric constant tensor:
#      x y z
#    x 1.762430 0.000000 0.000000 
#    y 0.000000 1.749050 0.000000 
#    z 0.000000 0.000000 1.761860 
# 
# From -- ./inp_files/9602.got.cif
#   From: 2010.03.12/outbox.ucp.g09.slc.cvg/sg59_5_cif.got.tgz:9602.got - 2010.05.04 19:30:51.
