data_PCOD8246751
_publ_section_title
;
Structure prediction by ZEFSAII (Michael W. Deem and Ramdas Pophale) SiO2 
 PCOD8246751
Probable space group: P B C N
;
_chemical_formula_sum "Si O2"
_cell_formula_units_Z 56
_cell_length_a 10.864720
_cell_length_b 19.290341
_cell_length_c 12.875810
_cell_angle_alpha 90.000000
_cell_angle_beta 90.000000
_cell_angle_gamma 90.000000
_cell_volume 2698.565742
_symmetry_space_group_name_H-M "P B C N"
_symmetry_group_IT_number 60
_symmetry_cell_setting 'orthorhombic'
loop_
_space_group_symop_operation_xyz
x,y,z
1/2-x,1/2-y,1/2+z
1/2+x,1/2-y,-z
-x,y,1/2-z
-x,-y,-z
1/2+x,1/2+y,1/2-z
1/2-x,1/2+y,z
x,-y,1/2+z
loop_
_atom_site_type_symbol
_atom_site_label
_atom_site_fract_x
_atom_site_fract_y
_atom_site_fract_z
Si Si1 0.475189 0.932464 0.070609
Si Si2 0.063822 0.790699 0.605061
Si Si3 0.923108 0.016164 0.658865
Si Si4 0.685594 0.821120 0.522971
Si Si5 0.320918 0.252875 0.804166
Si Si6 0.315164 0.905054 0.270253
Si Si7 0.423724 0.402756 0.004361
O O1 0.374253 0.937135 0.164545
O O2 0.601119 0.912823 0.127392
O O3 0.428535 0.874294 0.988246
O O4 0.500000 0.000000 0.000000
O O5 0.158423 0.750321 0.533330
O O6 0.134372 0.803684 0.712736
O O7 0.938522 0.745346 0.618762
O O8 0.034347 0.864239 0.554656
O O9 0.808814 0.054563 0.709290
O O10 0.000000 0.977726 0.750000
O O11 0.020212 0.070933 0.611475
O O12 0.875914 0.964176 0.570485
O O13 0.710515 0.796006 0.641474
O O14 0.807415 0.854515 0.471282
O O15 0.286913 0.177288 0.758278
#
# Coordination Sequence:
#
# PCOD8246751 Si02
#       7
#     8   8   8   8   8   8   8
#     4  11  22  39  68  94 131 175 223 271 329 409
#     4  10  19  39  62  89 126 164 213 266 318 397
#     4  11  24  40  63  92 130 168 216 266 320 399
#     4  11  20  37  67  95 124 163 223 272 327 391
#     4  10  20  35  68  92 119 172 212 259 337 391
#     4  11  21  42  65  93 130 178 213 266 345 387
#     4  10  24  40  61  96 124 171 215 267 329 384
#
# _framework density 20.751764000000001
#
# number of rings (size 3 to 8) (size 9 to 14) (size 15 to 20)
#    0.000    1.429    2.857    3.429    4.000    1.143 
#    0.000    0.000    3.143    0.000    0.000    0.000 
#    0.000    0.000    0.000    0.000    0.000    0.000 
#
# Total GULP energy -694030.164392 kJ/mol
# GULP energy per Si atom -12393.395793 kJ/mol
# Density = 2.070453 g / cm^3
# Si number density = 20.751764 Si / 1000 Ang^3
#
#
#
# Elastic Constant Matrix: (Units=GPa)
#
#
# Indices 1 2 3 4 5 6 
#
# 1 70.8223 26.0706 40.6561 0.0000 0.0000 0.0000
# 2 26.0706 80.3712 39.8343 0.0000 0.0000 0.0000
# 3 40.6561 39.8343 95.9585 0.0000 0.0000 0.0000
# 4 0.0000 0.0000 0.0000 25.6825 0.0000 0.0000
# 5 0.0000 0.0000 0.0000 0.0000 41.9774 0.0000
# 6 0.0000 0.0000 0.0000 0.0000 0.0000 31.4002
#
#
#
# Elastic Compliance Matrix: (Units=1/GPa)
#
#
# Indices 1 2 3 4 5 6 
#
# 1 0.019130 -0.002755 -0.006962 0.000000 0.000000 0.000000
# 2 -0.002755 0.016062 -0.005500 0.000000 0.000000 0.000000
# 3 -0.006962 -0.005500 0.015654 0.000000 0.000000 0.000000
# 4 0.000000 0.000000 0.000000 0.038937 0.000000 0.000000
# 5 0.000000 0.000000 0.000000 0.000000 0.023822 0.000000
# 6 0.000000 0.000000 0.000000 0.000000 0.000000 0.031847
#
#
# Mechanical properties :
#
#
# Convention : Reuss Voigt Hill
#
# Bulk Modulus (GPa) = 48.98993 51.14157 50.06575
# Shear Modulus (GPa) = 27.36862 29.18476 28.27669
#
# Velocity S-wave (km/s) = 3.63555 3.75424 3.69537
# Velocity P-wave (km/s) = 6.42509 6.59472 6.51046
#
# Compressibility (1/GPa) = 0.02041236
#
# Stress axis : x y z
#
# Youngs Moduli (GPa) = 52.27289 62.25828 63.88146
#
# Poissons Ratio (x) = 0.17153 0.44471
# Poissons Ratio (y) = 0.14402 0.35137
# Poissons Ratio (z) = 0.36390 0.34245
#
# Static dielectric constant tensor:
#      x y z
#    x 3.753040 0.000000 0.000000 
#    y 0.000000 3.688720 0.000000 
#    z 0.000000 0.000000 3.882600 
# 
# 
# High freq. dielectric constant tensor:
#      x y z
#    x 1.805880 0.000000 0.000000 
#    y 0.000000 1.804000 0.000000 
#    z 0.000000 0.000000 1.818230 
# 
# From -- ./inp_files/11215.got.cif
#   From: 2010.03.12/outbox.cif.g09.slc.cpg/sg60_6_cif.got.tgz:11215.got - 2010.04.10 18:46:24.
