data_PCOD8246248
_publ_section_title
;
Structure prediction by ZEFSAII (Michael W. Deem and Ramdas Pophale) SiO2 
 PCOD8246248
Probable space group: P M M N
;
_chemical_formula_sum "Si O2"
_cell_formula_units_Z 64
_cell_length_a 9.000000
_cell_length_b 30.000000
_cell_length_c 15.000000
_cell_angle_alpha 90.000000
_cell_angle_beta 90.000000
_cell_angle_gamma 90.000000
_cell_volume 4050.000000
_symmetry_space_group_name_H-M "P M M N"
_symmetry_group_IT_number 59
_space_group.IT_coordinate_system_code '2'
_symmetry_cell_setting 'orthorhombic'
loop_
_space_group_symop_operation_xyz
x,y,z
1/2-x,1/2-y,z
1/2+x,-y,-z
-x,1/2+y,-z
-x,-y,-z
1/2+x,1/2+y,-z
1/2-x,y,z
x,1/2-y,z
loop_
_atom_site_type_symbol
_atom_site_label
_atom_site_fract_x
_atom_site_fract_y
_atom_site_fract_z
Si Si1 0.575358 0.452340 0.673772
Si Si2 0.577953 0.800096 0.905280
Si Si3 0.576814 0.548102 0.005369
Si Si4 0.421708 0.894501 0.154274
Si Si5 0.925002 0.299138 0.907190
Si Si6 0.922318 0.894576 0.829744
Si Si7 0.570777 0.548653 0.502011
Si Si8 0.571581 0.048533 0.319397
O O1 0.750000 0.461747 0.655335
O O2 0.553580 0.414869 0.748379
O O3 0.493719 0.429481 0.588408
O O4 0.498157 0.499496 0.700523
O O5 0.750000 0.804066 0.931213
O O6 0.545379 0.750000 0.864457
O O7 0.537559 0.841558 0.839678
O O8 0.486532 0.807103 0.994625
O O9 0.750000 0.538999 0.018233
O O10 0.518657 0.575847 0.088719
O O11 0.500000 0.500000 0.000000
O O12 0.544698 0.578310 0.919576
O O13 0.250000 0.898346 0.125118
O O14 0.472564 0.841977 0.153308
O O15 0.750000 0.297819 0.914998
O O16 0.980142 0.250000 0.870402
O O17 0.750000 0.900057 0.801550
O O18 0.029968 0.916327 0.756912
O O19 0.500000 0.500000 0.500000
O O20 0.750000 0.548971 0.503259
O O21 0.502094 0.570277 0.591401
O O22 0.750000 0.044269 0.328087
#
# Coordination Sequence:
#
# PCOD8246248 Si02
#       8
#     8   8   8   8   8   8   8   8
#     4  10  19  32  48  68  96 127 158 195 233 278
#     4   9  17  31  50  69  90 119 156 198 242 284
#     4  11  22  33  45  63  92 130 164 197 230 272
#     4  10  20  32  47  68  95 127 160 194 234 278
#     4   9  17  30  48  69  93 121 156 198 240 279
#     4  10  20  33  46  66  94 125 158 193 235 279
#     4  10  18  31  50  70  93 121 153 194 237 280
#     4  11  21  32  48  70  94 124 159 195 233 279
#
# _framework density 15.802469
#
# number of rings (size 3 to 8) (size 9 to 14) (size 15 to 20)
#    0.000    2.000    1.250    5.250    0.000    5.500 
#    0.000    0.000    0.000    0.000    0.000    0.875 
#    0.000    3.000    0.000    0.000    0.000    0.000 
#
# Total GULP energy -793046.410808 kJ/mol
# GULP energy per Si atom -12391.350169 kJ/mol
# Density = 1.576650 g / cm^3
# Si number density = 15.802469 Si / 1000 Ang^3
#
#
#
# Elastic Constant Matrix: (Units=GPa)
#
#
# Indices 1 2 3 4 5 6 
#
# 1 94.9510 40.3235 41.4827 0.0000 0.0000 0.0000
# 2 40.3235 135.9457 48.7107 0.0000 0.0000 0.0000
# 3 41.4827 48.7107 88.7548 0.0000 0.0000 0.0000
# 4 0.0000 0.0000 0.0000 15.1264 0.0000 0.0000
# 5 0.0000 0.0000 0.0000 0.0000 28.5787 0.0000
# 6 0.0000 0.0000 0.0000 0.0000 0.0000 23.0588
#
#
#
# Elastic Compliance Matrix: (Units=1/GPa)
#
#
# Indices 1 2 3 4 5 6 
#
# 1 0.013748 -0.002210 -0.005212 0.000000 0.000000 0.000000
# 2 -0.002210 0.009512 -0.004187 0.000000 0.000000 0.000000
# 3 -0.005212 -0.004187 0.016001 0.000000 0.000000 0.000000
# 4 0.000000 0.000000 0.000000 0.066109 0.000000 0.000000
# 5 0.000000 0.000000 0.000000 0.000000 0.034991 0.000000
# 6 0.000000 0.000000 0.000000 0.000000 0.000000 0.043367
#
#
# Mechanical properties :
#
#
# Convention : Reuss Voigt Hill
#
# Bulk Modulus (GPa) = 62.34050 64.52061 63.43055
# Shear Modulus (GPa) = 23.55210 25.96176 24.75693
#
# Velocity S-wave (km/s) = 3.86477 4.05766 3.96239
# Velocity P-wave (km/s) = 7.71043 7.92912 7.82054
#
# Compressibility (1/GPa) = 0.01604094
#
# Stress axis : x y z
#
# Youngs Moduli (GPa) = 72.74016 105.13281 62.49469
#
# Poissons Ratio (x) = 0.23235 0.32575
# Poissons Ratio (y) = 0.16076 0.26169
# Poissons Ratio (z) = 0.37916 0.44023
#
# Static dielectric constant tensor:
#      x y z
#    x 3.221210 0.000000 0.000000 
#    y 0.000000 3.396230 0.000000 
#    z 0.000000 0.000000 3.373640 
# 
# 
# High freq. dielectric constant tensor:
#      x y z
#    x 1.625380 0.000000 0.000000 
#    y 0.000000 1.606690 0.000000 
#    z 0.000000 0.000000 1.594450 
# 
# From -- ./inp_files/21885.got.cif
#   From: 2010.03.12/outbox.ucp.g09.slc.cvg/sg59_11_cif.got.tgz:21885.got - 2010.05.04 19:30:51.
