data_PCOD8246688
_publ_section_title
;
Structure prediction by ZEFSAII (Michael W. Deem and Ramdas Pophale) SiO2 
 PCOD8246688
Probable space group: P B C N
;
_chemical_formula_sum "Si O2"
_cell_formula_units_Z 56
_cell_length_a 9.501658
_cell_length_b 15.756362
_cell_length_c 19.049217
_cell_angle_alpha 90.000000
_cell_angle_beta 90.000000
_cell_angle_gamma 90.000000
_cell_volume 2851.888052
_symmetry_space_group_name_H-M "P B C N"
_symmetry_group_IT_number 60
_symmetry_cell_setting 'orthorhombic'
loop_
_space_group_symop_operation_xyz
x,y,z
1/2-x,1/2-y,1/2+z
1/2+x,1/2-y,-z
-x,y,1/2-z
-x,-y,-z
1/2+x,1/2+y,1/2-z
1/2-x,1/2+y,z
x,-y,1/2+z
loop_
_atom_site_type_symbol
_atom_site_label
_atom_site_fract_x
_atom_site_fract_y
_atom_site_fract_z
Si Si1 0.334016 0.097985 0.629190
Si Si2 0.608841 0.509456 0.093803
Si Si3 0.841760 0.087142 0.732999
Si Si4 0.810792 0.770579 0.951734
Si Si5 0.200354 0.043573 0.049756
Si Si6 0.588741 0.816396 0.183620
Si Si7 0.381292 0.302789 0.936713
O O1 0.242223 0.064150 0.695589
O O2 0.285701 0.192618 0.602883
O O3 0.500472 0.105926 0.647426
O O4 0.319714 0.025998 0.569327
O O5 0.651152 0.487439 0.174124
O O6 0.440043 0.508246 0.087633
O O7 0.667045 0.600943 0.071094
O O8 0.678224 0.448062 0.034859
O O9 0.750524 0.161322 0.698143
O O10 0.000000 0.118386 0.750000
O O11 0.756005 0.862239 0.921930
O O12 0.970652 0.788611 0.976142
O O13 0.735736 0.750218 0.024055
O O14 0.500000 0.788040 0.250000
O O15 0.593947 0.730962 0.140671
#
# Coordination Sequence:
#
# PCOD8246688 Si02
#       7
#     8   8   8   8   8   8   8
#     4  10  20  40  59  84 122 157 191 244 308 360
#     4  10  20  34  59  92 113 151 198 255 290 348
#     4  11  21  37  61  84 113 154 204 245 295 353
#     4  10  21  36  59  88 117 158 192 243 300 352
#     4  10  19  36  62  87 121 150 198 244 300 356
#     4   9  21  38  57  82 121 164 194 243 308 370
#     4  10  20  38  59  88 123 150 202 248 300 367
#
# _framework density 19.636115
#
# number of rings (size 3 to 8) (size 9 to 14) (size 15 to 20)
#    0.000    2.000    2.857    0.857    0.000    1.714 
#    7.714    2.143    0.000    0.000    0.000    0.000 
#    0.000    0.000    0.000    0.000    0.000    0.000 
#
# Total GULP energy -693773.377118 kJ/mol
# GULP energy per Si atom -12388.810306 kJ/mol
# Density = 1.959142 g / cm^3
# Si number density = 19.636115 Si / 1000 Ang^3
#
#
#
# Elastic Constant Matrix: (Units=GPa)
#
#
# Indices 1 2 3 4 5 6 
#
# 1 81.9460 34.5955 33.2043 0.0000 0.0000 0.0000
# 2 34.5955 108.9337 48.8807 0.0000 0.0000 0.0000
# 3 33.2043 48.8807 98.5002 0.0000 0.0000 0.0000
# 4 0.0000 0.0000 0.0000 19.2994 0.0000 0.0000
# 5 0.0000 0.0000 0.0000 0.0000 28.6532 0.0000
# 6 0.0000 0.0000 0.0000 0.0000 0.0000 18.5509
#
#
#
# Elastic Compliance Matrix: (Units=1/GPa)
#
#
# Indices 1 2 3 4 5 6 
#
# 1 0.014953 -0.003199 -0.003453 0.000000 0.000000 0.000000
# 2 -0.003199 0.012494 -0.005122 0.000000 0.000000 0.000000
# 3 -0.003453 -0.005122 0.013858 0.000000 0.000000 0.000000
# 4 0.000000 0.000000 0.000000 0.051815 0.000000 0.000000
# 5 0.000000 0.000000 0.000000 0.000000 0.034900 0.000000
# 6 0.000000 0.000000 0.000000 0.000000 0.000000 0.053906
#
#
# Mechanical properties :
#
#
# Convention : Reuss Voigt Hill
#
# Bulk Modulus (GPa) = 56.31598 58.08231 57.19914
# Shear Modulus (GPa) = 23.65262 24.81400 24.23331
#
# Velocity S-wave (km/s) = 3.47442 3.55870 3.51681
# Velocity P-wave (km/s) = 6.69608 6.82124 6.75895
#
# Compressibility (1/GPa) = 0.01775695
#
# Stress axis : x y z
#
# Youngs Moduli (GPa) = 66.87626 80.03720 72.16106
#
# Poissons Ratio (x) = 0.25607 0.24917
# Poissons Ratio (y) = 0.21397 0.36959
# Poissons Ratio (z) = 0.23092 0.40993
#
# Static dielectric constant tensor:
#      x y z
#    x 3.671080 0.000000 0.000000 
#    y 0.000000 3.466780 0.000000 
#    z 0.000000 0.000000 3.656460 
# 
# 
# High freq. dielectric constant tensor:
#      x y z
#    x 1.754880 0.000000 0.000000 
#    y 0.000000 1.754150 0.000000 
#    z 0.000000 0.000000 1.767730 
# 
# From -- ./inp_files/22211.got.cif
#   From: 2010.03.12/outbox.cif.g09.slc.cpg/sg60_12_cif.got.tgz:22211.got - 2010.04.10 18:46:24.
