data_PCOD8246953
_publ_section_title
;
Structure prediction by ZEFSAII (Michael W. Deem and Ramdas Pophale) SiO2 
 PCOD8246953
Probable space group: P B C N
;
_chemical_formula_sum "Si O2"
_cell_formula_units_Z 64
_cell_length_a 8.693804
_cell_length_b 24.638669
_cell_length_c 15.026849
_cell_angle_alpha 90.000000
_cell_angle_beta 90.000000
_cell_angle_gamma 90.000000
_cell_volume 3218.807543
_symmetry_space_group_name_H-M "P B C N"
_symmetry_group_IT_number 60
_symmetry_cell_setting 'orthorhombic'
loop_
_space_group_symop_operation_xyz
x,y,z
1/2-x,1/2-y,1/2+z
1/2+x,1/2-y,-z
-x,y,1/2-z
-x,-y,-z
1/2+x,1/2+y,1/2-z
1/2-x,1/2+y,z
x,-y,1/2+z
loop_
_atom_site_type_symbol
_atom_site_label
_atom_site_fract_x
_atom_site_fract_y
_atom_site_fract_z
Si Si1 0.182318 0.363827 0.396014
Si Si2 0.318466 0.439010 0.250000
Si Si3 0.819467 0.245164 0.903322
Si Si4 0.180388 0.363651 0.902503
Si Si5 0.682318 0.136173 0.896014
Si Si6 0.315698 0.057658 0.250000
Si Si7 0.180533 0.245164 0.903322
Si Si8 0.819612 0.363651 0.902503
O O1 0.252161 0.412039 0.338681
O O2 0.237420 0.305701 0.355016
O O3 0.246773 0.370169 0.497174
O O4 1.000000 0.366763 0.390526
O O5 0.500000 0.433906 0.250000
O O6 0.252161 0.412039 0.161319
O O7 0.267958 0.500892 0.250000
O O8 0.737420 0.194299 0.855016
O O9 0.784620 0.304053 0.859213
O O10 0.000000 0.233341 0.906483
O O11 0.750000 0.250000 0.000000
O O12 0.244207 0.409780 0.836948
O O13 0.215380 0.304053 0.859213
O O14 0.000000 0.370663 0.911642
O O15 0.246773 0.370169 0.002826
O O16 0.500000 0.051053 0.250000
O O17 0.255793 0.090220 0.163052
#
# Coordination Sequence:
#
# PCOD8246953 Si02
#       8
#     8   8   8   8   8   8   8   8
#     4  10  20  37  58  83 112 147 185 227 277 334
#     4  12  26  41  54  77 107 142 188 238 285 334
#     4   9  16  30  53  85 118 149 183 223 269 327
#     4   8  17  33  58  86 113 145 182 218 267 328
#     4  10  20  37  58  83 112 147 185 227 277 334
#     4  10  20  39  60  79 105 144 188 228 265 322
#     4   9  16  30  53  85 118 149 183 223 269 327
#     4   8  17  33  58  86 113 145 182 218 267 328
#
# _framework density 19.883140999999998
#
# number of rings (size 3 to 8) (size 9 to 14) (size 15 to 20)
#    0.000    2.500    0.000    4.125    0.000    2.000 
#    0.000   15.000    0.000    0.000    0.000    0.000 
#    0.000    0.000    0.000    0.000    0.000    0.000 
#
# Total GULP energy -793049.136871 kJ/mol
# GULP energy per Si atom -12391.392764 kJ/mol
# Density = 1.983789 g / cm^3
# Si number density = 19.883141 Si / 1000 Ang^3
#
#
#
# Elastic Constant Matrix: (Units=GPa)
#
#
# Indices 1 2 3 4 5 6 
#
# 1 91.0310 54.9518 32.5638 0.0000 0.0000 0.0000
# 2 54.9518 182.0297 74.0924 0.0000 0.0000 0.0000
# 3 32.5638 74.0924 105.3678 0.0000 0.0000 0.0000
# 4 0.0000 0.0000 0.0000 29.0799 0.0000 0.0000
# 5 0.0000 0.0000 0.0000 0.0000 18.9859 0.0000
# 6 0.0000 0.0000 0.0000 0.0000 0.0000 37.5052
#
#
#
# Elastic Compliance Matrix: (Units=1/GPa)
#
#
# Indices 1 2 3 4 5 6 
#
# 1 0.013687 -0.003377 -0.001856 0.000000 0.000000 0.000000
# 2 -0.003377 0.008530 -0.004954 0.000000 0.000000 0.000000
# 3 -0.001856 -0.004954 0.013548 0.000000 0.000000 0.000000
# 4 0.000000 0.000000 0.000000 0.034388 0.000000 0.000000
# 5 0.000000 0.000000 0.000000 0.000000 0.052671 0.000000
# 6 0.000000 0.000000 0.000000 0.000000 0.000000 0.026663
#
#
# Mechanical properties :
#
#
# Convention : Reuss Voigt Hill
#
# Bulk Modulus (GPa) = 64.97063 77.96051 71.46557
# Shear Modulus (GPa) = 28.57305 31.56889 30.07097
#
# Velocity S-wave (km/s) = 3.79496 3.98895 3.89316
# Velocity P-wave (km/s) = 7.20760 7.77882 7.49865
#
# Compressibility (1/GPa) = 0.01539157
#
# Stress axis : x y z
#
# Youngs Moduli (GPa) = 73.05954 117.23993 73.81294
#
# Poissons Ratio (x) = 0.39588 0.13697
# Poissons Ratio (y) = 0.24670 0.36568
# Poissons Ratio (z) = 0.13557 0.58083
#
# Static dielectric constant tensor:
#      x y z
#    x 3.514100 0.000000 0.000000 
#    y 0.000000 4.113000 0.000000 
#    z 0.000000 0.000000 3.869480 
# 
# 
# High freq. dielectric constant tensor:
#      x y z
#    x 1.755880 0.000000 0.000000 
#    y 0.000000 1.786780 0.000000 
#    z 0.000000 0.000000 1.765620 
# 
# From -- ./inp_files/15414.got.cif
#   From: 2010.03.12/outbox.cif.g09.slc.cpg/sg60_8_cif.got.tgz:15414.got - 2010.04.10 18:46:24.
