data_PCOD8246725
_publ_section_title
;
Structure prediction by ZEFSAII (Michael W. Deem and Ramdas Pophale) SiO2 
 PCOD8246725
Probable space group: P B C N
;
_chemical_formula_sum "Si O2"
_cell_formula_units_Z 64
_cell_length_a 19.236670
_cell_length_b 11.543809
_cell_length_c 13.579756
_cell_angle_alpha 90.000000
_cell_angle_beta 90.000000
_cell_angle_gamma 90.000000
_cell_volume 3015.580970
_symmetry_space_group_name_H-M "P B C N"
_symmetry_group_IT_number 60
_symmetry_cell_setting 'orthorhombic'
loop_
_space_group_symop_operation_xyz
x,y,z
1/2-x,1/2-y,1/2+z
1/2+x,1/2-y,-z
-x,y,1/2-z
-x,-y,-z
1/2+x,1/2+y,1/2-z
1/2-x,1/2+y,z
x,-y,1/2+z
loop_
_atom_site_type_symbol
_atom_site_label
_atom_site_fract_x
_atom_site_fract_y
_atom_site_fract_z
Si Si1 0.563855 0.978695 0.363570
Si Si2 0.586376 0.002158 0.585523
Si Si3 0.937756 0.243390 0.616268
Si Si4 0.690316 0.650339 0.965513
Si Si5 0.588707 0.224052 0.328321
Si Si6 0.790414 0.328667 0.127483
Si Si7 0.316811 0.801355 0.151559
Si Si8 0.838675 0.894603 0.995151
O O1 0.574285 0.033264 0.472016
O O2 0.608116 0.863716 0.342138
O O3 0.480911 0.956026 0.349343
O O4 0.590315 0.086867 0.296622
O O5 0.599354 0.864661 0.589919
O O6 0.652376 0.070889 0.625040
O O7 0.916235 0.205497 0.726544
O O8 0.911488 0.148090 0.539614
O O9 0.020633 0.252614 0.604941
O O10 0.655977 0.737363 0.887288
O O11 0.768438 0.627326 0.925337
O O12 0.687356 0.711324 0.071694
O O13 0.650970 0.528999 0.971005
O O14 0.780169 0.294248 0.241703
O O15 0.720628 0.376966 0.077601
O O16 0.323740 0.672039 0.107242
#
# Coordination Sequence:
#
# PCOD8246725 Si02
#       8
#     8   8   8   8   8   8   8   8
#     4  10  19  37  65  95 123 153 198 257 310 351
#     4  10  19  37  65  95 123 153 198 257 310 351
#     4  10  21  39  65  93 122 160 203 249 301 355
#     4  11  25  42  60  87 124 164 202 245 297 361
#     4  10  21  39  65  93 122 160 203 249 301 355
#     4  11  24  40  62  90 122 160 202 250 303 358
#     4  11  24  40  62  90 122 160 202 250 303 358
#     4  11  25  42  60  87 124 164 202 245 297 361
#
# _framework density 21.223109000000001
#
# number of rings (size 3 to 8) (size 9 to 14) (size 15 to 20)
#    0.000    1.500    2.500    2.250    3.500    4.000 
#    0.000    0.000    0.000    0.000    0.000    0.000 
#    0.000    0.000    0.000    0.000    0.000    0.000 
#
# Total GULP energy -793736.284110 kJ/mol
# GULP energy per Si atom -12402.129439 kJ/mol
# Density = 2.117480 g / cm^3
# Si number density = 21.223109 Si / 1000 Ang^3
#
#
#
# Elastic Constant Matrix: (Units=GPa)
#
#
# Indices 1 2 3 4 5 6 
#
# 1 71.4025 25.0189 -2.2860 0.0000 0.0000 0.0000
# 2 25.0189 100.1006 6.2553 0.0000 0.0000 0.0000
# 3 -2.2860 6.2553 63.0747 0.0000 0.0000 0.0000
# 4 0.0000 0.0000 0.0000 17.3186 0.0000 0.0000
# 5 0.0000 0.0000 0.0000 0.0000 28.5180 0.0000
# 6 0.0000 0.0000 0.0000 0.0000 0.0000 30.3505
#
#
#
# Elastic Compliance Matrix: (Units=1/GPa)
#
#
# Indices 1 2 3 4 5 6 
#
# 1 0.015405 -0.003909 0.000946 0.000000 0.000000 0.000000
# 2 -0.003909 0.011044 -0.001237 0.000000 0.000000 0.000000
# 3 0.000946 -0.001237 0.016011 0.000000 0.000000 0.000000
# 4 0.000000 0.000000 0.000000 0.057741 0.000000 0.000000
# 5 0.000000 0.000000 0.000000 0.000000 0.035066 0.000000
# 6 0.000000 0.000000 0.000000 0.000000 0.000000 0.032948
#
#
# Mechanical properties :
#
#
# Convention : Reuss Voigt Hill
#
# Bulk Modulus (GPa) = 29.35999 32.50604 30.93301
# Shear Modulus (GPa) = 26.59993 28.94339 27.77166
#
# Velocity S-wave (km/s) = 3.54411 3.69693 3.62132
# Velocity P-wave (km/s) = 5.53277 5.79419 5.66499
#
# Compressibility (1/GPa) = 0.03405996
#
# Stress axis : x y z
#
# Youngs Moduli (GPa) = 64.91290 90.54385 62.45634
#
# Poissons Ratio (x) = 0.35398 -0.05909
# Poissons Ratio (y) = 0.25378 0.07726
# Poissons Ratio (z) = -0.06141 0.11200
#
# Static dielectric constant tensor:
#      x y z
#    x 3.770050 0.000000 0.000000 
#    y 0.000000 3.513280 0.000000 
#    z 0.000000 0.000000 3.997240 
# 
# 
# High freq. dielectric constant tensor:
#      x y z
#    x 1.830690 0.000000 0.000000 
#    y 0.000000 1.807460 0.000000 
#    z 0.000000 0.000000 1.846250 
# 
# From -- ./inp_files/17480.got.cif
#   From: 2010.03.12/outbox.cif.g09.slc.cpg/sg60_9_cif.got.tgz:17480.got - 2010.04.10 18:46:24.
