data_PCOD8246561
_publ_section_title
;
Structure prediction by ZEFSAII (Michael W. Deem and Ramdas Pophale) SiO2 
 PCOD8246561
Probable space group: P B C N
;
_chemical_formula_sum "Si O2"
_cell_formula_units_Z 48
_cell_length_a 8.747008
_cell_length_b 20.403633
_cell_length_c 13.941405
_cell_angle_alpha 90.000000
_cell_angle_beta 90.000000
_cell_angle_gamma 90.000000
_cell_volume 2488.132882
_symmetry_space_group_name_H-M "P B C N"
_symmetry_group_IT_number 60
_symmetry_cell_setting 'orthorhombic'
loop_
_space_group_symop_operation_xyz
x,y,z
1/2-x,1/2-y,1/2+z
1/2+x,1/2-y,-z
-x,y,1/2-z
-x,-y,-z
1/2+x,1/2+y,1/2-z
1/2-x,1/2+y,z
x,-y,1/2+z
loop_
_atom_site_type_symbol
_atom_site_label
_atom_site_fract_x
_atom_site_fract_y
_atom_site_fract_z
Si Si1 0.179816 0.598209 0.257162
Si Si2 0.172904 0.932938 0.558068
Si Si3 0.855037 0.735136 0.300028
Si Si4 0.154232 0.688568 0.000229
Si Si5 0.173027 0.307508 0.057968
Si Si6 0.681338 0.570094 0.043650
O O1 0.267171 0.566584 0.166858
O O2 0.216222 0.676885 0.265302
O O3 0.240943 0.563940 0.352895
O O4 0.000000 0.584386 0.250000
O O5 0.257054 0.879761 0.490518
O O6 0.995722 0.913098 0.557684
O O7 0.204970 0.002660 0.511839
O O8 0.916759 0.694177 0.392633
O O9 0.735476 0.790720 0.334182
O O10 0.000000 0.770118 0.250000
O O11 0.271653 0.749533 0.984681
O O12 0.009994 0.690905 0.929060
O O13 0.238053 0.375851 0.022243
#
# Coordination Sequence:
#
# PCOD8246561 Si02
#       6
#     8   8   8   8   8   8
#     4  10  20  37  61  87 121 159 200 246 298 368
#     4  10  22  40  58  89 124 158 206 248 296 365
#     4   8  17  32  54  82 117 151 188 243 298 353
#     4   9  19  34  58  84 119 150 196 246 299 359
#     4  10  19  32  59  87 112 154 195 243 301 354
#     4  11  22  37  64  89 117 166 201 246 305 360
#
# _framework density 19.291573
#
# number of rings (size 3 to 8) (size 9 to 14) (size 15 to 20)
#    1.000    1.333    0.000    4.500    0.000    2.667 
#    0.000    3.333    0.000    0.000    0.000    0.000 
#    0.000    0.000    0.000    0.000    0.000    0.000 
#
# Total GULP energy -594799.630893 kJ/mol
# GULP energy per Si atom -12391.658977 kJ/mol
# Density = 1.924766 g / cm^3
# Si number density = 19.291573 Si / 1000 Ang^3
#
#
#
# Elastic Constant Matrix: (Units=GPa)
#
#
# Indices 1 2 3 4 5 6 
#
# 1 137.1136 61.1037 36.4993 0.0000 0.0000 0.0000
# 2 61.1037 100.1748 26.9919 0.0000 0.0000 0.0000
# 3 36.4993 26.9919 56.3257 0.0000 0.0000 0.0000
# 4 0.0000 0.0000 0.0000 29.2114 0.0000 0.0000
# 5 0.0000 0.0000 0.0000 0.0000 36.9726 0.0000
# 6 0.0000 0.0000 0.0000 0.0000 0.0000 34.4272
#
#
#
# Elastic Compliance Matrix: (Units=1/GPa)
#
#
# Indices 1 2 3 4 5 6 
#
# 1 0.010910 -0.005454 -0.004456 0.000000 0.000000 0.000000
# 2 -0.005454 0.014189 -0.003265 0.000000 0.000000 0.000000
# 3 -0.004456 -0.003265 0.022206 0.000000 0.000000 0.000000
# 4 0.000000 0.000000 0.000000 0.034233 0.000000 0.000000
# 5 0.000000 0.000000 0.000000 0.000000 0.027047 0.000000
# 6 0.000000 0.000000 0.000000 0.000000 0.000000 0.029047
#
#
# Mechanical properties :
#
#
# Convention : Reuss Voigt Hill
#
# Bulk Modulus (GPa) = 47.72260 60.31153 54.01706
# Shear Modulus (GPa) = 29.24515 31.39017 30.31766
#
# Velocity S-wave (km/s) = 3.89775 4.03816 3.96858
# Velocity P-wave (km/s) = 6.71177 7.28515 7.00433
#
# Compressibility (1/GPa) = 0.02095443
#
# Stress axis : x y z
#
# Youngs Moduli (GPa) = 91.65907 70.47597 45.03236
#
# Poissons Ratio (x) = 0.38438 0.20067
# Poissons Ratio (y) = 0.49992 0.14705
# Poissons Ratio (z) = 0.40844 0.23013
#
# Static dielectric constant tensor:
#      x y z
#    x 3.507690 0.000000 0.000000 
#    y 0.000000 3.370240 0.000000 
#    z 0.000000 0.000000 3.341120 
# 
# 
# High freq. dielectric constant tensor:
#      x y z
#    x 1.757520 0.000000 0.000000 
#    y 0.000000 1.739530 0.000000 
#    z 0.000000 0.000000 1.730700 
# 
# From -- ./inp_files/15138.got.cif
#   From: 2010.03.12/outbox.cif.g09.slc.cpg/sg60_8_cif.got.tgz:15138.got - 2010.04.10 18:46:24.
