data_PCOD8246160
_publ_section_title
;
Structure prediction by ZEFSAII (Michael W. Deem and Ramdas Pophale) SiO2 
 PCOD8246160
Probable space group: P M M N
;
_chemical_formula_sum "Si O2"
_cell_formula_units_Z 64
_cell_length_a 9.167332
_cell_length_b 21.546292
_cell_length_c 21.915180
_cell_angle_alpha 90.000000
_cell_angle_beta 90.000000
_cell_angle_gamma 90.000000
_cell_volume 4328.730450
_symmetry_space_group_name_H-M "P M M N"
_symmetry_group_IT_number 59
_space_group.IT_coordinate_system_code '2'
_symmetry_cell_setting 'orthorhombic'
loop_
_space_group_symop_operation_xyz
x,y,z
1/2-x,1/2-y,z
1/2+x,-y,-z
-x,1/2+y,-z
-x,-y,-z
1/2+x,1/2+y,-z
1/2-x,y,z
x,1/2-y,z
loop_
_atom_site_type_symbol
_atom_site_label
_atom_site_fract_x
_atom_site_fract_y
_atom_site_fract_z
Si Si1 0.419040 0.817727 0.905713
Si Si2 0.419785 0.821116 0.578293
Si Si3 0.585547 0.904964 0.490779
Si Si4 0.421984 0.922538 0.814477
Si Si5 0.579304 0.422948 0.324291
Si Si6 0.085529 0.989085 0.408058
Si Si7 0.582815 0.082729 0.004875
Si Si8 0.582716 0.499202 0.902221
O O1 0.250000 0.809169 0.891056
O O2 0.496124 0.750000 0.902166
O O3 0.482894 0.864546 0.854285
O O4 0.440976 0.845742 0.974258
O O5 0.250000 0.828841 0.562834
O O6 0.461461 0.750000 0.591907
O O7 0.508362 0.844669 0.519449
O O8 0.461795 0.860969 0.638098
O O9 0.750000 0.887325 0.471893
O O10 0.498355 0.927475 0.430840
O O11 0.584930 0.959942 0.539323
O O12 0.250000 0.928836 0.820172
O O13 0.470913 0.912094 0.745034
O O14 0.489782 0.986732 0.841242
O O15 0.750000 0.437378 0.329512
O O16 0.495167 0.483074 0.349215
O O17 0.250000 0.970475 0.390252
O O18 0.750000 0.063028 0.022304
O O19 0.465953 0.044186 0.043316
O O20 0.559439 0.070219 0.931888
O O21 0.750000 0.510951 0.885223
#
# Coordination Sequence:
#
# PCOD8246160 Si02
#       8
#     8   8   8   8   8   8   8   8
#     4   8  13  22  37  55  74  98 129 162 191 221
#     4   9  17  28  41  58  81 108 137 167 196 227
#     4   9  16  26  41  59  78 101 129 162 201 242
#     4   9  17  27  38  54  77 104 134 164 192 226
#     4   9  17  28  40  55  78 107 136 165 195 229
#     4   9  16  26  41  59  77  98 127 164 204 241
#     4   8  14  24  37  54  73  93 121 157 196 235
#     4   9  15  23  37  54  72  95 123 157 197 236
#
# _framework density 14.784936
#
# number of rings (size 3 to 8) (size 9 to 14) (size 15 to 20)
#    0.000    3.250    0.000    1.875    0.000    4.750 
#    0.000    2.500    0.000    6.000    0.000    5.250 
#    0.000    1.000    0.000    9.250    0.000    3.250 
#
# Total GULP energy -792900.066639 kJ/mol
# GULP energy per Si atom -12389.063541 kJ/mol
# Density = 1.475129 g / cm^3
# Si number density = 14.784936 Si / 1000 Ang^3
#
#
#
# Elastic Constant Matrix: (Units=GPa)
#
#
# Indices 1 2 3 4 5 6 
#
# 1 54.8342 32.3100 37.7153 0.0000 0.0000 0.0000
# 2 32.3100 65.7399 69.6771 0.0000 0.0000 0.0000
# 3 37.7153 69.6771 83.1363 0.0000 0.0000 0.0000
# 4 0.0000 0.0000 0.0000 16.8863 0.0000 0.0000
# 5 0.0000 0.0000 0.0000 0.0000 20.9102 0.0000
# 6 0.0000 0.0000 0.0000 0.0000 0.0000 16.0329
#
#
#
# Elastic Compliance Matrix: (Units=1/GPa)
#
#
# Indices 1 2 3 4 5 6 
#
# 1 0.026555 -0.002534 -0.009923 0.000000 0.000000 0.000000
# 2 -0.002534 0.136424 -0.113188 0.000000 0.000000 0.000000
# 3 -0.009923 -0.113188 0.111394 0.000000 0.000000 0.000000
# 4 0.000000 0.000000 0.000000 0.059220 0.000000 0.000000
# 5 0.000000 0.000000 0.000000 0.000000 0.047823 0.000000
# 6 0.000000 0.000000 0.000000 0.000000 0.000000 0.062372
#
#
# Mechanical properties :
#
#
# Convention : Reuss Voigt Hill
#
# Bulk Modulus (GPa) = 43.32324 53.67946 48.50135
# Shear Modulus (GPa) = 7.11468 15.03308 11.07388
#
# Velocity S-wave (km/s) = 2.19603 3.19216 2.73975
# Velocity P-wave (km/s) = 5.98297 7.06910 6.54860
#
# Compressibility (1/GPa) = 0.02308230
#
# Stress axis : x y z
#
# Youngs Moduli (GPa) = 37.65762 7.33010 8.97715
#
# Poissons Ratio (x) = 0.01857 0.08908
# Poissons Ratio (y) = 0.09541 1.01611
# Poissons Ratio (z) = 0.37369 0.82968
#
# Static dielectric constant tensor:
#      x y z
#    x 2.876470 0.000000 0.000000 
#    y 0.000000 2.905340 0.000000 
#    z 0.000000 0.000000 2.866830 
# 
# 
# High freq. dielectric constant tensor:
#      x y z
#    x 1.563340 0.000000 0.000000 
#    y 0.000000 1.535430 0.000000 
#    z 0.000000 0.000000 1.541900 
# 
# From -- ./inp_files/29871.got.cif
#   From: 2010.03.12/outbox.cif.g09.slc.cpg/sg59_15_cif.got.tgz:29871.got - 2010.04.16 16:29:54.
