data_PCOD8246201
_publ_section_title
;
Structure prediction by ZEFSAII (Michael W. Deem and Ramdas Pophale) SiO2 
 PCOD8246201
Probable space group: P M M N
;
_chemical_formula_sum "Si O2"
_cell_formula_units_Z 56
_cell_length_a 9.408560
_cell_length_b 19.196101
_cell_length_c 17.966495
_cell_angle_alpha 90.000000
_cell_angle_beta 90.000000
_cell_angle_gamma 90.000000
_cell_volume 3244.886765
_symmetry_space_group_name_H-M "P M M N"
_symmetry_group_IT_number 59
_space_group.IT_coordinate_system_code '2'
_symmetry_cell_setting 'orthorhombic'
loop_
_space_group_symop_operation_xyz
x,y,z
1/2-x,1/2-y,z
1/2+x,-y,-z
-x,1/2+y,-z
-x,-y,-z
1/2+x,1/2+y,-z
1/2-x,y,z
x,1/2-y,z
loop_
_atom_site_type_symbol
_atom_site_label
_atom_site_fract_x
_atom_site_fract_y
_atom_site_fract_z
Si Si1 0.414399 0.070534 0.991425
Si Si2 0.909824 0.667008 0.430652
Si Si3 0.918260 0.328502 0.267916
Si Si4 0.410233 0.079325 0.155850
Si Si5 0.584951 0.416817 0.855115
Si Si6 0.408035 0.667176 0.566801
Si Si7 0.914404 0.169301 0.710965
O O1 0.250000 0.055637 0.971500
O O2 0.490184 0.112493 0.924131
O O3 0.425078 0.109103 0.071349
O O4 0.500000 0.000000 0.000000
O O5 0.750000 0.637539 0.427715
O O6 0.910406 0.750000 0.433244
O O7 0.985522 0.636731 0.504635
O O8 0.993994 0.640982 0.358080
O O9 0.750000 0.330619 0.260036
O O10 0.974081 0.250000 0.253759
O O11 0.962414 0.353925 0.350841
O O12 0.983636 0.379786 0.208092
O O13 0.250000 0.090874 0.184591
O O14 0.448673 0.997730 0.159236
O O15 0.750000 0.405295 0.874932
O O16 0.538883 0.373655 0.783062
O O17 0.250000 0.636978 0.552071
O O18 0.400839 0.750000 0.561874
O O19 0.750000 0.157061 0.691082
O O20 0.945779 0.250000 0.727233
#
# Coordination Sequence:
#
# PCOD8246201 Si02
#       7
#     8   8   8   8   8   8   8
#     4   9  17  30  48  69  91 118 154 191 226 266
#     4   9  16  25  40  65  93 118 148 186 224 264
#     4   9  18  31  47  69  94 119 151 190 227 266
#     4   9  18  31  47  68  93 120 149 184 228 273
#     4   9  18  32  49  70  94 119 152 191 227 268
#     4   8  14  26  43  62  86 116 149 184 222 264
#     4   9  17  30  48  68  92 123 154 185 226 272
#
# _framework density 17.257922000000001
#
# number of rings (size 3 to 8) (size 9 to 14) (size 15 to 20)
#    0.000    3.143    0.000    2.571    0.000    6.000 
#    0.000    2.143    0.000    3.429    0.000    0.000 
#    0.000    0.000    0.000    0.000    0.000    0.000 
#
# Total GULP energy -694101.168867 kJ/mol
# GULP energy per Si atom -12394.663730 kJ/mol
# Density = 1.721864 g / cm^3
# Si number density = 17.257922 Si / 1000 Ang^3
#
#
#
# Elastic Constant Matrix: (Units=GPa)
#
#
# Indices 1 2 3 4 5 6 
#
# 1 94.1528 24.2826 81.1477 0.0000 0.0000 0.0000
# 2 24.2826 32.6994 42.3975 0.0000 0.0000 0.0000
# 3 81.1477 42.3975 160.1266 0.0000 0.0000 0.0000
# 4 0.0000 0.0000 0.0000 -284.4715 0.0000 0.0000
# 5 0.0000 0.0000 0.0000 0.0000 36.2822 0.0000
# 6 0.0000 0.0000 0.0000 0.0000 0.0000 19.1131
#
#
#
# Elastic Compliance Matrix: (Units=1/GPa)
#
#
# Indices 1 2 3 4 5 6 
#
# 1 0.018988 -0.002473 -0.008968 0.000000 0.000000 0.000000
# 2 -0.002473 0.046891 -0.011162 0.000000 0.000000 0.000000
# 3 -0.008968 -0.011162 0.013745 0.000000 0.000000 0.000000
# 4 0.000000 0.000000 0.000000 -0.003515 0.000000 0.000000
# 5 0.000000 0.000000 0.000000 0.000000 0.027562 0.000000
# 6 0.000000 0.000000 0.000000 0.000000 0.000000 0.052320
#
#
# Mechanical properties :
#
#
# Convention : Reuss Voigt Hill
#
# Bulk Modulus (GPa) = 29.05464 64.73716 46.89590
# Shear Modulus (GPa) = 23.51068 -36.53851 -6.51392
#
# Velocity S-wave (km/s) = 3.69496 -4.60630 -1.94490
# Velocity P-wave (km/s) = 5.92247 3.04997 4.71052
#
# Compressibility (1/GPa) = 0.03441792
#
# Stress axis : x y z
#
# Youngs Moduli (GPa) = 52.66517 21.32608 72.75296
#
# Poissons Ratio (x) = 0.05274 0.65243
# Poissons Ratio (y) = 0.13024 0.81209
# Poissons Ratio (z) = 0.47229 0.23805
#
# Static dielectric constant tensor:
#      x y z
#    x 3.367850 0.000000 0.000000 
#    y 0.000000 2.757430 0.000000 
#    z 0.000000 0.000000 3.655030 
# 
# 
# High freq. dielectric constant tensor:
#      x y z
#    x 1.670110 0.000000 0.000000 
#    y 0.000000 1.608500 0.000000 
#    z 0.000000 0.000000 1.682140 
# 
# From -- ./inp_files/26078.got.cif
#   From: 2010.03.12/outbox.cif.g09.slc.cpg/sg59_14_cif.got.tgz:26078.got - 2010.04.16 16:29:54.
