data_PCOD8246957
_publ_section_title
;
Structure prediction by ZEFSAII (Michael W. Deem and Ramdas Pophale) SiO2 
 PCOD8246957
Probable space group: P B C N
;
_chemical_formula_sum "Si O2"
_cell_formula_units_Z 60
_cell_length_a 8.283397
_cell_length_b 15.541887
_cell_length_c 22.568385
_cell_angle_alpha 90.000000
_cell_angle_beta 90.000000
_cell_angle_gamma 90.000000
_cell_volume 2905.445312
_symmetry_space_group_name_H-M "P B C N"
_symmetry_group_IT_number 60
_symmetry_cell_setting 'orthorhombic'
loop_
_space_group_symop_operation_xyz
x,y,z
1/2-x,1/2-y,1/2+z
1/2+x,1/2-y,-z
-x,y,1/2-z
-x,-y,-z
1/2+x,1/2+y,1/2-z
1/2-x,1/2+y,z
x,-y,1/2+z
loop_
_atom_site_type_symbol
_atom_site_label
_atom_site_fract_x
_atom_site_fract_y
_atom_site_fract_z
Si Si1 0.731807 0.336885 0.310674
Si Si2 0.482671 0.224040 0.876794
Si Si3 0.258831 0.792590 0.786682
Si Si4 0.983286 0.708449 0.378377
Si Si5 0.530282 0.482280 0.357465
Si Si6 0.000000 0.907005 0.750000
Si Si7 0.814371 0.851971 0.068870
Si Si8 0.689816 0.627742 0.432571
O O1 0.704372 0.299935 0.243997
O O2 0.642869 0.278576 0.358100
O O3 0.663126 0.432174 0.317871
O O4 0.917812 0.335268 0.330827
O O5 0.371056 0.286063 0.838424
O O6 0.374657 0.158742 0.915567
O O7 0.589972 0.286360 0.917489
O O8 0.422204 0.827326 0.819136
O O9 0.167409 0.852354 0.737394
O O10 0.104380 0.757404 0.423332
O O11 0.878536 0.635414 0.411889
O O12 0.446589 0.541242 0.308154
O O13 0.397421 0.421553 0.387823
O O14 0.617748 0.540458 0.406162
O O15 0.823868 0.885411 0.002535
#
# Coordination Sequence:
#
# PCOD8246957 Si02
#       8
#     8   8   8   8   8   4   8   8
#     4  10  20  37  58  86 125 156 201 254 318 380
#     4  10  20  38  62  89 114 162 220 249 306 384
#     4  11  19  39  62  89 119 165 207 263 304 383
#     4   9  21  35  63  92 113 163 222 250 311 382
#     4  11  25  38  58  94 127 168 203 264 334 383
#     4  12  22  40  62  90 128 158 212 256 320 376
#     4  10  22  39  65  89 124 172 215 263 317 383
#     4  11  20  43  61  91 130 163 215 273 315 374
#
# _framework density 20.650877000000001
#
# number of rings (size 3 to 8) (size 9 to 14) (size 15 to 20)
#    0.000    1.600    2.667    2.400    5.600    0.000 
#    2.400    0.667    0.000    0.000    0.000    0.000 
#    0.000    0.000    0.000    0.000    0.000    0.000 
#
# Total GULP energy -743545.592900 kJ/mol
# GULP energy per Si atom -12392.426548 kJ/mol
# Density = 2.060388 g / cm^3
# Si number density = 20.650877 Si / 1000 Ang^3
#
#
#
# Elastic Constant Matrix: (Units=GPa)
#
#
# Indices 1 2 3 4 5 6 
#
# 1 103.5112 38.9325 36.2262 0.0000 0.0000 0.0000
# 2 38.9325 81.8356 34.0450 0.0000 0.0000 0.0000
# 3 36.2262 34.0450 116.8520 0.0000 0.0000 0.0000
# 4 0.0000 0.0000 0.0000 35.1769 0.0000 0.0000
# 5 0.0000 0.0000 0.0000 0.0000 35.1211 0.0000
# 6 0.0000 0.0000 0.0000 0.0000 0.0000 16.8456
#
#
#
# Elastic Compliance Matrix: (Units=1/GPa)
#
#
# Indices 1 2 3 4 5 6 
#
# 1 0.012333 -0.004867 -0.002406 0.000000 0.000000 0.000000
# 2 -0.004867 0.015825 -0.003102 0.000000 0.000000 0.000000
# 3 -0.002406 -0.003102 0.010207 0.000000 0.000000 0.000000
# 4 0.000000 0.000000 0.000000 0.028428 0.000000 0.000000
# 5 0.000000 0.000000 0.000000 0.000000 0.028473 0.000000
# 6 0.000000 0.000000 0.000000 0.000000 0.000000 0.059363
#
#
# Mechanical properties :
#
#
# Convention : Reuss Voigt Hill
#
# Bulk Modulus (GPa) = 56.76192 57.84515 57.30354
# Shear Modulus (GPa) = 27.58620 30.29507 28.94063
#
# Velocity S-wave (km/s) = 3.65887 3.83431 3.74762
# Velocity P-wave (km/s) = 6.73765 6.90467 6.82167
#
# Compressibility (1/GPa) = 0.01761745
#
# Stress axis : x y z
#
# Youngs Moduli (GPa) = 81.08265 63.18981 97.96831
#
# Poissons Ratio (x) = 0.30752 0.23567
# Poissons Ratio (y) = 0.39460 0.30390
# Poissons Ratio (z) = 0.19505 0.19602
#
# Static dielectric constant tensor:
#      x y z
#    x 4.179600 0.000000 0.000000 
#    y 0.000000 3.644190 0.000000 
#    z 0.000000 0.000000 3.679600 
# 
# 
# High freq. dielectric constant tensor:
#      x y z
#    x 1.816590 0.000000 0.000000 
#    y 0.000000 1.778530 0.000000 
#    z 0.000000 0.000000 1.810890 
# 
# From -- ./inp_files/24046.got.cif
#   From: 2010.03.12/outbox.cif.g09.slc.cpg/sg60_13_cif.got.tgz:24046.got - 2010.04.10 18:46:24.
