data_PCOD8246259
_publ_section_title
;
Structure prediction by ZEFSAII (Michael W. Deem and Ramdas Pophale) SiO2 
 PCOD8246259
Probable space group: P M M N
;
_chemical_formula_sum "Si O2"
_cell_formula_units_Z 48
_cell_length_a 9.000000
_cell_length_b 9.000000
_cell_length_c 30.000000
_cell_angle_alpha 90.000000
_cell_angle_beta 90.000000
_cell_angle_gamma 90.000000
_cell_volume 2430.000000
_symmetry_space_group_name_H-M "P M M N"
_symmetry_group_IT_number 59
_space_group.IT_coordinate_system_code '2'
_symmetry_cell_setting 'orthorhombic'
loop_
_space_group_symop_operation_xyz
x,y,z
1/2-x,1/2-y,z
1/2+x,-y,-z
-x,1/2+y,-z
-x,-y,-z
1/2+x,1/2+y,-z
1/2-x,y,z
x,1/2-y,z
loop_
_atom_site_type_symbol
_atom_site_label
_atom_site_fract_x
_atom_site_fract_y
_atom_site_fract_z
Si Si1 0.081306 0.080353 0.791445
Si Si2 0.918655 0.077413 0.116832
Si Si3 0.073049 0.916907 0.371492
Si Si4 0.576031 0.082341 0.959896
Si Si5 0.574199 0.915987 0.714547
Si Si6 0.425725 0.080290 0.459251
O O1 0.250000 0.065749 0.774290
O O2 0.042571 0.250000 0.803557
O O3 0.054357 0.978068 0.833729
O O4 0.970431 0.022973 0.754347
O O5 0.750000 0.044656 0.101134
O O6 0.955020 0.250000 0.114755
O O7 0.034693 0.993484 0.086204
O O8 0.250000 0.913149 0.370362
O O9 0.008561 0.750000 0.369579
O O10 0.009817 0.011378 0.330325
O O11 0.014924 0.997423 0.415558
O O12 0.750000 0.074941 0.967161
O O13 0.517430 0.250000 0.959112
O O14 0.500000 0.000000 0.000000
O O15 0.750000 0.907601 0.712463
O O16 0.507587 0.750000 0.720226
O O17 0.250000 0.067989 0.463650
O O18 0.478423 0.250000 0.457200
O O19 0.500000 0.000000 0.500000
#
# Coordination Sequence:
#
# PCOD8246259 Si02
#       6
#     8   8   8   8   8   8
#     4  10  21  37  57  81 110 145 182 221 269 321
#     4  10  21  38  60  84 110 143 183 224 268 320
#     4   9  17  31  52  76 103 137 175 216 264 317
#     4  11  24  40  59  85 115 147 184 225 270 320
#     4  10  20  34  54  80 108 139 177 220 265 315
#     4  10  20  34  53  77 105 137 174 217 265 318
#
# _framework density 19.753086
#
# number of rings (size 3 to 8) (size 9 to 14) (size 15 to 20)
#    0.000    2.000    0.000    3.500    0.000   10.000 
#    0.000    0.833    0.000    5.000    0.000    0.000 
#    0.000    0.000    0.000    0.000    0.000    0.000 
#
# Total GULP energy -595313.694971 kJ/mol
# GULP energy per Si atom -12402.368645 kJ/mol
# Density = 1.970813 g / cm^3
# Si number density = 19.753086 Si / 1000 Ang^3
#
#
#
# Elastic Constant Matrix: (Units=GPa)
#
#
# Indices 1 2 3 4 5 6 
#
# 1 21.3739 39.8116 34.5826 0.0000 0.0000 0.0000
# 2 39.8116 117.7143 66.9837 0.0000 0.0000 0.0000
# 3 34.5826 66.9837 100.1446 0.0000 0.0000 0.0000
# 4 0.0000 0.0000 0.0000 42.2414 0.0000 0.0000
# 5 0.0000 0.0000 0.0000 0.0000 28.3180 0.0000
# 6 0.0000 0.0000 0.0000 0.0000 0.0000 25.8487
#
#
#
# Elastic Compliance Matrix: (Units=1/GPa)
#
#
# Indices 1 2 3 4 5 6 
#
# 1 0.178078 -0.040740 -0.034245 0.000000 0.000000 0.000000
# 2 -0.040740 0.023036 -0.001339 0.000000 0.000000 0.000000
# 3 -0.034245 -0.001339 0.022707 0.000000 0.000000 0.000000
# 4 0.000000 0.000000 0.000000 0.023673 0.000000 0.000000
# 5 0.000000 0.000000 0.000000 0.000000 0.035313 0.000000
# 6 0.000000 0.000000 0.000000 0.000000 0.000000 0.038687
#
#
# Mechanical properties :
#
#
# Convention : Reuss Voigt Hill
#
# Bulk Modulus (GPa) = 14.05055 57.99875 36.02465
# Shear Modulus (GPa) = 10.04282 25.80526 17.92404
#
# Velocity S-wave (km/s) = 2.25726 3.61832 3.01558
# Velocity P-wave (km/s) = 3.73124 6.84704 5.51381
#
# Compressibility (1/GPa) = 0.07117161
#
# Stress axis : x y z
#
# Youngs Moduli (GPa) = 5.61551 43.41065 44.03896
#
# Poissons Ratio (x) = 1.76856 1.50813
# Poissons Ratio (y) = 0.22878 0.05898
# Poissons Ratio (z) = 0.19230 0.05814
#
# Static dielectric constant tensor:
#      x y z
#    x 3.265060 0.000000 0.000000 
#    y 0.000000 4.095260 0.000000 
#    z 0.000000 0.000000 2.039060 
# 
# 
# High freq. dielectric constant tensor:
#      x y z
#    x 1.736090 0.000000 0.000000 
#    y 0.000000 1.790210 0.000000 
#    z 0.000000 0.000000 1.772720 
# 
# From -- ./inp_files/32818.got.cif
#   From: 2010.03.12/outbox.ucp.g09.slc.cvg/sg59_17_cif.got.tgz:32818.got - 2010.05.04 19:30:51.
