data_PCOD8246340
_publ_section_title
;
Structure prediction by ZEFSAII (Michael W. Deem and Ramdas Pophale) SiO2 
 PCOD8246340
Probable space group: P B C N
;
_chemical_formula_sum "Si O2"
_cell_formula_units_Z 56
_cell_length_a 12.374212
_cell_length_b 13.098898
_cell_length_c 18.129197
_cell_angle_alpha 90.000000
_cell_angle_beta 90.000000
_cell_angle_gamma 90.000000
_cell_volume 2938.535088
_symmetry_space_group_name_H-M "P B C N"
_symmetry_group_IT_number 60
_symmetry_cell_setting 'orthorhombic'
loop_
_space_group_symop_operation_xyz
x,y,z
1/2-x,1/2-y,1/2+z
1/2+x,1/2-y,-z
-x,y,1/2-z
-x,-y,-z
1/2+x,1/2+y,1/2-z
1/2-x,1/2+y,z
x,-y,1/2+z
loop_
_atom_site_type_symbol
_atom_site_label
_atom_site_fract_x
_atom_site_fract_y
_atom_site_fract_z
Si Si1 0.009096 0.879203 0.003837
Si Si2 0.846638 0.838023 0.622502
Si Si3 0.719688 0.972610 0.140790
Si Si4 0.855908 0.249107 0.892414
Si Si5 0.771057 0.187604 0.526181
Si Si6 0.053244 0.356889 0.824637
Si Si7 0.735940 0.714622 0.733436
O O1 0.099950 0.851570 0.065292
O O2 0.898360 0.827433 0.026908
O O3 0.041542 0.831068 0.923427
O O4 0.000000 0.000000 0.000000
O O5 0.751498 0.792329 0.570057
O O6 0.840567 0.779556 0.702207
O O7 0.825702 0.957406 0.634661
O O8 0.708217 0.902912 0.068565
O O9 0.741538 0.902910 0.212927
O O10 0.614405 0.043556 0.145103
O O11 0.785602 0.220071 0.820481
O O12 0.957842 0.322349 0.878644
O O13 0.773162 0.311118 0.943412
O O14 0.131376 0.260220 0.808733
O O15 0.000000 0.396014 0.750000
#
# Coordination Sequence:
#
# PCOD8246340 Si02
#       7
#     8   8   8   8   8   8   8
#     4  11  20  36  59  87 117 152 198 243 290 353
#     4   9  19  35  58  83 115 151 188 247 286 341
#     4  10  17  34  59  83 109 152 192 240 286 350
#     4  10  21  39  58  83 118 158 190 245 295 359
#     4  10  21  36  57  86 119 149 194 240 299 347
#     4   9  19  36  57  83 115 152 196 238 287 359
#     4   9  19  37  59  80 115 151 197 237 290 350
#
# _framework density 19.057115
#
# number of rings (size 3 to 8) (size 9 to 14) (size 15 to 20)
#    0.000    2.286    1.429    2.571    0.000    0.571 
#    7.714    6.429    0.000    0.000    0.000    0.000 
#    0.000    0.000    0.000    0.000    0.000    0.000 
#
# Total GULP energy -693902.310506 kJ/mol
# GULP energy per Si atom -12391.112688 kJ/mol
# Density = 1.901374 g / cm^3
# Si number density = 19.057115 Si / 1000 Ang^3
#
#
#
# Elastic Constant Matrix: (Units=GPa)
#
#
# Indices 1 2 3 4 5 6 
#
# 1 55.2759 25.9814 31.5787 0.0000 0.0000 0.0000
# 2 25.9814 111.7449 47.9913 0.0000 0.0000 0.0000
# 3 31.5787 47.9913 121.4893 0.0000 0.0000 0.0000
# 4 0.0000 0.0000 0.0000 18.3529 0.0000 0.0000
# 5 0.0000 0.0000 0.0000 0.0000 36.1403 0.0000
# 6 0.0000 0.0000 0.0000 0.0000 0.0000 21.3103
#
#
#
# Elastic Compliance Matrix: (Units=1/GPa)
#
#
# Indices 1 2 3 4 5 6 
#
# 1 0.022172 -0.003228 -0.004488 0.000000 0.000000 0.000000
# 2 -0.003228 0.011247 -0.003604 0.000000 0.000000 0.000000
# 3 -0.004488 -0.003604 0.010821 0.000000 0.000000 0.000000
# 4 0.000000 0.000000 0.000000 0.054487 0.000000 0.000000
# 5 0.000000 0.000000 0.000000 0.000000 0.027670 0.000000
# 6 0.000000 0.000000 0.000000 0.000000 0.000000 0.046926
#
#
# Mechanical properties :
#
#
# Convention : Reuss Voigt Hill
#
# Bulk Modulus (GPa) = 46.29362 55.51256 50.90309
# Shear Modulus (GPa) = 24.61065 27.35793 25.98429
#
# Velocity S-wave (km/s) = 3.59753 3.79301 3.69656
# Velocity P-wave (km/s) = 6.44989 6.95524 6.70732
#
# Compressibility (1/GPa) = 0.02160125
#
# Stress axis : x y z
#
# Youngs Moduli (GPa) = 45.10145 88.91100 92.40886
#
# Poissons Ratio (x) = 0.28697 0.41475
# Poissons Ratio (y) = 0.14557 0.33304
# Poissons Ratio (z) = 0.20243 0.32043
#
# Static dielectric constant tensor:
#      x y z
#    x 3.552470 0.000000 0.000000 
#    y 0.000000 3.460970 0.000000 
#    z 0.000000 0.000000 3.703910 
# 
# 
# High freq. dielectric constant tensor:
#      x y z
#    x 1.725980 0.000000 0.000000 
#    y 0.000000 1.738840 0.000000 
#    z 0.000000 0.000000 1.743570 
# 
# From -- ./inp_files/22604.got.cif
#   From: 2010.03.12/outbox.cif.g09.slc.cpg/sg60_12_cif.got.tgz:22604.got - 2010.04.10 18:46:24.
