data_PCOD8246216
_publ_section_title
;
Structure prediction by ZEFSAII (Michael W. Deem and Ramdas Pophale) SiO2 
 PCOD8246216
Probable space group: P M M N
;
_chemical_formula_sum "Si O2"
_cell_formula_units_Z 56
_cell_length_a 9.254945
_cell_length_b 14.111320
_cell_length_c 25.977691
_cell_angle_alpha 90.000000
_cell_angle_beta 90.000000
_cell_angle_gamma 90.000000
_cell_volume 3392.673208
_symmetry_space_group_name_H-M "P M M N"
_symmetry_group_IT_number 59
_space_group.IT_coordinate_system_code '2'
_symmetry_cell_setting 'orthorhombic'
loop_
_space_group_symop_operation_xyz
x,y,z
1/2-x,1/2-y,z
1/2+x,-y,-z
-x,1/2+y,-z
-x,-y,-z
1/2+x,1/2+y,-z
1/2-x,y,z
x,1/2-y,z
loop_
_atom_site_type_symbol
_atom_site_label
_atom_site_fract_x
_atom_site_fract_y
_atom_site_fract_z
Si Si1 0.584975 0.649036 0.422740
Si Si2 0.581452 0.456878 0.376517
Si Si3 0.580355 0.859205 0.026605
Si Si4 0.919523 0.404623 0.486413
Si Si5 0.919081 0.974431 0.925558
Si Si6 0.080995 0.640112 0.724703
Si Si7 0.080452 0.141334 0.173818
O O1 0.750000 0.622708 0.437796
O O2 0.578964 0.750000 0.392458
O O3 0.520238 0.563101 0.388386
O O4 0.494533 0.669404 0.475262
O O5 0.750000 0.464724 0.365776
O O6 0.553763 0.386455 0.425312
O O7 0.512322 0.414802 0.324529
O O8 0.750000 0.864771 0.037218
O O9 0.526752 0.750000 0.030388
O O10 0.500822 0.925140 0.068621
O O11 0.540962 0.900218 0.970505
O O12 0.750000 0.409394 0.498285
O O13 0.000000 0.500000 0.500000
O O14 0.750000 0.996613 0.925478
O O15 0.969936 0.925107 0.872945
O O16 0.250000 0.620266 0.731949
O O17 0.049552 0.750000 0.715172
O O18 0.000217 0.603677 0.775509
O O19 0.250000 0.132991 0.183337
O O20 0.037143 0.250000 0.161383
#
# Coordination Sequence:
#
# PCOD8246216 Si02
#       7
#     8   8   8   8   8   8   8
#     4   9  17  29  44  62  85 113 144 177 214 257
#     4   8  15  28  44  61  83 111 140 173 215 261
#     4   9  17  29  45  67  95 123 151 184 219 255
#     4   9  16  27  43  62  85 112 141 172 210 257
#     4   9  17  29  46  67  91 122 154 181 216 262
#     4   9  17  29  45  64  84 108 142 183 223 260
#     4   9  17  30  47  66  89 116 146 180 220 266
#
# _framework density 16.506157000000002
#
# number of rings (size 3 to 8) (size 9 to 14) (size 15 to 20)
#    0.000    3.143    0.000    1.714    0.000    3.429 
#    0.000    5.000    0.000    5.143    0.000    2.000 
#    0.000    0.000    0.000    0.000    0.000    0.000 
#
# Total GULP energy -693786.627793 kJ/mol
# GULP energy per Si atom -12389.046925 kJ/mol
# Density = 1.646859 g / cm^3
# Si number density = 16.506157 Si / 1000 Ang^3
#
#
#
# Elastic Constant Matrix: (Units=GPa)
#
#
# Indices 1 2 3 4 5 6 
#
# 1 41.8103 30.1791 39.2540 0.0000 0.0000 0.0000
# 2 30.1791 107.7405 64.5960 0.0000 0.0000 0.0000
# 3 39.2540 64.5960 134.2586 0.0000 0.0000 0.0000
# 4 0.0000 0.0000 0.0000 24.1938 0.0000 0.0000
# 5 0.0000 0.0000 0.0000 0.0000 25.2565 0.0000
# 6 0.0000 0.0000 0.0000 0.0000 0.0000 19.6868
#
#
#
# Elastic Compliance Matrix: (Units=1/GPa)
#
#
# Indices 1 2 3 4 5 6 
#
# 1 0.034880 -0.005138 -0.007726 0.000000 0.000000 0.000000
# 2 -0.005138 0.013801 -0.005138 0.000000 0.000000 0.000000
# 3 -0.007726 -0.005138 0.012179 0.000000 0.000000 0.000000
# 4 0.000000 0.000000 0.000000 0.041333 0.000000 0.000000
# 5 0.000000 0.000000 0.000000 0.000000 0.039594 0.000000
# 6 0.000000 0.000000 0.000000 0.000000 0.000000 0.050795
#
#
# Mechanical properties :
#
#
# Convention : Reuss Voigt Hill
#
# Bulk Modulus (GPa) = 40.23112 61.31863 50.77487
# Shear Modulus (GPa) = 21.10845 23.81277 22.46061
#
# Velocity S-wave (km/s) = 3.57994 3.80236 3.69282
# Velocity P-wave (km/s) = 6.44316 7.51710 7.00075
#
# Compressibility (1/GPa) = 0.02485638
#
# Stress axis : x y z
#
# Youngs Moduli (GPa) = 28.66982 72.45725 82.10700
#
# Poissons Ratio (x) = 0.37229 0.63436
# Poissons Ratio (y) = 0.14731 0.42186
# Poissons Ratio (z) = 0.22150 0.37228
#
# Static dielectric constant tensor:
#      x y z
#    x 3.132730 0.000000 0.000000 
#    y 0.000000 3.217630 0.000000 
#    z 0.000000 0.000000 3.243980 
# 
# 
# High freq. dielectric constant tensor:
#      x y z
#    x 1.619900 0.000000 0.000000 
#    y 0.000000 1.631540 0.000000 
#    z 0.000000 0.000000 1.620030 
# 
# From -- ./inp_files/33178.got.cif
#   From: 2010.03.12/outbox.cif.g09.slc.cpg/sg59_17_cif.got.tgz:33178.got - 2010.04.16 16:29:54.
