data_PCOD8246004
_publ_section_title
;
Structure prediction by ZEFSAII (Michael W. Deem and Ramdas Pophale) SiO2 
 PCOD8246004
Probable space group: P M M N
;
_chemical_formula_sum "Si O2"
_cell_formula_units_Z 48
_cell_length_a 8.607066
_cell_length_b 14.471940
_cell_length_c 20.354410
_cell_angle_alpha 90.000000
_cell_angle_beta 90.000000
_cell_angle_gamma 90.000000
_cell_volume 2535.364498
_symmetry_space_group_name_H-M "P M M N"
_symmetry_group_IT_number 59
_space_group.IT_coordinate_system_code '2'
_symmetry_cell_setting 'orthorhombic'
loop_
_space_group_symop_operation_xyz
x,y,z
1/2-x,1/2-y,z
1/2+x,-y,-z
-x,1/2+y,-z
-x,-y,-z
1/2+x,1/2+y,-z
1/2-x,y,z
x,1/2-y,z
loop_
_atom_site_type_symbol
_atom_site_label
_atom_site_fract_x
_atom_site_fract_y
_atom_site_fract_z
Si Si1 0.069166 0.069433 0.821288
Si Si2 0.932659 0.250000 0.480136
Si Si3 0.933980 0.057257 0.683763
Si Si4 0.430967 0.940458 0.941609
Si Si5 0.069256 0.750000 0.120357
Si Si6 0.565581 0.051347 0.436639
Si Si7 0.067642 0.250000 0.023370
Si Si8 0.934355 0.250000 0.626118
O O1 0.250000 0.095420 0.822475
O O2 0.018257 0.029562 0.751074
O O3 0.970517 0.160476 0.836953
O O4 0.030551 0.989488 0.873154
O O5 0.750000 0.250000 0.490523
O O6 0.983331 0.341101 0.440684
O O7 0.007984 0.250000 0.553042
O O8 0.750000 0.053199 0.692784
O O9 0.992602 0.159504 0.664217
O O10 0.985072 0.985445 0.628583
O O11 0.250000 0.930820 0.954654
O O12 0.503629 0.839198 0.939398
O O13 0.500000 0.000000 0.000000
O O14 0.250000 0.750000 0.103014
O O15 0.974462 0.750000 0.053136
O O16 0.750000 0.037579 0.433476
O O17 0.500000 0.000000 0.500000
O O18 0.250000 0.250000 0.029073
O O19 0.750000 0.250000 0.621795
#
# Coordination Sequence:
#
# PCOD8246004 Si02
#       8
#     8   4   8   8   4   8   4   4
#     4  11  24  41  61  89 125 161 203 251 302 364
#     4   9  18  35  58  83 115 152 192 235 290 353
#     4  11  22  38  60  87 121 158 197 243 301 364
#     4  11  23  40  64  90 122 161 205 254 306 363
#     4  12  23  37  62  92 126 163 200 247 308 366
#     4  11  21  37  60  85 115 155 200 247 296 354
#     4  12  24  39  62  93 126 158 204 258 304 361
#     4   9  17  33  56  84 117 153 190 232 288 354
#
# _framework density 18.932189999999999
#
# number of rings (size 3 to 8) (size 9 to 14) (size 15 to 20)
#    0.000    1.167    3.333    4.000    0.000    2.667 
#    0.000    4.583    0.000    2.000    0.000    0.000 
#    0.000    0.000    0.000    0.000    0.000    0.000 
#
# Total GULP energy -595426.919942 kJ/mol
# GULP energy per Si atom -12404.727499 kJ/mol
# Density = 1.888910 g / cm^3
# Si number density = 18.932190 Si / 1000 Ang^3
#
#
#
# Elastic Constant Matrix: (Units=GPa)
#
#
# Indices 1 2 3 4 5 6 
#
# 1 79.8760 49.8027 42.9226 0.0000 0.0000 0.0000
# 2 49.8027 152.4984 69.4937 0.0000 0.0000 0.0000
# 3 42.9226 69.4937 146.6973 0.0000 0.0000 0.0000
# 4 0.0000 0.0000 0.0000 24.0261 0.0000 0.0000
# 5 0.0000 0.0000 0.0000 0.0000 33.9376 0.0000
# 6 0.0000 0.0000 0.0000 0.0000 0.0000 31.0946
#
#
#
# Elastic Compliance Matrix: (Units=1/GPa)
#
#
# Indices 1 2 3 4 5 6 
#
# 1 0.016652 -0.004104 -0.002928 0.000000 0.000000 0.000000
# 2 -0.004104 0.009374 -0.003240 0.000000 0.000000 0.000000
# 3 -0.002928 -0.003240 0.009208 0.000000 0.000000 0.000000
# 4 0.000000 0.000000 0.000000 0.041621 0.000000 0.000000
# 5 0.000000 0.000000 0.000000 0.000000 0.029466 0.000000
# 6 0.000000 0.000000 0.000000 0.000000 0.000000 0.032160
#
#
# Mechanical properties :
#
#
# Convention : Reuss Voigt Hill
#
# Bulk Modulus (GPa) = 68.07177 78.16774 73.11975
# Shear Modulus (GPa) = 30.50240 32.26852 31.38546
#
# Velocity S-wave (km/s) = 4.01825 4.13295 4.07600
# Velocity P-wave (km/s) = 7.58697 8.00955 7.80112
#
# Compressibility (1/GPa) = 0.01469038
#
# Stress axis : x y z
#
# Youngs Moduli (GPa) = 60.05460 106.67701 108.59694
#
# Poissons Ratio (x) = 0.43777 0.31798
# Poissons Ratio (y) = 0.24644 0.35185
# Poissons Ratio (z) = 0.17585 0.34563
#
# Static dielectric constant tensor:
#      x y z
#    x 3.489030 0.000000 0.000000 
#    y 0.000000 3.716920 0.000000 
#    z 0.000000 0.000000 3.475530 
# 
# 
# High freq. dielectric constant tensor:
#      x y z
#    x 1.738540 0.000000 0.000000 
#    y 0.000000 1.740350 0.000000 
#    z 0.000000 0.000000 1.737970 
# 
# From -- ./inp_files/25704.got.cif
#   From: 2010.03.12/outbox.cif.g09.slc.cpg/sg59_13_cif.got.tgz:25704.got - 2010.04.16 16:29:54.
