data_PCOD8246547
_publ_section_title
;
Structure prediction by ZEFSAII (Michael W. Deem and Ramdas Pophale) SiO2 
 PCOD8246547
Probable space group: P B C N
;
_chemical_formula_sum "Si O2"
_cell_formula_units_Z 40
_cell_length_a 18.544753
_cell_length_b 20.286887
_cell_length_c 5.222145
_cell_angle_alpha 90.000000
_cell_angle_beta 90.000000
_cell_angle_gamma 90.000000
_cell_volume 1964.650892
_symmetry_space_group_name_H-M "P B C N"
_symmetry_group_IT_number 60
_symmetry_cell_setting 'orthorhombic'
loop_
_space_group_symop_operation_xyz
x,y,z
1/2-x,1/2-y,1/2+z
1/2+x,1/2-y,-z
-x,y,1/2-z
-x,-y,-z
1/2+x,1/2+y,1/2-z
1/2-x,1/2+y,z
x,-y,1/2+z
loop_
_atom_site_type_symbol
_atom_site_label
_atom_site_fract_x
_atom_site_fract_y
_atom_site_fract_z
Si Si1 0.955201 0.162848 0.494693
Si Si2 0.731554 0.975609 0.755233
Si Si3 0.157274 0.269327 0.123825
Si Si4 0.291239 0.827826 0.627834
Si Si5 0.891323 0.970369 0.143833
O O1 0.915889 0.227869 0.389966
O O2 0.897988 0.106770 0.578915
O O3 0.000000 0.136569 0.250000
O O4 0.000000 0.180657 0.750000
O O5 0.738998 0.901528 0.854864
O O6 0.690775 0.982422 0.480275
O O7 0.808068 0.008153 0.669022
O O8 0.159858 0.315316 0.376177
O O9 0.223612 0.219737 0.126171
O O10 0.159444 0.315375 0.874984
O O11 0.929197 0.986884 0.415265
#
# Coordination Sequence:
#
# PCOD8246547 Si02
#       5
#     8   8   8   8   8
#     4  12  25  39  56  80 117 162 203 235 269 330
#     4  10  19  32  53  80 112 143 175 223 288 342
#     4  10  21  37  55  79 108 144 197 243 284 329
#     4  10  20  35  58  80 107 147 186 240 296 335
#     4  10  21  35  52  75 112 155 195 230 269 319
#
# _framework density 20.359850999999999
#
# number of rings (size 3 to 8) (size 9 to 14) (size 15 to 20)
#    0.000    1.600    0.000    6.000    0.000   12.000 
#    0.000    0.000    0.000    0.000    0.000    0.000 
#    0.000   56.000    0.000    0.000    0.000    0.000 
#
# Total GULP energy -495633.634770 kJ/mol
# GULP energy per Si atom -12390.840869 kJ/mol
# Density = 2.031351 g / cm^3
# Si number density = 20.359851 Si / 1000 Ang^3
#
#
#
# Elastic Constant Matrix: (Units=GPa)
#
#
# Indices 1 2 3 4 5 6 
#
# 1 36.4421 37.7853 20.6025 0.0000 0.0000 0.0000
# 2 37.7853 105.0877 57.9014 0.0000 0.0000 0.0000
# 3 20.6025 57.9014 199.1698 0.0000 0.0000 0.0000
# 4 0.0000 0.0000 0.0000 37.5861 0.0000 0.0000
# 5 0.0000 0.0000 0.0000 0.0000 19.4632 0.0000
# 6 0.0000 0.0000 0.0000 0.0000 0.0000 20.2419
#
#
#
# Elastic Compliance Matrix: (Units=1/GPa)
#
#
# Indices 1 2 3 4 5 6 
#
# 1 0.043753 -0.015763 0.000057 0.000000 0.000000 0.000000
# 2 -0.015763 0.017010 -0.003314 0.000000 0.000000 0.000000
# 3 0.000057 -0.003314 0.005979 0.000000 0.000000 0.000000
# 4 0.000000 0.000000 0.000000 0.026606 0.000000 0.000000
# 5 0.000000 0.000000 0.000000 0.000000 0.051379 0.000000
# 6 0.000000 0.000000 0.000000 0.000000 0.000000 0.049402
#
#
# Mechanical properties :
#
#
# Convention : Reuss Voigt Hill
#
# Bulk Modulus (GPa) = 34.84373 63.69758 49.27066
# Shear Modulus (GPa) = 20.68372 30.41892 25.55132
#
# Velocity S-wave (km/s) = 3.19079 3.86951 3.54642
# Velocity P-wave (km/s) = 5.54310 7.16365 6.40484
#
# Compressibility (1/GPa) = 0.02869957
#
# Stress axis : x y z
#
# Youngs Moduli (GPa) = 22.85573 58.78975 167.26509
#
# Poissons Ratio (x) = 0.92670 -0.00947
# Poissons Ratio (y) = 0.36027 0.55439
# Poissons Ratio (z) = -0.00129 0.19485
#
# Static dielectric constant tensor:
#      x y z
#    x 3.193950 0.000000 0.000000 
#    y 0.000000 3.572580 0.000000 
#    z 0.000000 0.000000 5.499020 
# 
# 
# High freq. dielectric constant tensor:
#      x y z
#    x 1.727940 0.000000 0.000000 
#    y 0.000000 1.784350 0.000000 
#    z 0.000000 0.000000 1.843970 
# 
# From -- ./inp_files/1619.got.cif
#   From: 2010.03.12/outbox.cif.g09.slc.cpg/sg60_1_cif.got.tgz:1619.got - 2010.04.10 18:46:24.
