data_PCOD8246668
_publ_section_title
;
Structure prediction by ZEFSAII (Michael W. Deem and Ramdas Pophale) SiO2 
 PCOD8246668
Probable space group: P B C N
;
_chemical_formula_sum "Si O2"
_cell_formula_units_Z 40
_cell_length_a 18.818833
_cell_length_b 13.522843
_cell_length_c 8.749188
_cell_angle_alpha 90.000000
_cell_angle_beta 90.000000
_cell_angle_gamma 90.000000
_cell_volume 2226.529445
_symmetry_space_group_name_H-M "P B C N"
_symmetry_group_IT_number 60
_symmetry_cell_setting 'orthorhombic'
loop_
_space_group_symop_operation_xyz
x,y,z
1/2-x,1/2-y,1/2+z
1/2+x,1/2-y,-z
-x,y,1/2-z
-x,-y,-z
1/2+x,1/2+y,1/2-z
1/2-x,1/2+y,z
x,-y,1/2+z
loop_
_atom_site_type_symbol
_atom_site_label
_atom_site_fract_x
_atom_site_fract_y
_atom_site_fract_z
Si Si1 0.643296 0.132293 0.402052
Si Si2 0.369195 0.207151 0.429881
Si Si3 0.778120 0.113970 0.570424
Si Si4 0.496074 0.891820 0.430132
Si Si5 0.275387 0.057372 0.602185
O O1 0.624434 0.190683 0.250084
O O2 0.713454 0.173494 0.487529
O O3 0.579498 0.151194 0.519715
O O4 0.657312 0.015596 0.359958
O O5 0.349980 0.323104 0.453558
O O6 0.442986 0.181735 0.510369
O O7 0.304023 0.143732 0.494803
O O8 0.760111 0.102603 0.748527
O O9 0.784423 0.005382 0.492084
O O10 0.500000 0.898926 0.250000
O O11 0.500000 0.000000 0.500000
#
# Coordination Sequence:
#
# PCOD8246668 Si02
#       5
#     8   8   8   8   8
#     4  10  20  36  52  81 118 152 183 233 293 334
#     4  12  21  35  58  86 114 155 198 230 291 353
#     4  10  21  35  57  85 116 153 192 237 287 346
#     4  12  23  35  55  82 120 154 184 234 294 348
#     4  10  19  36  52  81 122 145 191 238 285 330
#
# _framework density 17.965178999999999
#
# number of rings (size 3 to 8) (size 9 to 14) (size 15 to 20)
#    1.200    0.000    4.000    4.200    0.000    0.000 
#    0.000    0.000    0.000    0.000    0.000   19.600 
#    0.000    0.000    0.000    0.000    0.000    0.000 
#
# Total GULP energy -495757.149952 kJ/mol
# GULP energy per Si atom -12393.928749 kJ/mol
# Density = 1.792429 g / cm^3
# Si number density = 17.965179 Si / 1000 Ang^3
#
#
#
# Elastic Constant Matrix: (Units=GPa)
#
#
# Indices 1 2 3 4 5 6 
#
# 1 79.3169 30.4728 32.9657 0.0000 0.0000 0.0000
# 2 30.4728 48.4970 13.2746 0.0000 0.0000 0.0000
# 3 32.9657 13.2746 122.5654 0.0000 0.0000 0.0000
# 4 0.0000 0.0000 0.0000 13.7732 0.0000 0.0000
# 5 0.0000 0.0000 0.0000 0.0000 23.9138 0.0000
# 6 0.0000 0.0000 0.0000 0.0000 0.0000 32.2398
#
#
#
# Elastic Compliance Matrix: (Units=1/GPa)
#
#
# Indices 1 2 3 4 5 6 
#
# 1 0.018158 -0.010381 -0.003760 0.000000 0.000000 0.000000
# 2 -0.010381 0.027184 -0.000152 0.000000 0.000000 0.000000
# 3 -0.003760 -0.000152 0.009187 0.000000 0.000000 0.000000
# 4 0.000000 0.000000 0.000000 0.072605 0.000000 0.000000
# 5 0.000000 0.000000 0.000000 0.000000 0.041817 0.000000
# 6 0.000000 0.000000 0.000000 0.000000 0.000000 0.031018
#
#
# Mechanical properties :
#
#
# Convention : Reuss Voigt Hill
#
# Bulk Modulus (GPa) = 38.54435 44.86727 41.70581
# Shear Modulus (GPa) = 21.07915 25.56311 23.32113
#
# Velocity S-wave (km/s) = 3.42911 3.77626 3.60687
# Velocity P-wave (km/s) = 6.09754 6.63644 6.37269
#
# Compressibility (1/GPa) = 0.02594414
#
# Stress axis : x y z
#
# Youngs Moduli (GPa) = 55.07099 36.78621 108.85411
#
# Poissons Ratio (x) = 0.38186 0.40926
# Poissons Ratio (y) = 0.57167 0.01657
# Poissons Ratio (z) = 0.20705 0.00560
#
# Static dielectric constant tensor:
#      x y z
#    x 3.253120 0.000000 0.000000 
#    y 0.000000 2.299990 0.000000 
#    z 0.000000 0.000000 3.415720 
# 
# 
# High freq. dielectric constant tensor:
#      x y z
#    x 1.669530 0.000000 0.000000 
#    y 0.000000 1.665210 0.000000 
#    z 0.000000 0.000000 1.715240 
# 
# From -- ./inp_files/5671.got.cif
#   From: 2010.03.12/outbox.cif.g09.slc.cpg/sg60_3_cif.got.tgz:5671.got - 2010.04.10 18:46:24.
