data_PCOD8246207
_publ_section_title
;
Structure prediction by ZEFSAII (Michael W. Deem and Ramdas Pophale) SiO2 
 PCOD8246207
Probable space group: P M M N
;
_chemical_formula_sum "Si O2"
_cell_formula_units_Z 64
_cell_length_a 9.239555
_cell_length_b 15.405292
_cell_length_c 24.159760
_cell_angle_alpha 90.000000
_cell_angle_beta 90.000000
_cell_angle_gamma 90.000000
_cell_volume 3438.852951
_symmetry_space_group_name_H-M "P M M N"
_symmetry_group_IT_number 59
_space_group.IT_coordinate_system_code '2'
_symmetry_cell_setting 'orthorhombic'
loop_
_space_group_symop_operation_xyz
x,y,z
1/2-x,1/2-y,z
1/2+x,-y,-z
-x,1/2+y,-z
-x,-y,-z
1/2+x,1/2+y,-z
1/2-x,y,z
x,1/2-y,z
loop_
_atom_site_type_symbol
_atom_site_label
_atom_site_fract_x
_atom_site_fract_y
_atom_site_fract_z
Si Si1 0.420454 0.997542 0.636327
Si Si2 0.584843 0.076290 0.472604
Si Si3 0.579402 0.488490 0.241508
Si Si4 0.586998 0.853020 0.956490
Si Si5 0.920144 0.350060 0.153284
Si Si6 0.580953 0.651014 0.170659
Si Si7 0.583384 0.154378 0.581447
Si Si8 0.587526 0.352767 0.939070
O O1 0.250000 0.011091 0.642667
O O2 0.486928 0.976667 0.696769
O O3 0.483035 0.087581 0.613511
O O4 0.459642 0.918411 0.592927
O O5 0.750000 0.047388 0.472928
O O6 0.558403 0.157305 0.513798
O O7 0.500000 0.000000 0.500000
O O8 0.750000 0.478696 0.243782
O O9 0.520586 0.410864 0.202815
O O10 0.536905 0.584377 0.219274
O O11 0.750000 0.890789 0.955620
O O12 0.591625 0.750000 0.960930
O O13 0.503714 0.881451 0.901247
O O14 0.501028 0.892004 0.009106
O O15 0.750000 0.362974 0.142349
O O16 0.954987 0.250000 0.168250
O O17 0.750000 0.643937 0.156028
O O18 0.541566 0.750000 0.188564
O O19 0.493229 0.620687 0.116976
O O20 0.750000 0.130135 0.593599
O O21 0.545476 0.250000 0.603567
O O22 0.750000 0.391507 0.938710
O O23 0.594142 0.250000 0.944568
#
# Coordination Sequence:
#
# PCOD8246207 Si02
#       8
#     8   8   8   8   8   8   8   8
#     4   9  17  30  48  68  91 122 160 197 230 271
#     4   8  14  26  44  64  87 116 148 182 222 266
#     4   9  18  32  49  70  95 123 159 199 235 275
#     4   9  16  27  46  71  95 119 151 192 237 286
#     4   9  17  31  50  69  91 120 152 190 238 286
#     4   9  17  30  47  65  89 123 157 189 229 277
#     4   9  17  29  45  68  98 127 154 189 235 282
#     4   9  16  27  45  69  95 121 151 190 236 285
#
# _framework density 18.610856999999999
#
# number of rings (size 3 to 8) (size 9 to 14) (size 15 to 20)
#    0.000    3.125    0.000    0.750    0.000    3.750 
#    0.000    4.375    0.000    5.250    0.000    0.000 
#    0.000    3.000    0.000    0.000    0.000    0.000 
#
# Total GULP energy -792838.431437 kJ/mol
# GULP energy per Si atom -12388.100491 kJ/mol
# Density = 1.856850 g / cm^3
# Si number density = 18.610857 Si / 1000 Ang^3
#
#
#
# Elastic Constant Matrix: (Units=GPa)
#
#
# Indices 1 2 3 4 5 6 
#
# 1 53.1633 8.5046 36.9931 0.0000 0.0000 0.0000
# 2 8.5046 37.0242 21.1878 0.0000 0.0000 0.0000
# 3 36.9931 21.1878 142.0342 0.0000 0.0000 0.0000
# 4 0.0000 0.0000 0.0000 19.8206 0.0000 0.0000
# 5 0.0000 0.0000 0.0000 0.0000 21.9230 0.0000
# 6 0.0000 0.0000 0.0000 0.0000 0.0000 10.8869
#
#
#
# Elastic Compliance Matrix: (Units=1/GPa)
#
#
# Indices 1 2 3 4 5 6 
#
# 1 0.023113 -0.002038 -0.005716 0.000000 0.000000 0.000000
# 2 -0.002038 0.029710 -0.003901 0.000000 0.000000 0.000000
# 3 -0.005716 -0.003901 0.009111 0.000000 0.000000 0.000000
# 4 0.000000 0.000000 0.000000 0.050452 0.000000 0.000000
# 5 0.000000 0.000000 0.000000 0.000000 0.045614 0.000000
# 6 0.000000 0.000000 0.000000 0.000000 0.000000 0.091853
#
#
# Mechanical properties :
#
#
# Convention : Reuss Voigt Hill
#
# Bulk Modulus (GPa) = 25.89049 40.62141 33.25595
# Shear Modulus (GPa) = 17.48007 21.56184 19.52096
#
# Velocity S-wave (km/s) = 3.06803 3.40746 3.24219
# Velocity P-wave (km/s) = 5.14705 6.11189 5.65010
#
# Compressibility (1/GPa) = 0.03862422
#
# Stress axis : x y z
#
# Youngs Moduli (GPa) = 43.26499 33.65861 109.75485
#
# Poissons Ratio (x) = 0.06860 0.62734
# Poissons Ratio (y) = 0.08818 0.42817
# Poissons Ratio (z) = 0.24730 0.13131
#
# Static dielectric constant tensor:
#      x y z
#    x 3.367190 0.000000 0.000000 
#    y 0.000000 3.333830 0.000000 
#    z 0.000000 0.000000 3.843560 
# 
# 
# High freq. dielectric constant tensor:
#      x y z
#    x 1.706770 0.000000 0.000000 
#    y 0.000000 1.695190 0.000000 
#    z 0.000000 0.000000 1.726490 
# 
# From -- ./inp_files/29416.got.cif
#   From: 2010.03.12/outbox.cif.g09.slc.cpg/sg59_15_cif.got.tgz:29416.got - 2010.04.16 16:29:54.
