data_PCOD8246764
_publ_section_title
;
Structure prediction by ZEFSAII (Michael W. Deem and Ramdas Pophale) SiO2 
 PCOD8246764
Probable space group: P B C N
;
_chemical_formula_sum "Si O2"
_cell_formula_units_Z 56
_cell_length_a 8.744150
_cell_length_b 15.788608
_cell_length_c 20.005433
_cell_angle_alpha 90.000000
_cell_angle_beta 90.000000
_cell_angle_gamma 90.000000
_cell_volume 2761.909202
_symmetry_space_group_name_H-M "P B C N"
_symmetry_group_IT_number 60
_symmetry_cell_setting 'orthorhombic'
loop_
_space_group_symop_operation_xyz
x,y,z
1/2-x,1/2-y,1/2+z
1/2+x,1/2-y,-z
-x,y,1/2-z
-x,-y,-z
1/2+x,1/2+y,1/2-z
1/2-x,1/2+y,z
x,-y,1/2+z
loop_
_atom_site_type_symbol
_atom_site_label
_atom_site_fract_x
_atom_site_fract_y
_atom_site_fract_z
Si Si1 0.500000 0.583892 0.750000
Si Si2 0.249652 0.029556 0.841486
Si Si3 0.743849 0.650198 0.841601
Si Si4 0.400046 0.092235 0.428557
Si Si5 0.912874 0.749979 0.450197
Si Si6 0.195908 0.514261 0.556189
Si Si7 0.500000 0.888375 0.250000
Si Si8 0.309347 0.364635 0.472961
O O1 0.590911 0.524088 0.698523
O O2 0.610758 0.649033 0.787404
O O3 0.382834 0.053008 0.790068
O O4 0.234834 0.098843 0.900714
O O5 0.281223 0.935577 0.870857
O O6 0.711726 0.724011 0.894757
O O7 0.739359 0.557633 0.877285
O O8 0.905014 0.668015 0.803828
O O9 0.468551 0.184486 0.415761
O O10 0.317036 0.089061 0.500741
O O11 0.528174 0.019412 0.427037
O O12 0.818951 0.706944 0.510712
O O13 0.017349 0.828699 0.474513
O O14 0.303558 0.438174 0.529421
#
# Coordination Sequence:
#
# PCOD8246764 Si02
#       8
#     4   8   8   8   8   8   4   8
#     4  10  22  38  59  85 122 156 206 250 288 360
#     4  10  19  40  61  87 115 160 211 246 296 370
#     4  11  21  39  61  89 118 158 210 245 304 361
#     4   9  18  35  60  90 113 152 193 252 306 358
#     4  11  22  36  59  93 125 156 190 263 320 365
#     4   9  18  35  62  87 114 149 205 247 293 365
#     4  10  22  34  69  81 110 170 210 240 278 384
#     4  10  22  37  60  90 125 154 200 258 317 359
#
# _framework density 20.275828000000001
#
# number of rings (size 3 to 8) (size 9 to 14) (size 15 to 20)
#    0.000    2.000    2.857    1.714    2.000    0.571 
#    2.571    0.714    0.000    4.286    0.000    0.000 
#    0.000    0.000    0.000    0.000    0.000    0.000 
#
# Total GULP energy -694269.021881 kJ/mol
# GULP energy per Si atom -12397.661105 kJ/mol
# Density = 2.022968 g / cm^3
# Si number density = 20.275828 Si / 1000 Ang^3
#
#
#
# Elastic Constant Matrix: (Units=GPa)
#
#
# Indices 1 2 3 4 5 6 
#
# 1 104.5310 30.6106 53.0161 0.0000 0.0000 0.0000
# 2 30.6106 64.9185 40.9620 0.0000 0.0000 0.0000
# 3 53.0161 40.9620 109.4990 0.0000 0.0000 0.0000
# 4 0.0000 0.0000 0.0000 15.4509 0.0000 0.0000
# 5 0.0000 0.0000 0.0000 0.0000 45.5953 0.0000
# 6 0.0000 0.0000 0.0000 0.0000 0.0000 30.4677
#
#
#
# Elastic Compliance Matrix: (Units=1/GPa)
#
#
# Indices 1 2 3 4 5 6 
#
# 1 0.013068 -0.002840 -0.005265 0.000000 0.000000 0.000000
# 2 -0.002840 0.020780 -0.006399 0.000000 0.000000 0.000000
# 3 -0.005265 -0.006399 0.014075 0.000000 0.000000 0.000000
# 4 0.000000 0.000000 0.000000 0.064721 0.000000 0.000000
# 5 0.000000 0.000000 0.000000 0.000000 0.021932 0.000000
# 6 0.000000 0.000000 0.000000 0.000000 0.000000 0.032822
#
#
# Mechanical properties :
#
#
# Convention : Reuss Voigt Hill
#
# Bulk Modulus (GPa) = 52.86251 58.68065 55.77158
# Shear Modulus (GPa) = 24.66556 28.59344 26.62950
#
# Velocity S-wave (km/s) = 3.49162 3.75937 3.62797
# Velocity P-wave (km/s) = 6.51026 6.91721 6.71682
#
# Compressibility (1/GPa) = 0.01891700
#
# Stress axis : x y z
#
# Youngs Moduli (GPa) = 76.51994 48.12221 71.04675
#
# Poissons Ratio (x) = 0.13667 0.37406
# Poissons Ratio (y) = 0.21732 0.45460
# Poissons Ratio (z) = 0.40287 0.30791
#
# Static dielectric constant tensor:
#      x y z
#    x 3.843240 0.000000 0.000000 
#    y 0.000000 3.377920 0.000000 
#    z 0.000000 0.000000 3.837400 
# 
# 
# High freq. dielectric constant tensor:
#      x y z
#    x 1.802730 0.000000 0.000000 
#    y 0.000000 1.757780 0.000000 
#    z 0.000000 0.000000 1.793950 
# 
# From -- ./inp_files/22250.got.cif
#   From: 2010.03.12/outbox.cif.g09.slc.cpg/sg60_12_cif.got.tgz:22250.got - 2010.04.10 18:46:24.
