data_PCOD8246042
_publ_section_title
;
Structure prediction by ZEFSAII (Michael W. Deem and Ramdas Pophale) SiO2 
 PCOD8246042
Probable space group: P M M N
;
_chemical_formula_sum "Si O2"
_cell_formula_units_Z 56
_cell_length_a 19.820683
_cell_length_b 8.957403
_cell_length_c 16.335843
_cell_angle_alpha 90.000000
_cell_angle_beta 90.000000
_cell_angle_gamma 90.000000
_cell_volume 2900.295712
_symmetry_space_group_name_H-M "P M M N"
_symmetry_group_IT_number 59
_space_group.IT_coordinate_system_code '2'
_symmetry_cell_setting 'orthorhombic'
loop_
_space_group_symop_operation_xyz
x,y,z
1/2-x,1/2-y,z
1/2+x,-y,-z
-x,1/2+y,-z
-x,-y,-z
1/2+x,1/2+y,-z
1/2-x,y,z
x,1/2-y,z
loop_
_atom_site_type_symbol
_atom_site_label
_atom_site_fract_x
_atom_site_fract_y
_atom_site_fract_z
Si Si1 0.823891 0.573662 0.183709
Si Si2 0.413222 0.072413 0.671470
Si Si3 0.328055 0.423601 0.000137
Si Si4 0.047691 0.573853 0.067666
Si Si5 0.674545 0.073200 0.651051
Si Si6 0.327180 0.075409 0.519747
Si Si7 0.047983 0.572906 0.251407
O O1 0.750000 0.503090 0.197190
O O2 0.818960 0.750000 0.194359
O O3 0.873556 0.504281 0.250768
O O4 0.849710 0.537693 0.092701
O O5 0.407751 0.250000 0.672104
O O6 0.378964 0.012292 0.588314
O O7 0.490690 0.020022 0.683563
O O8 0.250000 0.463687 0.016119
O O9 0.341434 0.250000 0.019103
O O10 0.374458 0.526637 0.056513
O O11 0.039651 0.750000 0.059100
O O12 0.029557 0.518164 0.159667
O O13 0.000000 0.500000 0.000000
O O14 0.750000 0.020796 0.677106
O O15 0.671081 0.250000 0.643918
O O16 0.620549 0.011857 0.717393
O O17 0.654798 0.008692 0.563169
O O18 0.250000 0.043410 0.547555
O O19 0.338127 0.250000 0.504933
O O20 0.050857 0.750000 0.249100
#
# Coordination Sequence:
#
# PCOD8246042 Si02
#       7
#     8   8   8   8   8   8   8
#     4   8  13  23  43  70  97 126 159 195 238 291
#     4   9  15  25  44  70  98 124 157 200 239 283
#     4   9  18  33  53  77 104 134 172 218 264 310
#     4  11  22  36  55  77 104 137 174 217 263 313
#     4   9  18  34  53  70  93 127 165 202 240 287
#     4   9  17  29  48  75 101 123 151 192 243 293
#     4   9  19  33  50  72  94 125 169 209 244 288
#
# _framework density 19.308374000000001
#
# number of rings (size 3 to 8) (size 9 to 14) (size 15 to 20)
#    0.000    2.857    0.000    2.571    0.000    5.429 
#    0.000    2.857    0.000    6.000    0.000    4.000 
#    0.000    0.000    0.000    0.000    0.000    0.000 
#
# Total GULP energy -694036.460185 kJ/mol
# GULP energy per Si atom -12393.508218 kJ/mol
# Density = 1.926443 g / cm^3
# Si number density = 19.308374 Si / 1000 Ang^3
#
#
#
# Elastic Constant Matrix: (Units=GPa)
#
#
# Indices 1 2 3 4 5 6 
#
# 1 125.7919 22.0101 76.5292 0.0000 0.0000 0.0000
# 2 22.0101 24.4889 21.7490 0.0000 0.0000 0.0000
# 3 76.5292 21.7490 116.8330 0.0000 0.0000 0.0000
# 4 0.0000 0.0000 0.0000 23.6855 0.0000 0.0000
# 5 0.0000 0.0000 0.0000 0.0000 38.8637 0.0000
# 6 0.0000 0.0000 0.0000 0.0000 0.0000 20.7412
#
#
#
# Elastic Compliance Matrix: (Units=1/GPa)
#
#
# Indices 1 2 3 4 5 6 
#
# 1 0.013753 -0.005224 -0.008036 0.000000 0.000000 0.000000
# 2 -0.005224 0.050907 -0.006055 0.000000 0.000000 0.000000
# 3 -0.008036 -0.006055 0.014950 0.000000 0.000000 0.000000
# 4 0.000000 0.000000 0.000000 0.042220 0.000000 0.000000
# 5 0.000000 0.000000 0.000000 0.000000 0.025731 0.000000
# 6 0.000000 0.000000 0.000000 0.000000 0.000000 0.048213
#
#
# Mechanical properties :
#
#
# Convention : Reuss Voigt Hill
#
# Bulk Modulus (GPa) = 24.40161 56.41004 40.40583
# Shear Modulus (GPa) = 20.15615 26.44646 23.30131
#
# Velocity S-wave (km/s) = 3.23446 3.70495 3.47767
# Velocity P-wave (km/s) = 5.15890 6.89789 6.09078
#
# Compressibility (1/GPa) = 0.04098091
#
# Stress axis : x y z
#
# Youngs Moduli (GPa) = 72.71394 19.64356 66.88893
#
# Poissons Ratio (x) = 0.10261 0.53751
# Poissons Ratio (y) = 0.37983 0.40501
# Poissons Ratio (z) = 0.58432 0.11894
#
# Static dielectric constant tensor:
#      x y z
#    x 3.866830 0.000000 0.000000 
#    y 0.000000 3.006320 0.000000 
#    z 0.000000 0.000000 3.666760 
# 
# 
# High freq. dielectric constant tensor:
#      x y z
#    x 1.764840 0.000000 0.000000 
#    y 0.000000 1.694540 0.000000 
#    z 0.000000 0.000000 1.751770 
# 
# From -- ./inp_files/20951.got.cif
#   From: 2010.03.12/outbox.cif.g09.slc.cpg/sg59_11_cif.got.tgz:20951.got - 2010.04.16 16:29:54.
