data_PCOD8246796
_publ_section_title
;
Structure prediction by ZEFSAII (Michael W. Deem and Ramdas Pophale) SiO2 
 PCOD8246796
Probable space group: P B C N
;
_chemical_formula_sum "Si O2"
_cell_formula_units_Z 44
_cell_length_a 10.160159
_cell_length_b 16.724841
_cell_length_c 15.482120
_cell_angle_alpha 90.000000
_cell_angle_beta 90.000000
_cell_angle_gamma 90.000000
_cell_volume 2630.830884
_symmetry_space_group_name_H-M "P B C N"
_symmetry_group_IT_number 60
_symmetry_cell_setting 'orthorhombic'
loop_
_space_group_symop_operation_xyz
x,y,z
1/2-x,1/2-y,1/2+z
1/2+x,1/2-y,-z
-x,y,1/2-z
-x,-y,-z
1/2+x,1/2+y,1/2-z
1/2-x,1/2+y,z
x,-y,1/2+z
loop_
_atom_site_type_symbol
_atom_site_label
_atom_site_fract_x
_atom_site_fract_y
_atom_site_fract_z
Si Si1 0.939978 0.659349 0.924047
Si Si2 0.000000 0.752108 0.250000
Si Si3 0.752946 0.346338 0.275601
Si Si4 0.104470 0.462568 0.326881
Si Si5 0.414301 0.286159 0.824271
Si Si6 0.650648 0.858697 0.617304
O O1 0.809037 0.636866 0.870664
O O2 0.051219 0.592140 0.905757
O O3 0.994690 0.747661 0.899240
O O4 0.897131 0.661907 0.022415
O O5 0.891766 0.811678 0.288754
O O6 0.939357 0.695796 0.177606
O O7 0.760756 0.425823 0.214883
O O8 0.849556 0.285327 0.228609
O O9 0.131278 0.548860 0.364442
O O10 0.000000 0.465636 0.250000
O O11 0.500000 0.333239 0.750000
O O12 0.305390 0.341960 0.868632
#
# Coordination Sequence:
#
# PCOD8246796 Si02
#       6
#     8   4   8   8   8   8
#     4   9  18  31  54  73 101 134 171 209 252 307
#     4  10  20  32  50  80 100 128 174 214 248 312
#     4   8  17  34  52  67 102 139 165 193 267 308
#     4   9  17  34  50  74 102 139 171 204 251 309
#     4   8  17  34  48  71 101 136 163 204 259 309
#     4  11  19  29  54  79 101 128 175 223 245 287
#
# _framework density 16.724754999999998
#
# number of rings (size 3 to 8) (size 9 to 14) (size 15 to 20)
#    0.000    2.909    0.909    2.727    2.545    0.000 
#    1.636    0.000    0.000    1.091    0.000    0.000 
#    0.000    0.000    0.000    0.000    0.000    0.000 
#
# Total GULP energy -545272.664542 kJ/mol
# GULP energy per Si atom -12392.560558 kJ/mol
# Density = 1.668669 g / cm^3
# Si number density = 16.724755 Si / 1000 Ang^3
#
#
#
# Elastic Constant Matrix: (Units=GPa)
#
#
# Indices 1 2 3 4 5 6 
#
# 1 101.0200 47.0205 50.6483 0.0000 0.0000 0.0000
# 2 47.0205 70.6275 39.2799 0.0000 0.0000 0.0000
# 3 50.6483 39.2799 112.5267 0.0000 0.0000 0.0000
# 4 0.0000 0.0000 0.0000 20.2912 0.0000 0.0000
# 5 0.0000 0.0000 0.0000 0.0000 22.6724 0.0000
# 6 0.0000 0.0000 0.0000 0.0000 0.0000 33.8289
#
#
#
# Elastic Compliance Matrix: (Units=1/GPa)
#
#
# Indices 1 2 3 4 5 6 
#
# 1 0.015848 -0.008170 -0.004281 0.000000 0.000000 0.000000
# 2 -0.008170 0.021781 -0.003926 0.000000 0.000000 0.000000
# 3 -0.004281 -0.003926 0.012184 0.000000 0.000000 0.000000
# 4 0.000000 0.000000 0.000000 0.049282 0.000000 0.000000
# 5 0.000000 0.000000 0.000000 0.000000 0.044106 0.000000
# 6 0.000000 0.000000 0.000000 0.000000 0.000000 0.029560
#
#
# Mechanical properties :
#
#
# Convention : Reuss Voigt Hill
#
# Bulk Modulus (GPa) = 58.61895 62.00796 60.31345
# Shear Modulus (GPa) = 23.67371 25.17355 24.42363
#
# Velocity S-wave (km/s) = 3.76638 3.88386 3.82557
# Velocity P-wave (km/s) = 7.35115 7.56760 7.46016
#
# Compressibility (1/GPa) = 0.01705933
#
# Stress axis : x y z
#
# Youngs Moduli (GPa) = 63.09792 45.91074 82.07274
#
# Poissons Ratio (x) = 0.37509 0.35139
# Poissons Ratio (y) = 0.51551 0.32222
# Poissons Ratio (z) = 0.27015 0.18024
#
# Static dielectric constant tensor:
#      x y z
#    x 3.459910 0.000000 0.000000 
#    y 0.000000 3.178420 0.000000 
#    z 0.000000 0.000000 3.063750 
# 
# 
# High freq. dielectric constant tensor:
#      x y z
#    x 1.636470 0.000000 0.000000 
#    y 0.000000 1.629920 0.000000 
#    z 0.000000 0.000000 1.642620 
# 
# From -- ./inp_files/10972.got.cif
#   From: 2010.03.12/outbox.cif.g09.slc.cpg/sg60_6_cif.got.tgz:10972.got - 2010.04.10 18:46:24.
