data_PCOD8246194
_publ_section_title
;
Structure prediction by ZEFSAII (Michael W. Deem and Ramdas Pophale) SiO2 
 PCOD8246194
Probable space group: P M M N
;
_chemical_formula_sum "Si O2"
_cell_formula_units_Z 64
_cell_length_a 19.820614
_cell_length_b 9.735881
_cell_length_c 20.099090
_cell_angle_alpha 90.000000
_cell_angle_beta 90.000000
_cell_angle_gamma 90.000000
_cell_volume 3878.544295
_symmetry_space_group_name_H-M "P M M N"
_symmetry_group_IT_number 59
_space_group.IT_coordinate_system_code '2'
_symmetry_cell_setting 'orthorhombic'
loop_
_space_group_symop_operation_xyz
x,y,z
1/2-x,1/2-y,z
1/2+x,-y,-z
-x,1/2+y,-z
-x,-y,-z
1/2+x,1/2+y,-z
1/2-x,y,z
x,1/2-y,z
loop_
_atom_site_type_symbol
_atom_site_label
_atom_site_fract_x
_atom_site_fract_y
_atom_site_fract_z
Si Si1 0.906285 0.093514 0.972173
Si Si2 0.325082 0.913599 0.152290
Si Si3 0.942530 0.913554 0.236881
Si Si4 0.828711 0.089816 0.598067
Si Si5 0.911152 0.413431 0.725721
Si Si6 0.825299 0.586477 0.330950
Si Si7 0.170126 0.402150 0.521775
Si Si8 0.445621 0.093194 0.913980
O O1 0.892994 0.250000 0.994254
O O2 0.850928 0.039232 0.920016
O O3 0.977053 0.080506 0.934654
O O4 0.900416 0.999618 0.037453
O O5 0.250000 0.971043 0.162558
O O6 0.326939 0.750000 0.155787
O O7 0.371642 0.974766 0.210718
O O8 0.942897 0.750000 0.237967
O O9 0.878681 0.973177 0.277680
O O10 0.937413 0.964175 0.160800
O O11 0.011754 0.967196 0.271033
O O12 0.750000 0.060332 0.613601
O O13 0.840508 0.250000 0.584272
O O14 0.873655 0.035372 0.659295
O O15 0.855630 0.008371 0.533621
O O16 0.908953 0.250000 0.728347
O O17 0.750000 0.528054 0.315581
O O18 0.822801 0.750000 0.327484
O O19 0.850383 0.543333 0.404836
O O20 0.250000 0.391638 0.519424
O O21 0.139380 0.250000 0.508357
O O22 0.420411 0.250000 0.919342
#
# Coordination Sequence:
#
# PCOD8246194 Si02
#       8
#     8   8   8   8   8   8   8   8
#     4   9  16  27  43  63  84 108 141 174 204 245
#     4   9  15  24  40  61  85 112 142 176 209 243
#     4   9  15  25  42  62  84 108 137 177 216 249
#     4   9  16  25  40  63  87 110 138 173 210 246
#     4   9  15  24  38  60  86 109 137 174 213 248
#     4   8  14  25  42  62  80 104 142 180 211 248
#     4   8  14  26  43  60  80 109 143 174 206 250
#     4   9  16  27  44  64  84 108 138 172 210 250
#
# _framework density 16.501035000000002
#
# number of rings (size 3 to 8) (size 9 to 14) (size 15 to 20)
#    0.000    3.250    1.250    1.125    0.000    1.500 
#    0.000    1.250    0.000    3.375    0.000    0.000 
#    0.000    0.000    0.000    0.000    0.000    0.000 
#
# Total GULP energy -793226.250304 kJ/mol
# GULP energy per Si atom -12394.160161 kJ/mol
# Density = 1.646348 g / cm^3
# Si number density = 16.501035 Si / 1000 Ang^3
#
#
#
# Elastic Constant Matrix: (Units=GPa)
#
#
# Indices 1 2 3 4 5 6 
#
# 1 89.6127 17.4339 66.7650 0.0000 0.0000 0.0000
# 2 17.4339 30.7284 39.4929 0.0000 0.0000 0.0000
# 3 66.7650 39.4929 156.0260 0.0000 0.0000 0.0000
# 4 0.0000 0.0000 0.0000 24.0771 0.0000 0.0000
# 5 0.0000 0.0000 0.0000 0.0000 26.3500 0.0000
# 6 0.0000 0.0000 0.0000 0.0000 0.0000 8.5481
#
#
#
# Elastic Compliance Matrix: (Units=1/GPa)
#
#
# Indices 1 2 3 4 5 6 
#
# 1 0.016386 -0.000422 -0.006905 0.000000 0.000000 0.000000
# 2 -0.000422 0.048246 -0.012031 0.000000 0.000000 0.000000
# 3 -0.006905 -0.012031 0.012409 0.000000 0.000000 0.000000
# 4 0.000000 0.000000 0.000000 0.041533 0.000000 0.000000
# 5 0.000000 0.000000 0.000000 0.000000 0.037951 0.000000
# 6 0.000000 0.000000 0.000000 0.000000 0.000000 0.116985
#
#
# Mechanical properties :
#
#
# Convention : Reuss Voigt Hill
#
# Bulk Modulus (GPa) = 26.09336 58.19453 42.14395
# Shear Modulus (GPa) = 15.38464 21.97338 18.67901
#
# Velocity S-wave (km/s) = 3.05674 3.65312 3.36816
# Velocity P-wave (km/s) = 5.32031 7.28954 6.38135
#
# Compressibility (1/GPa) = 0.03832392
#
# Stress axis : x y z
#
# Youngs Moduli (GPa) = 61.02952 20.72731 80.58662
#
# Poissons Ratio (x) = 0.00876 0.55642
# Poissons Ratio (y) = 0.02578 0.96954
# Poissons Ratio (z) = 0.42138 0.24937
#
# Static dielectric constant tensor:
#      x y z
#    x 3.141720 0.000000 0.000000 
#    y 0.000000 2.735690 0.000000 
#    z 0.000000 0.000000 3.364910 
# 
# 
# High freq. dielectric constant tensor:
#      x y z
#    x 1.618400 0.000000 0.000000 
#    y 0.000000 1.576440 0.000000 
#    z 0.000000 0.000000 1.646400 
# 
# From -- ./inp_files/28343.got.cif
#   From: 2010.03.12/outbox.cif.g09.slc.cpg/sg59_15_cif.got.tgz:28343.got - 2010.04.16 16:29:54.
