data_PCOD8246422
_publ_section_title
;
Structure prediction by ZEFSAII (Michael W. Deem and Ramdas Pophale) SiO2 
 PCOD8246422
Probable space group: P B C N
;
_chemical_formula_sum "Si O2"
_cell_formula_units_Z 64
_cell_length_a 11.893317
_cell_length_b 13.163193
_cell_length_c 22.436306
_cell_angle_alpha 90.000000
_cell_angle_beta 90.000000
_cell_angle_gamma 90.000000
_cell_volume 3512.494057
_symmetry_space_group_name_H-M "P B C N"
_symmetry_group_IT_number 60
_symmetry_cell_setting 'orthorhombic'
loop_
_space_group_symop_operation_xyz
x,y,z
1/2-x,1/2-y,1/2+z
1/2+x,1/2-y,-z
-x,y,1/2-z
-x,-y,-z
1/2+x,1/2+y,1/2-z
1/2-x,1/2+y,z
x,-y,1/2+z
loop_
_atom_site_type_symbol
_atom_site_label
_atom_site_fract_x
_atom_site_fract_y
_atom_site_fract_z
Si Si1 0.922944 0.281063 0.453877
Si Si2 0.605241 0.007546 0.668012
Si Si3 0.142526 0.543836 0.202765
Si Si4 0.128972 0.676098 0.413333
Si Si5 0.251462 0.085122 0.608591
Si Si6 0.168804 0.678870 0.914708
Si Si7 0.742571 0.604576 0.465752
Si Si8 0.892710 0.722656 0.375597
O O1 0.896000 0.333192 0.516833
O O2 0.865525 0.352736 0.404334
O O3 0.870630 0.168221 0.452417
O O4 0.054715 0.272322 0.440844
O O5 0.473804 0.007553 0.682613
O O6 0.669766 0.970945 0.727630
O O7 0.636334 0.936320 0.612808
O O8 0.644220 0.118751 0.646565
O O9 0.238966 0.485215 0.166760
O O10 0.140016 0.664155 0.186027
O O11 0.246050 0.731051 0.398983
O O12 0.026703 0.734697 0.380901
O O13 0.152152 0.163475 0.621672
O O14 0.221026 0.012158 0.552768
O O15 0.226086 0.607118 0.964597
O O16 0.846739 0.653109 0.429526
#
# Coordination Sequence:
#
# PCOD8246422 Si02
#       8
#     8   8   8   8   8   8   8   8
#     4  10  19  33  53  79 110 137 177 213 267 322
#     4  10  20  35  53  77 104 136 181 223 262 313
#     4   9  19  34  55  78 100 132 185 228 254 310
#     4  10  21  35  51  78 111 141 171 215 270 322
#     4  10  18  33  57  78 102 139 176 221 263 312
#     4  11  20  34  54  79 110 145 170 218 271 319
#     4   9  19  32  52  82 107 137 178 217 260 319
#     4   9  18  34  54  77 105 139 176 219 265 314
#
# _framework density 18.220670999999999
#
# number of rings (size 3 to 8) (size 9 to 14) (size 15 to 20)
#    0.000    2.250    2.500    0.750    0.000    2.000 
#    2.250    1.250    0.000    0.000    0.000    0.000 
#    0.000    0.000    0.000    0.000    0.000    0.000 
#
# Total GULP energy -793503.784289 kJ/mol
# GULP energy per Si atom -12398.496630 kJ/mol
# Density = 1.817920 g / cm^3
# Si number density = 18.220671 Si / 1000 Ang^3
#
#
#
# Elastic Constant Matrix: (Units=GPa)
#
#
# Indices 1 2 3 4 5 6 
#
# 1 92.6636 41.3880 17.2947 0.0000 0.0000 0.0000
# 2 41.3880 72.7993 17.3297 0.0000 0.0000 0.0000
# 3 17.2947 17.3297 62.9830 0.0000 0.0000 0.0000
# 4 0.0000 0.0000 0.0000 23.1759 0.0000 0.0000
# 5 0.0000 0.0000 0.0000 0.0000 18.5407 0.0000
# 6 0.0000 0.0000 0.0000 0.0000 0.0000 21.7091
#
#
#
# Elastic Compliance Matrix: (Units=1/GPa)
#
#
# Indices 1 2 3 4 5 6 
#
# 1 0.014664 -0.007896 -0.001854 0.000000 0.000000 0.000000
# 2 -0.007896 0.018950 -0.003046 0.000000 0.000000 0.000000
# 3 -0.001854 -0.003046 0.017225 0.000000 0.000000 0.000000
# 4 0.000000 0.000000 0.000000 0.043148 0.000000 0.000000
# 5 0.000000 0.000000 0.000000 0.000000 0.053935 0.000000
# 6 0.000000 0.000000 0.000000 0.000000 0.000000 0.046064
#
#
# Mechanical properties :
#
#
# Convention : Reuss Voigt Hill
#
# Bulk Modulus (GPa) = 39.60808 42.27452 40.94130
# Shear Modulus (GPa) = 21.93039 22.84738 22.38888
#
# Velocity S-wave (km/s) = 3.47306 3.54492 3.50917
# Velocity P-wave (km/s) = 6.15370 6.32512 6.24000
#
# Compressibility (1/GPa) = 0.02524737
#
# Stress axis : x y z
#
# Youngs Moduli (GPa) = 68.19258 52.76950 58.05654
#
# Poissons Ratio (x) = 0.41665 0.10765
# Poissons Ratio (y) = 0.53842 0.17685
# Poissons Ratio (z) = 0.12645 0.16074
#
# Static dielectric constant tensor:
#      x y z
#    x 3.228090 0.000000 0.000000 
#    y 0.000000 3.207190 0.000000 
#    z 0.000000 0.000000 3.400570 
# 
# 
# High freq. dielectric constant tensor:
#      x y z
#    x 1.691110 0.000000 0.000000 
#    y 0.000000 1.697090 0.000000 
#    z 0.000000 0.000000 1.699100 
# 
# From -- ./inp_files/24329.got.cif
#   From: 2010.03.12/outbox.cif.g09.slc.cpg/sg60_13_cif.got.tgz:24329.got - 2010.04.10 18:46:24.
