data_PCOD8246737
_publ_section_title
;
Structure prediction by ZEFSAII (Michael W. Deem and Ramdas Pophale) SiO2 
 PCOD8246737
Probable space group: P B C N
;
_chemical_formula_sum "Si O2"
_cell_formula_units_Z 56
_cell_length_a 9.382408
_cell_length_b 15.002413
_cell_length_c 20.167906
_cell_angle_alpha 90.000000
_cell_angle_beta 90.000000
_cell_angle_gamma 90.000000
_cell_volume 2838.809435
_symmetry_space_group_name_H-M "P B C N"
_symmetry_group_IT_number 60
_symmetry_cell_setting 'orthorhombic'
loop_
_space_group_symop_operation_xyz
x,y,z
1/2-x,1/2-y,1/2+z
1/2+x,1/2-y,-z
-x,y,1/2-z
-x,-y,-z
1/2+x,1/2+y,1/2-z
1/2-x,1/2+y,z
x,-y,1/2+z
loop_
_atom_site_type_symbol
_atom_site_label
_atom_site_fract_x
_atom_site_fract_y
_atom_site_fract_z
Si Si1 0.335246 0.489008 0.508737
Si Si2 0.417800 0.317952 0.815318
Si Si3 0.824539 0.994923 0.141180
Si Si4 0.094211 0.191625 0.056578
Si Si5 0.926115 0.868927 0.315685
Si Si6 0.838004 0.368957 0.231159
Si Si7 0.156505 0.177136 0.548669
O O1 0.500000 0.500000 0.500000
O O2 0.275337 0.481714 0.434490
O O3 0.313682 0.399863 0.551920
O O4 0.280527 0.576045 0.547627
O O5 0.500000 0.349822 0.750000
O O6 0.322201 0.399957 0.841522
O O7 0.537381 0.292083 0.869521
O O8 0.319703 0.231393 0.798989
O O9 0.699533 0.942803 0.177377
O O10 0.981062 0.955266 0.161050
O O11 0.204620 0.265945 0.034868
O O12 0.960015 0.194416 0.007454
O O13 0.763184 0.888584 0.294528
O O14 0.916304 0.803512 0.379345
O O15 0.000000 0.825202 0.250000
O O16 0.000000 0.383927 0.250000
#
# Coordination Sequence:
#
# PCOD8246737 Si02
#       7
#     8   8   8   8   8   8   8
#     4  10  19  38  61  91 119 155 211 246 282 376
#     4  11  21  38  61  90 118 159 206 244 298 364
#     4  11  20  39  68  86 117 168 208 241 299 371
#     4  11  23  38  65  89 121 164 200 251 307 361
#     4  10  20  38  63  87 115 162 205 241 293 366
#     4  10  23  38  60  91 126 154 197 261 314 347
#     4  11  21  39  63  91 124 156 206 252 301 360
#
# _framework density 19.726580999999999
#
# number of rings (size 3 to 8) (size 9 to 14) (size 15 to 20)
#    0.000    1.429    5.714    3.000    2.000    0.000 
#    0.000    2.857    6.286    0.000    0.000    0.000 
#    0.000    0.000    0.000    0.000    0.000    0.000 
#
# Total GULP energy -693896.041880 kJ/mol
# GULP energy per Si atom -12391.000748 kJ/mol
# Density = 1.968168 g / cm^3
# Si number density = 19.726581 Si / 1000 Ang^3
#
#
#
# Elastic Constant Matrix: (Units=GPa)
#
#
# Indices 1 2 3 4 5 6 
#
# 1 90.5880 41.7887 29.0457 0.0000 0.0000 0.0000
# 2 41.7887 117.9947 12.3446 0.0000 0.0000 0.0000
# 3 29.0457 12.3446 117.8803 0.0000 0.0000 0.0000
# 4 0.0000 0.0000 0.0000 16.3300 0.0000 0.0000
# 5 0.0000 0.0000 0.0000 0.0000 23.6091 0.0000
# 6 0.0000 0.0000 0.0000 0.0000 0.0000 28.1498
#
#
#
# Elastic Compliance Matrix: (Units=1/GPa)
#
#
# Indices 1 2 3 4 5 6 
#
# 1 0.014171 -0.004705 -0.002999 0.000000 0.000000 0.000000
# 2 -0.004705 0.010131 0.000098 0.000000 0.000000 0.000000
# 3 -0.002999 0.000098 0.009212 0.000000 0.000000 0.000000
# 4 0.000000 0.000000 0.000000 0.061237 0.000000 0.000000
# 5 0.000000 0.000000 0.000000 0.000000 0.042357 0.000000
# 6 0.000000 0.000000 0.000000 0.000000 0.000000 0.035524
#
#
# Mechanical properties :
#
#
# Convention : Reuss Voigt Hill
#
# Bulk Modulus (GPa) = 54.63725 54.75790 54.69758
# Shear Modulus (GPa) = 25.78068 29.83672 27.80870
#
# Velocity S-wave (km/s) = 3.61903 3.89332 3.75868
# Velocity P-wave (km/s) = 6.72462 6.93032 6.82825
#
# Compressibility (1/GPa) = 0.01830253
#
# Stress axis : x y z
#
# Youngs Moduli (GPa) = 70.56646 98.70705 108.55598
#
# Poissons Ratio (x) = 0.46442 0.32556
# Poissons Ratio (y) = 0.33202 -0.01068
# Poissons Ratio (z) = 0.21163 -0.00971
#
# Static dielectric constant tensor:
#      x y z
#    x 3.246830 0.000000 0.000000 
#    y 0.000000 2.439530 0.000000 
#    z 0.000000 0.000000 3.718870 
# 
# 
# High freq. dielectric constant tensor:
#      x y z
#    x 1.737470 0.000000 0.000000 
#    y 0.000000 1.760320 0.000000 
#    z 0.000000 0.000000 1.792340 
# 
# From -- ./inp_files/22216.got.cif
#   From: 2010.03.12/outbox.cif.g09.slc.cpg/sg60_12_cif.got.tgz:22216.got - 2010.04.10 18:46:24.
