data_PCOD8246093
_publ_section_title
;
Structure prediction by ZEFSAII (Michael W. Deem and Ramdas Pophale) SiO2 
 PCOD8246093
Probable space group: P M M N
;
_chemical_formula_sum "Si O2"
_cell_formula_units_Z 64
_cell_length_a 8.494704
_cell_length_b 30.848506
_cell_length_c 11.986214
_cell_angle_alpha 90.000000
_cell_angle_beta 90.000000
_cell_angle_gamma 90.000000
_cell_volume 3140.974521
_symmetry_space_group_name_H-M "P M M N"
_symmetry_group_IT_number 59
_space_group.IT_coordinate_system_code '2'
_symmetry_cell_setting 'orthorhombic'
loop_
_space_group_symop_operation_xyz
x,y,z
1/2-x,1/2-y,z
1/2+x,-y,-z
-x,1/2+y,-z
-x,-y,-z
1/2+x,1/2+y,-z
1/2-x,y,z
x,1/2-y,z
loop_
_atom_site_type_symbol
_atom_site_label
_atom_site_fract_x
_atom_site_fract_y
_atom_site_fract_z
Si Si1 0.566661 0.374922 0.862647
Si Si2 0.434517 0.048577 0.008182
Si Si3 0.566165 0.799421 0.991741
Si Si4 0.927666 0.700216 0.736028
Si Si5 0.933801 0.441690 0.241999
Si Si6 0.068675 0.868506 0.586057
Si Si7 0.568484 0.894028 0.363392
Si Si8 0.432759 0.513831 0.382073
O O1 0.750000 0.378336 0.837762
O O2 0.512187 0.420113 0.917154
O O3 0.535212 0.333104 0.938224
O O4 0.473873 0.366915 0.747021
O O5 0.250000 0.047624 0.986075
O O6 0.471210 0.068567 0.129509
O O7 0.500000 0.000000 0.000000
O O8 0.750000 0.809173 0.009046
O O9 0.527508 0.750000 0.028372
O O10 0.518460 0.806176 0.863291
O O11 0.750000 0.682783 0.720350
O O12 0.937045 0.750000 0.701584
O O13 0.045945 0.675205 0.655474
O O14 0.750000 0.437344 0.215246
O O15 0.988926 0.408621 0.337919
O O16 0.974053 0.489876 0.283298
O O17 0.250000 0.874209 0.553357
O O18 0.966350 0.865800 0.473600
O O19 0.750000 0.907951 0.362151
O O20 0.455691 0.935499 0.365263
O O21 0.500000 0.500000 0.500000
O O22 0.250000 0.501750 0.375368
#
# Coordination Sequence:
#
# PCOD8246093 Si02
#       8
#     8   8   8   8   8   8   8   8
#     4  12  25  42  63  90 126 164 207 257 314 375
#     4  12  25  42  62  87 122 162 208 255 308 369
#     4   9  19  39  67  97 127 160 203 252 305 368
#     4   9  19  37  62  91 123 157 193 238 294 357
#     4  11  23  39  60  88 121 155 197 248 302 355
#     4  11  23  38  59  88 121 153 193 244 295 353
#     4  12  25  42  63  85 117 161 207 253 302 360
#     4  12  23  38  59  86 119 158 202 249 299 354
#
# _framework density 20.375841000000001
#
# number of rings (size 3 to 8) (size 9 to 14) (size 15 to 20)
#    0.000    1.000    1.250    7.500    0.000    4.500 
#    0.000    1.875    0.000    3.750    0.000    0.000 
#    0.000    0.000    0.000    0.000    0.000    0.000 
#
# Total GULP energy -794002.963528 kJ/mol
# GULP energy per Si atom -12406.296305 kJ/mol
# Density = 2.032946 g / cm^3
# Si number density = 20.375841 Si / 1000 Ang^3
#
#
#
# Elastic Constant Matrix: (Units=GPa)
#
#
# Indices 1 2 3 4 5 6 
#
# 1 88.9819 27.3197 34.8169 0.0000 0.0000 0.0000
# 2 27.3197 92.6602 39.3091 0.0000 0.0000 0.0000
# 3 34.8169 39.3091 114.6024 0.0000 0.0000 0.0000
# 4 0.0000 0.0000 0.0000 33.3526 0.0000 0.0000
# 5 0.0000 0.0000 0.0000 0.0000 35.6210 0.0000
# 6 0.0000 0.0000 0.0000 0.0000 0.0000 34.4575
#
#
#
# Elastic Compliance Matrix: (Units=1/GPa)
#
#
# Indices 1 2 3 4 5 6 
#
# 1 0.013259 -0.002575 -0.003145 0.000000 0.000000 0.000000
# 2 -0.002575 0.013130 -0.003721 0.000000 0.000000 0.000000
# 3 -0.003145 -0.003721 0.010958 0.000000 0.000000 0.000000
# 4 0.000000 0.000000 0.000000 0.029983 0.000000 0.000000
# 5 0.000000 0.000000 0.000000 0.000000 0.028073 0.000000
# 6 0.000000 0.000000 0.000000 0.000000 0.000000 0.029021
#
#
# Mechanical properties :
#
#
# Convention : Reuss Voigt Hill
#
# Bulk Modulus (GPa) = 54.15874 55.45956 54.80915
# Shear Modulus (GPa) = 33.45326 33.67281 33.56304
#
# Velocity S-wave (km/s) = 4.05632 4.06961 4.06297
# Velocity P-wave (km/s) = 6.96964 7.02564 6.99770
#
# Compressibility (1/GPa) = 0.01846424
#
# Stress axis : x y z
#
# Youngs Moduli (GPa) = 75.41782 76.16100 91.25982
#
# Poissons Ratio (x) = 0.19613 0.28701
# Poissons Ratio (y) = 0.19422 0.33961
# Poissons Ratio (z) = 0.23719 0.28342
#
# Static dielectric constant tensor:
#      x y z
#    x 3.685720 0.000000 0.000000 
#    y 0.000000 3.761290 0.000000 
#    z 0.000000 0.000000 3.941280 
# 
# 
# High freq. dielectric constant tensor:
#      x y z
#    x 1.802470 0.000000 0.000000 
#    y 0.000000 1.787370 0.000000 
#    z 0.000000 0.000000 1.804030 
# 
# From -- ./inp_files/14885.got.cif
#   From: 2010.03.12/outbox.cif.g09.slc.cpg/sg59_8_cif.got.tgz:14885.got - 2010.04.16 16:29:54.
