data_PCOD8246493
_publ_section_title
;
Structure prediction by ZEFSAII (Michael W. Deem and Ramdas Pophale) SiO2 
 PCOD8246493
Probable space group: P B C N
;
_chemical_formula_sum "Si O2"
_cell_formula_units_Z 60
_cell_length_a 20.113369
_cell_length_b 8.553619
_cell_length_c 16.574631
_cell_angle_alpha 90.000000
_cell_angle_beta 90.000000
_cell_angle_gamma 90.000000
_cell_volume 2851.534245
_symmetry_space_group_name_H-M "P B C N"
_symmetry_group_IT_number 60
_symmetry_cell_setting 'orthorhombic'
loop_
_space_group_symop_operation_xyz
x,y,z
1/2-x,1/2-y,1/2+z
1/2+x,1/2-y,-z
-x,y,1/2-z
-x,-y,-z
1/2+x,1/2+y,1/2-z
1/2-x,1/2+y,z
x,-y,1/2+z
loop_
_atom_site_type_symbol
_atom_site_label
_atom_site_fract_x
_atom_site_fract_y
_atom_site_fract_z
Si Si1 0.309365 0.914550 0.450471
Si Si2 0.932014 0.257386 0.822020
Si Si3 0.406009 0.261794 0.845486
Si Si4 0.437992 0.388969 0.348156
Si Si5 0.000000 0.544003 0.750000
Si Si6 0.303449 0.092836 0.131900
Si Si7 0.803484 0.740254 0.124358
Si Si8 0.711717 0.785032 0.272144
O O1 0.373532 0.811001 0.426372
O O2 0.309431 0.976510 0.541908
O O3 0.243892 0.809186 0.444121
O O4 0.305501 0.053581 0.385296
O O5 0.928458 0.139578 0.746986
O O6 0.860770 0.272751 0.864260
O O7 0.991995 0.189061 0.878169
O O8 0.946983 0.434729 0.794667
O O9 0.438148 0.427769 0.867732
O O10 0.464740 0.150493 0.816446
O O11 0.350177 0.287793 0.776299
O O12 0.376895 0.305655 0.393003
O O13 0.233238 0.178959 0.151102
O O14 0.310574 0.954831 0.196941
O O15 0.776175 0.787817 0.212883
#
# Coordination Sequence:
#
# PCOD8246493 Si02
#       8
#     8   8   8   8   4   8   8   8
#     4  11  24  38  63  89 135 161 211 261 336 372
#     4  10  21  37  61  95 122 162 198 277 307 377
#     4  11  21  39  63  97 115 170 212 269 303 389
#     4  10  20  36  64  90 121 155 218 258 312 361
#     4  10  18  38  64  88 126 154 224 260 304 368
#     4  12  23  42  59  97 128 166 201 271 327 378
#     4  11  20  40  61  93 116 173 208 263 303 387
#     4  11  22  36  66  88 121 160 219 258 308 375
#
# _framework density 21.041304
#
# number of rings (size 3 to 8) (size 9 to 14) (size 15 to 20)
#    0.000    1.333    2.667    7.200    0.000    0.000 
#    0.000    3.333    0.000    0.000    0.000    0.000 
#    0.000    0.000    0.000    0.000    0.000    0.000 
#
# Total GULP energy -743843.998036 kJ/mol
# GULP energy per Si atom -12397.399967 kJ/mol
# Density = 2.099341 g / cm^3
# Si number density = 21.041304 Si / 1000 Ang^3
#
#
#
# Elastic Constant Matrix: (Units=GPa)
#
#
# Indices 1 2 3 4 5 6 
#
# 1 48.0539 13.0937 11.2931 0.0000 0.0000 0.0000
# 2 13.0937 112.1681 14.0341 0.0000 0.0000 0.0000
# 3 11.2931 14.0341 83.8353 0.0000 0.0000 0.0000
# 4 0.0000 0.0000 0.0000 24.8915 0.0000 0.0000
# 5 0.0000 0.0000 0.0000 0.0000 13.3993 0.0000
# 6 0.0000 0.0000 0.0000 0.0000 0.0000 36.3234
#
#
#
# Elastic Compliance Matrix: (Units=1/GPa)
#
#
# Indices 1 2 3 4 5 6 
#
# 1 0.022031 -0.002248 -0.002592 0.000000 0.000000 0.000000
# 2 -0.002248 0.009335 -0.001260 0.000000 0.000000 0.000000
# 3 -0.002592 -0.001260 0.012488 0.000000 0.000000 0.000000
# 4 0.000000 0.000000 0.000000 0.040174 0.000000 0.000000
# 5 0.000000 0.000000 0.000000 0.000000 0.074631 0.000000
# 6 0.000000 0.000000 0.000000 0.000000 0.000000 0.027530
#
#
# Mechanical properties :
#
#
# Convention : Reuss Voigt Hill
#
# Bulk Modulus (GPa) = 31.58888 35.65545 33.62217
# Shear Modulus (GPa) = 23.93022 28.63194 26.28108
#
# Velocity S-wave (km/s) = 3.37604 3.69284 3.53799
# Velocity P-wave (km/s) = 5.49930 5.93000 5.71871
#
# Compressibility (1/GPa) = 0.03165671
#
# Stress axis : x y z
#
# Youngs Moduli (GPa) = 45.38979 107.12147 80.07592
#
# Poissons Ratio (x) = 0.24076 0.20752
# Poissons Ratio (y) = 0.10202 0.10089
# Poissons Ratio (z) = 0.11763 0.13497
#
# Static dielectric constant tensor:
#      x y z
#    x 4.136340 0.000000 0.000000 
#    y 0.000000 3.757090 0.000000 
#    z 0.000000 0.000000 3.363770 
# 
# 
# High freq. dielectric constant tensor:
#      x y z
#    x 1.832340 0.000000 0.000000 
#    y 0.000000 1.830340 0.000000 
#    z 0.000000 0.000000 1.783050 
# 
# From -- ./inp_files/17926.got.cif
#   From: 2010.03.12/outbox.cif.g09.slc.cpg/sg60_9_cif.got.tgz:17926.got - 2010.04.10 18:46:24.
