data_PCOD8246423
_publ_section_title
;
Structure prediction by ZEFSAII (Michael W. Deem and Ramdas Pophale) SiO2 
 PCOD8246423
Probable space group: P B C N
;
_chemical_formula_sum "Si O2"
_cell_formula_units_Z 60
_cell_length_a 14.296569
_cell_length_b 8.111164
_cell_length_c 26.963618
_cell_angle_alpha 90.000000
_cell_angle_beta 90.000000
_cell_angle_gamma 90.000000
_cell_volume 3126.750104
_symmetry_space_group_name_H-M "P B C N"
_symmetry_group_IT_number 60
_symmetry_cell_setting 'orthorhombic'
loop_
_space_group_symop_operation_xyz
x,y,z
1/2-x,1/2-y,1/2+z
1/2+x,1/2-y,-z
-x,y,1/2-z
-x,-y,-z
1/2+x,1/2+y,1/2-z
1/2-x,1/2+y,z
x,-y,1/2+z
loop_
_atom_site_type_symbol
_atom_site_label
_atom_site_fract_x
_atom_site_fract_y
_atom_site_fract_z
Si Si1 0.787716 0.462304 0.551824
Si Si2 0.661491 0.775638 0.224657
Si Si3 0.879544 0.154167 0.509797
Si Si4 0.149917 0.246208 0.387156
Si Si5 0.878085 0.877954 0.330143
Si Si6 0.794983 0.428275 0.787423
Si Si7 0.483558 0.472050 0.580898
Si Si8 0.500000 0.466684 0.750000
O O1 0.852983 0.342962 0.519779
O O2 0.711067 0.538185 0.514728
O O3 0.735947 0.370516 0.597161
O O4 0.854810 0.602453 0.574390
O O5 0.641650 0.936020 0.258989
O O6 0.672960 0.820218 0.166977
O O7 0.756217 0.692158 0.244558
O O8 0.578573 0.647247 0.226994
O O9 0.919157 0.140352 0.454415
O O10 0.957863 0.102602 0.549323
O O11 0.051588 0.148726 0.388068
O O12 0.787028 0.988207 0.319202
O O13 0.915146 0.921664 0.384472
O O14 0.960859 0.915199 0.292125
O O15 0.855736 0.682469 0.325496
#
# Coordination Sequence:
#
# PCOD8246423 Si02
#       8
#     8   8   8   8   8   8   8   4
#     4   9  19  35  54  81 110 141 191 223 282 328
#     4  10  18  35  52  79 105 148 177 232 263 323
#     4   9  20  37  55  82 109 146 183 238 273 338
#     4  10  18  33  57  81 109 146 182 232 268 336
#     4  10  20  39  53  81 107 151 178 233 267 340
#     4   9  21  35  55  75 113 142 192 216 273 330
#     4  10  20  36  58  79 114 144 185 229 291 318
#     4  10  20  34  56  74 114 136 182 220 278 312
#
# _framework density 19.189254999999999
#
# number of rings (size 3 to 8) (size 9 to 14) (size 15 to 20)
#    0.000    2.400    1.333    0.800    0.000    2.133 
#    7.200    0.000    0.000    0.000    0.000    0.000 
#    0.000    0.000    0.000    0.000    0.000    0.000 
#
# Total GULP energy -744025.724290 kJ/mol
# GULP energy per Si atom -12400.428738 kJ/mol
# Density = 1.914558 g / cm^3
# Si number density = 19.189255 Si / 1000 Ang^3
#
#
#
# Elastic Constant Matrix: (Units=GPa)
#
#
# Indices 1 2 3 4 5 6 
#
# 1 55.3029 19.4396 22.1588 0.0000 0.0000 0.0000
# 2 19.4396 87.6067 16.1360 0.0000 0.0000 0.0000
# 3 22.1588 16.1360 82.5758 0.0000 0.0000 0.0000
# 4 0.0000 0.0000 0.0000 24.0528 0.0000 0.0000
# 5 0.0000 0.0000 0.0000 0.0000 22.6046 0.0000
# 6 0.0000 0.0000 0.0000 0.0000 0.0000 5.8570
#
#
#
# Elastic Compliance Matrix: (Units=1/GPa)
#
#
# Indices 1 2 3 4 5 6 
#
# 1 0.021435 -0.003835 -0.005003 0.000000 0.000000 0.000000
# 2 -0.003835 0.012527 -0.001419 0.000000 0.000000 0.000000
# 3 -0.005003 -0.001419 0.013730 0.000000 0.000000 0.000000
# 4 0.000000 0.000000 0.000000 0.041575 0.000000 0.000000
# 5 0.000000 0.000000 0.000000 0.000000 0.044239 0.000000
# 6 0.000000 0.000000 0.000000 0.000000 0.000000 0.170735
#
#
# Mechanical properties :
#
#
# Convention : Reuss Voigt Hill
#
# Bulk Modulus (GPa) = 36.79319 37.88380 37.33850
# Shear Modulus (GPa) = 14.97849 21.68629 18.33239
#
# Velocity S-wave (km/s) = 2.79689 3.36538 3.09422
# Velocity P-wave (km/s) = 5.44478 5.90645 5.68031
#
# Compressibility (1/GPa) = 0.02717894
#
# Stress axis : x y z
#
# Youngs Moduli (GPa) = 46.65342 79.82809 72.83466
#
# Poissons Ratio (x) = 0.30613 0.36436
# Poissons Ratio (y) = 0.17891 0.10334
# Poissons Ratio (z) = 0.23338 0.11326
#
# Static dielectric constant tensor:
#      x y z
#    x 3.638170 0.000000 0.000000 
#    y 0.000000 3.593510 0.000000 
#    z 0.000000 0.000000 3.429460 
# 
# 
# High freq. dielectric constant tensor:
#      x y z
#    x 1.739850 0.000000 0.000000 
#    y 0.000000 1.748060 0.000000 
#    z 0.000000 0.000000 1.737690 
# 
# From -- ./inp_files/24401.got.cif
#   From: 2010.03.12/outbox.cif.g09.slc.cpg/sg60_13_cif.got.tgz:24401.got - 2010.04.10 18:46:24.
