data_PCOD8246487
_publ_section_title
;
Structure prediction by ZEFSAII (Michael W. Deem and Ramdas Pophale) SiO2 
 PCOD8246487
Probable space group: P B C N
;
_chemical_formula_sum "Si O2"
_cell_formula_units_Z 60
_cell_length_a 32.005062
_cell_length_b 5.321158
_cell_length_c 17.444390
_cell_angle_alpha 90.000000
_cell_angle_beta 90.000000
_cell_angle_gamma 90.000000
_cell_volume 2970.849250
_symmetry_space_group_name_H-M "P B C N"
_symmetry_group_IT_number 60
_symmetry_cell_setting 'orthorhombic'
loop_
_space_group_symop_operation_xyz
x,y,z
1/2-x,1/2-y,1/2+z
1/2+x,1/2-y,-z
-x,y,1/2-z
-x,-y,-z
1/2+x,1/2+y,1/2-z
1/2-x,1/2+y,z
x,-y,1/2+z
loop_
_atom_site_type_symbol
_atom_site_label
_atom_site_fract_x
_atom_site_fract_y
_atom_site_fract_z
Si Si1 0.000000 0.717337 0.750000
Si Si2 0.774734 0.774810 0.259313
Si Si3 0.152804 0.359736 0.448586
Si Si4 0.504382 0.106944 0.387031
Si Si5 0.849118 0.146539 0.648008
Si Si6 0.060024 0.304270 0.481023
Si Si7 0.274137 0.743932 0.560698
Si Si8 0.941294 0.967486 0.160586
O O1 0.979684 0.596570 0.826598
O O2 0.044990 0.830357 0.776476
O O3 0.755077 0.507187 0.234089
O O4 0.819218 0.823093 0.220592
O O5 0.782997 0.762583 0.349401
O O6 0.163022 0.626507 0.409052
O O7 0.107467 0.395051 0.485990
O O8 0.183000 0.300076 0.518390
O O9 0.156115 0.129818 0.388735
O O10 0.542414 0.241415 0.432867
O O11 0.481040 0.290681 0.329127
O O12 0.468665 0.021352 0.446248
O O13 0.896959 0.165237 0.678467
O O14 0.058597 0.058661 0.428049
O O15 0.256956 0.470292 0.536270
#
# Coordination Sequence:
#
# PCOD8246487 Si02
#       8
#     4   8   8   8   8   8   8   8
#     4  10  22  36  54  88 116 158 206 248 300 360
#     4  10  22  42  63  89 123 164 202 241 307 375
#     4  11  22  40  60  96 120 154 205 255 299 361
#     4  10  18  38  59  77 118 157 199 247 300 354
#     4  11  23  39  66  90 127 157 204 254 306 360
#     4   9  20  35  59  84 109 158 199 244 305 360
#     4  10  22  41  62  86 125 160 195 249 306 364
#     4  10  20  38  57  84 122 157 196 258 304 355
#
# _framework density 20.196242999999999
#
# number of rings (size 3 to 8) (size 9 to 14) (size 15 to 20)
#    0.000    1.867    1.333    2.400    0.000    3.200 
#    4.800    2.667    0.000    0.000    0.000    0.000 
#    0.000    0.000    0.000    0.000    0.000    0.000 
#
# Total GULP energy -743296.270767 kJ/mol
# GULP energy per Si atom -12388.271179 kJ/mol
# Density = 2.015028 g / cm^3
# Si number density = 20.196243 Si / 1000 Ang^3
#
#
#
# Elastic Constant Matrix: (Units=GPa)
#
#
# Indices 1 2 3 4 5 6 
#
# 1 97.9246 28.6668 69.7052 0.0000 0.0000 0.0000
# 2 28.6668 102.3227 29.7633 0.0000 0.0000 0.0000
# 3 69.7052 29.7633 82.1299 0.0000 0.0000 0.0000
# 4 0.0000 0.0000 0.0000 8.8243 0.0000 0.0000
# 5 0.0000 0.0000 0.0000 0.0000 27.6133 0.0000
# 6 0.0000 0.0000 0.0000 0.0000 0.0000 25.9212
#
#
#
# Elastic Compliance Matrix: (Units=1/GPa)
#
#
# Indices 1 2 3 4 5 6 
#
# 1 0.025881 -0.000963 -0.021617 0.000000 0.000000 0.000000
# 2 -0.000963 0.010960 -0.003155 0.000000 0.000000 0.000000
# 3 -0.021617 -0.003155 0.031666 0.000000 0.000000 0.000000
# 4 0.000000 0.000000 0.000000 0.113323 0.000000 0.000000
# 5 0.000000 0.000000 0.000000 0.000000 0.036214 0.000000
# 6 0.000000 0.000000 0.000000 0.000000 0.000000 0.038579
#
#
# Mechanical properties :
#
#
# Convention : Reuss Voigt Hill
#
# Bulk Modulus (GPa) = 58.69151 59.84977 59.27064
# Shear Modulus (GPa) = 15.93511 22.75454 19.34482
#
# Velocity S-wave (km/s) = 2.81199 3.36023 3.09826
# Velocity P-wave (km/s) = 6.29815 6.68979 6.49692
#
# Compressibility (1/GPa) = 0.01703824
#
# Stress axis : x y z
#
# Youngs Moduli (GPa) = 38.63772 91.23742 31.57974
#
# Poissons Ratio (x) = 0.08787 0.68266
# Poissons Ratio (y) = 0.03721 0.09962
# Poissons Ratio (z) = 0.83523 0.28782
#
# Static dielectric constant tensor:
#      x y z
#    x 3.684900 0.000000 0.000000 
#    y 0.000000 3.927310 0.000000 
#    z 0.000000 0.000000 3.585870 
# 
# 
# High freq. dielectric constant tensor:
#      x y z
#    x 1.785670 0.000000 0.000000 
#    y 0.000000 1.797230 0.000000 
#    z 0.000000 0.000000 1.782950 
# 
# From -- ./inp_files/21212.got.cif
#   From: 2010.03.12/outbox.cif.g09.slc.cpg/sg60_11_cif.got.tgz:21212.got - 2010.04.10 18:46:24.
