data_PCOD8246605
_publ_section_title
;
Structure prediction by ZEFSAII (Michael W. Deem and Ramdas Pophale) SiO2 
 PCOD8246605
Probable space group: P B C N
;
_chemical_formula_sum "Si O2"
_cell_formula_units_Z 60
_cell_length_a 14.080909
_cell_length_b 9.678300
_cell_length_c 21.879599
_cell_angle_alpha 90.000000
_cell_angle_beta 90.000000
_cell_angle_gamma 90.000000
_cell_volume 2981.735595
_symmetry_space_group_name_H-M "P B C N"
_symmetry_group_IT_number 60
_symmetry_cell_setting 'orthorhombic'
loop_
_space_group_symop_operation_xyz
x,y,z
1/2-x,1/2-y,1/2+z
1/2+x,1/2-y,-z
-x,y,1/2-z
-x,-y,-z
1/2+x,1/2+y,1/2-z
1/2-x,1/2+y,z
x,-y,1/2+z
loop_
_atom_site_type_symbol
_atom_site_label
_atom_site_fract_x
_atom_site_fract_y
_atom_site_fract_z
Si Si1 0.856956 0.910019 0.985792
Si Si2 0.347957 0.357898 0.815579
Si Si3 0.500000 0.217541 0.750000
Si Si4 0.893995 0.532943 0.831038
Si Si5 0.266987 0.143738 0.563906
Si Si6 0.021921 0.996399 0.402220
Si Si7 0.392673 0.716980 0.659718
Si Si8 0.737859 0.378458 0.234191
O O1 0.808452 0.761123 0.980199
O O2 0.776205 0.027332 0.980484
O O3 0.911909 0.917196 0.049616
O O4 0.931428 0.929041 0.931184
O O5 0.409871 0.317998 0.755980
O O6 0.418577 0.376740 0.872897
O O7 0.271540 0.234148 0.816460
O O8 0.298458 0.503189 0.809481
O O9 0.485989 0.122984 0.689057
O O10 0.851849 0.581347 0.895536
O O11 0.927280 0.374837 0.836567
O O12 0.818168 0.555027 0.776928
O O13 0.185910 0.207821 0.606770
O O14 0.982743 0.882570 0.353844
O O15 0.347408 0.679632 0.724801
#
# Coordination Sequence:
#
# PCOD8246605 Si02
#       8
#     8   8   4   8   8   8   8   8
#     4  10  21  40  61  88 108 159 197 258 283 360
#     4  11  21  39  54  86 113 161 180 246 284 365
#     4  10  22  32  58  84 126 144 192 238 310 338
#     4  10  19  34  56  91 113 148 194 245 283 361
#     4  10  19  35  65  83 112 146 207 242 293 341
#     4  10  23  37  60  83 126 147 202 240 317 329
#     4  10  19  36  59  90 112 155 189 247 282 366
#     4  10  21  34  60  84 119 147 204 223 292 353
#
# _framework density 20.122509000000001
#
# number of rings (size 3 to 8) (size 9 to 14) (size 15 to 20)
#    0.000    1.867    2.667    1.600    0.000    2.133 
#    0.000    0.667    2.933    0.000    0.000    0.000 
#    0.000    0.000    0.000    0.000    0.000    0.000 
#
# Total GULP energy -743783.984112 kJ/mol
# GULP energy per Si atom -12396.399735 kJ/mol
# Density = 2.007671 g / cm^3
# Si number density = 20.122509 Si / 1000 Ang^3
#
#
#
# Elastic Constant Matrix: (Units=GPa)
#
#
# Indices 1 2 3 4 5 6 
#
# 1 83.3514 59.1048 34.8094 0.0000 0.0000 0.0000
# 2 59.1048 146.3620 38.0578 0.0000 0.0000 0.0000
# 3 34.8094 38.0578 46.5181 0.0000 0.0000 0.0000
# 4 0.0000 0.0000 0.0000 25.3435 0.0000 0.0000
# 5 0.0000 0.0000 0.0000 0.0000 33.3597 0.0000
# 6 0.0000 0.0000 0.0000 0.0000 0.0000 33.8853
#
#
#
# Elastic Compliance Matrix: (Units=1/GPa)
#
#
# Indices 1 2 3 4 5 6 
#
# 1 0.020340 -0.005406 -0.010798 0.000000 0.000000 0.000000
# 2 -0.005406 0.010116 -0.004230 0.000000 0.000000 0.000000
# 3 -0.010798 -0.004230 0.033038 0.000000 0.000000 0.000000
# 4 0.000000 0.000000 0.000000 0.039458 0.000000 0.000000
# 5 0.000000 0.000000 0.000000 0.000000 0.029976 0.000000
# 6 0.000000 0.000000 0.000000 0.000000 0.000000 0.029511
#
#
# Mechanical properties :
#
#
# Convention : Reuss Voigt Hill
#
# Bulk Modulus (GPa) = 44.19836 60.01951 52.10893
# Shear Modulus (GPa) = 23.71361 28.13498 25.92430
#
# Velocity S-wave (km/s) = 3.43660 3.74329 3.59322
# Velocity P-wave (km/s) = 6.14486 6.96956 6.57016
#
# Compressibility (1/GPa) = 0.02262528
#
# Stress axis : x y z
#
# Youngs Moduli (GPa) = 49.16339 98.85740 30.26837
#
# Poissons Ratio (x) = 0.53445 0.32682
# Poissons Ratio (y) = 0.26579 0.12804
# Poissons Ratio (z) = 0.53085 0.41820
#
# Static dielectric constant tensor:
#      x y z
#    x 3.788950 0.000000 0.000000 
#    y 0.000000 3.708360 0.000000 
#    z 0.000000 0.000000 3.362650 
# 
# 
# High freq. dielectric constant tensor:
#      x y z
#    x 1.785050 0.000000 0.000000 
#    y 0.000000 1.795080 0.000000 
#    z 0.000000 0.000000 1.756950 
# 
# From -- ./inp_files/24425.got.cif
#   From: 2010.03.12/outbox.cif.g09.slc.cpg/sg60_13_cif.got.tgz:24425.got - 2010.04.10 18:46:24.
