data_PCOD8246016
_publ_section_title
;
Structure prediction by ZEFSAII (Michael W. Deem and Ramdas Pophale) SiO2 
 PCOD8246016
Probable space group: P M M N
;
_chemical_formula_sum "Si O2"
_cell_formula_units_Z 48
_cell_length_a 20.375813
_cell_length_b 8.331132
_cell_length_c 14.102689
_cell_angle_alpha 90.000000
_cell_angle_beta 90.000000
_cell_angle_gamma 90.000000
_cell_volume 2393.982054
_symmetry_space_group_name_H-M "P M M N"
_symmetry_group_IT_number 59
_space_group.IT_coordinate_system_code '2'
_symmetry_cell_setting 'orthorhombic'
loop_
_space_group_symop_operation_xyz
x,y,z
1/2-x,1/2-y,z
1/2+x,-y,-z
-x,1/2+y,-z
-x,-y,-z
1/2+x,1/2+y,-z
1/2-x,y,z
x,1/2-y,z
loop_
_atom_site_type_symbol
_atom_site_label
_atom_site_fract_x
_atom_site_fract_y
_atom_site_fract_z
Si Si1 0.172902 0.063486 0.112451
Si Si2 0.250000 0.064749 0.393464
Si Si3 0.822643 0.939403 0.095480
Si Si4 0.995331 0.064681 0.394140
Si Si5 0.250000 0.932632 0.594544
Si Si6 0.620976 0.434216 0.700968
Si Si7 0.129907 0.063512 0.706853
O O1 0.250000 0.033489 0.130495
O O2 0.156001 0.250000 0.125519
O O3 0.130010 0.964174 0.187226
O O4 0.152772 0.998246 0.007455
O O5 0.250000 0.250000 0.361273
O O6 0.250000 0.053834 0.506602
O O7 0.313168 0.976284 0.353852
O O8 0.750000 0.008809 0.117905
O O9 0.816888 0.750000 0.085072
O O10 0.870982 0.987812 0.181591
O O11 0.975334 0.250000 0.396801
O O12 0.940838 0.966639 0.336982
O O13 0.000000 0.000000 0.500000
O O14 0.063886 0.044957 0.340628
O O15 0.250000 0.750000 0.557760
O O16 0.184879 0.960225 0.655082
O O17 0.602230 0.250000 0.683195
O O18 0.148647 0.250000 0.697120
#
# Coordination Sequence:
#
# PCOD8246016 Si02
#       7
#     8   4   8   8   4   8   8
#     4   9  17  33  60  91 123 159 199 242 295 353
#     4  12  24  40  61  86 115 154 199 250 304 356
#     4   8  15  31  59  92 122 157 198 242 293 353
#     4  12  26  45  64  86 119 161 204 248 304 365
#     4  12  24  38  57  88 123 156 197 250 300 354
#     4  12  24  40  61  90 122 156 200 249 300 357
#     4  11  21  39  64  91 121 158 202 249 302 356
#
# _framework density 20.050276
#
# number of rings (size 3 to 8) (size 9 to 14) (size 15 to 20)
#    0.000    1.333    1.667    7.000    0.000    0.000 
#    0.000    2.500    0.000    0.000    0.000    0.000 
#    0.000    0.000    0.000    0.000    0.000    0.000 
#
# Total GULP energy -595279.433766 kJ/mol
# GULP energy per Si atom -12401.654870 kJ/mol
# Density = 2.000464 g / cm^3
# Si number density = 20.050276 Si / 1000 Ang^3
#
#
#
# Elastic Constant Matrix: (Units=GPa)
#
#
# Indices 1 2 3 4 5 6 
#
# 1 97.4048 1.5985 51.9444 0.0000 0.0000 0.0000
# 2 1.5985 68.8681 17.2920 0.0000 0.0000 0.0000
# 3 51.9444 17.2920 165.4551 0.0000 0.0000 0.0000
# 4 0.0000 0.0000 0.0000 25.8072 0.0000 0.0000
# 5 0.0000 0.0000 0.0000 0.0000 41.7571 0.0000
# 6 0.0000 0.0000 0.0000 0.0000 0.0000 33.7458
#
#
#
# Elastic Compliance Matrix: (Units=1/GPa)
#
#
# Indices 1 2 3 4 5 6 
#
# 1 0.012364 0.000706 -0.003956 0.000000 0.000000 0.000000
# 2 0.000706 0.014952 -0.001784 0.000000 0.000000 0.000000
# 3 -0.003956 -0.001784 0.007472 0.000000 0.000000 0.000000
# 4 0.000000 0.000000 0.000000 0.038749 0.000000 0.000000
# 5 0.000000 0.000000 0.000000 0.000000 0.023948 0.000000
# 6 0.000000 0.000000 0.000000 0.000000 0.000000 0.029633
#
#
# Mechanical properties :
#
#
# Convention : Reuss Voigt Hill
#
# Bulk Modulus (GPa) = 40.45103 52.59974 46.52538
# Shear Modulus (GPa) = 34.38155 37.65489 36.01822
#
# Velocity S-wave (km/s) = 4.14547 4.33832 4.24299
# Velocity P-wave (km/s) = 6.56748 7.16837 6.87449
#
# Compressibility (1/GPa) = 0.02472125
#
# Stress axis : x y z
#
# Youngs Moduli (GPa) = 80.87813 66.87993 133.82824
#
# Poissons Ratio (x) = -0.04723 0.52936
# Poissons Ratio (y) = -0.05712 0.23880
# Poissons Ratio (z) = 0.31992 0.11934
#
# Static dielectric constant tensor:
#      x y z
#    x 3.428620 0.000000 0.000000 
#    y 0.000000 3.476810 0.000000 
#    z 0.000000 0.000000 4.035060 
# 
# 
# High freq. dielectric constant tensor:
#      x y z
#    x 1.761700 0.000000 0.000000 
#    y 0.000000 1.773250 0.000000 
#    z 0.000000 0.000000 1.804420 
# 
# From -- ./inp_files/23717.got.cif
#   From: 2010.03.12/outbox.cif.g09.slc.cpg/sg59_12_cif.got.tgz:23717.got - 2010.04.16 16:29:54.
