data_PCOD8246065
_publ_section_title
;
Structure prediction by ZEFSAII (Michael W. Deem and Ramdas Pophale) SiO2 
 PCOD8246065
Probable space group: P M M N
;
_chemical_formula_sum "Si O2"
_cell_formula_units_Z 64
_cell_length_a 18.785068
_cell_length_b 15.105575
_cell_length_c 11.602175
_cell_angle_alpha 90.000000
_cell_angle_beta 90.000000
_cell_angle_gamma 90.000000
_cell_volume 3292.224518
_symmetry_space_group_name_H-M "P M M N"
_symmetry_group_IT_number 59
_space_group.IT_coordinate_system_code '2'
_symmetry_cell_setting 'orthorhombic'
loop_
_space_group_symop_operation_xyz
x,y,z
1/2-x,1/2-y,z
1/2+x,-y,-z
-x,1/2+y,-z
-x,-y,-z
1/2+x,1/2+y,-z
1/2-x,y,z
x,1/2-y,z
loop_
_atom_site_type_symbol
_atom_site_label
_atom_site_fract_x
_atom_site_fract_y
_atom_site_fract_z
Si Si1 0.076168 0.993521 0.559880
Si Si2 0.665264 0.599596 0.036600
Si Si3 0.085048 0.149820 0.731737
Si Si4 0.075760 0.849227 0.202021
Si Si5 0.872536 0.848128 0.785488
Si Si6 0.930494 0.059502 0.025700
Si Si7 0.670493 0.016473 0.659620
Si Si8 0.463246 0.647333 0.739833
O O1 0.136900 0.984523 0.465808
O O2 0.072849 0.904520 0.634799
O O3 0.102644 0.078575 0.633350
O O4 0.000000 0.000000 0.500000
O O5 0.750000 0.606447 0.044624
O O6 0.631612 0.640013 0.152706
O O7 0.640875 0.498752 0.022357
O O8 0.636550 0.650950 0.923966
O O9 0.096199 0.250000 0.684825
O O10 0.003324 0.130215 0.757268
O O11 0.099395 0.750000 0.232922
O O12 0.128424 0.917454 0.259362
O O13 0.076950 0.862154 0.065517
O O14 0.850452 0.750000 0.743435
O O15 0.952746 0.868992 0.746953
O O16 0.825195 0.920208 0.720139
O O17 0.929842 0.107326 0.146494
O O18 0.000000 0.000000 0.000000
O O19 0.750000 0.052317 0.646128
O O20 0.444040 0.750000 0.725666
#
# Coordination Sequence:
#
# PCOD8246065 Si02
#       8
#     8   8   8   8   8   8   8   8
#     4  12  23  43  65  92 123 165 217 273 311 366
#     4  12  24  38  63  97 137 173 202 250 321 392
#     4  11  23  41  67  95 125 167 215 261 314 375
#     4  11  22  39  67  98 125 159 211 269 316 376
#     4  11  22  39  65  98 131 163 203 256 323 393
#     4  12  19  38  66  94 127 165 206 256 314 383
#     4  12  26  43  63  91 129 171 211 263 329 385
#     4  11  22  39  68  97 122 161 214 267 316 366
#
# _framework density 19.439743
#
# number of rings (size 3 to 8) (size 9 to 14) (size 15 to 20)
#    0.000    0.500    7.500    1.125    0.000    6.000 
#    0.000    0.000    0.000    1.875    0.000    0.000 
#    0.000    0.000    0.000    0.000    0.000    0.000 
#
# Total GULP energy -793606.356723 kJ/mol
# GULP energy per Si atom -12400.099324 kJ/mol
# Density = 1.939550 g / cm^3
# Si number density = 19.439743 Si / 1000 Ang^3
#
#
#
# Elastic Constant Matrix: (Units=GPa)
#
#
# Indices 1 2 3 4 5 6 
#
# 1 90.4198 50.3358 38.3587 0.0000 0.0000 0.0000
# 2 50.3358 110.6024 46.4458 0.0000 0.0000 0.0000
# 3 38.3587 46.4458 119.3453 0.0000 0.0000 0.0000
# 4 0.0000 0.0000 0.0000 -8.0200 0.0000 0.0000
# 5 0.0000 0.0000 0.0000 0.0000 16.5672 0.0000
# 6 0.0000 0.0000 0.0000 0.0000 0.0000 146.8564
#
#
#
# Elastic Compliance Matrix: (Units=1/GPa)
#
#
# Indices 1 2 3 4 5 6 
#
# 1 0.015494 -0.005929 -0.002672 0.000000 0.000000 0.000000
# 2 -0.005929 0.013077 -0.003183 0.000000 0.000000 0.000000
# 3 -0.002672 -0.003183 0.010477 0.000000 0.000000 0.000000
# 4 0.000000 0.000000 0.000000 -0.124689 0.000000 0.000000
# 5 0.000000 0.000000 0.000000 0.000000 0.060360 0.000000
# 6 0.000000 0.000000 0.000000 0.000000 0.000000 0.006809
#
#
# Mechanical properties :
#
#
# Convention : Reuss Voigt Hill
#
# Bulk Modulus (GPa) = 64.60982 65.62756 65.11869
# Shear Modulus (GPa) = 487.45821 43.42920 265.44371
#
# Velocity S-wave (km/s) = 15.85237 4.73169 11.69801
# Velocity P-wave (km/s) = 19.19301 7.98027 14.69790
#
# Compressibility (1/GPa) = 0.01547752
#
# Stress axis : x y z
#
# Youngs Moduli (GPa) = 64.54142 76.47263 95.44837
#
# Poissons Ratio (x) = 0.45342 0.25508
# Poissons Ratio (y) = 0.38267 0.30385
# Poissons Ratio (z) = 0.17248 0.24344
#
# Static dielectric constant tensor:
#      x y z
#    x 3.373670 0.000000 0.000000 
#    y 0.000000 3.874400 0.000000 
#    z 0.000000 0.000000 3.695380 
# 
# 
# High freq. dielectric constant tensor:
#      x y z
#    x 1.738760 0.000000 0.000000 
#    y 0.000000 1.768370 0.000000 
#    z 0.000000 0.000000 1.765960 
# 
# From -- ./inp_files/17823.got.cif
#   From: 2010.03.12/outbox.cif.g09.slc.cpg/sg59_9_cif.got.tgz:17823.got - 2010.04.16 16:29:54.
