data_PCOD8246008
_publ_section_title
;
Structure prediction by ZEFSAII (Michael W. Deem and Ramdas Pophale) SiO2 
 PCOD8246008
Probable space group: P M M N
;
_chemical_formula_sum "Si O2"
_cell_formula_units_Z 32
_cell_length_a 13.451421
_cell_length_b 8.363491
_cell_length_c 13.493733
_cell_angle_alpha 90.000000
_cell_angle_beta 90.000000
_cell_angle_gamma 90.000000
_cell_volume 1518.056277
_symmetry_space_group_name_H-M "P M M N"
_symmetry_group_IT_number 59
_space_group.IT_coordinate_system_code '2'
_symmetry_cell_setting 'orthorhombic'
loop_
_space_group_symop_operation_xyz
x,y,z
1/2-x,1/2-y,z
1/2+x,-y,-z
-x,1/2+y,-z
-x,-y,-z
1/2+x,1/2+y,-z
1/2-x,y,z
x,1/2-y,z
loop_
_atom_site_type_symbol
_atom_site_label
_atom_site_fract_x
_atom_site_fract_y
_atom_site_fract_z
Si Si1 0.139932 0.939366 0.747919
Si Si2 0.250000 0.068644 0.124266
Si Si3 0.965315 0.560996 0.605356
Si Si4 0.250000 0.933321 0.334199
Si Si5 0.395784 0.561127 0.971433
O O1 0.250000 0.993776 0.707606
O O2 0.132781 0.750000 0.744599
O O3 0.132165 0.997400 0.861425
O O4 0.046879 0.009300 0.684386
O O5 0.250000 0.250000 0.165207
O O6 0.250000 0.949421 0.216552
O O7 0.158176 0.037167 0.055285
O O8 0.968620 0.750000 0.608917
O O9 0.851858 0.509163 0.624328
O O10 0.000000 0.500000 0.500000
O O11 0.250000 0.750000 0.366434
O O12 0.377995 0.750000 0.982518
O O13 0.500000 0.500000 0.000000
#
# Coordination Sequence:
#
# PCOD8246008 Si02
#       5
#     8   4   8   4   8
#     4   9  19  38  64  93 127 170 214 262 322 392
#     4  12  24  40  61  92 131 172 213 262 328 394
#     4  11  24  43  70 101 133 171 218 275 339 404
#     4  12  26  46  69  94 131 176 227 280 330 394
#     4  11  21  37  62  92 128 170 217 265 319 386
#
# _framework density 21.079588000000001
#
# number of rings (size 3 to 8) (size 9 to 14) (size 15 to 20)
#    0.000    1.250    1.250    5.250    1.750    2.000 
#    0.000    3.750    0.000    0.000    0.000    0.000 
#    0.000    0.000    0.000    0.000    0.000    0.000 
#
# Total GULP energy -396464.060399 kJ/mol
# GULP energy per Si atom -12389.501887 kJ/mol
# Density = 2.103161 g / cm^3
# Si number density = 21.079588 Si / 1000 Ang^3
#
#
#
# Elastic Constant Matrix: (Units=GPa)
#
#
# Indices 1 2 3 4 5 6 
#
# 1 214.2402 21.7624 73.1338 0.0000 0.0000 0.0000
# 2 21.7624 64.6172 18.3137 0.0000 0.0000 0.0000
# 3 73.1338 18.3137 132.4861 0.0000 0.0000 0.0000
# 4 0.0000 0.0000 0.0000 30.1902 0.0000 0.0000
# 5 0.0000 0.0000 0.0000 0.0000 18.5587 0.0000
# 6 0.0000 0.0000 0.0000 0.0000 0.0000 30.3439
#
#
#
# Elastic Compliance Matrix: (Units=1/GPa)
#
#
# Indices 1 2 3 4 5 6 
#
# 1 0.005825 -0.001093 -0.003064 0.000000 0.000000 0.000000
# 2 -0.001093 0.016312 -0.001651 0.000000 0.000000 0.000000
# 3 -0.003064 -0.001651 0.009468 0.000000 0.000000 0.000000
# 4 0.000000 0.000000 0.000000 0.033123 0.000000 0.000000
# 5 0.000000 0.000000 0.000000 0.000000 0.053883 0.000000
# 6 0.000000 0.000000 0.000000 0.000000 0.000000 0.032956
#
#
# Mechanical properties :
#
#
# Convention : Reuss Voigt Hill
#
# Bulk Modulus (GPa) = 50.03292 70.86256 60.44774
# Shear Modulus (GPa) = 29.43838 35.69413 32.56626
#
# Velocity S-wave (km/s) = 3.74108 4.11944 3.93481
# Velocity P-wave (km/s) = 6.51519 7.50440 7.02722
#
# Compressibility (1/GPa) = 0.01998684
#
# Stress axis : x y z
#
# Youngs Moduli (GPa) = 171.68240 61.30465 105.62238
#
# Poissons Ratio (x) = 0.06702 0.32365
# Poissons Ratio (y) = 0.18769 0.17442
# Poissons Ratio (z) = 0.52607 0.10123
#
# Static dielectric constant tensor:
#      x y z
#    x 4.450830 0.000000 0.000000 
#    y 0.000000 3.780410 0.000000 
#    z 0.000000 0.000000 4.943220 
# 
# 
# High freq. dielectric constant tensor:
#      x y z
#    x 1.859840 0.000000 0.000000 
#    y 0.000000 1.805150 0.000000 
#    z 0.000000 0.000000 1.832040 
# 
# From -- ./inp_files/16478.got.cif
#   From: 2010.03.12/outbox.cif.g09.slc.cpg/sg59_9_cif.got.tgz:16478.got - 2010.04.16 16:29:54.
