data_PCOD8246560
_publ_section_title
;
Structure prediction by ZEFSAII (Michael W. Deem and Ramdas Pophale) SiO2 
 PCOD8246560
Probable space group: P B C N
;
_chemical_formula_sum "Si O2"
_cell_formula_units_Z 60
_cell_length_a 12.116136
_cell_length_b 13.234157
_cell_length_c 18.912204
_cell_angle_alpha 90.000000
_cell_angle_beta 90.000000
_cell_angle_gamma 90.000000
_cell_volume 3032.512263
_symmetry_space_group_name_H-M "P B C N"
_symmetry_group_IT_number 60
_symmetry_cell_setting 'orthorhombic'
loop_
_space_group_symop_operation_xyz
x,y,z
1/2-x,1/2-y,1/2+z
1/2+x,1/2-y,-z
-x,y,1/2-z
-x,-y,-z
1/2+x,1/2+y,1/2-z
1/2-x,1/2+y,z
x,-y,1/2+z
loop_
_atom_site_type_symbol
_atom_site_label
_atom_site_fract_x
_atom_site_fract_y
_atom_site_fract_z
Si Si1 0.000000 0.450537 0.250000
Si Si2 0.746410 0.375868 0.811885
Si Si3 0.301291 0.575765 0.606210
Si Si4 0.129988 0.613074 0.330985
Si Si5 0.893965 0.700506 0.846706
Si Si6 0.676628 0.028710 0.023550
Si Si7 0.442154 0.242658 0.115574
Si Si8 0.970581 0.647898 0.530756
O O1 0.049970 0.519210 0.312345
O O2 0.092746 0.378696 0.217086
O O3 0.716674 0.488841 0.836043
O O4 0.781352 0.371082 0.730122
O O5 0.633987 0.311595 0.817514
O O6 0.846331 0.333072 0.858600
O O7 0.211443 0.664282 0.609577
O O8 0.287061 0.532497 0.525773
O O9 0.415165 0.637075 0.622750
O O10 0.195684 0.588686 0.403245
O O11 0.053559 0.713263 0.341326
O O12 0.002681 0.707445 0.896288
O O13 0.644908 0.912154 0.039822
O O14 0.572301 0.071743 0.980736
O O15 0.460740 0.226742 0.032516
#
# Coordination Sequence:
#
# PCOD8246560 Si02
#       8
#     4   8   8   8   8   8   8   8
#     4  12  18  34  58  82 108 152 196 232 288 342
#     4  11  20  35  57  84 116 150 196 242 294 349
#     4  10  19  35  56  86 113 152 190 241 295 343
#     4  11  19  33  59  87 112 150 195 244 289 355
#     4  10  21  33  56  83 111 146 194 244 286 342
#     4   9  17  30  54  80 109 140 195 246 274 333
#     4  10  19  32  59  86 114 148 195 240 294 352
#     4   9  16  31  52  80 106 143 190 241 286 334
#
# _framework density 19.785575999999999
#
# number of rings (size 3 to 8) (size 9 to 14) (size 15 to 20)
#    0.000    1.867    5.333    0.000    0.000    0.000 
#    2.400    0.667    8.800    0.000    0.000    0.000 
#    0.000    0.000    0.000    0.000    0.000    0.000 
#
# Total GULP energy -743590.122925 kJ/mol
# GULP energy per Si atom -12393.168715 kJ/mol
# Density = 1.974054 g / cm^3
# Si number density = 19.785576 Si / 1000 Ang^3
#
#
#
# Elastic Constant Matrix: (Units=GPa)
#
#
# Indices 1 2 3 4 5 6 
#
# 1 38.4434 42.4489 47.1436 0.0000 0.0000 0.0000
# 2 42.4489 105.2790 52.2064 0.0000 0.0000 0.0000
# 3 47.1436 52.2064 122.9878 0.0000 0.0000 0.0000
# 4 0.0000 0.0000 0.0000 20.2700 0.0000 0.0000
# 5 0.0000 0.0000 0.0000 0.0000 26.7389 0.0000
# 6 0.0000 0.0000 0.0000 0.0000 0.0000 31.5741
#
#
#
# Elastic Compliance Matrix: (Units=1/GPa)
#
#
# Indices 1 2 3 4 5 6 
#
# 1 0.069854 -0.018857 -0.018772 0.000000 0.000000 0.000000
# 2 -0.018857 0.017121 -0.000040 0.000000 0.000000 0.000000
# 3 -0.018772 -0.000040 0.015343 0.000000 0.000000 0.000000
# 4 0.000000 0.000000 0.000000 0.049334 0.000000 0.000000
# 5 0.000000 0.000000 0.000000 0.000000 0.037399 0.000000
# 6 0.000000 0.000000 0.000000 0.000000 0.000000 0.031672
#
#
# Mechanical properties :
#
#
# Convention : Reuss Voigt Hill
#
# Bulk Modulus (GPa) = 37.06164 61.14535 49.10349
# Shear Modulus (GPa) = 16.39057 24.04399 20.21728
#
# Velocity S-wave (km/s) = 2.88133 3.48979 3.20006
# Velocity P-wave (km/s) = 5.46276 6.87090 6.20689
#
# Compressibility (1/GPa) = 0.02698208
#
# Stress axis : x y z
#
# Youngs Moduli (GPa) = 14.31560 58.40685 65.17472
#
# Poissons Ratio (x) = 1.10135 1.22346
# Poissons Ratio (y) = 0.26994 0.00258
# Poissons Ratio (z) = 0.26873 0.00231
#
# Static dielectric constant tensor:
#      x y z
#    x 3.339490 0.000000 0.000000 
#    y 0.000000 3.531750 0.000000 
#    z 0.000000 0.000000 3.640390 
# 
# 
# High freq. dielectric constant tensor:
#      x y z
#    x 1.722800 0.000000 0.000000 
#    y 0.000000 1.755020 0.000000 
#    z 0.000000 0.000000 1.778660 
# 
# From -- ./inp_files/20629.got.cif
#   From: 2010.03.12/outbox.cif.g09.slc.cpg/sg60_11_cif.got.tgz:20629.got - 2010.04.10 18:46:24.
