data_PCOD8246502
_publ_section_title
;
Structure prediction by ZEFSAII (Michael W. Deem and Ramdas Pophale) SiO2 
 PCOD8246502
Probable space group: P B C N
;
_chemical_formula_sum "Si O2"
_cell_formula_units_Z 48
_cell_length_a 14.454752
_cell_length_b 9.337670
_cell_length_c 17.547266
_cell_angle_alpha 90.000000
_cell_angle_beta 90.000000
_cell_angle_gamma 90.000000
_cell_volume 2368.419489
_symmetry_space_group_name_H-M "P B C N"
_symmetry_group_IT_number 60
_symmetry_cell_setting 'orthorhombic'
loop_
_space_group_symop_operation_xyz
x,y,z
1/2-x,1/2-y,1/2+z
1/2+x,1/2-y,-z
-x,y,1/2-z
-x,-y,-z
1/2+x,1/2+y,1/2-z
1/2-x,1/2+y,z
x,-y,1/2+z
loop_
_atom_site_type_symbol
_atom_site_label
_atom_site_fract_x
_atom_site_fract_y
_atom_site_fract_z
Si Si1 0.157366 0.674635 0.905960
Si Si2 0.998110 0.917060 0.079083
Si Si3 0.464096 0.887650 0.168685
Si Si4 0.313198 0.479495 0.848318
Si Si5 0.092900 0.908264 0.701476
Si Si6 0.435270 0.896272 0.547841
O O1 0.217953 0.562404 0.859381
O O2 0.197825 0.831839 0.893868
O O3 0.052199 0.672870 0.877262
O O4 0.156035 0.638202 0.996903
O O5 0.012319 0.749486 0.067749
O O6 0.898701 0.930892 0.118676
O O7 0.080398 0.981551 0.131742
O O8 0.000000 0.000000 0.000000
O O9 0.500000 0.944721 0.250000
O O10 0.391194 0.755626 0.173460
O O11 0.412195 0.019110 0.126105
O O12 0.323982 0.455632 0.757179
O O13 0.000000 0.901679 0.750000
O O14 0.500000 0.000000 0.500000
#
# Coordination Sequence:
#
# PCOD8246502 Si02
#       6
#     8   8   8   8   8   8
#     4  11  22  41  60  92 128 164 211 272 326 379
#     4  11  19  39  67  87 119 167 215 256 310 400
#     4  10  18  39  67  87 125 167 215 268 319 385
#     4  11  23  39  66  91 126 168 216 266 332 377
#     4   9  18  39  65  88 115 171 216 251 309 397
#     4  10  22  36  61  96 121 166 217 254 319 387
#
# _framework density 20.266680000000001
#
# number of rings (size 3 to 8) (size 9 to 14) (size 15 to 20)
#    0.000    1.667    6.667    1.000    4.667    2.000 
#    0.000    1.667    0.000    0.000    0.000    0.000 
#    0.000    0.000    0.000    0.000    0.000    0.000 
#
# Total GULP energy -595081.078086 kJ/mol
# GULP energy per Si atom -12397.522460 kJ/mol
# Density = 2.022055 g / cm^3
# Si number density = 20.266680 Si / 1000 Ang^3
#
#
#
# Elastic Constant Matrix: (Units=GPa)
#
#
# Indices 1 2 3 4 5 6 
#
# 1 47.7106 33.0821 24.2866 0.0000 0.0000 0.0000
# 2 33.0821 174.4564 73.4038 0.0000 0.0000 0.0000
# 3 24.2866 73.4038 129.9661 0.0000 0.0000 0.0000
# 4 0.0000 0.0000 0.0000 44.2967 0.0000 0.0000
# 5 0.0000 0.0000 0.0000 0.0000 27.2271 0.0000
# 6 0.0000 0.0000 0.0000 0.0000 0.0000 24.8247
#
#
#
# Elastic Compliance Matrix: (Units=1/GPa)
#
#
# Indices 1 2 3 4 5 6 
#
# 1 0.024782 -0.003608 -0.002593 0.000000 0.000000 0.000000
# 2 -0.003608 0.008044 -0.003869 0.000000 0.000000 0.000000
# 3 -0.002593 -0.003869 0.010364 0.000000 0.000000 0.000000
# 4 0.000000 0.000000 0.000000 0.022575 0.000000 0.000000
# 5 0.000000 0.000000 0.000000 0.000000 0.036728 0.000000
# 6 0.000000 0.000000 0.000000 0.000000 0.000000 0.040282
#
#
# Mechanical properties :
#
#
# Convention : Reuss Voigt Hill
#
# Bulk Modulus (GPa) = 43.38534 68.18646 55.78590
# Shear Modulus (GPa) = 29.30846 34.02709 31.66777
#
# Velocity S-wave (km/s) = 3.80694 4.10197 3.95720
# Velocity P-wave (km/s) = 6.38572 7.49350 6.96168
#
# Compressibility (1/GPa) = 0.02304926
#
# Stress axis : x y z
#
# Youngs Moduli (GPa) = 40.35255 124.31214 96.48724
#
# Poissons Ratio (x) = 0.44856 0.25019
# Poissons Ratio (y) = 0.14560 0.37331
# Poissons Ratio (z) = 0.10463 0.48097
#
# Static dielectric constant tensor:
#      x y z
#    x 3.274810 0.000000 0.000000 
#    y 0.000000 3.979670 0.000000 
#    z 0.000000 0.000000 4.574460 
# 
# 
# High freq. dielectric constant tensor:
#      x y z
#    x 1.740080 0.000000 0.000000 
#    y 0.000000 1.805610 0.000000 
#    z 0.000000 0.000000 1.807800 
# 
# From -- ./inp_files/20476.got.cif
#   From: 2010.03.12/outbox.cif.g09.slc.cpg/sg60_11_cif.got.tgz:20476.got - 2010.04.10 18:46:24.
