data_PCOD8246135
_publ_section_title
;
Structure prediction by ZEFSAII (Michael W. Deem and Ramdas Pophale) SiO2 
 PCOD8246135
Probable space group: P M M N
;
_chemical_formula_sum "Si O2"
_cell_formula_units_Z 24
_cell_length_a 12.579138
_cell_length_b 8.784109
_cell_length_c 10.889909
_cell_angle_alpha 90.000000
_cell_angle_beta 90.000000
_cell_angle_gamma 90.000000
_cell_volume 1203.297040
_symmetry_space_group_name_H-M "P M M N"
_symmetry_group_IT_number 59
_space_group.IT_coordinate_system_code '2'
_symmetry_cell_setting 'orthorhombic'
loop_
_space_group_symop_operation_xyz
x,y,z
1/2-x,1/2-y,z
1/2+x,-y,-z
-x,1/2+y,-z
-x,-y,-z
1/2+x,1/2+y,-z
1/2-x,y,z
x,1/2-y,z
loop_
_atom_site_type_symbol
_atom_site_label
_atom_site_fract_x
_atom_site_fract_y
_atom_site_fract_z
Si Si1 0.632447 0.578663 0.285299
Si Si2 0.750000 0.921723 0.519876
Si Si3 0.250000 0.571884 0.225781
Si Si4 0.537205 0.571939 0.873822
O O1 0.750000 0.556794 0.224148
O O2 0.591217 0.750000 0.257878
O O3 0.645568 0.555289 0.433035
O O4 0.550045 0.458273 0.231551
O O5 0.750000 0.750000 0.574669
O O6 0.750000 0.042466 0.628470
O O7 0.250000 0.750000 0.201625
O O8 0.147942 0.499900 0.163606
O O9 0.552015 0.750000 0.890884
O O10 0.500000 0.500000 0.000000
#
# Coordination Sequence:
#
# PCOD8246135 Si02
#       4
#     8   4   4   8
#     4   8  18  39  66  93 125 163 205 251 306 368
#     4   8  18  39  66  95 128 163 203 255 311 368
#     4  12  26  43  64  93 126 163 213 261 311 368
#     4  12  26  43  65  91 127 167 210 259 313 374
#
# _framework density 19.945198999999999
#
# number of rings (size 3 to 8) (size 9 to 14) (size 15 to 20)
#    1.000    1.000    0.000    4.500    2.333    3.333 
#    0.000    0.000    0.000    0.000    0.000    0.000 
#    0.000    0.000    0.000    0.000    0.000    0.000 
#
# Total GULP energy -297479.265661 kJ/mol
# GULP energy per Si atom -12394.969403 kJ/mol
# Density = 1.989980 g / cm^3
# Si number density = 19.945199 Si / 1000 Ang^3
#
#
#
# Elastic Constant Matrix: (Units=GPa)
#
#
# Indices 1 2 3 4 5 6 
#
# 1 132.7741 70.1969 65.9067 0.0000 0.0000 0.0000
# 2 70.1969 169.4931 61.6819 0.0000 0.0000 0.0000
# 3 65.9067 61.6819 114.5377 0.0000 0.0000 0.0000
# 4 0.0000 0.0000 0.0000 39.6598 0.0000 0.0000
# 5 0.0000 0.0000 0.0000 0.0000 29.3110 0.0000
# 6 0.0000 0.0000 0.0000 0.0000 0.0000 56.6945
#
#
#
# Elastic Compliance Matrix: (Units=1/GPa)
#
#
# Indices 1 2 3 4 5 6 
#
# 1 0.011626 -0.002961 -0.005095 0.000000 0.000000 0.000000
# 2 -0.002961 0.008092 -0.002654 0.000000 0.000000 0.000000
# 3 -0.005095 -0.002654 0.013092 0.000000 0.000000 0.000000
# 4 0.000000 0.000000 0.000000 0.025214 0.000000 0.000000
# 5 0.000000 0.000000 0.000000 0.000000 0.034117 0.000000
# 6 0.000000 0.000000 0.000000 0.000000 0.000000 0.017638
#
#
# Mechanical properties :
#
#
# Convention : Reuss Voigt Hill
#
# Bulk Modulus (GPa) = 87.79892 90.26398 89.03145
# Shear Modulus (GPa) = 37.03778 39.73435 38.38606
#
# Velocity S-wave (km/s) = 4.31394 4.46822 4.39176
# Velocity P-wave (km/s) = 8.30235 8.48376 8.39355
#
# Compressibility (1/GPa) = 0.01138966
#
# Stress axis : x y z
#
# Youngs Moduli (GPa) = 86.01256 123.57783 76.38209
#
# Poissons Ratio (x) = 0.36588 0.38920
# Poissons Ratio (y) = 0.25466 0.20273
# Poissons Ratio (z) = 0.43827 0.32799
#
# Static dielectric constant tensor:
#      x y z
#    x 3.578810 0.000000 0.000000 
#    y 0.000000 3.598240 0.000000 
#    z 0.000000 0.000000 3.590330 
# 
# 
# High freq. dielectric constant tensor:
#      x y z
#    x 1.776050 0.000000 0.000000 
#    y 0.000000 1.779510 0.000000 
#    z 0.000000 0.000000 1.775720 
# 
# From -- ./inp_files/15118.got.cif
#   From: 2010.03.12/outbox.cif.g09.slc.cpg/sg59_8_cif.got.tgz:15118.got - 2010.04.16 16:29:54.
