data_PCOD8246528
_publ_section_title
;
Structure prediction by ZEFSAII (Michael W. Deem and Ramdas Pophale) SiO2 
 PCOD8246528
Probable space group: P B C N
;
_chemical_formula_sum "Si O2"
_cell_formula_units_Z 64
_cell_length_a 24.967274
_cell_length_b 17.689159
_cell_length_c 9.506026
_cell_angle_alpha 90.000000
_cell_angle_beta 90.000000
_cell_angle_gamma 90.000000
_cell_volume 4198.337139
_symmetry_space_group_name_H-M "P B C N"
_symmetry_group_IT_number 60
_symmetry_cell_setting 'orthorhombic'
loop_
_space_group_symop_operation_xyz
x,y,z
1/2-x,1/2-y,1/2+z
1/2+x,1/2-y,-z
-x,y,1/2-z
-x,-y,-z
1/2+x,1/2+y,1/2-z
1/2-x,1/2+y,z
x,-y,1/2+z
loop_
_atom_site_type_symbol
_atom_site_label
_atom_site_fract_x
_atom_site_fract_y
_atom_site_fract_z
Si Si1 0.646423 0.834799 0.202276
Si Si2 0.542207 0.072398 0.637975
Si Si3 0.705227 0.271723 0.520384
Si Si4 0.302964 0.710230 0.804559
Si Si5 0.760001 0.579158 0.043930
Si Si6 0.530866 0.096957 0.119692
Si Si7 0.747502 0.064426 0.728823
Si Si8 0.362632 0.177752 0.470183
O O1 0.594591 0.878411 0.153299
O O2 0.653105 0.761688 0.100228
O O3 0.695672 0.890827 0.174466
O O4 0.644114 0.806868 0.363632
O O5 0.500000 0.102915 0.750000
O O6 0.517509 0.084123 0.486411
O O7 0.556075 0.984111 0.664028
O O8 0.703740 0.255004 0.352595
O O9 0.756676 0.233584 0.588549
O O10 0.711114 0.361094 0.548727
O O11 0.300015 0.618567 0.793244
O O12 0.356181 0.744457 0.879186
O O13 0.744895 0.514099 0.151466
O O14 0.817420 0.617728 0.080194
O O15 0.762125 0.542573 0.890226
O O16 0.500000 0.135978 0.250000
O O17 0.577872 0.148429 0.059238
#
# Coordination Sequence:
#
# PCOD8246528 Si02
#       8
#     8   8   8   8   8   8   8   8
#     4  10  19  31  47  64  90 123 155 184 229 262
#     4  10  19  34  46  63  93 124 154 197 222 259
#     4   9  18  31  45  65  88 117 148 186 223 269
#     4   9  18  31  45  64  90 115 149 186 224 266
#     4   9  18  30  45  65  91 115 149 183 221 266
#     4  10  21  32  46  65  91 122 160 191 227 256
#     4   9  18  30  44  66  90 117 147 184 220 270
#     4  10  19  32  45  65  91 121 155 190 219 269
#
# _framework density 15.244130999999999
#
# number of rings (size 3 to 8) (size 9 to 14) (size 15 to 20)
#    0.000    2.500    1.250    3.000    1.750    5.000 
#    0.000    0.000    0.000    0.000    0.000    0.000 
#    0.000    2.000    0.000    0.125    0.000    0.125 
#
# Total GULP energy -793084.131490 kJ/mol
# GULP energy per Si atom -12391.939555 kJ/mol
# Density = 1.520943 g / cm^3
# Si number density = 15.244131 Si / 1000 Ang^3
#
#
#
# Elastic Constant Matrix: (Units=GPa)
#
#
# Indices 1 2 3 4 5 6 
#
# 1 58.6933 27.3395 20.9381 0.0000 0.0000 0.0000
# 2 27.3395 52.2088 25.3575 0.0000 0.0000 0.0000
# 3 20.9381 25.3575 76.8736 0.0000 0.0000 0.0000
# 4 0.0000 0.0000 0.0000 722.5785 0.0000 0.0000
# 5 0.0000 0.0000 0.0000 0.0000 22.4507 0.0000
# 6 0.0000 0.0000 0.0000 0.0000 0.0000 22.1251
#
#
#
# Elastic Compliance Matrix: (Units=1/GPa)
#
#
# Indices 1 2 3 4 5 6 
#
# 1 0.023005 -0.010721 -0.002730 0.000000 0.000000 0.000000
# 2 -0.010721 0.027804 -0.006251 0.000000 0.000000 0.000000
# 3 -0.002730 -0.006251 0.015814 0.000000 0.000000 0.000000
# 4 0.000000 0.000000 0.000000 0.001384 0.000000 0.000000
# 5 0.000000 0.000000 0.000000 0.000000 0.044542 0.000000
# 6 0.000000 0.000000 0.000000 0.000000 0.000000 0.045197
#
#
# Mechanical properties :
#
#
# Convention : Reuss Voigt Hill
#
# Bulk Modulus (GPa) = 36.73846 37.22731 36.98289
# Shear Modulus (GPa) = 24.24542 161.04023 92.64283
#
# Velocity S-wave (km/s) = 3.99240 10.28932 7.80415
# Velocity P-wave (km/s) = 6.73831 12.86989 10.27226
#
# Compressibility (1/GPa) = 0.02721943
#
# Stress axis : x y z
#
# Youngs Moduli (GPa) = 43.46803 35.96556 63.23552
#
# Poissons Ratio (x) = 0.38559 0.17260
# Poissons Ratio (y) = 0.46603 0.39531
# Poissons Ratio (z) = 0.11865 0.22483
#
# Static dielectric constant tensor:
#      x y z
#    x 3.204820 0.000000 0.000000 
#    y 0.000000 3.000320 0.000000 
#    z 0.000000 0.000000 3.103800 
# 
# 
# High freq. dielectric constant tensor:
#      x y z
#    x 1.552880 0.000000 0.000000 
#    y 0.000000 1.561950 0.000000 
#    z 0.000000 0.000000 1.605210 
# 
# From -- ./inp_files/8017.got.cif
#   From: 2010.03.12/outbox.cif.g09.slc.cpg/sg60_5_cif.got.tgz:8017.got - 2010.04.10 18:46:24.
