data_PCOD8246433
_publ_section_title
;
Structure prediction by ZEFSAII (Michael W. Deem and Ramdas Pophale) SiO2 
 PCOD8246433
Probable space group: P B C N
;
_chemical_formula_sum "Si O2"
_cell_formula_units_Z 40
_cell_length_a 8.673696
_cell_length_b 9.067318
_cell_length_c 21.559543
_cell_angle_alpha 90.000000
_cell_angle_beta 90.000000
_cell_angle_gamma 90.000000
_cell_volume 1695.596825
_symmetry_space_group_name_H-M "P B C N"
_symmetry_group_IT_number 60
_symmetry_cell_setting 'orthorhombic'
loop_
_space_group_symop_operation_xyz
x,y,z
1/2-x,1/2-y,1/2+z
1/2+x,1/2-y,-z
-x,y,1/2-z
-x,-y,-z
1/2+x,1/2+y,1/2-z
1/2-x,1/2+y,z
x,-y,1/2+z
loop_
_atom_site_type_symbol
_atom_site_label
_atom_site_fract_x
_atom_site_fract_y
_atom_site_fract_z
Si Si1 0.769221 0.411564 0.469866
Si Si2 0.413399 0.101522 0.825481
Si Si3 0.256283 0.354885 0.749872
Si Si4 0.781793 0.103625 0.832370
Si Si5 0.605392 0.820085 0.038827
O O1 0.674490 0.405615 0.404910
O O2 0.819504 0.577362 0.485616
O O3 0.663821 0.345056 0.524646
O O4 0.921685 0.311736 0.465147
O O5 0.367042 0.247395 0.787935
O O6 0.596621 0.089841 0.824909
O O7 0.343585 0.119405 0.894239
O O8 0.349535 0.950307 0.796124
O O9 0.158034 0.253428 0.700746
O O10 0.355041 0.466136 0.705627
#
# Coordination Sequence:
#
# PCOD8246433 Si02
#       5
#     8   8   8   8   8
#     4  10  21  38  59  84 115 151 191 235 285 338
#     4  10  21  37  55  80 114 145 182 235 282 330
#     4  10  18  34  56  76 106 146 182 218 278 336
#     4  10  21  37  55  80 114 145 182 235 282 330
#     4  10  21  38  59  84 115 151 191 235 285 338
#
# _framework density 23.590516000000001
#
# number of rings (size 3 to 8) (size 9 to 14) (size 15 to 20)
#    0.000    2.000    0.000    4.800    0.000    0.800 
#    0.000   22.000    0.000    0.000    0.000    0.000 
#    0.000    0.000    0.000    0.000    0.000    0.000 
#
# Total GULP energy -495790.545622 kJ/mol
# GULP energy per Si atom -12394.763641 kJ/mol
# Density = 2.353682 g / cm^3
# Si number density = 23.590516 Si / 1000 Ang^3
#
#
#
# Elastic Constant Matrix: (Units=GPa)
#
#
# Indices 1 2 3 4 5 6 
#
# 1 25.9679 7.3238 11.8287 0.0000 0.0000 0.0000
# 2 7.3238 104.3785 35.9715 0.0000 0.0000 0.0000
# 3 11.8287 35.9715 160.6828 0.0000 0.0000 0.0000
# 4 0.0000 0.0000 0.0000 40.7232 0.0000 0.0000
# 5 0.0000 0.0000 0.0000 0.0000 31.8814 0.0000
# 6 0.0000 0.0000 0.0000 0.0000 0.0000 25.0947
#
#
#
# Elastic Compliance Matrix: (Units=1/GPa)
#
#
# Indices 1 2 3 4 5 6 
#
# 1 0.040209 -0.001952 -0.002523 0.000000 0.000000 0.000000
# 2 -0.001952 0.010476 -0.002202 0.000000 0.000000 0.000000
# 3 -0.002523 -0.002202 0.006902 0.000000 0.000000 0.000000
# 4 0.000000 0.000000 0.000000 0.024556 0.000000 0.000000
# 5 0.000000 0.000000 0.000000 0.000000 0.031366 0.000000
# 6 0.000000 0.000000 0.000000 0.000000 0.000000 0.039849
#
#
# Mechanical properties :
#
#
# Convention : Reuss Voigt Hill
#
# Bulk Modulus (GPa) = 22.60695 44.58637 33.59666
# Shear Modulus (GPa) = 27.55491 35.26688 31.41089
#
# Velocity S-wave (km/s) = 3.42138 3.87067 3.65294
# Velocity P-wave (km/s) = 5.02112 6.23837 5.66255
#
# Compressibility (1/GPa) = 0.04423418
#
# Stress axis : x y z
#
# Youngs Moduli (GPa) = 24.87019 95.45455 144.88477
#
# Poissons Ratio (x) = 0.18631 0.36555
# Poissons Ratio (y) = 0.04854 0.31898
# Poissons Ratio (z) = 0.06275 0.21015
#
# Static dielectric constant tensor:
#      x y z
#    x 3.702250 0.000000 0.000000 
#    y 0.000000 4.309680 0.000000 
#    z 0.000000 0.000000 4.794220 
# 
# 
# High freq. dielectric constant tensor:
#      x y z
#    x 1.890750 0.000000 0.000000 
#    y 0.000000 1.944910 0.000000 
#    z 0.000000 0.000000 1.954930 
# 
# From -- ./inp_files/22532.got.cif
#   From: 2010.03.12/outbox.cif.g09.slc.cpg/sg60_12_cif.got.tgz:22532.got - 2010.04.10 18:46:24.
