data_PCOD8246566
_publ_section_title
;
Structure prediction by ZEFSAII (Michael W. Deem and Ramdas Pophale) SiO2 
 PCOD8246566
Probable space group: P B C N
;
_chemical_formula_sum "Si O2"
_cell_formula_units_Z 60
_cell_length_a 6.340608
_cell_length_b 24.064953
_cell_length_c 21.136817
_cell_angle_alpha 90.000000
_cell_angle_beta 90.000000
_cell_angle_gamma 90.000000
_cell_volume 3225.191522
_symmetry_space_group_name_H-M "P B C N"
_symmetry_group_IT_number 60
_symmetry_cell_setting 'orthorhombic'
loop_
_space_group_symop_operation_xyz
x,y,z
1/2-x,1/2-y,1/2+z
1/2+x,1/2-y,-z
-x,y,1/2-z
-x,-y,-z
1/2+x,1/2+y,1/2-z
1/2-x,1/2+y,z
x,-y,1/2+z
loop_
_atom_site_type_symbol
_atom_site_label
_atom_site_fract_x
_atom_site_fract_y
_atom_site_fract_z
Si Si1 0.807760 0.589259 0.354600
Si Si2 0.000000 0.056749 0.250000
Si Si3 0.265348 0.366025 0.023931
Si Si4 0.110727 0.054855 0.020690
Si Si5 0.391568 0.903489 0.411903
Si Si6 0.128372 0.501132 0.811130
Si Si7 0.058577 0.311443 0.563350
Si Si8 0.143805 0.798633 0.447619
O O1 0.657981 0.594297 0.292673
O O2 0.687830 0.553591 0.407711
O O3 0.860094 0.652683 0.376498
O O4 0.016499 0.553221 0.341010
O O5 0.134809 0.016812 0.295213
O O6 0.432696 0.399355 0.983707
O O7 0.071681 0.353546 0.978856
O O8 0.396405 0.314464 0.050120
O O9 0.146524 0.397169 0.082287
O O10 0.305376 0.067830 0.975285
O O11 0.000000 0.000000 0.000000
O O12 0.275995 0.842468 0.404160
O O13 0.347680 0.944495 0.354352
O O14 0.000000 0.521144 0.750000
O O15 0.253742 0.292053 0.517992
O O16 0.893250 0.262459 0.583635
#
# Coordination Sequence:
#
# PCOD8246566 Si02
#       8
#     8   4   8   8   8   8   8   8
#     4  11  22  36  57  89 116 161 195 243 302 357
#     4  10  24  42  58  82 114 158 206 242 300 358
#     4  10  19  33  51  83 122 147 181 231 287 364
#     4  11  21  30  52  87 122 151 177 232 306 359
#     4  10  21  36  54  89 117 150 192 239 300 358
#     4  10  23  41  60  85 114 157 202 248 295 360
#     4  11  20  34  56  85 122 155 193 235 293 359
#     4  10  20  34  54  88 117 155 189 229 300 356
#
# _framework density 18.603546999999999
#
# number of rings (size 3 to 8) (size 9 to 14) (size 15 to 20)
#    0.000    1.600    5.333    1.600    3.733    4.267 
#    0.000    0.000    0.000    0.000   22.533    0.000 
#    0.000    0.000    0.000    0.000    0.000    0.000 
#
# Total GULP energy -743305.315231 kJ/mol
# GULP energy per Si atom -12388.421921 kJ/mol
# Density = 1.856120 g / cm^3
# Si number density = 18.603547 Si / 1000 Ang^3
#
#
#
# Elastic Constant Matrix: (Units=GPa)
#
#
# Indices 1 2 3 4 5 6 
#
# 1 89.4400 25.2845 41.3134 0.0000 0.0000 0.0000
# 2 25.2845 101.6590 47.9609 0.0000 0.0000 0.0000
# 3 41.3134 47.9609 81.1590 0.0000 0.0000 0.0000
# 4 0.0000 0.0000 0.0000 11.9726 0.0000 0.0000
# 5 0.0000 0.0000 0.0000 0.0000 26.5357 0.0000
# 6 0.0000 0.0000 0.0000 0.0000 0.0000 12.7150
#
#
#
# Elastic Compliance Matrix: (Units=1/GPa)
#
#
# Indices 1 2 3 4 5 6 
#
# 1 0.014620 -0.000174 -0.007340 0.000000 0.000000 0.000000
# 2 -0.000174 0.013642 -0.007973 0.000000 0.000000 0.000000
# 3 -0.007340 -0.007973 0.020769 0.000000 0.000000 0.000000
# 4 0.000000 0.000000 0.000000 0.083524 0.000000 0.000000
# 5 0.000000 0.000000 0.000000 0.000000 0.037685 0.000000
# 6 0.000000 0.000000 0.000000 0.000000 0.000000 0.078647
#
#
# Mechanical properties :
#
#
# Convention : Reuss Voigt Hill
#
# Bulk Modulus (GPa) = 55.37617 55.70839 55.54228
# Shear Modulus (GPa) = 17.48991 20.75795 19.12393
#
# Velocity S-wave (km/s) = 3.06949 3.34399 3.20968
# Velocity P-wave (km/s) = 6.51103 6.70222 6.60731
#
# Compressibility (1/GPa) = 0.01805831
#
# Stress axis : x y z
#
# Youngs Moduli (GPa) = 68.39935 73.30546 48.14772
#
# Poissons Ratio (x) = 0.01272 0.35339
# Poissons Ratio (y) = 0.01187 0.38389
# Poissons Ratio (z) = 0.50203 0.58447
#
# Static dielectric constant tensor:
#      x y z
#    x 4.007440 0.000000 0.000000 
#    y 0.000000 3.935390 0.000000 
#    z 0.000000 0.000000 3.324840 
# 
# 
# High freq. dielectric constant tensor:
#      x y z
#    x 1.745380 0.000000 0.000000 
#    y 0.000000 1.721840 0.000000 
#    z 0.000000 0.000000 1.681810 
# 
# From -- ./inp_files/21769.got.cif
#   From: 2010.03.12/outbox.cif.g09.slc.cpg/sg60_11_cif.got.tgz:21769.got - 2010.04.10 18:46:24.
