data_PCOD8246363
_publ_section_title
;
Structure prediction by ZEFSAII (Michael W. Deem and Ramdas Pophale) SiO2 
 PCOD8246363
Probable space group: P B C N
;
_chemical_formula_sum "Si O2"
_cell_formula_units_Z 64
_cell_length_a 27.919566
_cell_length_b 14.313094
_cell_length_c 9.702249
_cell_angle_alpha 90.000000
_cell_angle_beta 90.000000
_cell_angle_gamma 90.000000
_cell_volume 3877.167849
_symmetry_space_group_name_H-M "P B C N"
_symmetry_group_IT_number 60
_symmetry_cell_setting 'orthorhombic'
loop_
_space_group_symop_operation_xyz
x,y,z
1/2-x,1/2-y,1/2+z
1/2+x,1/2-y,-z
-x,y,1/2-z
-x,-y,-z
1/2+x,1/2+y,1/2-z
1/2-x,1/2+y,z
x,-y,1/2+z
loop_
_atom_site_type_symbol
_atom_site_label
_atom_site_fract_x
_atom_site_fract_y
_atom_site_fract_z
Si Si1 0.623947 0.700860 0.050273
Si Si2 0.258352 0.499657 0.051725
Si Si3 0.818365 0.062747 0.210063
Si Si4 0.132806 0.882547 0.242749
Si Si5 0.973563 0.873605 0.609176
Si Si6 0.234472 0.184754 0.721321
Si Si7 0.293883 0.825526 0.490671
Si Si8 0.962221 0.086099 0.629162
O O1 0.657754 0.660651 0.171282
O O2 0.568514 0.704656 0.095587
O O3 0.648926 0.800712 0.014287
O O4 0.626131 0.632442 0.919518
O O5 0.291729 0.568291 0.143046
O O6 0.246774 0.407306 0.139972
O O7 0.282299 0.472225 0.908228
O O8 0.211609 0.562992 0.015878
O O9 0.862424 0.992271 0.230002
O O10 0.181650 0.831021 0.289013
O O11 0.085244 0.855005 0.328095
O O12 0.000000 0.855413 0.750000
O O13 0.014598 0.857248 0.495997
O O14 0.951254 0.977691 0.591074
O O15 0.231984 0.270113 0.614995
O O16 0.269657 0.207057 0.846980
O O17 0.000000 0.085175 0.750000
#
# Coordination Sequence:
#
# PCOD8246363 Si02
#       8
#     8   8   8   8   8   8   8   8
#     4  11  20  33  48  71 103 135 177 214 258 303
#     4  11  20  34  50  72 102 143 182 212 255 303
#     4  11  18  31  50  68 100 140 177 213 244 302
#     4  10  18  30  48  67  95 135 177 209 245 298
#     4  10  21  30  44  70  96 130 175 211 258 297
#     4  10  22  35  50  77 104 141 179 215 259 312
#     4  11  21  35  52  74 105 143 177 217 261 305
#     4  10  18  29  47  64  94 136 173 211 237 302
#
# _framework density 16.506895
#
# number of rings (size 3 to 8) (size 9 to 14) (size 15 to 20)
#    0.000    1.500    8.750    0.750    0.000    1.000 
#    2.250    0.000    0.000    0.000    0.000    0.000 
#    0.000    1.000    0.250    1.875    0.000    0.000 
#
# Total GULP energy -792993.823952 kJ/mol
# GULP energy per Si atom -12390.528499 kJ/mol
# Density = 1.646932 g / cm^3
# Si number density = 16.506895 Si / 1000 Ang^3
#
#
#
# Elastic Constant Matrix: (Units=GPa)
#
#
# Indices 1 2 3 4 5 6 
#
# 1 93.4600 27.7100 15.5433 0.0000 0.0000 0.0000
# 2 27.7100 38.7055 -4.4065 0.0000 0.0000 0.0000
# 3 15.5433 -4.4065 40.6199 0.0000 0.0000 0.0000
# 4 0.0000 0.0000 0.0000 17.8880 0.0000 0.0000
# 5 0.0000 0.0000 0.0000 0.0000 25.1488 0.0000
# 6 0.0000 0.0000 0.0000 0.0000 0.0000 20.4827
#
#
#
# Elastic Compliance Matrix: (Units=1/GPa)
#
#
# Indices 1 2 3 4 5 6 
#
# 1 0.015407 -0.011847 -0.007181 0.000000 0.000000 0.000000
# 2 -0.011847 0.035270 0.008359 0.000000 0.000000 0.000000
# 3 -0.007181 0.008359 0.028273 0.000000 0.000000 0.000000
# 4 0.000000 0.000000 0.000000 0.055903 0.000000 0.000000
# 5 0.000000 0.000000 0.000000 0.000000 0.039763 0.000000
# 6 0.000000 0.000000 0.000000 0.000000 0.000000 0.048822
#
#
# Mechanical properties :
#
#
# Convention : Reuss Voigt Hill
#
# Bulk Modulus (GPa) = 17.35744 27.83102 22.59423
# Shear Modulus (GPa) = 18.94093 21.63313 20.28703
#
# Velocity S-wave (km/s) = 3.39109 3.62408 3.50952
# Velocity P-wave (km/s) = 5.08633 5.86590 5.48997
#
# Compressibility (1/GPa) = 0.05761217
#
# Stress axis : x y z
#
# Youngs Moduli (GPa) = 64.90723 28.35306 35.36951
#
# Poissons Ratio (x) = 0.33591 0.25397
# Poissons Ratio (y) = 0.76898 -0.29567
# Poissons Ratio (z) = 0.46607 -0.23702
#
# Static dielectric constant tensor:
#      x y z
#    x 3.058670 0.000000 0.000000 
#    y 0.000000 2.797080 0.000000 
#    z 0.000000 0.000000 3.312650 
# 
# 
# High freq. dielectric constant tensor:
#      x y z
#    x 1.622130 0.000000 0.000000 
#    y 0.000000 1.582200 0.000000 
#    z 0.000000 0.000000 1.654800 
# 
# From -- ./inp_files/8543.got.cif
#   From: 2010.03.12/outbox.cif.g09.slc.cpg/sg60_5_cif.got.tgz:8543.got - 2010.04.10 18:46:24.
