data_PCOD8246023
_publ_section_title
;
Structure prediction by ZEFSAII (Michael W. Deem and Ramdas Pophale) SiO2 
 PCOD8246023
Probable space group: P M M N
;
_chemical_formula_sum "Si O2"
_cell_formula_units_Z 40
_cell_length_a 15.161731
_cell_length_b 18.855450
_cell_length_c 6.942518
_cell_angle_alpha 90.000000
_cell_angle_beta 90.000000
_cell_angle_gamma 90.000000
_cell_volume 1984.735799
_symmetry_space_group_name_H-M "P M M N"
_symmetry_group_IT_number 59
_space_group.IT_coordinate_system_code '2'
_symmetry_cell_setting 'orthorhombic'
loop_
_space_group_symop_operation_xyz
x,y,z
1/2-x,1/2-y,z
1/2+x,-y,-z
-x,1/2+y,-z
-x,-y,-z
1/2+x,1/2+y,-z
1/2-x,y,z
x,1/2-y,z
loop_
_atom_site_type_symbol
_atom_site_label
_atom_site_fract_x
_atom_site_fract_y
_atom_site_fract_z
Si Si1 0.846598 0.581089 0.046517
Si Si2 0.152254 0.669964 0.476525
Si Si3 0.088476 0.433117 0.365118
Si Si4 0.968269 0.831956 0.316619
Si Si5 0.107754 0.962872 0.689354
O O1 0.750000 0.611420 0.104165
O O2 0.925398 0.627668 0.136192
O O3 0.852595 0.499506 0.120379
O O4 0.850604 0.583311 0.816290
O O5 0.250000 0.661854 0.382164
O O6 0.139517 0.750000 0.556875
O O7 0.144193 0.616684 0.658867
O O8 0.074712 0.654253 0.320244
O O9 0.072428 0.360711 0.484103
O O10 0.135806 0.490583 0.502331
O O11 0.997266 0.465299 0.287291
O O12 0.944815 0.750000 0.296759
#
# Coordination Sequence:
#
# PCOD8246023 Si02
#       5
#     8   8   8   8   8
#     4  11  22  34  53  82 112 146 188 227 267 321
#     4   9  17  32  57  83 105 137 178 219 274 337
#     4   9  19  35  56  79 104 143 187 225 270 323
#     4   9  20  38  56  78 112 147 181 228 277 322
#     4   9  18  35  56  78 109 141 175 225 278 323
#
# _framework density 20.153817
#
# number of rings (size 3 to 8) (size 9 to 14) (size 15 to 20)
#    0.000    2.600    0.000    2.400    0.000    5.200 
#    0.000    0.000    0.000    6.000    0.000   30.800 
#    0.000    0.000    0.000    0.000    0.000    0.000 
#
# Total GULP energy -495792.327976 kJ/mol
# GULP energy per Si atom -12394.808199 kJ/mol
# Density = 2.010795 g / cm^3
# Si number density = 20.153817 Si / 1000 Ang^3
#
#
#
# Elastic Constant Matrix: (Units=GPa)
#
#
# Indices 1 2 3 4 5 6 
#
# 1 96.0879 36.4360 23.7678 0.0000 0.0000 0.0000
# 2 36.4360 110.3696 26.3969 0.0000 0.0000 0.0000
# 3 23.7678 26.3969 82.3237 0.0000 0.0000 0.0000
# 4 0.0000 0.0000 0.0000 14.0328 0.0000 0.0000
# 5 0.0000 0.0000 0.0000 0.0000 20.3138 0.0000
# 6 0.0000 0.0000 0.0000 0.0000 0.0000 20.2802
#
#
#
# Elastic Compliance Matrix: (Units=1/GPa)
#
#
# Indices 1 2 3 4 5 6 
#
# 1 0.012334 -0.003488 -0.002443 0.000000 0.000000 0.000000
# 2 -0.003488 0.010799 -0.002456 0.000000 0.000000 0.000000
# 3 -0.002443 -0.002456 0.013640 0.000000 0.000000 0.000000
# 4 0.000000 0.000000 0.000000 0.071262 0.000000 0.000000
# 5 0.000000 0.000000 0.000000 0.000000 0.049228 0.000000
# 6 0.000000 0.000000 0.000000 0.000000 0.000000 0.049309
#
#
# Mechanical properties :
#
#
# Convention : Reuss Voigt Hill
#
# Bulk Modulus (GPa) = 49.99801 51.33139 50.66470
# Shear Modulus (GPa) = 21.73815 24.40405 23.07110
#
# Velocity S-wave (km/s) = 3.28779 3.48356 3.38709
# Velocity P-wave (km/s) = 6.26696 6.45797 6.36318
#
# Compressibility (1/GPa) = 0.02000080
#
# Stress axis : x y z
#
# Youngs Moduli (GPa) = 81.07811 92.59990 73.31465
#
# Poissons Ratio (x) = 0.32294 0.17908
# Poissons Ratio (y) = 0.28276 0.18005
# Poissons Ratio (z) = 0.19804 0.22741
#
# Static dielectric constant tensor:
#      x y z
#    x 3.784980 0.000000 0.000000 
#    y 0.000000 3.754430 0.000000 
#    z 0.000000 0.000000 3.247390 
# 
# 
# High freq. dielectric constant tensor:
#      x y z
#    x 1.793540 0.000000 0.000000 
#    y 0.000000 1.787080 0.000000 
#    z 0.000000 0.000000 1.746580 
# 
# From -- ./inp_files/2738.got.cif
#   From: 2010.03.12/outbox.cif.g09.slc.cpg/sg59_2_cif.got.tgz:2738.got - 2010.04.16 16:29:54.
