data_PCOD8246192
_publ_section_title
;
Structure prediction by ZEFSAII (Michael W. Deem and Ramdas Pophale) SiO2 
 PCOD8246192
Probable space group: P M M N
;
_chemical_formula_sum "Si O2"
_cell_formula_units_Z 48
_cell_length_a 14.527516
_cell_length_b 9.524815
_cell_length_c 19.420999
_cell_angle_alpha 90.000000
_cell_angle_beta 90.000000
_cell_angle_gamma 90.000000
_cell_volume 2687.320576
_symmetry_space_group_name_H-M "P M M N"
_symmetry_group_IT_number 59
_space_group.IT_coordinate_system_code '2'
_symmetry_cell_setting 'orthorhombic'
loop_
_space_group_symop_operation_xyz
x,y,z
1/2-x,1/2-y,z
1/2+x,-y,-z
-x,1/2+y,-z
-x,-y,-z
1/2+x,1/2+y,-z
1/2-x,y,z
x,1/2-y,z
loop_
_atom_site_type_symbol
_atom_site_label
_atom_site_fract_x
_atom_site_fract_y
_atom_site_fract_z
Si Si1 0.648419 0.917563 0.143978
Si Si2 0.491659 0.414491 0.600687
Si Si3 0.357042 0.913218 0.510219
Si Si4 0.504770 0.416365 0.754936
Si Si5 0.359729 0.093956 0.006732
Si Si6 0.356097 0.913004 0.132701
O O1 0.750000 0.979952 0.157232
O O2 0.651854 0.750000 0.144763
O O3 0.583668 0.976577 0.204381
O O4 0.609589 0.963053 0.068681
O O5 0.467255 0.250000 0.599939
O O6 0.586372 0.444212 0.559755
O O7 0.403567 0.495464 0.570222
O O8 0.507762 0.474997 0.677444
O O9 0.250000 0.956860 0.500072
O O10 0.364632 0.750000 0.530404
O O11 0.500057 0.250000 0.751230
O O12 0.594673 0.464174 0.797371
O O13 0.250000 0.097074 0.007219
O O14 0.398685 0.250000 0.020474
O O15 0.397573 0.992295 0.066336
O O16 0.250000 0.948332 0.143761
O O17 0.374720 0.750000 0.118968
#
# Coordination Sequence:
#
# PCOD8246192 Si02
#       6
#     8   8   8   8   8   8
#     4   8  14  25  41  61  85 113 146 186 228 262
#     4   9  18  32  50  73  97 120 154 195 225 264
#     4   9  18  33  52  72  96 126 153 181 227 280
#     4   9  17  28  43  66  93 117 144 181 223 264
#     4   8  14  26  43  60  80 111 152 191 221 256
#     4   9  17  28  42  62  89 118 146 181 225 266
#
# _framework density 17.861657999999998
#
# number of rings (size 3 to 8) (size 9 to 14) (size 15 to 20)
#    0.000    3.333    0.000    1.000    0.000    2.333 
#    0.000    5.833    0.000    1.000    0.000    4.667 
#    0.000    0.000    0.000    0.000    0.000    0.000 
#
# Total GULP energy -594885.588410 kJ/mol
# GULP energy per Si atom -12393.449759 kJ/mol
# Density = 1.782100 g / cm^3
# Si number density = 17.861658 Si / 1000 Ang^3
#
#
#
# Elastic Constant Matrix: (Units=GPa)
#
#
# Indices 1 2 3 4 5 6 
#
# 1 103.2753 29.6586 64.0118 0.0000 0.0000 0.0000
# 2 29.6586 34.1913 40.2390 0.0000 0.0000 0.0000
# 3 64.0118 40.2390 173.8180 0.0000 0.0000 0.0000
# 4 0.0000 0.0000 0.0000 20.7391 0.0000 0.0000
# 5 0.0000 0.0000 0.0000 0.0000 25.3828 0.0000
# 6 0.0000 0.0000 0.0000 0.0000 0.0000 16.7472
#
#
#
# Elastic Compliance Matrix: (Units=1/GPa)
#
#
# Indices 1 2 3 4 5 6 
#
# 1 0.014115 -0.008420 -0.003249 0.000000 0.000000 0.000000
# 2 -0.008420 0.045223 -0.007368 0.000000 0.000000 0.000000
# 3 -0.003249 -0.007368 0.008655 0.000000 0.000000 0.000000
# 4 0.000000 0.000000 0.000000 0.048218 0.000000 0.000000
# 5 0.000000 0.000000 0.000000 0.000000 0.039397 0.000000
# 6 0.000000 0.000000 0.000000 0.000000 0.000000 0.059711
#
#
# Mechanical properties :
#
#
# Convention : Reuss Voigt Hill
#
# Bulk Modulus (GPa) = 33.42425 64.34485 48.88455
# Shear Modulus (GPa) = 18.98505 24.39885 21.69195
#
# Velocity S-wave (km/s) = 3.26374 3.69994 3.48867
# Velocity P-wave (km/s) = 5.74075 7.37258 6.60724
#
# Compressibility (1/GPa) = 0.02991840
#
# Stress axis : x y z
#
# Youngs Moduli (GPa) = 70.84894 22.11288 115.53647
#
# Poissons Ratio (x) = 0.18619 0.37534
# Poissons Ratio (y) = 0.59655 0.85129
# Poissons Ratio (z) = 0.23017 0.16293
#
# Static dielectric constant tensor:
#      x y z
#    x 3.359360 0.000000 0.000000 
#    y 0.000000 3.028240 0.000000 
#    z 0.000000 0.000000 3.621830 
# 
# 
# High freq. dielectric constant tensor:
#      x y z
#    x 1.691480 0.000000 0.000000 
#    y 0.000000 1.647220 0.000000 
#    z 0.000000 0.000000 1.694260 
# 
# From -- ./inp_files/27369.got.cif
#   From: 2010.03.12/outbox.cif.g09.slc.cpg/sg59_14_cif.got.tgz:27369.got - 2010.04.16 16:29:54.
