data_PCOD8246343
_publ_section_title
;
Structure prediction by ZEFSAII (Michael W. Deem and Ramdas Pophale) SiO2 
 PCOD8246343
Probable space group: P B C N
;
_chemical_formula_sum "Si O2"
_cell_formula_units_Z 52
_cell_length_a 14.979512
_cell_length_b 12.281400
_cell_length_c 13.966794
_cell_angle_alpha 90.000000
_cell_angle_beta 90.000000
_cell_angle_gamma 90.000000
_cell_volume 2569.462414
_symmetry_space_group_name_H-M "P B C N"
_symmetry_group_IT_number 60
_symmetry_cell_setting 'orthorhombic'
loop_
_space_group_symop_operation_xyz
x,y,z
1/2-x,1/2-y,1/2+z
1/2+x,1/2-y,-z
-x,y,1/2-z
-x,-y,-z
1/2+x,1/2+y,1/2-z
1/2-x,1/2+y,z
x,-y,1/2+z
loop_
_atom_site_type_symbol
_atom_site_label
_atom_site_fract_x
_atom_site_fract_y
_atom_site_fract_z
Si Si1 0.868954 0.240863 0.014186
Si Si2 0.871166 0.742932 0.306035
Si Si3 0.461935 0.982983 0.655897
Si Si4 0.305972 0.300504 0.402588
Si Si5 0.082922 0.992041 0.928492
Si Si6 0.000000 0.080927 0.750000
Si Si7 0.939838 0.359311 0.501917
O O1 0.800017 0.306481 0.080877
O O2 0.968315 0.291729 0.016664
O O3 0.867459 0.120335 0.055937
O O4 0.822710 0.244218 0.908406
O O5 0.905017 0.618467 0.302549
O O6 0.817307 0.774788 0.210667
O O7 0.947901 0.834497 0.318470
O O8 0.500000 0.043318 0.750000
O O9 0.542512 0.941666 0.589006
O O10 0.409290 0.073182 0.592930
O O11 0.345152 0.413236 0.441285
O O12 0.355968 0.212122 0.467884
O O13 0.053629 0.999714 0.817875
O O14 0.000000 0.000000 0.000000
#
# Coordination Sequence:
#
# PCOD8246343 Si02
#       7
#     8   8   8   8   8   4   8
#     4  11  23  41  63  95 128 161 220 272 314 379
#     4  10  18  39  65  87 121 172 216 246 317 399
#     4  10  17  34  63  87 118 162 202 250 318 377
#     4  11  23  42  64  93 127 169 219 263 315 392
#     4  11  20  41  69  89 125 169 215 262 324 378
#     4  10  18  36  70  92 112 174 222 256 310 392
#     4  10  21  37  62  91 124 163 210 267 312 368
#
# _framework density 20.237694000000001
#
# number of rings (size 3 to 8) (size 9 to 14) (size 15 to 20)
#    0.000    1.538    5.385    1.846    0.000    3.692 
#    6.923    1.538    0.000    0.000    0.000    0.000 
#    0.000    0.000    0.000    0.000    0.000    0.000 
#
# Total GULP energy -644187.312769 kJ/mol
# GULP energy per Si atom -12388.217553 kJ/mol
# Density = 2.019163 g / cm^3
# Si number density = 20.237694 Si / 1000 Ang^3
#
#
#
# Elastic Constant Matrix: (Units=GPa)
#
#
# Indices 1 2 3 4 5 6 
#
# 1 56.2882 10.5096 19.1742 0.0000 0.0000 0.0000
# 2 10.5096 87.0245 53.7311 0.0000 0.0000 0.0000
# 3 19.1742 53.7311 111.7636 0.0000 0.0000 0.0000
# 4 0.0000 0.0000 0.0000 42.9810 0.0000 0.0000
# 5 0.0000 0.0000 0.0000 0.0000 25.3804 0.0000
# 6 0.0000 0.0000 0.0000 0.0000 0.0000 23.6581
#
#
#
# Elastic Compliance Matrix: (Units=1/GPa)
#
#
# Indices 1 2 3 4 5 6 
#
# 1 0.018878 -0.000398 -0.003047 0.000000 0.000000 0.000000
# 2 -0.000398 0.016350 -0.007792 0.000000 0.000000 0.000000
# 3 -0.003047 -0.007792 0.013216 0.000000 0.000000 0.000000
# 4 0.000000 0.000000 0.000000 0.023266 0.000000 0.000000
# 5 0.000000 0.000000 0.000000 0.000000 0.039400 0.000000
# 6 0.000000 0.000000 0.000000 0.000000 0.000000 0.042269
#
#
# Mechanical properties :
#
#
# Convention : Reuss Voigt Hill
#
# Bulk Modulus (GPa) = 38.50718 46.87847 42.69283
# Shear Modulus (GPa) = 27.09854 29.84799 28.47326
#
# Velocity S-wave (km/s) = 3.66322 3.84457 3.75499
# Velocity P-wave (km/s) = 6.07956 6.55148 6.31992
#
# Compressibility (1/GPa) = 0.02596918
#
# Stress axis : x y z
#
# Youngs Moduli (GPa) = 52.97142 61.16140 75.66393
#
# Poissons Ratio (x) = 0.02437 0.23056
# Poissons Ratio (y) = 0.02111 0.58958
# Poissons Ratio (z) = 0.16141 0.47658
#
# Static dielectric constant tensor:
#      x y z
#    x 4.352290 0.000000 0.000000 
#    y 0.000000 3.821460 0.000000 
#    z 0.000000 0.000000 3.900820 
# 
# 
# High freq. dielectric constant tensor:
#      x y z
#    x 1.751680 0.000000 0.000000 
#    y 0.000000 1.793170 0.000000 
#    z 0.000000 0.000000 1.807440 
# 
# From -- ./inp_files/16851.got.cif
#   From: 2010.03.12/outbox.cif.g09.slc.cpg/sg60_9_cif.got.tgz:16851.got - 2010.04.10 18:46:24.
