data_PCOD8246401
_publ_section_title
;
Structure prediction by ZEFSAII (Michael W. Deem and Ramdas Pophale) SiO2 
 PCOD8246401
Probable space group: P B C N
;
_chemical_formula_sum "Si O2"
_cell_formula_units_Z 32
_cell_length_a 4.974929
_cell_length_b 17.218438
_cell_length_c 17.779502
_cell_angle_alpha 90.000000
_cell_angle_beta 90.000000
_cell_angle_gamma 90.000000
_cell_volume 1523.001147
_symmetry_space_group_name_H-M "P B C N"
_symmetry_group_IT_number 60
_symmetry_cell_setting 'orthorhombic'
loop_
_space_group_symop_operation_xyz
x,y,z
1/2-x,1/2-y,1/2+z
1/2+x,1/2-y,-z
-x,y,1/2-z
-x,-y,-z
1/2+x,1/2+y,1/2-z
1/2-x,1/2+y,z
x,-y,1/2+z
loop_
_atom_site_type_symbol
_atom_site_label
_atom_site_fract_x
_atom_site_fract_y
_atom_site_fract_z
Si Si1 0.564550 0.051908 0.330986
Si Si2 0.732580 0.223574 0.297823
Si Si3 0.548422 0.548408 0.074076
Si Si4 0.902329 0.774416 0.955802
O O1 0.500000 0.012927 0.250000
O O2 0.586667 0.144125 0.321314
O O3 0.342612 0.033131 0.393570
O O4 0.843444 0.018194 0.362003
O O5 0.500000 0.269814 0.250000
O O6 0.815425 0.265481 0.376005
O O7 0.000000 0.207898 0.250000
O O8 0.503846 0.638591 0.056579
O O9 0.500000 0.500000 0.000000
O O10 0.646312 0.775870 0.010990
#
# Coordination Sequence:
#
# PCOD8246401 Si02
#       4
#     8   8   8   8
#     4  10  18  33  56  82 105 137 184 230 261 303
#     4  10  18  32  54  81 105 135 182 230 263 303
#     4  11  22  36  56  83 111 142 177 222 271 320
#     4  11  21  35  56  82 110 142 177 220 269 320
#
# _framework density 21.011146
#
# number of rings (size 3 to 8) (size 9 to 14) (size 15 to 20)
#    0.000    1.500    0.000   12.000    0.000    0.000 
#    0.000    0.000    0.000   15.000    0.000    0.000 
#    0.000    0.000    0.000    0.000    0.000    0.000 
#
# Total GULP energy -396659.586219 kJ/mol
# GULP energy per Si atom -12395.612069 kJ/mol
# Density = 2.096332 g / cm^3
# Si number density = 21.011146 Si / 1000 Ang^3
#
#
#
# Elastic Constant Matrix: (Units=GPa)
#
#
# Indices 1 2 3 4 5 6 
#
# 1 116.5078 5.4622 23.9180 0.0000 0.0000 0.0000
# 2 5.4622 14.9680 18.6221 0.0000 0.0000 0.0000
# 3 23.9180 18.6221 113.4006 0.0000 0.0000 0.0000
# 4 0.0000 0.0000 0.0000 22.7862 0.0000 0.0000
# 5 0.0000 0.0000 0.0000 0.0000 65.3225 0.0000
# 6 0.0000 0.0000 0.0000 0.0000 0.0000 12.5569
#
#
#
# Elastic Compliance Matrix: (Units=1/GPa)
#
#
# Indices 1 2 3 4 5 6 
#
# 1 0.008988 -0.001158 -0.001705 0.000000 0.000000 0.000000
# 2 -0.001158 0.084113 -0.013568 0.000000 0.000000 0.000000
# 3 -0.001705 -0.013568 0.011406 0.000000 0.000000 0.000000
# 4 0.000000 0.000000 0.000000 0.043886 0.000000 0.000000
# 5 0.000000 0.000000 0.000000 0.000000 0.015309 0.000000
# 6 0.000000 0.000000 0.000000 0.000000 0.000000 0.079638
#
#
# Mechanical properties :
#
#
# Convention : Reuss Voigt Hill
#
# Bulk Modulus (GPa) = 13.95815 37.87568 25.91692
# Shear Modulus (GPa) = 16.66204 33.25804 24.96004
#
# Velocity S-wave (km/s) = 2.81910 3.98285 3.45039
# Velocity P-wave (km/s) = 4.15380 6.26230 5.31368
#
# Compressibility (1/GPa) = 0.07164271
#
# Stress axis : x y z
#
# Youngs Moduli (GPa) = 111.26540 11.88882 87.67212
#
# Poissons Ratio (x) = 0.01377 0.14952
# Poissons Ratio (y) = 0.12884 1.18956
# Poissons Ratio (z) = 0.18976 0.16131
#
# Static dielectric constant tensor:
#      x y z
#    x 4.319200 0.000000 0.000000 
#    y 0.000000 3.097920 0.000000 
#    z 0.000000 0.000000 4.788210 
# 
# 
# High freq. dielectric constant tensor:
#      x y z
#    x 1.852980 0.000000 0.000000 
#    y 0.000000 1.739240 0.000000 
#    z 0.000000 0.000000 1.854550 
# 
# From -- ./inp_files/13679.got.cif
#   From: 2010.03.12/outbox.cif.g09.slc.cpg/sg60_7_cif.got.tgz:13679.got - 2010.04.10 18:46:24.
