data_PCOD8246535
_publ_section_title
;
Structure prediction by ZEFSAII (Michael W. Deem and Ramdas Pophale) SiO2 
 PCOD8246535
Probable space group: P B C N
;
_chemical_formula_sum "Si O2"
_cell_formula_units_Z 40
_cell_length_a 20.440510
_cell_length_b 9.190943
_cell_length_c 9.060503
_cell_angle_alpha 90.000000
_cell_angle_beta 90.000000
_cell_angle_gamma 90.000000
_cell_volume 1702.174612
_symmetry_space_group_name_H-M "P B C N"
_symmetry_group_IT_number 60
_symmetry_cell_setting 'orthorhombic'
loop_
_space_group_symop_operation_xyz
x,y,z
1/2-x,1/2-y,1/2+z
1/2+x,1/2-y,-z
-x,y,1/2-z
-x,-y,-z
1/2+x,1/2+y,1/2-z
1/2-x,1/2+y,z
x,-y,1/2+z
loop_
_atom_site_type_symbol
_atom_site_label
_atom_site_fract_x
_atom_site_fract_y
_atom_site_fract_z
Si Si1 0.295672 0.389082 0.355373
Si Si2 0.278264 0.106157 0.550588
Si Si3 0.067060 0.179457 0.820297
Si Si4 0.494489 0.793134 0.095084
Si Si5 0.091425 0.431004 0.607415
O O1 0.298676 0.253516 0.468614
O O2 0.273651 0.530265 0.443825
O O3 0.370283 0.425497 0.303171
O O4 0.251647 0.356467 0.211205
O O5 0.337272 0.991899 0.570739
O O6 0.090262 0.336146 0.756718
O O7 0.000000 0.117558 0.750000
O O8 0.052053 0.197914 0.992635
O O9 0.500000 0.706520 0.250000
O O10 0.460181 0.944047 0.135780
O O11 0.565842 0.824772 0.023862
#
# Coordination Sequence:
#
# PCOD8246535 Si02
#       5
#     8   8   8   8   8
#     4  12  26  47  68 103 133 189 222 292 335 419
#     4  12  26  44  72  99 143 176 236 273 352 406
#     4  10  21  40  62  95 136 176 225 283 340 403
#     4  10  19  31  61  99 134 162 218 282 346 378
#     4  10  19  35  59  96 134 170 211 284 335 391
#
# _framework density 23.49935
#
# number of rings (size 3 to 8) (size 9 to 14) (size 15 to 20)
#    0.000    1.200    2.000    6.600    2.800    0.000 
#    0.000    1.000    0.000    0.000    0.000    0.000 
#    0.000    0.000    0.000    0.000    0.000    0.000 
#
# Total GULP energy -495855.526090 kJ/mol
# GULP energy per Si atom -12396.388152 kJ/mol
# Density = 2.344586 g / cm^3
# Si number density = 23.499350 Si / 1000 Ang^3
#
#
#
# Elastic Constant Matrix: (Units=GPa)
#
#
# Indices 1 2 3 4 5 6 
#
# 1 158.5900 16.9338 39.2018 0.0000 0.0000 0.0000
# 2 16.9338 25.3349 3.6307 0.0000 0.0000 0.0000
# 3 39.2018 3.6307 156.1092 0.0000 0.0000 0.0000
# 4 0.0000 0.0000 0.0000 7.7384 0.0000 0.0000
# 5 0.0000 0.0000 0.0000 0.0000 27.5526 0.0000
# 6 0.0000 0.0000 0.0000 0.0000 0.0000 10.4440
#
#
#
# Elastic Compliance Matrix: (Units=1/GPa)
#
#
# Indices 1 2 3 4 5 6 
#
# 1 0.007216 -0.004579 -0.001706 0.000000 0.000000 0.000000
# 2 -0.004579 0.042509 0.000161 0.000000 0.000000 0.000000
# 3 -0.001706 0.000161 0.006830 0.000000 0.000000 0.000000
# 4 0.000000 0.000000 0.000000 0.129225 0.000000 0.000000
# 5 0.000000 0.000000 0.000000 0.000000 0.036294 0.000000
# 6 0.000000 0.000000 0.000000 0.000000 0.000000 0.095749
#
#
# Mechanical properties :
#
#
# Convention : Reuss Voigt Hill
#
# Bulk Modulus (GPa) = 22.56899 51.06296 36.81597
# Shear Modulus (GPa) = 14.49951 27.83152 21.16551
#
# Velocity S-wave (km/s) = 2.48668 3.44518 3.00440
# Velocity P-wave (km/s) = 4.22726 6.13207 5.26650
#
# Compressibility (1/GPa) = 0.04430859
#
# Stress axis : x y z
#
# Youngs Moduli (GPa) = 138.57922 23.52466 146.40576
#
# Poissons Ratio (x) = 0.10771 0.24971
# Poissons Ratio (y) = 0.63453 -0.02360
# Poissons Ratio (z) = 0.23636 -0.00379
#
# Static dielectric constant tensor:
#      x y z
#    x 4.470970 0.000000 0.000000 
#    y 0.000000 3.702690 0.000000 
#    z 0.000000 0.000000 4.527260 
# 
# 
# High freq. dielectric constant tensor:
#      x y z
#    x 1.941150 0.000000 0.000000 
#    y 0.000000 1.889630 0.000000 
#    z 0.000000 0.000000 1.949310 
# 
# From -- ./inp_files/6532.got.cif
#   From: 2010.03.12/outbox.cif.g09.slc.cpg/sg60_4_cif.got.tgz:6532.got - 2010.04.10 18:46:24.
