data_PCOD8246119
_publ_section_title
;
Structure prediction by ZEFSAII (Michael W. Deem and Ramdas Pophale) SiO2 
 PCOD8246119
Probable space group: P M M N
;
_chemical_formula_sum "Si O2"
_cell_formula_units_Z 48
_cell_length_a 8.555341
_cell_length_b 17.739906
_cell_length_c 15.518192
_cell_angle_alpha 90.000000
_cell_angle_beta 90.000000
_cell_angle_gamma 90.000000
_cell_volume 2355.210667
_symmetry_space_group_name_H-M "P M M N"
_symmetry_group_IT_number 59
_space_group.IT_coordinate_system_code '2'
_symmetry_cell_setting 'orthorhombic'
loop_
_space_group_symop_operation_xyz
x,y,z
1/2-x,1/2-y,z
1/2+x,-y,-z
-x,1/2+y,-z
-x,-y,-z
1/2+x,1/2+y,-z
1/2-x,y,z
x,1/2-y,z
loop_
_atom_site_type_symbol
_atom_site_label
_atom_site_fract_x
_atom_site_fract_y
_atom_site_fract_z
Si Si1 0.570004 0.160360 0.827381
Si Si2 0.434694 0.667719 0.986349
Si Si3 0.930945 0.163263 0.500789
Si Si4 0.570661 0.908477 0.337130
Si Si5 0.570708 0.160226 0.199677
Si Si6 0.929348 0.930613 0.649495
O O1 0.750000 0.140244 0.807916
O O2 0.544340 0.250000 0.822944
O O3 0.461464 0.118064 0.759805
O O4 0.518993 0.128310 0.922779
O O5 0.250000 0.678685 0.986430
O O6 0.514127 0.750000 0.986031
O O7 0.480111 0.627720 0.895515
O O8 0.750000 0.149943 0.478867
O O9 0.976892 0.250000 0.487712
O O10 0.963050 0.139818 0.598909
O O11 0.036050 0.113312 0.438311
O O12 0.750000 0.893270 0.360183
O O13 0.537772 0.996660 0.345703
O O14 0.750000 0.138844 0.220702
O O15 0.549645 0.250000 0.202285
O O16 0.458917 0.123149 0.269428
O O17 0.750000 0.956273 0.649119
#
# Coordination Sequence:
#
# PCOD8246119 Si02
#       6
#     8   8   8   8   8   8
#     4   9  17  33  58  86 115 148 188 232 279 332
#     4   7  12  26  52  83 112 145 185 229 276 327
#     4  11  24  43  66  89 113 143 180 223 274 333
#     4  12  25  40  58  82 115 151 188 230 278 331
#     4   9  17  33  58  86 115 148 188 232 279 332
#     4  12  25  40  58  82 115 151 188 230 278 331
#
# _framework density 20.380343
#
# number of rings (size 3 to 8) (size 9 to 14) (size 15 to 20)
#    0.000    2.000    0.000    7.000    0.000    6.000 
#    0.000    1.667    0.000    3.000    0.000    0.000 
#    0.000    0.000    0.000    0.000    0.000    0.000 
#
# Total GULP energy -595002.824856 kJ/mol
# GULP energy per Si atom -12395.892184 kJ/mol
# Density = 2.033396 g / cm^3
# Si number density = 20.380343 Si / 1000 Ang^3
#
#
#
# Elastic Constant Matrix: (Units=GPa)
#
#
# Indices 1 2 3 4 5 6 
#
# 1 53.2835 22.8460 24.3094 0.0000 0.0000 0.0000
# 2 22.8460 49.0836 12.0138 0.0000 0.0000 0.0000
# 3 24.3094 12.0138 117.8625 0.0000 0.0000 0.0000
# 4 0.0000 0.0000 0.0000 7.8153 0.0000 0.0000
# 5 0.0000 0.0000 0.0000 0.0000 25.4875 0.0000
# 6 0.0000 0.0000 0.0000 0.0000 0.0000 19.7205
#
#
#
# Elastic Compliance Matrix: (Units=1/GPa)
#
#
# Indices 1 2 3 4 5 6 
#
# 1 0.025252 -0.010747 -0.004113 0.000000 0.000000 0.000000
# 2 -0.010747 0.025468 -0.000379 0.000000 0.000000 0.000000
# 3 -0.004113 -0.000379 0.009371 0.000000 0.000000 0.000000
# 4 0.000000 0.000000 0.000000 0.127954 0.000000 0.000000
# 5 0.000000 0.000000 0.000000 0.000000 0.039235 0.000000
# 6 0.000000 0.000000 0.000000 0.000000 0.000000 0.050709
#
#
# Mechanical properties :
#
#
# Convention : Reuss Voigt Hill
#
# Bulk Modulus (GPa) = 33.76844 37.61867 35.69355
# Shear Modulus (GPa) = 15.70657 21.34203 18.52430
#
# Velocity S-wave (km/s) = 2.77911 3.23954 3.01812
# Velocity P-wave (km/s) = 5.18681 5.70010 5.44951
#
# Compressibility (1/GPa) = 0.02961345
#
# Stress axis : x y z
#
# Youngs Moduli (GPa) = 39.60126 39.26435 106.70745
#
# Poissons Ratio (x) = 0.42197 0.43887
# Poissons Ratio (y) = 0.42559 0.04049
# Poissons Ratio (z) = 0.16287 0.01490
#
# Static dielectric constant tensor:
#      x y z
#    x 3.393280 0.000000 0.000000 
#    y 0.000000 3.413600 0.000000 
#    z 0.000000 0.000000 4.182190 
# 
# 
# High freq. dielectric constant tensor:
#      x y z
#    x 1.774990 0.000000 0.000000 
#    y 0.000000 1.770020 0.000000 
#    z 0.000000 0.000000 1.823610 
# 
# From -- ./inp_files/20480.got.cif
#   From: 2010.03.12/outbox.cif.g09.slc.cpg/sg59_11_cif.got.tgz:20480.got - 2010.04.16 16:29:54.
