data_PCOD8246577
_publ_section_title
;
Structure prediction by ZEFSAII (Michael W. Deem and Ramdas Pophale) SiO2 
 PCOD8246577
Probable space group: P B C N
;
_chemical_formula_sum "Si O2"
_cell_formula_units_Z 56
_cell_length_a 5.996249
_cell_length_b 27.645445
_cell_length_c 17.067137
_cell_angle_alpha 90.000000
_cell_angle_beta 90.000000
_cell_angle_gamma 90.000000
_cell_volume 2829.201754
_symmetry_space_group_name_H-M "P B C N"
_symmetry_group_IT_number 60
_symmetry_cell_setting 'orthorhombic'
loop_
_space_group_symop_operation_xyz
x,y,z
1/2-x,1/2-y,1/2+z
1/2+x,1/2-y,-z
-x,y,1/2-z
-x,-y,-z
1/2+x,1/2+y,1/2-z
1/2-x,1/2+y,z
x,-y,1/2+z
loop_
_atom_site_type_symbol
_atom_site_label
_atom_site_fract_x
_atom_site_fract_y
_atom_site_fract_z
Si Si1 0.751226 0.742105 0.392496
Si Si2 0.939432 0.818932 0.501938
Si Si3 0.369374 0.173446 0.351444
Si Si4 0.935286 0.073306 0.004881
Si Si5 0.225886 0.005770 0.098372
Si Si6 0.000000 0.783285 0.750000
Si Si7 0.500000 0.530436 0.250000
Si Si8 0.372647 0.931513 0.848471
O O1 0.651247 0.710196 0.463911
O O2 0.570984 0.751009 0.323265
O O3 0.843004 0.792558 0.425057
O O4 0.943950 0.713858 0.347594
O O5 0.011341 0.873309 0.476486
O O6 0.743371 0.821995 0.564213
O O7 0.195137 0.181455 0.280868
O O8 0.489508 0.120956 0.339307
O O9 0.153263 0.041714 0.027363
O O10 0.777708 0.047899 0.939177
O O11 0.806499 0.077655 0.085206
O O12 0.465585 0.023821 0.129515
O O13 0.053035 0.000697 0.171065
O O14 0.268368 0.559208 0.268169
#
# Coordination Sequence:
#
# PCOD8246577 Si02
#       8
#     8   8   8   8   8   4   4   8
#     4  11  20  36  57  79 111 146 185 234 283 335
#     4  10  20  35  58  82 107 141 186 234 278 334
#     4  10  20  35  54  84 112 144 181 230 286 338
#     4   9  20  35  55  81 107 137 184 229 271 331
#     4  10  19  35  54  78 111 142 177 225 276 330
#     4  10  23  34  52  78 118 148 182 230 285 338
#     4  10  21  32  52  76 116 146 176 226 269 332
#     4  10  19  33  56  82 108 142 183 223 284 326
#
# _framework density 19.793569000000002
#
# number of rings (size 3 to 8) (size 9 to 14) (size 15 to 20)
#    0.000    2.000    1.429    2.571    0.000    4.571 
#    0.000    0.000    6.286    0.000    0.000    0.000 
#    0.000    0.000    0.000    0.000    0.000    0.000 
#
# Total GULP energy -693947.755257 kJ/mol
# GULP energy per Si atom -12391.924201 kJ/mol
# Density = 1.974852 g / cm^3
# Si number density = 19.793569 Si / 1000 Ang^3
#
#
#
# Elastic Constant Matrix: (Units=GPa)
#
#
# Indices 1 2 3 4 5 6 
#
# 1 63.0675 27.2602 17.2665 0.0000 0.0000 0.0000
# 2 27.2602 114.5372 48.6502 0.0000 0.0000 0.0000
# 3 17.2665 48.6502 90.0021 0.0000 0.0000 0.0000
# 4 0.0000 0.0000 0.0000 12.4386 0.0000 0.0000
# 5 0.0000 0.0000 0.0000 0.0000 33.2413 0.0000
# 6 0.0000 0.0000 0.0000 0.0000 0.0000 20.2591
#
#
#
# Elastic Compliance Matrix: (Units=1/GPa)
#
#
# Indices 1 2 3 4 5 6 
#
# 1 0.017821 -0.003621 -0.001462 0.000000 0.000000 0.000000
# 2 -0.003621 0.012068 -0.005829 0.000000 0.000000 0.000000
# 3 -0.001462 -0.005829 0.014542 0.000000 0.000000 0.000000
# 4 0.000000 0.000000 0.000000 0.080395 0.000000 0.000000
# 5 0.000000 0.000000 0.000000 0.000000 0.030083 0.000000
# 6 0.000000 0.000000 0.000000 0.000000 0.000000 0.049361
#
#
# Mechanical properties :
#
#
# Convention : Reuss Voigt Hill
#
# Bulk Modulus (GPa) = 44.23015 50.44008 47.33512
# Shear Modulus (GPa) = 21.40145 24.81647 23.10896
#
# Velocity S-wave (km/s) = 3.29178 3.54469 3.42057
# Velocity P-wave (km/s) = 6.06976 6.50319 6.29021
#
# Compressibility (1/GPa) = 0.02260901
#
# Stress axis : x y z
#
# Youngs Moduli (GPa) = 56.11292 82.86141 68.76596
#
# Poissons Ratio (x) = 0.30001 0.10052
# Poissons Ratio (y) = 0.20316 0.40083
# Poissons Ratio (z) = 0.08203 0.48299
#
# Static dielectric constant tensor:
#      x y z
#    x 3.554210 0.000000 0.000000 
#    y 0.000000 3.600630 0.000000 
#    z 0.000000 0.000000 3.739880 
# 
# 
# High freq. dielectric constant tensor:
#      x y z
#    x 1.769990 0.000000 0.000000 
#    y 0.000000 1.742390 0.000000 
#    z 0.000000 0.000000 1.776000 
# 
# From -- ./inp_files/14117.got.cif
#   From: 2010.03.12/outbox.cif.g09.slc.cpg/sg60_8_cif.got.tgz:14117.got - 2010.04.10 18:46:24.
