data_PCOD8246239
_publ_section_title
;
Structure prediction by ZEFSAII (Michael W. Deem and Ramdas Pophale) SiO2 
 PCOD8246239
Probable space group: P M M N
;
_chemical_formula_sum "Si O2"
_cell_formula_units_Z 56
_cell_length_a 14.576961
_cell_length_b 9.157552
_cell_length_c 21.970456
_cell_angle_alpha 90.000000
_cell_angle_beta 90.000000
_cell_angle_gamma 90.000000
_cell_volume 2932.820317
_symmetry_space_group_name_H-M "P M M N"
_symmetry_group_IT_number 59
_space_group.IT_coordinate_system_code '2'
_symmetry_cell_setting 'orthorhombic'
loop_
_space_group_symop_operation_xyz
x,y,z
1/2-x,1/2-y,z
1/2+x,-y,-z
-x,1/2+y,-z
-x,-y,-z
1/2+x,1/2+y,-z
1/2-x,y,z
x,1/2-y,z
loop_
_atom_site_type_symbol
_atom_site_label
_atom_site_fract_x
_atom_site_fract_y
_atom_site_fract_z
Si Si1 0.354216 0.919965 0.817364
Si Si2 0.140932 0.914699 0.052775
Si Si3 0.855918 0.920936 0.827327
Si Si4 0.355896 0.078859 0.508223
Si Si5 0.495981 0.577972 0.590786
Si Si6 0.507808 0.921408 0.726163
Si Si7 0.359101 0.414538 0.936188
O O1 0.250000 0.963519 0.802880
O O2 0.363947 0.750000 0.833681
O O3 0.411410 0.961987 0.757559
O O4 0.393841 0.008063 0.874811
O O5 0.250000 0.916313 0.050501
O O6 0.102831 0.750000 0.052459
O O7 0.106488 0.995063 0.113558
O O8 0.100870 0.999321 0.994257
O O9 0.750000 0.954492 0.815347
O O10 0.874311 0.750000 0.838446
O O11 0.909667 0.981023 0.768253
O O12 0.250000 0.027190 0.501272
O O13 0.360441 0.250000 0.521924
O O14 0.411853 0.040073 0.446782
O O15 0.404853 0.996098 0.563653
O O16 0.477027 0.750000 0.591591
O O17 0.510999 0.511777 0.658414
O O18 0.520273 0.750000 0.719647
O O19 0.250000 0.416913 0.938084
O O20 0.397133 0.250000 0.937720
#
# Coordination Sequence:
#
# PCOD8246239 Si02
#       7
#     8   8   8   8   8   8   8
#     4   9  17  30  47  66  91 123 157 195 241 290
#     4   9  16  27  45  68  93 122 158 200 246 294
#     4   9  17  30  48  69  94 124 158 198 244 292
#     4   9  18  33  53  78 108 138 167 204 250 294
#     4   9  18  33  53  77 104 135 172 209 244 290
#     4   9  18  32  50  73  99 127 162 201 238 282
#     4   9  16  27  45  68  92 119 156 202 248 292
#
# _framework density 19.094246999999999
#
# number of rings (size 3 to 8) (size 9 to 14) (size 15 to 20)
#    0.000    3.000    0.000    0.857    0.000    4.857 
#    0.000    7.143    0.000    1.714    0.000    2.000 
#    0.000    0.000    0.000    0.000    0.000    0.000 
#
# Total GULP energy -694264.766189 kJ/mol
# GULP energy per Si atom -12397.585111 kJ/mol
# Density = 1.905079 g / cm^3
# Si number density = 19.094247 Si / 1000 Ang^3
#
#
#
# Elastic Constant Matrix: (Units=GPa)
#
#
# Indices 1 2 3 4 5 6 
#
# 1 62.2574 15.6096 19.7483 0.0000 0.0000 0.0000
# 2 15.6096 65.6573 43.3278 0.0000 0.0000 0.0000
# 3 19.7483 43.3278 147.4674 0.0000 0.0000 0.0000
# 4 0.0000 0.0000 0.0000 27.5006 0.0000 0.0000
# 5 0.0000 0.0000 0.0000 0.0000 37.9740 0.0000
# 6 0.0000 0.0000 0.0000 0.0000 0.0000 11.9968
#
#
#
# Elastic Compliance Matrix: (Units=1/GPa)
#
#
# Indices 1 2 3 4 5 6 
#
# 1 0.017302 -0.003206 -0.001375 0.000000 0.000000 0.000000
# 2 -0.003206 0.019488 -0.005296 0.000000 0.000000 0.000000
# 3 -0.001375 -0.005296 0.008521 0.000000 0.000000 0.000000
# 4 0.000000 0.000000 0.000000 0.036363 0.000000 0.000000
# 5 0.000000 0.000000 0.000000 0.000000 0.026334 0.000000
# 6 0.000000 0.000000 0.000000 0.000000 0.000000 0.083355
#
#
# Mechanical properties :
#
#
# Convention : Reuss Voigt Hill
#
# Bulk Modulus (GPa) = 39.12887 48.08371 43.60629
# Shear Modulus (GPa) = 22.76471 28.60737 25.68604
#
# Velocity S-wave (km/s) = 3.45661 3.87488 3.67171
# Velocity P-wave (km/s) = 6.03886 6.72730 6.39236
#
# Compressibility (1/GPa) = 0.02555658
#
# Stress axis : x y z
#
# Youngs Moduli (GPa) = 57.79549 51.31353 117.35044
#
# Poissons Ratio (x) = 0.16452 0.16137
# Poissons Ratio (y) = 0.18530 0.62155
# Poissons Ratio (z) = 0.07947 0.27178
#
# Static dielectric constant tensor:
#      x y z
#    x 3.423390 0.000000 0.000000 
#    y 0.000000 3.373060 0.000000 
#    z 0.000000 0.000000 3.712410 
# 
# 
# High freq. dielectric constant tensor:
#      x y z
#    x 1.739920 0.000000 0.000000 
#    y 0.000000 1.721080 0.000000 
#    z 0.000000 0.000000 1.741510 
# 
# From -- ./inp_files/30342.got.cif
#   From: 2010.03.12/outbox.cif.g09.slc.cpg/sg59_16_cif.got.tgz:30342.got - 2010.04.16 16:29:54.
