data_PCOD8246399
_publ_section_title
;
Structure prediction by ZEFSAII (Michael W. Deem and Ramdas Pophale) SiO2 
 PCOD8246399
Probable space group: P B C N
;
_chemical_formula_sum "Si O2"
_cell_formula_units_Z 44
_cell_length_a 21.572813
_cell_length_b 5.569495
_cell_length_c 16.854616
_cell_angle_alpha 90.000000
_cell_angle_beta 90.000000
_cell_angle_gamma 90.000000
_cell_volume 2025.076620
_symmetry_space_group_name_H-M "P B C N"
_symmetry_group_IT_number 60
_symmetry_cell_setting 'orthorhombic'
loop_
_space_group_symop_operation_xyz
x,y,z
1/2-x,1/2-y,1/2+z
1/2+x,1/2-y,-z
-x,y,1/2-z
-x,-y,-z
1/2+x,1/2+y,1/2-z
1/2-x,1/2+y,z
x,-y,1/2+z
loop_
_atom_site_type_symbol
_atom_site_label
_atom_site_fract_x
_atom_site_fract_y
_atom_site_fract_z
Si Si1 0.732145 0.528495 0.977091
Si Si2 0.778659 0.434181 0.654625
Si Si3 0.096754 0.907963 0.984693
Si Si4 0.910433 0.407430 0.161957
Si Si5 0.500000 0.612021 0.250000
Si Si6 0.000480 0.781792 0.400868
O O1 0.758260 0.288022 0.932535
O O2 0.768984 0.564893 0.059992
O O3 0.659493 0.477184 0.983615
O O4 0.750153 0.685037 0.690016
O O5 0.851708 0.421635 0.680418
O O6 0.115572 0.765454 0.906042
O O7 0.063798 0.741092 0.051586
O O8 0.050877 0.123185 0.963405
O O9 0.936158 0.263711 0.238308
O O10 0.973084 0.534482 0.131829
O O11 0.487557 0.458532 0.171855
#
# Coordination Sequence:
#
# PCOD8246399 Si02
#       6
#     8   8   8   8   4   8
#     4  10  18  32  53  87 119 152 186 243 307 359
#     4  10  19  32  57  89 116 150 195 254 299 359
#     4  10  20  33  58  90 115 148 201 250 310 365
#     4  11  20  36  59  85 120 156 204 251 309 370
#     4  10  24  38  54  84 114 168 208 248 306 358
#     4  10  21  37  56  83 120 154 198 253 306 360
#
# _framework density 21.727571999999999
#
# number of rings (size 3 to 8) (size 9 to 14) (size 15 to 20)
#    0.000    1.818    3.636    3.273    2.545    0.000 
#    0.000    0.000    0.000    2.182    0.000    0.000 
#    0.000    0.000    0.000    0.000    0.000    0.000 
#
# Total GULP energy -545200.796381 kJ/mol
# GULP energy per Si atom -12390.927190 kJ/mol
# Density = 2.167812 g / cm^3
# Si number density = 21.727572 Si / 1000 Ang^3
#
#
#
# Elastic Constant Matrix: (Units=GPa)
#
#
# Indices 1 2 3 4 5 6 
#
# 1 101.3934 11.3760 20.4278 0.0000 0.0000 0.0000
# 2 11.3760 115.8156 -0.7022 0.0000 0.0000 0.0000
# 3 20.4278 -0.7022 25.0741 0.0000 0.0000 0.0000
# 4 0.0000 0.0000 0.0000 1.0310 0.0000 0.0000
# 5 0.0000 0.0000 0.0000 0.0000 20.5646 0.0000
# 6 0.0000 0.0000 0.0000 0.0000 0.0000 30.9772
#
#
#
# Elastic Compliance Matrix: (Units=1/GPa)
#
#
# Indices 1 2 3 4 5 6 
#
# 1 0.011973 -0.001235 -0.009789 0.000000 0.000000 0.000000
# 2 -0.001235 0.008763 0.001252 0.000000 0.000000 0.000000
# 3 -0.009789 0.001252 0.047892 0.000000 0.000000 0.000000
# 4 0.000000 0.000000 0.000000 0.969928 0.000000 0.000000
# 5 0.000000 0.000000 0.000000 0.000000 0.048627 0.000000
# 6 0.000000 0.000000 0.000000 0.000000 0.000000 0.032282
#
#
# Mechanical properties :
#
#
# Convention : Reuss Voigt Hill
#
# Bulk Modulus (GPa) = 20.37351 33.83181 27.10266
# Shear Modulus (GPa) = 4.32761 24.59332 14.46047
#
# Velocity S-wave (km/s) = 1.41283 3.36801 2.58260
# Velocity P-wave (km/s) = 3.47255 5.54341 4.62537
#
# Compressibility (1/GPa) = 0.04908335
#
# Stress axis : x y z
#
# Youngs Moduli (GPa) = 83.51802 114.11150 20.88017
#
# Poissons Ratio (x) = 0.14098 0.20440
# Poissons Ratio (y) = 0.10318 -0.02614
# Poissons Ratio (z) = 0.81759 -0.14286
#
# Static dielectric constant tensor:
#      x y z
#    x 3.953630 0.000000 0.000000 
#    y 0.000000 4.400130 0.000000 
#    z 0.000000 0.000000 3.511770 
# 
# 
# High freq. dielectric constant tensor:
#      x y z
#    x 1.862230 0.000000 0.000000 
#    y 0.000000 1.865140 0.000000 
#    z 0.000000 0.000000 1.785410 
# 
# From -- ./inp_files/21089.got.cif
#   From: 2010.03.12/outbox.cif.g09.slc.cpg/sg60_11_cif.got.tgz:21089.got - 2010.04.10 18:46:24.
