data_PCOD8246431
_publ_section_title
;
Structure prediction by ZEFSAII (Michael W. Deem and Ramdas Pophale) SiO2 
 PCOD8246431
Probable space group: P B C N
;
_chemical_formula_sum "Si O2"
_cell_formula_units_Z 48
_cell_length_a 12.328012
_cell_length_b 13.046850
_cell_length_c 16.475174
_cell_angle_alpha 90.000000
_cell_angle_beta 90.000000
_cell_angle_gamma 90.000000
_cell_volume 2649.895379
_symmetry_space_group_name_H-M "P B C N"
_symmetry_group_IT_number 60
_symmetry_cell_setting 'orthorhombic'
loop_
_space_group_symop_operation_xyz
x,y,z
1/2-x,1/2-y,1/2+z
1/2+x,1/2-y,-z
-x,y,1/2-z
-x,-y,-z
1/2+x,1/2+y,1/2-z
1/2-x,1/2+y,z
x,-y,1/2+z
loop_
_atom_site_type_symbol
_atom_site_label
_atom_site_fract_x
_atom_site_fract_y
_atom_site_fract_z
Si Si1 0.131197 0.686188 0.877287
Si Si2 0.603978 0.754837 0.415292
Si Si3 0.199881 0.842544 0.005529
Si Si4 0.206499 0.990749 0.363998
Si Si5 0.626156 0.351181 0.754641
Si Si6 0.021494 0.102504 0.952001
O O1 0.182170 0.735726 0.958014
O O2 0.182515 0.574201 0.862835
O O3 0.158705 0.754083 0.799374
O O4 0.000339 0.681325 0.884413
O O5 0.692914 0.838602 0.440105
O O6 0.653272 0.678158 0.347086
O O7 0.578303 0.686151 0.492192
O O8 0.209842 0.933506 0.940569
O O9 0.099686 0.857464 0.068886
O O10 0.099743 0.917733 0.374902
O O11 0.194569 0.051481 0.278816
O O12 0.500000 0.380232 0.750000
O O13 0.000000 0.000000 0.000000
#
# Coordination Sequence:
#
# PCOD8246431 Si02
#       6
#     8   8   8   8   8   8
#     4   9  18  33  51  77 105 141 169 219 270 311
#     4  10  18  34  55  76 111 135 178 220 264 316
#     4   9  18  31  53  80 103 135 175 222 258 307
#     4  10  18  34  55  78 106 138 177 212 270 314
#     4   9  19  35  52  74 104 143 178 215 262 313
#     4   9  17  31  54  78 100 129 181 223 245 306
#
# _framework density 18.113923
#
# number of rings (size 3 to 8) (size 9 to 14) (size 15 to 20)
#    0.000    2.667    1.667    3.000    0.000    0.667 
#    9.000    0.000    0.000    0.000    0.000    0.000 
#    0.000    0.000    0.000    0.000    0.000    0.000 
#
# Total GULP energy -594822.395034 kJ/mol
# GULP energy per Si atom -12392.133230 kJ/mol
# Density = 1.807269 g / cm^3
# Si number density = 18.113923 Si / 1000 Ang^3
#
#
#
# Elastic Constant Matrix: (Units=GPa)
#
#
# Indices 1 2 3 4 5 6 
#
# 1 114.8268 58.7398 37.7409 0.0000 0.0000 0.0000
# 2 58.7398 80.8575 29.5178 0.0000 0.0000 0.0000
# 3 37.7409 29.5178 41.3430 0.0000 0.0000 0.0000
# 4 0.0000 0.0000 0.0000 13.5078 0.0000 0.0000
# 5 0.0000 0.0000 0.0000 0.0000 25.6323 0.0000
# 6 0.0000 0.0000 0.0000 0.0000 0.0000 34.3659
#
#
#
# Elastic Compliance Matrix: (Units=1/GPa)
#
#
# Indices 1 2 3 4 5 6 
#
# 1 0.015757 -0.008380 -0.008401 0.000000 0.000000 0.000000
# 2 -0.008380 0.021184 -0.007475 0.000000 0.000000 0.000000
# 3 -0.008401 -0.007475 0.037194 0.000000 0.000000 0.000000
# 4 0.000000 0.000000 0.000000 0.074031 0.000000 0.000000
# 5 0.000000 0.000000 0.000000 0.000000 0.039013 0.000000
# 6 0.000000 0.000000 0.000000 0.000000 0.000000 0.029099
#
#
# Mechanical properties :
#
#
# Convention : Reuss Voigt Hill
#
# Bulk Modulus (GPa) = 39.02752 54.33604 46.68178
# Shear Modulus (GPa) = 18.29291 22.10311 20.19801
#
# Velocity S-wave (km/s) = 3.18131 3.49697 3.34287
# Velocity P-wave (km/s) = 5.92340 6.80933 6.38176
#
# Compressibility (1/GPa) = 0.02562294
#
# Stress axis : x y z
#
# Youngs Moduli (GPa) = 63.46541 47.20577 26.88616
#
# Poissons Ratio (x) = 0.39557 0.22587
# Poissons Ratio (y) = 0.53182 0.20098
# Poissons Ratio (z) = 0.53317 0.35287
#
# Static dielectric constant tensor:
#      x y z
#    x 3.507480 0.000000 0.000000 
#    y 0.000000 3.217950 0.000000 
#    z 0.000000 0.000000 3.213510 
# 
# 
# High freq. dielectric constant tensor:
#      x y z
#    x 1.699660 0.000000 0.000000 
#    y 0.000000 1.688260 0.000000 
#    z 0.000000 0.000000 1.679260 
# 
# From -- ./inp_files/16071.got.cif
#   From: 2010.03.12/outbox.cif.g09.slc.cpg/sg60_9_cif.got.tgz:16071.got - 2010.04.10 18:46:24.
