data_PCOD8246970
_publ_section_title
;
Structure prediction by ZEFSAII (Michael W. Deem and Ramdas Pophale) SiO2 
 PCOD8246970
Probable space group: P B C N
;
_chemical_formula_sum "Si O2"
_cell_formula_units_Z 48
_cell_length_a 14.242681
_cell_length_b 16.838405
_cell_length_c 10.145439
_cell_angle_alpha 90.000000
_cell_angle_beta 90.000000
_cell_angle_gamma 90.000000
_cell_volume 2433.120077
_symmetry_space_group_name_H-M "P B C N"
_symmetry_group_IT_number 60
_symmetry_cell_setting 'orthorhombic'
loop_
_space_group_symop_operation_xyz
x,y,z
1/2-x,1/2-y,1/2+z
1/2+x,1/2-y,-z
-x,y,1/2-z
-x,-y,-z
1/2+x,1/2+y,1/2-z
1/2-x,1/2+y,z
x,-y,1/2+z
loop_
_atom_site_type_symbol
_atom_site_label
_atom_site_fract_x
_atom_site_fract_y
_atom_site_fract_z
Si Si1 0.623334 0.560308 0.075096
Si Si2 0.763411 0.814249 0.720041
Si Si3 0.607081 0.936011 0.720653
Si Si4 0.961545 0.893359 0.112953
Si Si5 0.721709 0.684047 0.514745
Si Si6 0.806180 0.485150 0.980731
O O1 0.658666 0.617327 0.192607
O O2 0.580252 0.481127 0.139246
O O3 0.711639 0.537877 0.982400
O O4 0.545819 0.605988 0.991095
O O5 0.659785 0.851870 0.711793
O O6 0.772312 0.745572 0.611989
O O7 0.782005 0.780187 0.866491
O O8 0.500000 0.916769 0.750000
O O9 0.617144 0.983031 0.583834
O O10 0.651700 0.991237 0.834656
O O11 0.000000 0.859501 0.250000
O O12 0.883815 0.832750 0.061124
O O13 0.784406 0.605478 0.516878
#
# Coordination Sequence:
#
# PCOD8246970 Si02
#       6
#     8   8   8   8   8   8
#     4   9  21  37  61  90 121 152 190 257 299 352
#     4  10  23  40  59  82 125 162 196 236 300 354
#     4  10  20  37  61  84 113 146 197 244 277 341
#     4  10  22  34  65  94 119 147 204 251 303 357
#     4  10  23  39  57  86 120 161 195 239 295 360
#     4   9  20  36  61  86 112 152 192 236 299 339
#
# _framework density 19.727754000000001
#
# number of rings (size 3 to 8) (size 9 to 14) (size 15 to 20)
#    0.000    2.333    0.000    0.500   16.333    2.000 
#    3.000    0.000    0.000    0.000    0.000    0.000 
#    0.000    0.000    0.000    0.000    0.000    0.000 
#
# Total GULP energy -595350.642515 kJ/mol
# GULP energy per Si atom -12403.138386 kJ/mol
# Density = 1.968285 g / cm^3
# Si number density = 19.727754 Si / 1000 Ang^3
#
#
#
# Elastic Constant Matrix: (Units=GPa)
#
#
# Indices 1 2 3 4 5 6 
#
# 1 88.7789 15.0950 11.2771 0.0000 0.0000 0.0000
# 2 15.0950 56.6561 33.7913 0.0000 0.0000 0.0000
# 3 11.2771 33.7913 105.5155 0.0000 0.0000 0.0000
# 4 0.0000 0.0000 0.0000 32.0068 0.0000 0.0000
# 5 0.0000 0.0000 0.0000 0.0000 30.9952 0.0000
# 6 0.0000 0.0000 0.0000 0.0000 0.0000 16.7548
#
#
#
# Elastic Compliance Matrix: (Units=1/GPa)
#
#
# Indices 1 2 3 4 5 6 
#
# 1 0.011807 -0.002958 -0.000315 0.000000 0.000000 0.000000
# 2 -0.002958 0.022559 -0.006908 0.000000 0.000000 0.000000
# 3 -0.000315 -0.006908 0.011723 0.000000 0.000000 0.000000
# 4 0.000000 0.000000 0.000000 0.031243 0.000000 0.000000
# 5 0.000000 0.000000 0.000000 0.000000 0.032263 0.000000
# 6 0.000000 0.000000 0.000000 0.000000 0.000000 0.059684
#
#
# Mechanical properties :
#
#
# Convention : Reuss Voigt Hill
#
# Bulk Modulus (GPa) = 38.86962 41.25302 40.06132
# Shear Modulus (GPa) = 25.22486 28.67051 26.94769
#
# Velocity S-wave (km/s) = 3.57970 3.81636 3.69992
# Velocity P-wave (km/s) = 6.06889 6.35422 6.21319
#
# Compressibility (1/GPa) = 0.02572703
#
# Stress axis : x y z
#
# Youngs Moduli (GPa) = 84.69660 44.32864 85.30045
#
# Poissons Ratio (x) = 0.13113 0.02683
# Poissons Ratio (y) = 0.25054 0.58928
# Poissons Ratio (z) = 0.02664 0.30623
#
# Static dielectric constant tensor:
#      x y z
#    x 3.601880 0.000000 0.000000 
#    y 0.000000 3.324190 0.000000 
#    z 0.000000 0.000000 3.672200 
# 
# 
# High freq. dielectric constant tensor:
#      x y z
#    x 1.769710 0.000000 0.000000 
#    y 0.000000 1.745280 0.000000 
#    z 0.000000 0.000000 1.778160 
# 
# From -- ./inp_files/5941.got.cif
#   From: 2010.03.12/outbox.cif.g09.slc.cpg/sg60_3_cif.got.tgz:5941.got - 2010.04.10 18:46:24.
