data_PCOD8246824
_publ_section_title
;
Structure prediction by ZEFSAII (Michael W. Deem and Ramdas Pophale) SiO2 
 PCOD8246824
Probable space group: P B C N
;
_chemical_formula_sum "Si O2"
_cell_formula_units_Z 64
_cell_length_a 15.337117
_cell_length_b 23.509500
_cell_length_c 8.882899
_cell_angle_alpha 90.000000
_cell_angle_beta 90.000000
_cell_angle_gamma 90.000000
_cell_volume 3202.888701
_symmetry_space_group_name_H-M "P B C N"
_symmetry_group_IT_number 60
_symmetry_cell_setting 'orthorhombic'
loop_
_space_group_symop_operation_xyz
x,y,z
1/2-x,1/2-y,1/2+z
1/2+x,1/2-y,-z
-x,y,1/2-z
-x,-y,-z
1/2+x,1/2+y,1/2-z
1/2-x,1/2+y,z
x,-y,1/2+z
loop_
_atom_site_type_symbol
_atom_site_label
_atom_site_fract_x
_atom_site_fract_y
_atom_site_fract_z
Si Si1 0.254066 0.084713 0.784812
Si Si2 0.596547 0.332370 0.212577
Si Si3 0.657509 0.772709 0.908169
Si Si4 0.583178 0.041841 0.173332
Si Si5 0.082334 0.668202 0.336618
Si Si6 0.903504 0.318053 0.203150
Si Si7 0.805104 0.487607 0.935815
Si Si8 0.146727 0.756427 0.547936
O O1 0.161498 0.115016 0.773458
O O2 0.333932 0.130002 0.778219
O O3 0.257719 0.042766 0.638579
O O4 0.250091 0.050098 0.944940
O O5 0.500000 0.354749 0.250000
O O6 0.624379 0.285532 0.334322
O O7 0.598267 0.307264 0.040984
O O8 0.663655 0.820764 0.777099
O O9 0.590721 0.798528 0.029964
O O10 0.751375 0.764845 0.983988
O O11 0.500000 0.011380 0.250000
O O12 0.557829 0.104507 0.120832
O O13 0.661790 0.048781 0.293753
O O14 0.609467 0.006273 0.028615
O O15 0.109121 0.696181 0.491701
O O16 0.000000 0.697955 0.250000
O O17 0.873941 0.256643 0.277644
O O18 0.000000 0.338875 0.250000
#
# Coordination Sequence:
#
# PCOD8246824 Si02
#       8
#     8   8   8   8   8   8   8   8
#     4  11  23  43  59  88 112 159 202 250 301 340
#     4  11  23  42  64  85 119 159 197 239 295 352
#     4  11  20  36  56  88 122 152 190 229 279 349
#     4  10  20  34  56  82 114 157 193 228 287 354
#     4  10  20  34  52  78 114 156 190 219 275 349
#     4  12  22  35  59  93 129 155 186 230 286 355
#     4  10  23  38  57  80 118 148 200 260 290 332
#     4  11  20  36  56  88 122 152 190 229 279 349
#
# _framework density 19.981960999999998
#
# number of rings (size 3 to 8) (size 9 to 14) (size 15 to 20)
#    0.000    1.250    2.500    5.625    0.000    5.000 
#    0.000    0.625    0.000    0.000    0.000    0.000 
#    0.000    0.000    0.000    0.000    0.000    0.000 
#
# Total GULP energy -792852.825165 kJ/mol
# GULP energy per Si atom -12388.325393 kJ/mol
# Density = 1.993648 g / cm^3
# Si number density = 19.981961 Si / 1000 Ang^3
#
#
#
# Elastic Constant Matrix: (Units=GPa)
#
#
# Indices 1 2 3 4 5 6 
#
# 1 97.1375 29.3200 7.4566 0.0000 0.0000 0.0000
# 2 29.3200 73.1405 15.7005 0.0000 0.0000 0.0000
# 3 7.4566 15.7005 58.4798 0.0000 0.0000 0.0000
# 4 0.0000 0.0000 0.0000 19.5747 0.0000 0.0000
# 5 0.0000 0.0000 0.0000 0.0000 27.3135 0.0000
# 6 0.0000 0.0000 0.0000 0.0000 0.0000 25.1651
#
#
#
# Elastic Compliance Matrix: (Units=1/GPa)
#
#
# Indices 1 2 3 4 5 6 
#
# 1 0.011715 -0.004643 -0.000247 0.000000 0.000000 0.000000
# 2 -0.004643 0.016349 -0.003797 0.000000 0.000000 0.000000
# 3 -0.000247 -0.003797 0.018151 0.000000 0.000000 0.000000
# 4 0.000000 0.000000 0.000000 0.051086 0.000000 0.000000
# 5 0.000000 0.000000 0.000000 0.000000 0.036612 0.000000
# 6 0.000000 0.000000 0.000000 0.000000 0.000000 0.039738
#
#
# Mechanical properties :
#
#
# Convention : Reuss Voigt Hill
#
# Bulk Modulus (GPa) = 34.67453 37.07910 35.87682
# Shear Modulus (GPa) = 24.92036 26.16271 25.54154
#
# Velocity S-wave (km/s) = 3.53532 3.62237 3.57911
# Velocity P-wave (km/s) = 5.83569 6.00766 5.92230
#
# Compressibility (1/GPa) = 0.02883961
#
# Stress axis : x y z
#
# Youngs Moduli (GPa) = 85.35939 61.16670 55.09363
#
# Poissons Ratio (x) = 0.28401 0.01362
# Poissons Ratio (y) = 0.39634 0.20920
# Poissons Ratio (z) = 0.02110 0.23226
#
# Static dielectric constant tensor:
#      x y z
#    x 3.549400 0.000000 0.000000 
#    y 0.000000 3.538010 0.000000 
#    z 0.000000 0.000000 3.853460 
# 
# 
# High freq. dielectric constant tensor:
#      x y z
#    x 1.762160 0.000000 0.000000 
#    y 0.000000 1.760970 0.000000 
#    z 0.000000 0.000000 1.800950 
# 
# From -- ./inp_files/6291.got.cif
#   From: 2010.03.12/outbox.cif.g09.slc.cpg/sg60_4_cif.got.tgz:6291.got - 2010.04.10 18:46:24.
