data_PCOD8246544
_publ_section_title
;
Structure prediction by ZEFSAII (Michael W. Deem and Ramdas Pophale) SiO2 
 PCOD8246544
Probable space group: P B C N
;
_chemical_formula_sum "Si O2"
_cell_formula_units_Z 64
_cell_length_a 9.521963
_cell_length_b 19.921276
_cell_length_c 19.572846
_cell_angle_alpha 90.000000
_cell_angle_beta 90.000000
_cell_angle_gamma 90.000000
_cell_volume 3712.766366
_symmetry_space_group_name_H-M "P B C N"
_symmetry_group_IT_number 60
_symmetry_cell_setting 'orthorhombic'
loop_
_space_group_symop_operation_xyz
x,y,z
1/2-x,1/2-y,1/2+z
1/2+x,1/2-y,-z
-x,y,1/2-z
-x,-y,-z
1/2+x,1/2+y,1/2-z
1/2-x,1/2+y,z
x,-y,1/2+z
loop_
_atom_site_type_symbol
_atom_site_label
_atom_site_fract_x
_atom_site_fract_y
_atom_site_fract_z
Si Si1 0.174749 0.475660 0.566630
Si Si2 0.125595 0.815187 0.063049
Si Si3 0.687482 0.696337 0.593734
Si Si4 0.146118 0.513368 0.413714
Si Si5 0.315699 0.841528 0.939228
Si Si6 0.823297 0.076815 0.684437
Si Si7 0.869626 0.669118 0.468081
Si Si8 0.855165 0.067763 0.839082
O O1 0.206647 0.497004 0.488778
O O2 0.189174 0.394921 0.573291
O O3 0.287850 0.508323 0.616794
O O4 0.020155 0.499962 0.588351
O O5 0.171638 0.737124 0.073098
O O6 0.175803 0.859689 0.127050
O O7 0.958013 0.819216 0.054638
O O8 0.191608 0.844653 0.994231
O O9 0.701880 0.776085 0.609388
O O10 0.694938 0.655363 0.664421
O O11 0.810328 0.670900 0.544531
O O12 0.185879 0.590452 0.394897
O O13 0.213473 0.467392 0.356590
O O14 0.463585 0.837774 0.979150
O O15 0.787977 0.069525 0.764012
O O16 0.979580 0.052492 0.665920
#
# Coordination Sequence:
#
# PCOD8246544 Si02
#       8
#     8   8   8   8   8   8   8   8
#     4  10  19  32  51  76 104 131 164 208 252 298
#     4   9  17  30  49  72  97 127 163 202 246 292
#     4   9  17  30  49  72  97 127 163 202 246 292
#     4  10  19  32  51  76 104 131 164 208 252 298
#     4   9  17  30  49  74 100 124 159 206 249 289
#     4  10  21  35  50  71 101 135 170 207 249 300
#     4   9  17  30  49  74 100 124 159 206 249 289
#     4  10  21  35  50  71 101 135 170 207 249 300
#
# _framework density 17.237818999999998
#
# number of rings (size 3 to 8) (size 9 to 14) (size 15 to 20)
#    0.000    2.500    2.500    0.000    0.000    2.000 
#    0.000    1.250    0.000    4.500    0.000    0.000 
#    0.000    0.000    0.000    0.000    0.000    0.000 
#
# Total GULP energy -793400.847351 kJ/mol
# GULP energy per Si atom -12396.888240 kJ/mol
# Density = 1.719859 g / cm^3
# Si number density = 17.237819 Si / 1000 Ang^3
#
#
#
# Elastic Constant Matrix: (Units=GPa)
#
#
# Indices 1 2 3 4 5 6 
#
# 1 21.8404 12.0791 3.4460 0.0000 0.0000 0.0000
# 2 12.0791 91.8911 18.2677 0.0000 0.0000 0.0000
# 3 3.4460 18.2677 49.6037 0.0000 0.0000 0.0000
# 4 0.0000 0.0000 0.0000 22.3085 0.0000 0.0000
# 5 0.0000 0.0000 0.0000 0.0000 22.7365 0.0000
# 6 0.0000 0.0000 0.0000 0.0000 0.0000 25.8299
#
#
#
# Elastic Compliance Matrix: (Units=1/GPa)
#
#
# Indices 1 2 3 4 5 6 
#
# 1 0.049434 -0.006275 -0.001123 0.000000 0.000000 0.000000
# 2 -0.006275 0.012539 -0.004182 0.000000 0.000000 0.000000
# 3 -0.001123 -0.004182 0.021778 0.000000 0.000000 0.000000
# 4 0.000000 0.000000 0.000000 0.044826 0.000000 0.000000
# 5 0.000000 0.000000 0.000000 0.000000 0.043982 0.000000
# 6 0.000000 0.000000 0.000000 0.000000 0.000000 0.038715
#
#
# Mechanical properties :
#
#
# Convention : Reuss Voigt Hill
#
# Bulk Modulus (GPa) = 16.50413 25.65789 21.08101
# Shear Modulus (GPa) = 19.63628 22.81114 21.22371
#
# Velocity S-wave (km/s) = 3.37878 3.64169 3.51269
# Velocity P-wave (km/s) = 4.98163 5.70960 5.35799
#
# Compressibility (1/GPa) = 0.06059090
#
# Stress axis : x y z
#
# Youngs Moduli (GPa) = 20.22883 79.75380 45.91819
#
# Poissons Ratio (x) = 0.50044 0.05159
# Poissons Ratio (y) = 0.12693 0.19202
# Poissons Ratio (z) = 0.02273 0.33351
#
# Static dielectric constant tensor:
#      x y z
#    x 3.204900 0.000000 0.000000 
#    y 0.000000 3.568660 0.000000 
#    z 0.000000 0.000000 2.926530 
# 
# 
# High freq. dielectric constant tensor:
#      x y z
#    x 1.664650 0.000000 0.000000 
#    y 0.000000 1.683870 0.000000 
#    z 0.000000 0.000000 1.623850 
# 
# From -- ./inp_files/22432.got.cif
#   From: 2010.03.12/outbox.cif.g09.slc.cpg/sg60_12_cif.got.tgz:22432.got - 2010.04.10 18:46:24.
