data_PCOD8246873
_publ_section_title
;
Structure prediction by ZEFSAII (Michael W. Deem and Ramdas Pophale) SiO2 
 PCOD8246873
Probable space group: P B C N
;
_chemical_formula_sum "Si O2"
_cell_formula_units_Z 60
_cell_length_a 23.837846
_cell_length_b 19.367352
_cell_length_c 5.367171
_cell_angle_alpha 90.000000
_cell_angle_beta 90.000000
_cell_angle_gamma 90.000000
_cell_volume 2477.893794
_symmetry_space_group_name_H-M "P B C N"
_symmetry_group_IT_number 60
_symmetry_cell_setting 'orthorhombic'
loop_
_space_group_symop_operation_xyz
x,y,z
1/2-x,1/2-y,1/2+z
1/2+x,1/2-y,-z
-x,y,1/2-z
-x,-y,-z
1/2+x,1/2+y,1/2-z
1/2-x,1/2+y,z
x,-y,1/2+z
loop_
_atom_site_type_symbol
_atom_site_label
_atom_site_fract_x
_atom_site_fract_y
_atom_site_fract_z
Si Si1 0.680167 0.262256 0.681345
Si Si2 0.060516 0.813926 0.374781
Si Si3 0.207527 0.815778 0.316730
Si Si4 0.909428 0.314441 0.925007
Si Si5 0.401647 0.532204 0.870303
Si Si6 0.566336 0.960202 0.753233
Si Si7 0.000000 0.735250 0.750000
Si Si8 0.771613 0.968841 0.130740
O O1 0.745260 0.242498 0.701915
O O2 0.665360 0.298840 0.947411
O O3 0.640232 0.195652 0.629364
O O4 0.674711 0.316485 0.449215
O O5 0.095648 0.752798 0.247127
O O6 0.094846 0.884915 0.370932
O O7 0.000000 0.826087 0.250000
O O8 0.049177 0.786087 0.653502
O O9 0.238093 0.887563 0.365756
O O10 0.902967 0.385714 0.774606
O O11 0.971713 0.315318 0.048231
O O12 0.430348 0.499822 0.119953
O O13 0.336939 0.510635 0.869056
O O14 0.500000 0.950093 0.750000
O O15 0.585640 0.994812 0.493487
O O16 0.743078 0.998405 0.878406
#
# Coordination Sequence:
#
# PCOD8246873 Si02
#       8
#     8   8   8   8   8   8   4   8
#     4  10  23  38  67  90 123 158 201 255 317 361
#     4  10  23  39  57  85 119 163 206 255 306 352
#     4  10  21  42  60  95 122 156 204 256 306 378
#     4  11  24  40  64  94 122 166 207 264 308 381
#     4  10  23  37  56  84 118 159 209 248 297 360
#     4  10  23  40  62  88 124 164 205 252 311 376
#     4  10  24  38  60  90 126 156 218 256 312 360
#     4  10  20  35  58  85 116 157 196 242 297 359
#
# _framework density 24.214112
#
# number of rings (size 3 to 8) (size 9 to 14) (size 15 to 20)
#    0.000    1.867    0.000    2.800   12.133    1.600 
#    0.000    1.333    0.000    0.000    0.000    0.000 
#    0.000    0.000    0.000    0.000    0.000    0.000 
#
# Total GULP energy -743767.226418 kJ/mol
# GULP energy per Si atom -12396.120440 kJ/mol
# Density = 2.415900 g / cm^3
# Si number density = 24.214112 Si / 1000 Ang^3
#
#
#
# Elastic Constant Matrix: (Units=GPa)
#
#
# Indices 1 2 3 4 5 6 
#
# 1 12.3618 1.4559 8.8680 0.0000 0.0000 0.0000
# 2 1.4559 147.4355 70.8201 0.0000 0.0000 0.0000
# 3 8.8680 70.8201 204.8278 0.0000 0.0000 0.0000
# 4 0.0000 0.0000 0.0000 39.7822 0.0000 0.0000
# 5 0.0000 0.0000 0.0000 0.0000 15.7826 0.0000
# 6 0.0000 0.0000 0.0000 0.0000 0.0000 18.1325
#
#
#
# Elastic Compliance Matrix: (Units=1/GPa)
#
#
# Indices 1 2 3 4 5 6 
#
# 1 0.083635 0.001095 -0.004000 0.000000 0.000000 0.000000
# 2 0.001095 0.008148 -0.002865 0.000000 0.000000 0.000000
# 3 -0.004000 -0.002865 0.006046 0.000000 0.000000 0.000000
# 4 0.000000 0.000000 0.000000 0.025137 0.000000 0.000000
# 5 0.000000 0.000000 0.000000 0.000000 0.063361 0.000000
# 6 0.000000 0.000000 0.000000 0.000000 0.000000 0.055150
#
#
# Mechanical properties :
#
#
# Convention : Reuss Voigt Hill
#
# Bulk Modulus (GPa) = 11.58879 58.54591 35.06735
# Shear Modulus (GPa) = 17.74455 33.63821 25.69138
#
# Velocity S-wave (km/s) = 2.71000 3.73124 3.26085
# Velocity P-wave (km/s) = 3.81949 6.54170 5.35641
#
# Compressibility (1/GPa) = 0.08629026
#
# Stress axis : x y z
#
# Youngs Moduli (GPa) = 11.95679 122.73274 165.40555
#
# Poissons Ratio (x) = -0.13443 0.66157
# Poissons Ratio (y) = -0.01310 0.47381
# Poissons Ratio (z) = 0.04782 0.35157
#
# Static dielectric constant tensor:
#      x y z
#    x 3.937110 0.000000 0.000000 
#    y 0.000000 3.985780 0.000000 
#    z 0.000000 0.000000 4.982410 
# 
# 
# High freq. dielectric constant tensor:
#      x y z
#    x 1.937050 0.000000 0.000000 
#    y 0.000000 1.946390 0.000000 
#    z 0.000000 0.000000 1.983440 
# 
# From -- ./inp_files/2606.got.cif
#   From: 2010.03.12/outbox.cif.g09.slc.cpg/sg60_2_cif.got.tgz:2606.got - 2010.04.10 18:46:24.
