data_PCOD8246658
_publ_section_title
;
Structure prediction by ZEFSAII (Michael W. Deem and Ramdas Pophale) SiO2 
 PCOD8246658
Probable space group: P B C N
;
_chemical_formula_sum "Si O2"
_cell_formula_units_Z 64
_cell_length_a 13.649009
_cell_length_b 9.259109
_cell_length_c 22.694642
_cell_angle_alpha 90.000000
_cell_angle_beta 90.000000
_cell_angle_gamma 90.000000
_cell_volume 2868.095798
_symmetry_space_group_name_H-M "P B C N"
_symmetry_group_IT_number 60
_symmetry_cell_setting 'orthorhombic'
loop_
_space_group_symop_operation_xyz
x,y,z
1/2-x,1/2-y,1/2+z
1/2+x,1/2-y,-z
-x,y,1/2-z
-x,-y,-z
1/2+x,1/2+y,1/2-z
1/2-x,1/2+y,z
x,-y,1/2+z
loop_
_atom_site_type_symbol
_atom_site_label
_atom_site_fract_x
_atom_site_fract_y
_atom_site_fract_z
Si Si1 0.187702 0.148499 0.263747
Si Si2 0.950282 0.318360 0.163437
Si Si3 0.360995 0.894252 0.975907
Si Si4 0.711495 0.823416 0.071666
Si Si5 0.338578 0.650510 0.823835
Si Si6 0.286042 0.092956 0.140657
Si Si7 0.511172 0.859312 0.636247
Si Si8 0.645002 0.201859 0.897531
O O1 0.091097 0.250753 0.274857
O O2 0.275299 0.213060 0.302192
O O3 0.225704 0.146425 0.197486
O O4 0.160656 0.984535 0.280525
O O5 0.876998 0.264929 0.112135
O O6 0.954273 0.492853 0.168749
O O7 0.056388 0.255538 0.146210
O O8 0.261798 0.806426 0.963166
O O9 0.448741 0.861105 0.930674
O O10 0.331138 0.061673 0.974652
O O11 0.399986 0.858088 0.041361
O O12 0.792831 0.900035 0.113787
O O13 0.447173 0.717645 0.830880
O O14 0.394926 0.157763 0.138073
O O15 0.217795 0.164066 0.089734
O O16 0.289090 0.921748 0.133854
#
# Coordination Sequence:
#
# PCOD8246658 Si02
#       8
#     8   8   8   8   8   8   8   8
#     4  11  21  38  63  85 118 159 199 254 308 351
#     4   9  20  38  61  87 116 158 208 247 295 369
#     4  10  19  35  62  90 121 160 195 247 305 349
#     4   9  17  33  58  89 118 150 200 248 295 360
#     4  10  19  36  62  93 120 154 203 250 301 365
#     4  11  25  42  58  86 125 161 203 253 304 362
#     4   9  21  40  63  92 122 155 204 251 299 365
#     4  11  24  40  59  88 124 161 206 250 303 367
#
# _framework density 22.314457000000001
#
# number of rings (size 3 to 8) (size 9 to 14) (size 15 to 20)
#    0.000    2.000    0.000    5.250    0.000    7.500 
#    0.000    5.000    0.000    5.250    0.000    0.000 
#    0.000    0.000    0.000    0.000    0.000    0.000 
#
# Total GULP energy -793330.221756 kJ/mol
# GULP energy per Si atom -12395.784715 kJ/mol
# Density = 2.226367 g / cm^3
# Si number density = 22.314457 Si / 1000 Ang^3
#
#
#
# Elastic Constant Matrix: (Units=GPa)
#
#
# Indices 1 2 3 4 5 6 
#
# 1 131.3599 56.5539 31.9069 0.0000 0.0000 0.0000
# 2 56.5539 79.7254 24.5213 0.0000 0.0000 0.0000
# 3 31.9069 24.5213 77.2818 0.0000 0.0000 0.0000
# 4 0.0000 0.0000 0.0000 30.4666 0.0000 0.0000
# 5 0.0000 0.0000 0.0000 0.0000 26.2022 0.0000
# 6 0.0000 0.0000 0.0000 0.0000 0.0000 40.0345
#
#
#
# Elastic Compliance Matrix: (Units=1/GPa)
#
#
# Indices 1 2 3 4 5 6 
#
# 1 0.011335 -0.007315 -0.002359 0.000000 0.000000 0.000000
# 2 -0.007315 0.018620 -0.002888 0.000000 0.000000 0.000000
# 3 -0.002359 -0.002888 0.014830 0.000000 0.000000 0.000000
# 4 0.000000 0.000000 0.000000 0.032823 0.000000 0.000000
# 5 0.000000 0.000000 0.000000 0.000000 0.038165 0.000000
# 6 0.000000 0.000000 0.000000 0.000000 0.000000 0.024978
#
#
# Mechanical properties :
#
#
# Convention : Reuss Voigt Hill
#
# Bulk Modulus (GPa) = 50.86100 57.14793 54.00446
# Shear Modulus (GPa) = 28.99752 31.03301 30.01527
#
# Velocity S-wave (km/s) = 3.60876 3.73327 3.67154
# Velocity P-wave (km/s) = 6.34086 6.65199 6.49829
#
# Compressibility (1/GPa) = 0.01966143
#
# Stress axis : x y z
#
# Youngs Moduli (GPa) = 88.22298 53.70476 67.43152
#
# Poissons Ratio (x) = 0.39285 0.15905
# Poissons Ratio (y) = 0.64535 0.19475
# Poissons Ratio (z) = 0.20809 0.15510
#
# Static dielectric constant tensor:
#      x y z
#    x 4.010240 0.000000 0.000000 
#    y 0.000000 3.930990 0.000000 
#    z 0.000000 0.000000 3.927940 
# 
# 
# High freq. dielectric constant tensor:
#      x y z
#    x 1.882890 0.000000 0.000000 
#    y 0.000000 1.868780 0.000000 
#    z 0.000000 0.000000 1.870890 
# 
# From -- ./inp_files/24469.got.cif
#   From: 2010.03.12/outbox.cif.g09.slc.cpg/sg60_13_cif.got.tgz:24469.got - 2010.04.10 18:46:24.
