data_PCOD8246952
_publ_section_title
;
Structure prediction by ZEFSAII (Michael W. Deem and Ramdas Pophale) SiO2 
 PCOD8246952
Probable space group: P B C N
;
_chemical_formula_sum "Si O2"
_cell_formula_units_Z 48
_cell_length_a 26.552832
_cell_length_b 10.251153
_cell_length_c 8.787403
_cell_angle_alpha 90.000000
_cell_angle_beta 90.000000
_cell_angle_gamma 90.000000
_cell_volume 2391.905995
_symmetry_space_group_name_H-M "P B C N"
_symmetry_group_IT_number 60
_symmetry_cell_setting 'orthorhombic'
loop_
_space_group_symop_operation_xyz
x,y,z
1/2-x,1/2-y,1/2+z
1/2+x,1/2-y,-z
-x,y,1/2-z
-x,-y,-z
1/2+x,1/2+y,1/2-z
1/2-x,1/2+y,z
x,-y,1/2+z
loop_
_atom_site_type_symbol
_atom_site_label
_atom_site_fract_x
_atom_site_fract_y
_atom_site_fract_z
Si Si1 0.212518 0.872008 0.134152
Si Si2 0.740011 0.638878 0.524388
Si Si3 0.608811 0.474697 0.251038
Si Si4 0.631786 0.325758 0.967986
Si Si5 0.500000 0.954048 0.250000
Si Si6 0.543978 0.160306 0.039164
Si Si7 0.000000 0.138244 0.750000
O O1 0.243004 0.865676 0.293227
O O2 0.152510 0.892526 0.159745
O O3 0.216802 0.733411 0.044362
O O4 0.238376 0.991288 0.040914
O O5 0.689473 0.714475 0.472148
O O6 0.619988 0.454094 0.073067
O O7 0.615321 0.626919 0.298881
O O8 0.550646 0.440707 0.289422
O O9 0.601930 0.203345 0.036336
O O10 0.530804 0.865860 0.365000
O O11 0.539670 0.037675 0.151276
O O12 0.508164 0.274882 0.099570
#
# Coordination Sequence:
#
# PCOD8246952 Si02
#       7
#     8   8   8   8   4   8   4
#     4  10  20  37  58  82 113 148 185 230 279 333
#     4  10  20  37  58  81 111 145 183 227 278 329
#     4   9  19  33  53  79 110 138 172 219 270 324
#     4   9  19  34  52  77 106 136 171 216 266 323
#     4   9  18  33  50  68  98 139 176 219 258 302
#     4   9  18  33  50  70 100 135 175 215 259 309
#     4   9  18  33  52  78 106 135 172 217 266 322
#
# _framework density 20.067678000000001
#
# number of rings (size 3 to 8) (size 9 to 14) (size 15 to 20)
#    0.000    2.667    0.000    1.000    0.000    6.000 
#    0.000   10.000    0.000    0.000    0.000    0.000 
#    0.000    0.000    0.000    0.000    0.000    0.000 
#
# Total GULP energy -594678.278424 kJ/mol
# GULP energy per Si atom -12389.130801 kJ/mol
# Density = 2.002200 g / cm^3
# Si number density = 20.067678 Si / 1000 Ang^3
#
#
#
# Elastic Constant Matrix: (Units=GPa)
#
#
# Indices 1 2 3 4 5 6 
#
# 1 84.4015 19.2569 11.3938 0.0000 0.0000 0.0000
# 2 19.2569 57.2710 19.4274 0.0000 0.0000 0.0000
# 3 11.3938 19.4274 96.8951 0.0000 0.0000 0.0000
# 4 0.0000 0.0000 0.0000 17.2232 0.0000 0.0000
# 5 0.0000 0.0000 0.0000 0.0000 21.8561 0.0000
# 6 0.0000 0.0000 0.0000 0.0000 0.0000 12.5781
#
#
#
# Elastic Compliance Matrix: (Units=1/GPa)
#
#
# Indices 1 2 3 4 5 6 
#
# 1 0.012876 -0.004094 -0.000693 0.000000 0.000000 0.000000
# 2 -0.004094 0.020037 -0.003536 0.000000 0.000000 0.000000
# 3 -0.000693 -0.003536 0.011111 0.000000 0.000000 0.000000
# 4 0.000000 0.000000 0.000000 0.058061 0.000000 0.000000
# 5 0.000000 0.000000 0.000000 0.000000 0.045754 0.000000
# 6 0.000000 0.000000 0.000000 0.000000 0.000000 0.079503
#
#
# Mechanical properties :
#
#
# Convention : Reuss Voigt Hill
#
# Bulk Modulus (GPa) = 36.52708 37.63598 37.08153
# Shear Modulus (GPa) = 19.75392 22.89746 21.32569
#
# Velocity S-wave (km/s) = 3.14086 3.38155 3.26343
# Velocity P-wave (km/s) = 5.60311 5.83453 5.71999
#
# Compressibility (1/GPa) = 0.02737695
#
# Stress axis : x y z
#
# Youngs Moduli (GPa) = 77.66479 49.90775 90.00168
#
# Poissons Ratio (x) = 0.20434 0.06239
# Poissons Ratio (y) = 0.31798 0.31824
# Poissons Ratio (z) = 0.05383 0.17647
#
# Static dielectric constant tensor:
#      x y z
#    x 3.595690 0.000000 0.000000 
#    y 0.000000 3.445740 0.000000 
#    z 0.000000 0.000000 3.836490 
# 
# 
# High freq. dielectric constant tensor:
#      x y z
#    x 1.771720 0.000000 0.000000 
#    y 0.000000 1.761400 0.000000 
#    z 0.000000 0.000000 1.795540 
# 
# From -- ./inp_files/7872.got.cif
#   From: 2010.03.12/outbox.cif.g09.slc.cpg/sg60_4_cif.got.tgz:7872.got - 2010.04.10 18:46:24.
