data_PCOD8246679
_publ_section_title
;
Structure prediction by ZEFSAII (Michael W. Deem and Ramdas Pophale) SiO2 
 PCOD8246679
Probable space group: P B C N
;
_chemical_formula_sum "Si O2"
_cell_formula_units_Z 64
_cell_length_a 14.324030
_cell_length_b 8.982430
_cell_length_c 23.706547
_cell_angle_alpha 90.000000
_cell_angle_beta 90.000000
_cell_angle_gamma 90.000000
_cell_volume 3050.193311
_symmetry_space_group_name_H-M "P B C N"
_symmetry_group_IT_number 60
_symmetry_cell_setting 'orthorhombic'
loop_
_space_group_symop_operation_xyz
x,y,z
1/2-x,1/2-y,1/2+z
1/2+x,1/2-y,-z
-x,y,1/2-z
-x,-y,-z
1/2+x,1/2+y,1/2-z
1/2-x,1/2+y,z
x,-y,1/2+z
loop_
_atom_site_type_symbol
_atom_site_label
_atom_site_fract_x
_atom_site_fract_y
_atom_site_fract_z
Si Si1 0.268251 0.569601 0.334667
Si Si2 0.160261 0.383402 0.946167
Si Si3 0.524901 0.294124 0.421163
Si Si4 0.162655 0.289421 0.486593
Si Si5 0.566815 0.678125 0.300308
Si Si6 0.447741 0.600460 0.398484
Si Si7 0.924161 0.829727 0.295564
Si Si8 0.766261 0.682352 0.746803
O O1 0.189981 0.570714 0.382894
O O2 0.368249 0.517127 0.360282
O O3 0.285010 0.735714 0.312651
O O4 0.240070 0.484832 0.277104
O O5 0.232215 0.268828 0.976016
O O6 0.159177 0.532423 0.983345
O O7 0.058418 0.309067 0.944761
O O8 0.621991 0.258006 0.452758
O O9 0.500523 0.468162 0.431279
O O10 0.542366 0.265079 0.355194
O O11 0.095309 0.218230 0.440436
O O12 0.500000 0.725287 0.250000
O O13 0.517821 0.699610 0.360685
O O14 0.594882 0.505901 0.296088
O O15 0.654356 0.789409 0.293823
O O16 0.826997 0.758121 0.276848
O O17 0.000000 0.782335 0.250000
#
# Coordination Sequence:
#
# PCOD8246679 Si02
#       8
#     8   8   8   8   8   8   8   8
#     4  11  20  35  64  90 123 163 211 257 303 389
#     4  11  23  42  66  96 128 165 218 274 321 380
#     4  11  23  44  68  92 126 170 221 268 326 387
#     4  11  24  43  66  96 123 165 220 272 322 383
#     4  10  19  36  58  86 126 162 202 255 311 385
#     4  10  20  40  65  90 122 170 216 261 322 378
#     4  10  21  41  62  89 127 169 204 256 325 384
#     4  12  20  36  58  94 124 163 210 253 317 377
#
# _framework density 20.982277
#
# number of rings (size 3 to 8) (size 9 to 14) (size 15 to 20)
#    0.000    1.250    2.500    6.750    0.000    0.000 
#    9.000    0.625    0.000    0.000    0.000    0.000 
#    0.000    0.000    0.000    0.000    0.000    0.000 
#
# Total GULP energy -793509.572010 kJ/mol
# GULP energy per Si atom -12398.587063 kJ/mol
# Density = 2.093452 g / cm^3
# Si number density = 20.982277 Si / 1000 Ang^3
#
#
#
# Elastic Constant Matrix: (Units=GPa)
#
#
# Indices 1 2 3 4 5 6 
#
# 1 99.0114 24.1618 46.9503 0.0000 0.0000 0.0000
# 2 24.1618 52.5224 25.4698 0.0000 0.0000 0.0000
# 3 46.9503 25.4698 95.5615 0.0000 0.0000 0.0000
# 4 0.0000 0.0000 0.0000 14.2762 0.0000 0.0000
# 5 0.0000 0.0000 0.0000 0.0000 37.7825 0.0000
# 6 0.0000 0.0000 0.0000 0.0000 0.0000 30.4830
#
#
#
# Elastic Compliance Matrix: (Units=1/GPa)
#
#
# Indices 1 2 3 4 5 6 
#
# 1 0.013703 -0.003490 -0.005802 0.000000 0.000000 0.000000
# 2 -0.003490 0.022754 -0.004350 0.000000 0.000000 0.000000
# 3 -0.005802 -0.004350 0.014475 0.000000 0.000000 0.000000
# 4 0.000000 0.000000 0.000000 0.070047 0.000000 0.000000
# 5 0.000000 0.000000 0.000000 0.000000 0.026467 0.000000
# 6 0.000000 0.000000 0.000000 0.000000 0.000000 0.032805
#
#
# Mechanical properties :
#
#
# Convention : Reuss Voigt Hill
#
# Bulk Modulus (GPa) = 42.28789 48.91767 45.60278
# Shear Modulus (GPa) = 23.21068 26.54255 24.87662
#
# Velocity S-wave (km/s) = 3.32957 3.56054 3.44699
# Velocity P-wave (km/s) = 5.91433 6.34568 6.13380
#
# Compressibility (1/GPa) = 0.02364743
#
# Stress axis : x y z
#
# Youngs Moduli (GPa) = 72.97755 43.94741 69.08700
#
# Poissons Ratio (x) = 0.15338 0.40085
# Poissons Ratio (y) = 0.25470 0.30053
# Poissons Ratio (z) = 0.42343 0.19117
#
# Static dielectric constant tensor:
#      x y z
#    x 3.983160 0.000000 0.000000 
#    y 0.000000 3.573640 0.000000 
#    z 0.000000 0.000000 3.825250 
# 
# 
# High freq. dielectric constant tensor:
#      x y z
#    x 1.826500 0.000000 0.000000 
#    y 0.000000 1.808710 0.000000 
#    z 0.000000 0.000000 1.815760 
# 
# From -- ./inp_files/24460.got.cif
#   From: 2010.03.12/outbox.cif.g09.slc.cpg/sg60_13_cif.got.tgz:24460.got - 2010.04.10 18:46:24.
