data_PCOD8246421
_publ_section_title
;
Structure prediction by ZEFSAII (Michael W. Deem and Ramdas Pophale) SiO2 
 PCOD8246421
Probable space group: P B C N
;
_chemical_formula_sum "Si O2"
_cell_formula_units_Z 48
_cell_length_a 11.852179
_cell_length_b 8.189114
_cell_length_c 23.533091
_cell_angle_alpha 90.000000
_cell_angle_beta 90.000000
_cell_angle_gamma 90.000000
_cell_volume 2284.094631
_symmetry_space_group_name_H-M "P B C N"
_symmetry_group_IT_number 60
_symmetry_cell_setting 'orthorhombic'
loop_
_space_group_symop_operation_xyz
x,y,z
1/2-x,1/2-y,1/2+z
1/2+x,1/2-y,-z
-x,y,1/2-z
-x,-y,-z
1/2+x,1/2+y,1/2-z
1/2-x,1/2+y,z
x,-y,1/2+z
loop_
_atom_site_type_symbol
_atom_site_label
_atom_site_fract_x
_atom_site_fract_y
_atom_site_fract_z
Si Si1 0.168039 0.669776 0.077527
Si Si2 0.425438 0.376372 0.694729
Si Si3 0.235948 0.869440 0.457785
Si Si4 0.276415 0.094783 0.657661
Si Si5 0.579167 0.341771 0.585848
Si Si6 0.464422 0.184093 0.487504
O O1 0.149430 0.551406 0.131922
O O2 0.249199 0.810742 0.099462
O O3 0.047119 0.747488 0.062646
O O4 0.217950 0.582720 0.020550
O O5 0.500000 0.403736 0.750000
O O6 0.352443 0.207950 0.698998
O O7 0.337365 0.527375 0.688198
O O8 0.517949 0.368137 0.645172
O O9 0.338231 0.818477 0.415533
O O10 0.163213 0.700789 0.465630
O O11 0.153768 0.002488 0.430950
O O12 0.480157 0.306388 0.540725
O O13 0.500000 0.000000 0.500000
#
# Coordination Sequence:
#
# PCOD8246421 Si02
#       6
#     8   8   8   8   8   8
#     4  10  18  33  56  85 119 159 195 231 298 379
#     4  11  25  45  65  87 116 158 213 261 302 348
#     4  11  21  34  56  91 131 162 197 250 308 368
#     4  10  21  40  63  85 115 156 198 245 300 368
#     4  11  23  37  57  88 125 165 206 253 304 363
#     4  11  19  31  53  86 125 164 199 240 300 372
#
# _framework density 21.014890999999999
#
# number of rings (size 3 to 8) (size 9 to 14) (size 15 to 20)
#    0.000    1.333    0.000    9.500    0.000    1.333 
#    0.000    3.333    0.000    0.000    0.000    0.000 
#    0.000    0.000    0.000    0.000    0.000    0.000 
#
# Total GULP energy -594723.956232 kJ/mol
# GULP energy per Si atom -12390.082421 kJ/mol
# Density = 2.096706 g / cm^3
# Si number density = 21.014891 Si / 1000 Ang^3
#
#
#
# Elastic Constant Matrix: (Units=GPa)
#
#
# Indices 1 2 3 4 5 6 
#
# 1 118.9668 28.1329 55.5568 0.0000 0.0000 0.0000
# 2 28.1329 72.4810 32.9030 0.0000 0.0000 0.0000
# 3 55.5568 32.9030 109.6997 0.0000 0.0000 0.0000
# 4 0.0000 0.0000 0.0000 17.9088 0.0000 0.0000
# 5 0.0000 0.0000 0.0000 0.0000 36.2228 0.0000
# 6 0.0000 0.0000 0.0000 0.0000 0.0000 45.1780
#
#
#
# Elastic Compliance Matrix: (Units=1/GPa)
#
#
# Indices 1 2 3 4 5 6 
#
# 1 0.011270 -0.002064 -0.005089 0.000000 0.000000 0.000000
# 2 -0.002064 0.016350 -0.003858 0.000000 0.000000 0.000000
# 3 -0.005089 -0.003858 0.012850 0.000000 0.000000 0.000000
# 4 0.000000 0.000000 0.000000 0.055839 0.000000 0.000000
# 5 0.000000 0.000000 0.000000 0.000000 0.027607 0.000000
# 6 0.000000 0.000000 0.000000 0.000000 0.000000 0.022135
#
#
# Mechanical properties :
#
#
# Convention : Reuss Voigt Hill
#
# Bulk Modulus (GPa) = 54.20862 59.37031 56.78947
# Shear Modulus (GPa) = 28.69909 32.16559 30.43234
#
# Velocity S-wave (km/s) = 3.69949 3.91654 3.80956
# Velocity P-wave (km/s) = 6.64075 6.98322 6.81414
#
# Compressibility (1/GPa) = 0.01844725
#
# Stress axis : x y z
#
# Youngs Moduli (GPa) = 88.72945 61.16390 77.82051
#
# Poissons Ratio (x) = 0.12627 0.39599
# Poissons Ratio (y) = 0.18318 0.30025
# Poissons Ratio (z) = 0.45150 0.23599
#
# Static dielectric constant tensor:
#      x y z
#    x 4.663500 0.000000 0.000000 
#    y 0.000000 4.092810 0.000000 
#    z 0.000000 0.000000 3.369650 
# 
# 
# High freq. dielectric constant tensor:
#      x y z
#    x 1.847370 0.000000 0.000000 
#    y 0.000000 1.835360 0.000000 
#    z 0.000000 0.000000 1.771430 
# 
# From -- ./inp_files/24255.got.cif
#   From: 2010.03.12/outbox.cif.g09.slc.cpg/sg60_13_cif.got.tgz:24255.got - 2010.04.10 18:46:24.
