data_PCOD8246187
_publ_section_title
;
Structure prediction by ZEFSAII (Michael W. Deem and Ramdas Pophale) SiO2 
 PCOD8246187
Probable space group: P M M N
;
_chemical_formula_sum "Si O2"
_cell_formula_units_Z 56
_cell_length_a 9.471793
_cell_length_b 25.022383
_cell_length_c 15.373067
_cell_angle_alpha 90.000000
_cell_angle_beta 90.000000
_cell_angle_gamma 90.000000
_cell_volume 3643.521910
_symmetry_space_group_name_H-M "P M M N"
_symmetry_group_IT_number 59
_space_group.IT_coordinate_system_code '2'
_symmetry_cell_setting 'orthorhombic'
loop_
_space_group_symop_operation_xyz
x,y,z
1/2-x,1/2-y,z
1/2+x,-y,-z
-x,1/2+y,-z
-x,-y,-z
1/2+x,1/2+y,-z
1/2-x,y,z
x,1/2-y,z
loop_
_atom_site_type_symbol
_atom_site_label
_atom_site_fract_x
_atom_site_fract_y
_atom_site_fract_z
Si Si1 0.083893 0.311785 0.758394
Si Si2 0.911878 0.888477 0.094832
Si Si3 0.085227 0.993662 0.911689
Si Si4 0.091781 0.813486 0.404302
Si Si5 0.916252 0.895840 0.899075
Si Si6 0.086562 0.310883 0.244713
Si Si7 0.409267 0.813406 0.595447
O O1 0.250000 0.320547 0.747362
O O2 0.045992 0.250000 0.775568
O O3 0.019066 0.345954 0.838701
O O4 0.013128 0.334196 0.670232
O O5 0.750000 0.872158 0.086174
O O6 0.928238 0.948413 0.134882
O O7 0.973870 0.883822 0.996830
O O8 0.250000 0.979618 0.927582
O O9 0.006200 0.945917 0.859773
O O10 0.000000 0.000000 0.000000
O O11 0.250000 0.834187 0.384530
O O12 0.091095 0.750000 0.405985
O O13 0.042263 0.834388 0.499860
O O14 0.750000 0.910670 0.899251
O O15 0.949785 0.844392 0.841105
O O16 0.250000 0.314026 0.267858
O O17 0.039147 0.250000 0.225842
O O18 0.007150 0.336422 0.327847
O O19 0.250000 0.832236 0.613810
O O20 0.420309 0.750000 0.596521
#
# Coordination Sequence:
#
# PCOD8246187 Si02
#       7
#     8   8   8   8   8   8   8
#     4   9  16  25  39  60  83 107 135 163 193 236
#     4   8  15  27  41  58  81 107 134 165 199 235
#     4   9  16  28  45  61  78 103 138 178 213 241
#     4   8  14  25  39  55  78 107 135 164 200 238
#     4   9  17  29  43  60  84 111 139 171 204 241
#     4   9  17  27  40  61  87 112 137 166 202 243
#     4   8  14  25  40  56  77 107 138 166 198 238
#
# _framework density 15.369745
#
# number of rings (size 3 to 8) (size 9 to 14) (size 15 to 20)
#    0.000    3.429    0.000    2.143    0.000    1.714 
#    0.000    9.286    0.000    0.000    0.000    5.000 
#    0.000    0.000    0.000    0.000    0.000    0.000 
#
# Total GULP energy -693771.454913 kJ/mol
# GULP energy per Si atom -12388.775981 kJ/mol
# Density = 1.533476 g / cm^3
# Si number density = 15.369745 Si / 1000 Ang^3
#
#
#
# Elastic Constant Matrix: (Units=GPa)
#
#
# Indices 1 2 3 4 5 6 
#
# 1 55.1775 35.4752 44.2815 0.0000 0.0000 0.0000
# 2 35.4752 66.8385 53.1042 0.0000 0.0000 0.0000
# 3 44.2815 53.1042 114.4659 0.0000 0.0000 0.0000
# 4 0.0000 0.0000 0.0000 3.5797 0.0000 0.0000
# 5 0.0000 0.0000 0.0000 0.0000 21.9383 0.0000
# 6 0.0000 0.0000 0.0000 0.0000 0.0000 18.4723
#
#
#
# Elastic Compliance Matrix: (Units=1/GPa)
#
#
# Indices 1 2 3 4 5 6 
#
# 1 0.030521 -0.010799 -0.006797 0.000000 0.000000 0.000000
# 2 -0.010799 0.027516 -0.008588 0.000000 0.000000 0.000000
# 3 -0.006797 -0.008588 0.015350 0.000000 0.000000 0.000000
# 4 0.000000 0.000000 0.000000 0.279354 0.000000 0.000000
# 5 0.000000 0.000000 0.000000 0.000000 0.045582 0.000000
# 6 0.000000 0.000000 0.000000 0.000000 0.000000 0.054135
#
#
# Mechanical properties :
#
#
# Convention : Reuss Voigt Hill
#
# Bulk Modulus (GPa) = 47.57573 55.80041 51.68807
# Shear Modulus (GPa) = 9.76879 15.70613 12.73746
#
# Velocity S-wave (km/s) = 2.52382 3.20016 2.88190
# Velocity P-wave (km/s) = 6.28603 7.07382 6.69153
#
# Compressibility (1/GPa) = 0.02101912
#
# Stress axis : x y z
#
# Youngs Moduli (GPa) = 32.76399 36.34184 65.14626
#
# Poissons Ratio (x) = 0.39245 0.44282
# Poissons Ratio (y) = 0.35382 0.55948
# Poissons Ratio (z) = 0.22271 0.31211
#
# Static dielectric constant tensor:
#      x y z
#    x 3.000440 0.000000 0.000000 
#    y 0.000000 3.023400 0.000000 
#    z 0.000000 0.000000 3.206540 
# 
# 
# High freq. dielectric constant tensor:
#      x y z
#    x 1.580440 0.000000 0.000000 
#    y 0.000000 1.556700 0.000000 
#    z 0.000000 0.000000 1.579410 
# 
# From -- ./inp_files/21745.got.cif
#   From: 2010.03.12/outbox.cif.g09.slc.cpg/sg59_11_cif.got.tgz:21745.got - 2010.04.16 16:29:54.
