data_PCOD8246032
_publ_section_title
;
Structure prediction by ZEFSAII (Michael W. Deem and Ramdas Pophale) SiO2 
 PCOD8246032
Probable space group: P M M N
;
_chemical_formula_sum "Si O2"
_cell_formula_units_Z 64
_cell_length_a 18.644894
_cell_length_b 9.173708
_cell_length_c 20.403304
_cell_angle_alpha 90.000000
_cell_angle_beta 90.000000
_cell_angle_gamma 90.000000
_cell_volume 3489.838516
_symmetry_space_group_name_H-M "P M M N"
_symmetry_group_IT_number 59
_space_group.IT_coordinate_system_code '2'
_symmetry_cell_setting 'orthorhombic'
loop_
_space_group_symop_operation_xyz
x,y,z
1/2-x,1/2-y,z
1/2+x,-y,-z
-x,1/2+y,-z
-x,-y,-z
1/2+x,1/2+y,-z
1/2-x,y,z
x,1/2-y,z
loop_
_atom_site_type_symbol
_atom_site_label
_atom_site_fract_x
_atom_site_fract_y
_atom_site_fract_z
Si Si1 0.667356 0.416480 0.426132
Si Si2 0.829811 0.576541 0.801658
Si Si3 0.335492 0.913442 0.931279
Si Si4 0.332640 0.916531 0.421766
Si Si5 0.832043 0.919883 0.196125
Si Si6 0.425178 0.076704 0.318367
Si Si7 0.835409 0.587758 0.945271
Si Si8 0.576432 0.578116 0.322084
O O1 0.750000 0.453190 0.411566
O O2 0.650417 0.250000 0.405705
O O3 0.649902 0.439878 0.502174
O O4 0.618316 0.527597 0.386459
O O5 0.750000 0.513965 0.787210
O O6 0.826010 0.750000 0.801862
O O7 0.883634 0.519653 0.746168
O O8 0.857395 0.524690 0.873580
O O9 0.250000 0.917993 0.933189
O O10 0.365175 0.750000 0.928140
O O11 0.363412 0.997239 0.867080
O O12 0.367022 0.986616 0.997194
O O13 0.250000 0.953628 0.407166
O O14 0.349533 0.750000 0.401491
O O15 0.381881 0.027541 0.382201
O O16 0.750000 0.965257 0.210202
O O17 0.838138 0.750000 0.180882
O O18 0.877736 0.966490 0.258761
O O19 0.433042 0.250000 0.319506
O O20 0.502045 0.004163 0.317792
O O21 0.750000 0.593840 0.948797
O O22 0.866789 0.750000 0.955474
O O23 0.563416 0.750000 0.326509
#
# Coordination Sequence:
#
# PCOD8246032 Si02
#       8
#     8   8   8   8   8   8   8   8
#     4   9  19  37  60  83 106 133 167 209 257 308
#     4   8  15  29  50  75 100 129 169 213 254 300
#     4   9  16  25  41  70 103 128 155 199 252 301
#     4   9  19  37  59  82 108 136 167 207 256 308
#     4   9  18  33  52  72  95 128 169 209 252 305
#     4  11  22  35  53  77 106 140 177 216 256 302
#     4   8  13  24  44  68  95 127 161 200 248 300
#     4  11  23  37  53  75 105 139 175 215 257 305
#
# _framework density 18.338957000000001
#
# number of rings (size 3 to 8) (size 9 to 14) (size 15 to 20)
#    0.000    2.750    0.000    3.375    0.000    5.000 
#    0.000    3.750    0.000    3.750    0.000    0.000 
#    0.000    0.000    0.000    0.000    0.000    0.000 
#
# Total GULP energy -793525.416660 kJ/mol
# GULP energy per Si atom -12398.834635 kJ/mol
# Density = 1.829722 g / cm^3
# Si number density = 18.338957 Si / 1000 Ang^3
#
#
#
# Elastic Constant Matrix: (Units=GPa)
#
#
# Indices 1 2 3 4 5 6 
#
# 1 85.6343 47.3533 67.1414 0.0000 0.0000 0.0000
# 2 47.3533 83.9918 64.4106 0.0000 0.0000 0.0000
# 3 67.1414 64.4106 137.8889 0.0000 0.0000 0.0000
# 4 0.0000 0.0000 0.0000 24.8533 0.0000 0.0000
# 5 0.0000 0.0000 0.0000 0.0000 1.9730 0.0000
# 6 0.0000 0.0000 0.0000 0.0000 0.0000 1.7079
#
#
#
# Elastic Compliance Matrix: (Units=1/GPa)
#
#
# Indices 1 2 3 4 5 6 
#
# 1 0.020748 -0.006155 -0.007228 0.000000 0.000000 0.000000
# 2 -0.006155 0.020377 -0.006522 0.000000 0.000000 0.000000
# 3 -0.007228 -0.006522 0.013818 0.000000 0.000000 0.000000
# 4 0.000000 0.000000 0.000000 0.040236 0.000000 0.000000
# 5 0.000000 0.000000 0.000000 0.000000 0.506834 0.000000
# 6 0.000000 0.000000 0.000000 0.000000 0.000000 0.585510
#
#
# Mechanical properties :
#
#
# Convention : Reuss Voigt Hill
#
# Bulk Modulus (GPa) = 66.07267 73.92504 69.99885
# Shear Modulus (GPa) = 4.05720 14.28084 9.16902
#
# Velocity S-wave (km/s) = 1.48901 2.79358 2.23844
# Velocity P-wave (km/s) = 6.25004 7.12764 6.70322
#
# Compressibility (1/GPa) = 0.01513485
#
# Stress axis : x y z
#
# Youngs Moduli (GPa) = 48.19822 49.07474 72.36983
#
# Poissons Ratio (x) = 0.30204 0.52306
# Poissons Ratio (y) = 0.29664 0.47197
# Poissons Ratio (z) = 0.34836 0.32005
#
# Static dielectric constant tensor:
#      x y z
#    x 3.095680 0.000000 0.000000 
#    y 0.000000 3.303010 0.000000 
#    z 0.000000 0.000000 3.610200 
# 
# 
# High freq. dielectric constant tensor:
#      x y z
#    x 1.678540 0.000000 0.000000 
#    y 0.000000 1.701120 0.000000 
#    z 0.000000 0.000000 1.726550 
# 
# From -- ./inp_files/30899.got.cif
#   From: 2010.03.12/outbox.cif.g09.slc.cpg/sg59_16_cif.got.tgz:30899.got - 2010.04.16 16:29:54.
