data_PCOD8246495
_publ_section_title
;
Structure prediction by ZEFSAII (Michael W. Deem and Ramdas Pophale) SiO2 
 PCOD8246495
Probable space group: P B C N
;
_chemical_formula_sum "Si O2"
_cell_formula_units_Z 60
_cell_length_a 9.079072
_cell_length_b 16.509423
_cell_length_c 19.681629
_cell_angle_alpha 90.000000
_cell_angle_beta 90.000000
_cell_angle_gamma 90.000000
_cell_volume 2950.084096
_symmetry_space_group_name_H-M "P B C N"
_symmetry_group_IT_number 60
_symmetry_cell_setting 'orthorhombic'
loop_
_space_group_symop_operation_xyz
x,y,z
1/2-x,1/2-y,1/2+z
1/2+x,1/2-y,-z
-x,y,1/2-z
-x,-y,-z
1/2+x,1/2+y,1/2-z
1/2-x,1/2+y,z
x,-y,1/2+z
loop_
_atom_site_type_symbol
_atom_site_label
_atom_site_fract_x
_atom_site_fract_y
_atom_site_fract_z
Si Si1 0.331557 0.761107 0.072812
Si Si2 0.331358 0.515411 0.246549
Si Si3 0.173568 0.640216 0.164095
Si Si4 0.000000 0.762602 0.250000
Si Si5 0.831436 0.083599 0.888016
Si Si6 0.835966 0.307049 0.045328
Si Si7 0.351995 0.380035 0.345142
Si Si8 0.865092 0.538328 0.459380
O O1 0.305041 0.681247 0.119435
O O2 0.265474 0.835972 0.113682
O O3 0.501867 0.773605 0.057033
O O4 0.250773 0.758851 0.999464
O O5 0.500000 0.543354 0.250000
O O6 0.234465 0.595780 0.232311
O O7 0.303412 0.456959 0.183796
O O8 0.290473 0.466550 0.316023
O O9 0.061628 0.708590 0.188578
O O10 0.089041 0.576633 0.114197
O O11 0.118492 0.823911 0.280252
O O12 0.005750 0.104208 0.894118
O O13 0.769451 0.025398 0.948241
O O14 0.768509 0.325571 0.118142
O O15 0.811137 0.390871 0.007033
O O16 0.000000 0.500000 0.500000
#
# Coordination Sequence:
#
# PCOD8246495 Si02
#       8
#     8   8   8   4   8   8   8   8
#     4  11  21  41  60  92 129 165 206 269 310 382
#     4   9  19  39  61  85 122 163 204 259 307 377
#     4  10  23  37  62  92 125 167 212 255 319 370
#     4  12  22  40  64  90 126 176 208 262 318 384
#     4  10  18  38  68  80 124 168 202 256 315 366
#     4  11  25  37  64  96 125 162 214 254 322 383
#     4  11  21  40  64  90 121 173 212 249 322 384
#     4  10  21  39  62  93 126 161 206 267 312 368
#
# _framework density 20.338404000000001
#
# number of rings (size 3 to 8) (size 9 to 14) (size 15 to 20)
#    0.000    1.600    4.667    0.800    1.867    2.667 
#    0.000    4.000    0.000    0.000    0.000    0.000 
#    0.000    0.000    0.000    0.000    0.000    0.000 
#
# Total GULP energy -743498.003804 kJ/mol
# GULP energy per Si atom -12391.633397 kJ/mol
# Density = 2.029211 g / cm^3
# Si number density = 20.338404 Si / 1000 Ang^3
#
#
#
# Elastic Constant Matrix: (Units=GPa)
#
#
# Indices 1 2 3 4 5 6 
#
# 1 105.4298 36.5824 45.6944 0.0000 0.0000 0.0000
# 2 36.5824 85.5491 30.8533 0.0000 0.0000 0.0000
# 3 45.6944 30.8533 80.3486 0.0000 0.0000 0.0000
# 4 0.0000 0.0000 0.0000 33.2453 0.0000 0.0000
# 5 0.0000 0.0000 0.0000 0.0000 38.9677 0.0000
# 6 0.0000 0.0000 0.0000 0.0000 0.0000 26.0041
#
#
#
# Elastic Compliance Matrix: (Units=1/GPa)
#
#
# Indices 1 2 3 4 5 6 
#
# 1 0.013418 -0.003466 -0.006300 0.000000 0.000000 0.000000
# 2 -0.003466 0.014463 -0.003583 0.000000 0.000000 0.000000
# 3 -0.006300 -0.003583 0.017404 0.000000 0.000000 0.000000
# 4 0.000000 0.000000 0.000000 0.030079 0.000000 0.000000
# 5 0.000000 0.000000 0.000000 0.000000 0.025662 0.000000
# 6 0.000000 0.000000 0.000000 0.000000 0.000000 0.038455
#
#
# Mechanical properties :
#
#
# Convention : Reuss Voigt Hill
#
# Bulk Modulus (GPa) = 53.79653 55.28750 54.54202
# Shear Modulus (GPa) = 29.00629 30.18992 29.59810
#
# Velocity S-wave (km/s) = 3.78058 3.85694 3.81895
# Velocity P-wave (km/s) = 6.75020 6.86131 6.80598
#
# Compressibility (1/GPa) = 0.01858856
#
# Stress axis : x y z
#
# Youngs Moduli (GPa) = 74.52658 69.14022 57.45662
#
# Poissons Ratio (x) = 0.23962 0.36198
# Poissons Ratio (y) = 0.25829 0.20586
# Poissons Ratio (z) = 0.46952 0.24772
#
# Static dielectric constant tensor:
#      x y z
#    x 3.587070 0.000000 0.000000 
#    y 0.000000 4.184210 0.000000 
#    z 0.000000 0.000000 5.515870 
# 
# 
# High freq. dielectric constant tensor:
#      x y z
#    x 1.770670 0.000000 0.000000 
#    y 0.000000 1.810460 0.000000 
#    z 0.000000 0.000000 1.795480 
# 
# From -- ./inp_files/19592.got.cif
#   From: 2010.03.12/outbox.cif.g09.slc.cpg/sg60_10_cif.got.tgz:19592.got - 2010.04.10 18:46:24.
