data_PCOD8246955
_publ_section_title
;
Structure prediction by ZEFSAII (Michael W. Deem and Ramdas Pophale) SiO2 
 PCOD8246955
Probable space group: P B C N
;
_chemical_formula_sum "Si O2"
_cell_formula_units_Z 48
_cell_length_a 8.962040
_cell_length_b 8.984718
_cell_length_c 31.014367
_cell_angle_alpha 90.000000
_cell_angle_beta 90.000000
_cell_angle_gamma 90.000000
_cell_volume 2497.320316
_symmetry_space_group_name_H-M "P B C N"
_symmetry_group_IT_number 60
_symmetry_cell_setting 'orthorhombic'
loop_
_space_group_symop_operation_xyz
x,y,z
1/2-x,1/2-y,1/2+z
1/2+x,1/2-y,-z
-x,y,1/2-z
-x,-y,-z
1/2+x,1/2+y,1/2-z
1/2-x,1/2+y,z
x,-y,1/2+z
loop_
_atom_site_type_symbol
_atom_site_label
_atom_site_fract_x
_atom_site_fract_y
_atom_site_fract_z
Si Si1 0.069934 0.011220 0.046821
Si Si2 0.671424 0.196024 0.416699
Si Si3 0.609252 0.335110 0.617070
Si Si4 0.580911 0.013323 0.122037
Si Si5 0.161695 0.823305 0.672808
Si Si6 0.908365 0.518950 0.792441
O O1 0.117209 0.850755 0.064175
O O2 0.212504 0.120842 0.049961
O O3 0.936180 0.080183 0.074037
O O4 0.000000 0.000000 0.000000
O O5 0.747553 0.227888 0.370125
O O6 0.530734 0.085049 0.412933
O O7 0.773270 0.388294 0.627549
O O8 0.609733 0.157480 0.609393
O O9 0.497445 0.384766 0.655727
O O10 0.510332 0.029413 0.168514
O O11 0.130028 0.691661 0.706031
O O12 0.248446 0.939077 0.702736
O O13 0.000000 0.475054 0.750000
#
# Coordination Sequence:
#
# PCOD8246955 Si02
#       6
#     8   8   8   8   8   8
#     4  11  23  38  59  86 113 147 189 237 285 329
#     4  10  20  40  61  80 112 154 190 226 282 347
#     4  10  20  37  58  84 112 149 191 228 278 343
#     4  10  21  37  60  84 113 151 191 228 277 345
#     4   9  19  38  59  78 111 152 186 224 279 343
#     4  10  21  36  56  84 112 145 188 235 282 327
#
# _framework density 19.220600999999998
#
# number of rings (size 3 to 8) (size 9 to 14) (size 15 to 20)
#    0.000    2.000    0.000    6.000    0.000    6.667 
#    0.000    3.333    0.000    0.000    0.000    0.000 
#    0.000    0.000    0.000    0.000    0.000    0.000 
#
# Total GULP energy -595062.779038 kJ/mol
# GULP energy per Si atom -12397.141230 kJ/mol
# Density = 1.917685 g / cm^3
# Si number density = 19.220601 Si / 1000 Ang^3
#
#
#
# Elastic Constant Matrix: (Units=GPa)
#
#
# Indices 1 2 3 4 5 6 
#
# 1 117.5657 40.7256 21.6145 0.0000 0.0000 0.0000
# 2 40.7256 85.7087 28.4269 0.0000 0.0000 0.0000
# 3 21.6145 28.4269 66.6066 0.0000 0.0000 0.0000
# 4 0.0000 0.0000 0.0000 19.1007 0.0000 0.0000
# 5 0.0000 0.0000 0.0000 0.0000 30.0670 0.0000
# 6 0.0000 0.0000 0.0000 0.0000 0.0000 38.6533
#
#
#
# Elastic Compliance Matrix: (Units=1/GPa)
#
#
# Indices 1 2 3 4 5 6 
#
# 1 0.010302 -0.004411 -0.001461 0.000000 0.000000 0.000000
# 2 -0.004411 0.015480 -0.005175 0.000000 0.000000 0.000000
# 3 -0.001461 -0.005175 0.017696 0.000000 0.000000 0.000000
# 4 0.000000 0.000000 0.000000 0.052354 0.000000 0.000000
# 5 0.000000 0.000000 0.000000 0.000000 0.033259 0.000000
# 6 0.000000 0.000000 0.000000 0.000000 0.000000 0.025871
#
#
# Mechanical properties :
#
#
# Convention : Reuss Voigt Hill
#
# Bulk Modulus (GPa) = 46.76210 50.15723 48.45966
# Shear Modulus (GPa) = 27.14669 29.50512 28.32591
#
# Velocity S-wave (km/s) = 3.76223 3.92226 3.84308
# Velocity P-wave (km/s) = 6.57682 6.83113 6.70518
#
# Compressibility (1/GPa) = 0.02138484
#
# Stress axis : x y z
#
# Youngs Moduli (GPa) = 97.06501 64.60058 56.50903
#
# Poissons Ratio (x) = 0.28494 0.08255
# Poissons Ratio (y) = 0.42814 0.29245
# Poissons Ratio (z) = 0.14179 0.33432
#
# Static dielectric constant tensor:
#      x y z
#    x 4.057000 0.000000 0.000000 
#    y 0.000000 3.640380 0.000000 
#    z 0.000000 0.000000 3.308310 
# 
# 
# High freq. dielectric constant tensor:
#      x y z
#    x 1.764840 0.000000 0.000000 
#    y 0.000000 1.757360 0.000000 
#    z 0.000000 0.000000 1.723960 
# 
# From -- ./inp_files/25907.got.cif
#   From: 2010.03.12/outbox.cif.g09.slc.cpg/sg60_13_cif.got.tgz:25907.got - 2010.04.10 18:46:24.
