data_PCOD8246734
_publ_section_title
;
Structure prediction by ZEFSAII (Michael W. Deem and Ramdas Pophale) SiO2 
 PCOD8246734
Probable space group: P B C N
;
_chemical_formula_sum "Si O2"
_cell_formula_units_Z 56
_cell_length_a 16.082501
_cell_length_b 18.246317
_cell_length_c 8.863963
_cell_angle_alpha 90.000000
_cell_angle_beta 90.000000
_cell_angle_gamma 90.000000
_cell_volume 2601.098133
_symmetry_space_group_name_H-M "P B C N"
_symmetry_group_IT_number 60
_symmetry_cell_setting 'orthorhombic'
loop_
_space_group_symop_operation_xyz
x,y,z
1/2-x,1/2-y,1/2+z
1/2+x,1/2-y,-z
-x,y,1/2-z
-x,-y,-z
1/2+x,1/2+y,1/2-z
1/2-x,1/2+y,z
x,-y,1/2+z
loop_
_atom_site_type_symbol
_atom_site_label
_atom_site_fract_x
_atom_site_fract_y
_atom_site_fract_z
Si Si1 0.596628 0.430104 0.074657
Si Si2 0.000000 0.601993 0.250000
Si Si3 0.090509 0.918885 0.072780
Si Si4 0.245300 0.343801 0.435282
Si Si5 0.000000 0.403507 0.250000
Si Si6 0.109088 0.537061 0.002609
Si Si7 0.387315 0.130725 0.507054
Si Si8 0.774237 0.800929 0.407958
O O1 0.598897 0.437390 0.253006
O O2 0.504925 0.403710 0.022375
O O3 0.662960 0.370720 0.014657
O O4 0.622677 0.509777 0.014272
O O5 0.926194 0.555983 0.331387
O O6 0.952292 0.651974 0.126107
O O7 0.146537 0.847961 0.036447
O O8 0.183456 0.412066 0.445240
O O9 0.209672 0.283916 0.552679
O O10 0.251342 0.312393 0.266195
O O11 0.966815 0.456114 0.116122
O O12 0.930269 0.352797 0.329455
O O13 0.141018 0.454172 0.002636
O O14 0.305199 0.178468 0.489179
#
# Coordination Sequence:
#
# PCOD8246734 Si02
#       8
#     8   4   8   8   4   8   8   8
#     4   9  19  40  67  92 117 152 201 255 304 355
#     4  10  23  34  64  98 118 152 201 242 303 374
#     4   9  19  40  67  92 117 152 201 255 304 355
#     4  11  25  42  57  87 126 164 205 249 303 361
#     4  10  19  38  60  90 126 152 197 250 299 362
#     4  11  20  38  62  90 122 158 200 251 302 361
#     4  11  20  38  62  90 122 158 200 251 302 361
#     4  11  25  42  57  87 126 164 205 249 303 361
#
# _framework density 21.52937
#
# number of rings (size 3 to 8) (size 9 to 14) (size 15 to 20)
#    0.000    1.714    1.429    4.286    2.000    1.143 
#    5.143    0.000    0.000    0.000    0.000    0.000 
#    0.000    0.000    0.000    0.000    0.000    0.000 
#
# Total GULP energy -694345.223914 kJ/mol
# GULP energy per Si atom -12399.021856 kJ/mol
# Density = 2.148037 g / cm^3
# Si number density = 21.529370 Si / 1000 Ang^3
#
#
#
# Elastic Constant Matrix: (Units=GPa)
#
#
# Indices 1 2 3 4 5 6 
#
# 1 104.6358 53.9139 26.5590 0.0000 0.0000 0.0000
# 2 53.9139 91.4962 20.4445 0.0000 0.0000 0.0000
# 3 26.5590 20.4445 71.2320 0.0000 0.0000 0.0000
# 4 0.0000 0.0000 0.0000 27.5965 0.0000 0.0000
# 5 0.0000 0.0000 0.0000 0.0000 31.1634 0.0000
# 6 0.0000 0.0000 0.0000 0.0000 0.0000 25.9171
#
#
#
# Elastic Compliance Matrix: (Units=1/GPa)
#
#
# Indices 1 2 3 4 5 6 
#
# 1 0.014346 -0.007755 -0.003123 0.000000 0.000000 0.000000
# 2 -0.007755 0.015871 -0.001664 0.000000 0.000000 0.000000
# 3 -0.003123 -0.001664 0.015680 0.000000 0.000000 0.000000
# 4 0.000000 0.000000 0.000000 0.036236 0.000000 0.000000
# 5 0.000000 0.000000 0.000000 0.000000 0.032089 0.000000
# 6 0.000000 0.000000 0.000000 0.000000 0.000000 0.038585
#
#
# Mechanical properties :
#
#
# Convention : Reuss Voigt Hill
#
# Bulk Modulus (GPa) = 48.04591 52.13319 50.08955
# Shear Modulus (GPa) = 27.05215 28.03185 27.54200
#
# Velocity S-wave (km/s) = 3.54859 3.61228 3.58058
# Velocity P-wave (km/s) = 6.25739 6.45489 6.35690
#
# Compressibility (1/GPa) = 0.02081342
#
# Stress axis : x y z
#
# Youngs Moduli (GPa) = 69.70803 63.00834 63.77350
#
# Poissons Ratio (x) = 0.48865 0.19916
# Poissons Ratio (y) = 0.54060 0.10609
# Poissons Ratio (z) = 0.21769 0.10482
#
# Static dielectric constant tensor:
#      x y z
#    x 4.153770 0.000000 0.000000 
#    y 0.000000 3.557240 0.000000 
#    z 0.000000 0.000000 3.952030 
# 
# 
# High freq. dielectric constant tensor:
#      x y z
#    x 1.855250 0.000000 0.000000 
#    y 0.000000 1.815640 0.000000 
#    z 0.000000 0.000000 1.849550 
# 
# From -- ./inp_files/6206.got.cif
#   From: 2010.03.12/outbox.cif.g09.slc.cpg/sg60_4_cif.got.tgz:6206.got - 2010.04.10 18:46:24.
