data_PCOD8246977
_publ_section_title
;
Structure prediction by ZEFSAII (Michael W. Deem and Ramdas Pophale) SiO2 
 PCOD8246977
Probable space group: P B C N
;
_chemical_formula_sum "Si O2"
_cell_formula_units_Z 64
_cell_length_a 14.654781
_cell_length_b 9.999015
_cell_length_c 21.799623
_cell_angle_alpha 90.000000
_cell_angle_beta 90.000000
_cell_angle_gamma 90.000000
_cell_volume 3194.372333
_symmetry_space_group_name_H-M "P B C N"
_symmetry_group_IT_number 60
_symmetry_cell_setting 'orthorhombic'
loop_
_space_group_symop_operation_xyz
x,y,z
1/2-x,1/2-y,1/2+z
1/2+x,1/2-y,-z
-x,y,1/2-z
-x,-y,-z
1/2+x,1/2+y,1/2-z
1/2-x,1/2+y,z
x,-y,1/2+z
loop_
_atom_site_type_symbol
_atom_site_label
_atom_site_fract_x
_atom_site_fract_y
_atom_site_fract_z
Si Si1 0.796661 0.503217 0.132206
Si Si2 0.218042 0.842928 0.077287
Si Si3 0.377427 0.909304 0.987344
Si Si4 0.602378 0.000077 0.760093
Si Si5 0.566799 0.203652 0.495319
Si Si6 0.097553 0.798676 0.748620
Si Si7 0.242752 0.097545 0.159327
Si Si8 0.657103 0.277350 0.617666
O O1 0.836700 0.521992 0.199690
O O2 0.773298 0.349216 0.114799
O O3 0.702772 0.578808 0.120644
O O4 0.868946 0.565787 0.085036
O O5 0.284280 0.855132 0.018019
O O6 0.117336 0.798201 0.054334
O O7 0.261319 0.734250 0.122250
O O8 0.209088 0.979941 0.114711
O O9 0.400492 0.051888 0.018570
O O10 0.456832 0.797753 0.992701
O O11 0.500000 0.941543 0.750000
O O12 0.654985 0.923177 0.814731
O O13 0.595578 0.153072 0.783825
O O14 0.587202 0.264449 0.562013
O O15 0.172888 0.892849 0.717145
O O16 0.106694 0.759061 0.819006
O O17 0.000000 0.873564 0.750000
#
# Coordination Sequence:
#
# PCOD8246977 Si02
#       8
#     8   8   8   8   8   8   8   8
#     4  10  20  37  62  86 118 155 204 255 305 364
#     4  12  24  40  65  94 132 167 208 264 327 380
#     4  10  22  40  65  93 124 167 213 261 314 381
#     4  10  22  39  65  93 120 166 217 255 307 384
#     4  10  22  40  65  94 124 166 216 260 310 381
#     4  10  22  41  65  91 124 168 210 257 315 378
#     4  12  24  40  65  94 131 166 211 264 320 382
#     4  10  20  37  64  86 116 158 208 250 304 366
#
# _framework density 20.035233999999999
#
# number of rings (size 3 to 8) (size 9 to 14) (size 15 to 20)
#    0.000    1.500    5.000    0.000    3.500    1.000 
#    0.000    2.500    0.000    0.000    0.000    0.000 
#    0.000    0.000    0.000    0.000    0.000    0.000 
#
# Total GULP energy -793192.514525 kJ/mol
# GULP energy per Si atom -12393.633039 kJ/mol
# Density = 1.998963 g / cm^3
# Si number density = 20.035234 Si / 1000 Ang^3
#
#
#
# Elastic Constant Matrix: (Units=GPa)
#
#
# Indices 1 2 3 4 5 6 
#
# 1 95.0430 23.6115 13.6614 0.0000 0.0000 0.0000
# 2 23.6115 55.9524 17.3220 0.0000 0.0000 0.0000
# 3 13.6614 17.3220 75.1572 0.0000 0.0000 0.0000
# 4 0.0000 0.0000 0.0000 26.7722 0.0000 0.0000
# 5 0.0000 0.0000 0.0000 0.0000 21.9295 0.0000
# 6 0.0000 0.0000 0.0000 0.0000 0.0000 26.4925
#
#
#
# Elastic Compliance Matrix: (Units=1/GPa)
#
#
# Indices 1 2 3 4 5 6 
#
# 1 0.011834 -0.004661 -0.001077 0.000000 0.000000 0.000000
# 2 -0.004661 0.021081 -0.004012 0.000000 0.000000 0.000000
# 3 -0.001077 -0.004012 0.014426 0.000000 0.000000 0.000000
# 4 0.000000 0.000000 0.000000 0.037352 0.000000 0.000000
# 5 0.000000 0.000000 0.000000 0.000000 0.045601 0.000000
# 6 0.000000 0.000000 0.000000 0.000000 0.000000 0.037747
#
#
# Mechanical properties :
#
#
# Convention : Reuss Voigt Hill
#
# Bulk Modulus (GPa) = 35.91583 37.26025 36.58804
# Shear Modulus (GPa) = 25.40400 26.47600 25.94000
#
# Velocity S-wave (km/s) = 3.56471 3.63915 3.60212
# Velocity P-wave (km/s) = 5.90831 6.02458 5.96673
#
# Compressibility (1/GPa) = 0.02784288
#
# Stress axis : x y z
#
# Youngs Moduli (GPa) = 84.50103 47.43617 69.32036
#
# Poissons Ratio (x) = 0.22108 0.07466
# Poissons Ratio (y) = 0.39382 0.27808
# Poissons Ratio (z) = 0.09100 0.19029
#
# Static dielectric constant tensor:
#      x y z
#    x 3.508800 0.000000 0.000000 
#    y 0.000000 3.708720 0.000000 
#    z 0.000000 0.000000 3.783020 
# 
# 
# High freq. dielectric constant tensor:
#      x y z
#    x 1.768440 0.000000 0.000000 
#    y 0.000000 1.767650 0.000000 
#    z 0.000000 0.000000 1.796390 
# 
# From -- ./inp_files/24451.got.cif
#   From: 2010.03.12/outbox.cif.g09.slc.cpg/sg60_13_cif.got.tgz:24451.got - 2010.04.10 18:46:24.
