data_PCOD8246260
_publ_section_title
;
Structure prediction by ZEFSAII (Michael W. Deem and Ramdas Pophale) SiO2 
 PCOD8246260
Probable space group: P M M N
;
_chemical_formula_sum "Si O2"
_cell_formula_units_Z 56
_cell_length_a 15.000000
_cell_length_b 9.000000
_cell_length_c 21.000000
_cell_angle_alpha 90.000000
_cell_angle_beta 90.000000
_cell_angle_gamma 90.000000
_cell_volume 2835.000000
_symmetry_space_group_name_H-M "P M M N"
_symmetry_group_IT_number 59
_space_group.IT_coordinate_system_code '2'
_symmetry_cell_setting 'orthorhombic'
loop_
_space_group_symop_operation_xyz
x,y,z
1/2-x,1/2-y,z
1/2+x,-y,-z
-x,1/2+y,-z
-x,-y,-z
1/2+x,1/2+y,-z
1/2-x,y,z
x,1/2-y,z
loop_
_atom_site_type_symbol
_atom_site_label
_atom_site_fract_x
_atom_site_fract_y
_atom_site_fract_z
Si Si1 0.847335 0.414876 0.839502
Si Si2 0.930467 0.080217 0.594013
Si Si3 0.750000 0.583741 0.238520
Si Si4 0.415521 0.423002 0.272437
Si Si5 0.399914 0.578220 0.541333
Si Si6 0.250000 0.416908 0.611925
Si Si7 0.499929 0.926646 0.069058
Si Si8 0.582521 0.075355 0.184207
O O1 0.750000 0.411820 0.870125
O O2 0.880357 0.250000 0.820068
O O3 0.841441 0.512122 0.775097
O O4 0.908930 0.477056 0.895882
O O5 0.940273 0.250000 0.616289
O O6 0.863868 0.064191 0.532611
O O7 0.905104 0.989150 0.656807
O O8 0.017890 0.025696 0.558537
O O9 0.750000 0.750000 0.208607
O O10 0.750000 0.598810 0.313332
O O11 0.831707 0.487083 0.216849
O O12 0.401311 0.250000 0.280673
O O13 0.506514 0.464269 0.235803
O O14 0.422486 0.750000 0.556707
O O15 0.330893 0.517065 0.591052
O O16 0.250000 0.250000 0.581757
O O17 0.511004 0.750000 0.061826
O O18 0.575029 0.993861 0.115639
O O19 0.500000 0.000000 0.000000
O O20 0.588214 0.250000 0.171373
#
# Coordination Sequence:
#
# PCOD8246260 Si02
#       8
#     8   8   4   8   8   4   8   8
#     4   9  19  37  59  83 111 147 189 231 276 332
#     4  10  20  35  55  78 104 141 184 228 279 336
#     4  11  23  37  55  83 115 146 185 232 281 333
#     4  10  20  34  56  83 110 143 185 232 284 335
#     4  10  21  36  54  76 105 140 183 231 278 335
#     4  11  23  37  55  79 109 146 183 228 285 341
#     4  10  20  37  61  86 117 153 190 230 277 330
#     4  10  21  37  57  83 114 149 188 230 277 331
#
# _framework density 19.753086
#
# number of rings (size 3 to 8) (size 9 to 14) (size 15 to 20)
#    0.000    2.000    0.000    3.429    0.000    7.714 
#    2.571    0.000    0.000    0.000    0.000    0.000 
#    0.000    0.000    0.000    0.000    0.000    0.000 
#
# Total GULP energy -693737.417517 kJ/mol
# GULP energy per Si atom -12388.168170 kJ/mol
# Density = 1.970813 g / cm^3
# Si number density = 19.753086 Si / 1000 Ang^3
#
#
#
# Elastic Constant Matrix: (Units=GPa)
#
#
# Indices 1 2 3 4 5 6 
#
# 1 46.5308 18.6618 23.8360 0.0000 0.0000 0.0000
# 2 18.6618 94.5479 53.5337 0.0000 0.0000 0.0000
# 3 23.8360 53.5337 144.1575 0.0000 0.0000 0.0000
# 4 0.0000 0.0000 0.0000 44.8037 0.0000 0.0000
# 5 0.0000 0.0000 0.0000 0.0000 23.0958 0.0000
# 6 0.0000 0.0000 0.0000 0.0000 0.0000 54.0833
#
#
#
# Elastic Compliance Matrix: (Units=1/GPa)
#
#
# Indices 1 2 3 4 5 6 
#
# 1 0.024213 -0.003181 -0.002822 0.000000 0.000000 0.000000
# 2 -0.003181 0.013811 -0.004603 0.000000 0.000000 0.000000
# 3 -0.002822 -0.004603 0.009113 0.000000 0.000000 0.000000
# 4 0.000000 0.000000 0.000000 0.022320 0.000000 0.000000
# 5 0.000000 0.000000 0.000000 0.000000 0.043298 0.000000
# 6 0.000000 0.000000 0.000000 0.000000 0.000000 0.018490
#
#
# Mechanical properties :
#
#
# Convention : Reuss Voigt Hill
#
# Bulk Modulus (GPa) = 38.57418 53.03323 45.80370
# Shear Modulus (GPa) = 31.03727 37.01022 34.02374
#
# Velocity S-wave (km/s) = 3.96821 4.33325 4.15475
# Velocity P-wave (km/s) = 6.36916 7.20711 6.80105
#
# Compressibility (1/GPa) = 0.02592408
#
# Stress axis : x y z
#
# Youngs Moduli (GPa) = 41.30070 72.40815 109.73679
#
# Poissons Ratio (x) = 0.23034 0.30969
# Poissons Ratio (y) = 0.13138 0.50508
# Poissons Ratio (z) = 0.11656 0.33327
#
# Static dielectric constant tensor:
#      x y z
#    x 3.167580 0.000000 0.000000 
#    y 0.000000 3.812130 0.000000 
#    z 0.000000 0.000000 3.816030 
# 
# 
# High freq. dielectric constant tensor:
#      x y z
#    x 1.741930 0.000000 0.000000 
#    y 0.000000 1.786000 0.000000 
#    z 0.000000 0.000000 1.779230 
# 
# From -- ./inp_files/30419.got.cif
#   From: 2010.03.12/outbox.ucp.g09.slc.cvg/sg59_16_cif.got.tgz:30419.got - 2010.05.04 19:30:51.
