data_PCOD8246763
_publ_section_title
;
Structure prediction by ZEFSAII (Michael W. Deem and Ramdas Pophale) SiO2 
 PCOD8246763
Probable space group: P B C N
;
_chemical_formula_sum "Si O2"
_cell_formula_units_Z 32
_cell_length_a 7.068316
_cell_length_b 5.282109
_cell_length_c 38.001501
_cell_angle_alpha 90.000000
_cell_angle_beta 90.000000
_cell_angle_gamma 90.000000
_cell_volume 1418.809432
_symmetry_space_group_name_H-M "P B C N"
_symmetry_group_IT_number 60
_symmetry_cell_setting 'orthorhombic'
loop_
_space_group_symop_operation_xyz
x,y,z
1/2-x,1/2-y,1/2+z
1/2+x,1/2-y,-z
-x,y,1/2-z
-x,-y,-z
1/2+x,1/2+y,1/2-z
1/2-x,1/2+y,z
x,-y,1/2+z
loop_
_atom_site_type_symbol
_atom_site_label
_atom_site_fract_x
_atom_site_fract_y
_atom_site_fract_z
Si Si1 0.365167 0.968252 0.782210
Si Si2 0.623472 0.505372 0.465303
Si Si3 0.537454 0.508286 0.109060
Si Si4 0.537059 0.991818 0.639103
O O1 0.500000 0.028693 0.750000
O O2 0.298899 0.677911 0.780107
O O3 0.472314 0.006906 0.818907
O O4 0.500000 0.500000 0.500000
O O5 0.757283 0.262076 0.463917
O O6 0.475520 0.498916 0.433032
O O7 0.751595 0.519024 0.123053
O O8 0.432556 0.760756 0.123506
O O9 0.433043 0.262503 0.125653
#
# Coordination Sequence:
#
# PCOD8246763 Si02
#       4
#     8   8   8   8
#     4  12  23  43  66 101 135 179 231 276 340 415
#     4  12  28  46  68 106 141 177 225 280 343 404
#     4  10  20  38  69  90 126 170 230 263 320 408
#     4  10  19  39  71  90 121 184 221 263 340 398
#
# _framework density 22.554122
#
# number of rings (size 3 to 8) (size 9 to 14) (size 15 to 20)
#    0.000    1.000    5.000    3.000    7.000    0.000 
#    0.000    7.500    0.000    0.000    0.000    0.000 
#    0.000    0.000    0.000    0.000    0.000    0.000 
#
# Total GULP energy -396663.459242 kJ/mol
# GULP energy per Si atom -12395.733101 kJ/mol
# Density = 2.250279 g / cm^3
# Si number density = 22.554122 Si / 1000 Ang^3
#
#
#
# Elastic Constant Matrix: (Units=GPa)
#
#
# Indices 1 2 3 4 5 6 
#
# 1 36.2697 9.4524 39.5659 0.0000 0.0000 0.0000
# 2 9.4524 216.4267 42.7843 0.0000 0.0000 0.0000
# 3 39.5659 42.7843 232.8251 0.0000 0.0000 0.0000
# 4 0.0000 0.0000 0.0000 41.2375 0.0000 0.0000
# 5 0.0000 0.0000 0.0000 0.0000 40.0409 0.0000
# 6 0.0000 0.0000 0.0000 0.0000 0.0000 15.9088
#
#
#
# Elastic Compliance Matrix: (Units=1/GPa)
#
#
# Indices 1 2 3 4 5 6 
#
# 1 0.033872 -0.000354 -0.005691 0.000000 0.000000 0.000000
# 2 -0.000354 0.004798 -0.000822 0.000000 0.000000 0.000000
# 3 -0.005691 -0.000822 0.005413 0.000000 0.000000 0.000000
# 4 0.000000 0.000000 0.000000 0.024250 0.000000 0.000000
# 5 0.000000 0.000000 0.000000 0.000000 0.024974 0.000000
# 6 0.000000 0.000000 0.000000 0.000000 0.000000 0.062858
#
#
# Mechanical properties :
#
#
# Convention : Reuss Voigt Hill
#
# Bulk Modulus (GPa) = 32.94935 74.34739 53.64837
# Shear Modulus (GPa) = 27.77531 45.68538 36.73035
#
# Velocity S-wave (km/s) = 3.51307 4.50554 4.03990
# Velocity P-wave (km/s) = 5.57641 7.75255 6.75272
#
# Compressibility (1/GPa) = 0.03034961
#
# Stress axis : x y z
#
# Youngs Moduli (GPa) = 29.52308 208.40352 184.73515
#
# Poissons Ratio (x) = 0.07384 1.05133
# Poissons Ratio (y) = 0.01046 0.15177
# Poissons Ratio (z) = 0.16802 0.17121
#
# Static dielectric constant tensor:
#      x y z
#    x 3.624160 0.000000 0.000000 
#    y 0.000000 7.796260 0.000000 
#    z 0.000000 0.000000 4.293070 
# 
# 
# High freq. dielectric constant tensor:
#      x y z
#    x 1.854630 0.000000 0.000000 
#    y 0.000000 1.932990 0.000000 
#    z 0.000000 0.000000 1.904240 
# 
# From -- ./inp_files/25858.got.cif
#   From: 2010.03.12/outbox.cif.g09.slc.cpg/sg60_13_cif.got.tgz:25858.got - 2010.04.10 18:46:24.
