data_PCOD8246934
_publ_section_title
;
Structure prediction by ZEFSAII (Michael W. Deem and Ramdas Pophale) SiO2 
 PCOD8246934
Probable space group: P B C N
;
_chemical_formula_sum "Si O2"
_cell_formula_units_Z 48
_cell_length_a 27.261614
_cell_length_b 8.713096
_cell_length_c 9.404927
_cell_angle_alpha 90.000000
_cell_angle_beta 90.000000
_cell_angle_gamma 90.000000
_cell_volume 2233.981088
_symmetry_space_group_name_H-M "P B C N"
_symmetry_group_IT_number 60
_symmetry_cell_setting 'orthorhombic'
loop_
_space_group_symop_operation_xyz
x,y,z
1/2-x,1/2-y,1/2+z
1/2+x,1/2-y,-z
-x,y,1/2-z
-x,-y,-z
1/2+x,1/2+y,1/2-z
1/2-x,1/2+y,z
x,-y,1/2+z
loop_
_atom_site_type_symbol
_atom_site_label
_atom_site_fract_x
_atom_site_fract_y
_atom_site_fract_z
Si Si1 0.394340 0.209813 0.778994
Si Si2 0.218586 0.172564 0.684638
Si Si3 0.296198 0.639813 0.350700
Si Si4 0.124376 0.636182 0.249961
Si Si5 0.939956 0.685770 0.991645
Si Si6 0.956436 0.659075 0.456623
O O1 0.353324 0.315293 0.850915
O O2 0.419311 0.287834 0.639254
O O3 0.439390 0.188696 0.884161
O O4 0.371129 0.046813 0.730457
O O5 0.292904 0.475286 0.278144
O O6 0.223453 0.138041 0.514653
O O7 0.268567 0.240549 0.748455
O O8 0.177356 0.299193 0.713066
O O9 0.107304 0.672295 0.408843
O O10 0.084339 0.722488 0.151469
O O11 0.958531 0.523307 0.926165
O O12 0.990520 0.744266 0.066839
#
# Coordination Sequence:
#
# PCOD8246934 Si02
#       6
#     8   8   8   8   8   8
#     4  10  20  36  62  93 129 165 210 259 314 370
#     4  12  27  46  69  94 127 164 210 262 321 386
#     4  12  27  46  69  94 127 164 210 262 321 386
#     4  10  20  36  62  93 129 165 210 259 314 370
#     4   9  18  28  60  91 128 165 212 259 306 361
#     4   9  16  34  52  93 128 167 210 261 306 359
#
# _framework density 21.486305999999999
#
# number of rings (size 3 to 8) (size 9 to 14) (size 15 to 20)
#    0.000    1.667    1.667    3.000    4.667    4.000 
#    0.000    0.000    0.000    6.000    0.000    0.000 
#    0.000    0.000    0.000    0.000    0.000    0.000 
#
# Total GULP energy -594812.436137 kJ/mol
# GULP energy per Si atom -12391.925753 kJ/mol
# Density = 2.143740 g / cm^3
# Si number density = 21.486306 Si / 1000 Ang^3
#
#
#
# Elastic Constant Matrix: (Units=GPa)
#
#
# Indices 1 2 3 4 5 6 
#
# 1 73.2954 3.8445 5.2897 0.0000 0.0000 0.0000
# 2 3.8445 50.8235 5.3636 0.0000 0.0000 0.0000
# 3 5.2897 5.3636 106.8212 0.0000 0.0000 0.0000
# 4 0.0000 0.0000 0.0000 24.6052 0.0000 0.0000
# 5 0.0000 0.0000 0.0000 0.0000 42.0568 0.0000
# 6 0.0000 0.0000 0.0000 0.0000 0.0000 14.8375
#
#
#
# Elastic Compliance Matrix: (Units=1/GPa)
#
#
# Indices 1 2 3 4 5 6 
#
# 1 0.013740 -0.000973 -0.000632 0.000000 0.000000 0.000000
# 2 -0.000973 0.019850 -0.000949 0.000000 0.000000 0.000000
# 3 -0.000632 -0.000949 0.009440 0.000000 0.000000 0.000000
# 4 0.000000 0.000000 0.000000 0.040642 0.000000 0.000000
# 5 0.000000 0.000000 0.000000 0.000000 0.023777 0.000000
# 6 0.000000 0.000000 0.000000 0.000000 0.000000 0.067397
#
#
# Mechanical properties :
#
#
# Convention : Reuss Voigt Hill
#
# Bulk Modulus (GPa) = 26.36819 28.88173 27.62496
# Shear Modulus (GPa) = 25.96153 30.72941 28.34547
#
# Velocity S-wave (km/s) = 3.47981 3.78588 3.63607
# Velocity P-wave (km/s) = 5.33330 5.70803 5.52385
#
# Compressibility (1/GPa) = 0.03792448
#
# Stress axis : x y z
#
# Youngs Moduli (GPa) = 72.78012 50.37879 105.92844
#
# Poissons Ratio (x) = 0.04900 0.06690
# Poissons Ratio (y) = 0.07079 0.10047
# Poissons Ratio (z) = 0.04596 0.04778
#
# Static dielectric constant tensor:
#      x y z
#    x 4.140770 0.000000 0.000000 
#    y 0.000000 3.440790 0.000000 
#    z 0.000000 0.000000 4.058230 
# 
# 
# High freq. dielectric constant tensor:
#      x y z
#    x 1.858950 0.000000 0.000000 
#    y 0.000000 1.784280 0.000000 
#    z 0.000000 0.000000 1.862770 
# 
# From -- ./inp_files/13029.got.cif
#   From: 2010.03.12/outbox.cif.g09.slc.cpg/sg60_7_cif.got.tgz:13029.got - 2010.04.10 18:46:24.
