data_PCOD8246264
_publ_section_title
;
Structure prediction by ZEFSAII (Michael W. Deem and Ramdas Pophale) SiO2 
 PCOD8246264
Probable space group: P M M N
;
_chemical_formula_sum "Si O2"
_cell_formula_units_Z 48
_cell_length_a 9.000000
_cell_length_b 9.000000
_cell_length_c 30.000000
_cell_angle_alpha 90.000000
_cell_angle_beta 90.000000
_cell_angle_gamma 90.000000
_cell_volume 2430.000000
_symmetry_space_group_name_H-M "P M M N"
_symmetry_group_IT_number 59
_space_group.IT_coordinate_system_code '2'
_symmetry_cell_setting 'orthorhombic'
loop_
_space_group_symop_operation_xyz
x,y,z
1/2-x,1/2-y,z
1/2+x,-y,-z
-x,1/2+y,-z
-x,-y,-z
1/2+x,1/2+y,-z
1/2-x,y,z
x,1/2-y,z
loop_
_atom_site_type_symbol
_atom_site_label
_atom_site_fract_x
_atom_site_fract_y
_atom_site_fract_z
Si Si1 0.581647 0.575290 0.039769
Si Si2 0.075838 0.911106 0.366066
Si Si3 0.414787 0.575421 0.801886
Si Si4 0.410751 0.923773 0.703971
Si Si5 0.413640 0.923488 0.461728
Si Si6 0.080196 0.581015 0.125233
O O1 0.750000 0.526103 0.037583
O O2 0.557159 0.750000 0.036703
O O3 0.515173 0.511768 0.085377
O O4 0.500000 0.500000 0.000000
O O5 0.250000 0.899785 0.372781
O O6 0.013135 0.750000 0.351239
O O7 0.008232 0.957107 0.413995
O O8 0.039708 0.030953 0.329131
O O9 0.250000 0.530958 0.819485
O O10 0.433121 0.750000 0.801874
O O11 0.438123 0.507784 0.752677
O O12 0.546286 0.508865 0.830633
O O13 0.250000 0.977126 0.685641
O O14 0.412237 0.750000 0.709383
O O15 0.250000 0.992781 0.462244
O O16 0.408753 0.750000 0.470714
O O17 0.500000 0.000000 0.500000
O O18 0.250000 0.563898 0.111827
O O19 0.034595 0.750000 0.134053
#
# Coordination Sequence:
#
# PCOD8246264 Si02
#       6
#     8   8   8   8   8   8
#     4  10  21  37  57  80 106 138 175 213 255 304
#     4   9  19  35  52  72 101 134 167 205 250 301
#     4   9  19  36  55  75 102 136 172 210 253 301
#     4   9  19  35  53  75 103 133 168 210 253 299
#     4   9  19  35  52  72 100 132 166 206 251 299
#     4  10  21  36  54  78 107 137 171 212 256 302
#
# _framework density 19.753086
#
# number of rings (size 3 to 8) (size 9 to 14) (size 15 to 20)
#    0.000    2.667    0.000    3.000    0.000    6.667 
#    0.000   10.000    0.000    0.000    0.000    0.000 
#    0.000    0.000    0.000    0.000    0.000    0.000 
#
# Total GULP energy -594825.571356 kJ/mol
# GULP energy per Si atom -12392.199403 kJ/mol
# Density = 1.970813 g / cm^3
# Si number density = 19.753086 Si / 1000 Ang^3
#
#
#
# Elastic Constant Matrix: (Units=GPa)
#
#
# Indices 1 2 3 4 5 6 
#
# 1 54.5882 38.3322 64.8881 0.0000 0.0000 0.0000
# 2 38.3322 17.1543 52.3345 0.0000 0.0000 0.0000
# 3 64.8881 52.3345 122.8493 0.0000 0.0000 0.0000
# 4 0.0000 0.0000 0.0000 29.2061 0.0000 0.0000
# 5 0.0000 0.0000 0.0000 0.0000 27.8249 0.0000
# 6 0.0000 0.0000 0.0000 0.0000 0.0000 25.8343
#
#
#
# Elastic Compliance Matrix: (Units=1/GPa)
#
#
# Indices 1 2 3 4 5 6 
#
# 1 0.023505 0.048879 -0.033238 0.000000 0.000000 0.000000
# 2 0.048879 -0.092892 0.013755 0.000000 0.000000 0.000000
# 3 -0.033238 0.013755 0.019836 0.000000 0.000000 0.000000
# 4 0.000000 0.000000 0.000000 0.034239 0.000000 0.000000
# 5 0.000000 0.000000 0.000000 0.000000 0.035939 0.000000
# 6 0.000000 0.000000 0.000000 0.000000 0.000000 0.038708
#
#
# Mechanical properties :
#
#
# Convention : Reuss Voigt Hill
#
# Bulk Modulus (GPa) = 108.20510 56.18905 82.19707
# Shear Modulus (GPa) = 1379.10979 19.17554 699.14267
#
# Velocity S-wave (km/s) = 26.45165 3.11909 18.83373
# Velocity P-wave (km/s) = 31.42957 6.44042 22.68586
#
# Compressibility (1/GPa) = 0.00924171
#
# Stress axis : x y z
#
# Youngs Moduli (GPa) = 42.54338 -10.76520 50.41216
#
# Poissons Ratio (x) = 0.52619 1.67561
# Poissons Ratio (y) = -2.07948 -0.69342
# Poissons Ratio (z) = 1.41406 0.14807
#
# Static dielectric constant tensor:
#      x y z
#    x 3.470900 0.000000 0.000000 
#    y 0.000000 3.247000 0.000000 
#    z 0.000000 0.000000 3.462080 
# 
# 
# High freq. dielectric constant tensor:
#      x y z
#    x 1.750620 0.000000 0.000000 
#    y 0.000000 1.738720 0.000000 
#    z 0.000000 0.000000 1.765160 
# 
# From -- ./inp_files/32801.got.cif
#   From: 2010.03.12/outbox.ucp.g09.slc.cvg/sg59_17_cif.got.tgz:32801.got - 2010.05.04 19:30:51.
