data_PCOD8246689
_publ_section_title
;
Structure prediction by ZEFSAII (Michael W. Deem and Ramdas Pophale) SiO2 
 PCOD8246689
Probable space group: P B C N
;
_chemical_formula_sum "Si O2"
_cell_formula_units_Z 40
_cell_length_a 21.148928
_cell_length_b 8.901514
_cell_length_c 10.575412
_cell_angle_alpha 90.000000
_cell_angle_beta 90.000000
_cell_angle_gamma 90.000000
_cell_volume 1990.900399
_symmetry_space_group_name_H-M "P B C N"
_symmetry_group_IT_number 60
_symmetry_cell_setting 'orthorhombic'
loop_
_space_group_symop_operation_xyz
x,y,z
1/2-x,1/2-y,1/2+z
1/2+x,1/2-y,-z
-x,y,1/2-z
-x,-y,-z
1/2+x,1/2+y,1/2-z
1/2-x,1/2+y,z
x,-y,1/2+z
loop_
_atom_site_type_symbol
_atom_site_label
_atom_site_fract_x
_atom_site_fract_y
_atom_site_fract_z
Si Si1 0.532938 0.314913 0.878004
Si Si2 0.834000 0.244233 0.762119
Si Si3 0.747247 0.998854 0.869618
Si Si4 0.164080 0.249739 0.022228
Si Si5 0.961943 0.828237 0.372171
O O1 0.500000 0.254566 0.750000
O O2 0.603174 0.245267 0.886024
O O3 0.539294 0.492946 0.875276
O O4 0.491436 0.263201 0.998544
O O5 0.797610 0.399390 0.781687
O O6 0.861433 0.237874 0.620614
O O7 0.890661 0.232873 0.862923
O O8 0.786865 0.104660 0.777058
O O9 0.793225 0.895958 0.952443
O O10 0.704841 0.099739 0.962672
O O11 0.000000 0.769961 0.250000
#
# Coordination Sequence:
#
# PCOD8246689 Si02
#       5
#     8   8   8   8   8
#     4  10  21  36  60  92 122 157 205 253 300 361
#     4  11  21  41  63  89 123 161 203 253 303 369
#     4  10  24  38  60  93 121 162 201 247 311 360
#     4  11  21  42  62  90 124 158 203 255 300 368
#     4  10  19  36  62  88 117 161 201 246 303 360
#
# _framework density 20.091411000000001
#
# number of rings (size 3 to 8) (size 9 to 14) (size 15 to 20)
#    0.000    1.600    4.000    1.200    0.000    0.000 
#   18.000    2.000    0.000    0.000    0.000    0.000 
#    0.000    0.000    0.000    0.000    0.000    0.000 
#
# Total GULP energy -496127.358922 kJ/mol
# GULP energy per Si atom -12403.183973 kJ/mol
# Density = 2.004568 g / cm^3
# Si number density = 20.091411 Si / 1000 Ang^3
#
#
#
# Elastic Constant Matrix: (Units=GPa)
#
#
# Indices 1 2 3 4 5 6 
#
# 1 153.4713 44.2317 66.1452 0.0000 0.0000 0.0000
# 2 44.2317 84.6764 30.9055 0.0000 0.0000 0.0000
# 3 66.1452 30.9055 143.0737 0.0000 0.0000 0.0000
# 4 0.0000 0.0000 0.0000 10.0825 0.0000 0.0000
# 5 0.0000 0.0000 0.0000 0.0000 37.9769 0.0000
# 6 0.0000 0.0000 0.0000 0.0000 0.0000 9.1096
#
#
#
# Elastic Compliance Matrix: (Units=1/GPa)
#
#
# Indices 1 2 3 4 5 6 
#
# 1 0.008977 -0.003446 -0.003406 0.000000 0.000000 0.000000
# 2 -0.003446 0.014143 -0.001462 0.000000 0.000000 0.000000
# 3 -0.003406 -0.001462 0.008880 0.000000 0.000000 0.000000
# 4 0.000000 0.000000 0.000000 0.099182 0.000000 0.000000
# 5 0.000000 0.000000 0.000000 0.000000 0.026332 0.000000
# 6 0.000000 0.000000 0.000000 0.000000 0.000000 0.109774
#
#
# Mechanical properties :
#
#
# Convention : Reuss Voigt Hill
#
# Bulk Modulus (GPa) = 65.05179 73.75404 69.40291
# Shear Modulus (GPa) = 17.29865 27.42972 22.36418
#
# Velocity S-wave (km/s) = 2.93746 3.69893 3.33997
# Velocity P-wave (km/s) = 6.62971 7.41834 7.03508
#
# Compressibility (1/GPa) = 0.01537237
#
# Stress axis : x y z
#
# Youngs Moduli (GPa) = 111.39623 70.70444 112.61594
#
# Poissons Ratio (x) = 0.24366 0.38355
# Poissons Ratio (y) = 0.38389 0.16463
# Poissons Ratio (z) = 0.37939 0.10336
#
# Static dielectric constant tensor:
#      x y z
#    x 3.727680 0.000000 0.000000 
#    y 0.000000 3.447630 0.000000 
#    z 0.000000 0.000000 3.598130 
# 
# 
# High freq. dielectric constant tensor:
#      x y z
#    x 1.799090 0.000000 0.000000 
#    y 0.000000 1.761930 0.000000 
#    z 0.000000 0.000000 1.782820 
# 
# From -- ./inp_files/7711.got.cif
#   From: 2010.03.12/outbox.cif.g09.slc.cpg/sg60_4_cif.got.tgz:7711.got - 2010.04.10 18:46:24.
