data_PCOD8246241
_publ_section_title
;
Structure prediction by ZEFSAII (Michael W. Deem and Ramdas Pophale) SiO2 
 PCOD8246241
Probable space group: P M M N
;
_chemical_formula_sum "Si O2"
_cell_formula_units_Z 48
_cell_length_a 9.675610
_cell_length_b 13.546830
_cell_length_c 23.592981
_cell_angle_alpha 90.000000
_cell_angle_beta 90.000000
_cell_angle_gamma 90.000000
_cell_volume 3092.422707
_symmetry_space_group_name_H-M "P M M N"
_symmetry_group_IT_number 59
_space_group.IT_coordinate_system_code '2'
_symmetry_cell_setting 'orthorhombic'
loop_
_space_group_symop_operation_xyz
x,y,z
1/2-x,1/2-y,z
1/2+x,-y,-z
-x,1/2+y,-z
-x,-y,-z
1/2+x,1/2+y,-z
1/2-x,y,z
x,1/2-y,z
loop_
_atom_site_type_symbol
_atom_site_label
_atom_site_fract_x
_atom_site_fract_y
_atom_site_fract_z
Si Si1 0.090054 0.136571 0.469750
Si Si2 0.409254 0.635617 0.198861
Si Si3 0.589884 0.636121 0.304221
Si Si4 0.407880 0.360128 0.015079
Si Si5 0.410224 0.948011 0.079833
Si Si6 0.089987 0.477433 0.583102
O O1 0.250000 0.121650 0.454293
O O2 0.045572 0.250000 0.465676
O O3 0.058647 0.100212 0.533270
O O4 0.999902 0.075890 0.424643
O O5 0.250000 0.618103 0.214891
O O6 0.438207 0.750000 0.184970
O O7 0.501249 0.598338 0.251085
O O8 0.453572 0.571229 0.144523
O O9 0.750000 0.620866 0.289446
O O10 0.557288 0.750000 0.317788
O O11 0.545052 0.573038 0.358458
O O12 0.250000 0.373494 0.994979
O O13 0.434158 0.250000 0.038945
O O14 0.503246 0.376852 0.960724
O O15 0.442453 0.437639 0.065079
O O16 0.250000 0.921129 0.070845
O O17 0.250000 0.508005 0.583578
#
# Coordination Sequence:
#
# PCOD8246241 Si02
#       6
#     8   8   8   8   8   8
#     4   9  17  29  45  65  89 115 142 174 212 254
#     4   9  17  28  42  61  84 110 141 176 212 250
#     4   9  17  29  45  64  86 113 143 174 210 251
#     4   9  17  28  43  64  87 110 139 175 211 248
#     4   9  17  29  44  62  86 115 142 170 209 254
#     4   9  17  29  45  65  88 114 143 175 212 253
#
# _framework density 15.521812000000001
#
# number of rings (size 3 to 8) (size 9 to 14) (size 15 to 20)
#    0.000    3.000    0.000    1.000    0.000    4.667 
#    0.000    1.667    0.000    4.000    0.000    2.333 
#    0.000    0.000    0.000    0.000    0.000    0.000 
#
# Total GULP energy -595218.183978 kJ/mol
# GULP energy per Si atom -12400.378833 kJ/mol
# Density = 1.548648 g / cm^3
# Si number density = 15.521812 Si / 1000 Ang^3
#
#
#
# Elastic Constant Matrix: (Units=GPa)
#
#
# Indices 1 2 3 4 5 6 
#
# 1 58.7352 49.1092 60.5187 0.0000 0.0000 0.0000
# 2 49.1092 106.2697 64.3288 0.0000 0.0000 0.0000
# 3 60.5187 64.3288 129.1297 0.0000 0.0000 0.0000
# 4 0.0000 0.0000 0.0000 23.2468 0.0000 0.0000
# 5 0.0000 0.0000 0.0000 0.0000 29.3286 0.0000
# 6 0.0000 0.0000 0.0000 0.0000 0.0000 24.1033
#
#
#
# Elastic Compliance Matrix: (Units=1/GPa)
#
#
# Indices 1 2 3 4 5 6 
#
# 1 0.039172 -0.010007 -0.013373 0.000000 0.000000 0.000000
# 2 -0.010007 0.016029 -0.003296 0.000000 0.000000 0.000000
# 3 -0.013373 -0.003296 0.015654 0.000000 0.000000 0.000000
# 4 0.000000 0.000000 0.000000 0.043017 0.000000 0.000000
# 5 0.000000 0.000000 0.000000 0.000000 0.034096 0.000000
# 6 0.000000 0.000000 0.000000 0.000000 0.000000 0.041488
#
#
# Mechanical properties :
#
#
# Convention : Reuss Voigt Hill
#
# Bulk Modulus (GPa) = 57.13195 71.33866 64.23530
# Shear Modulus (GPa) = 20.10928 23.34757 21.72843
#
# Velocity S-wave (km/s) = 3.60328 3.88258 3.74553
# Velocity P-wave (km/s) = 7.36199 8.13384 7.75752
#
# Compressibility (1/GPa) = 0.01750334
#
# Stress axis : x y z
#
# Youngs Moduli (GPa) = 25.52860 62.38633 63.88311
#
# Poissons Ratio (x) = 0.62427 0.85434
# Poissons Ratio (y) = 0.25545 0.21053
# Poissons Ratio (z) = 0.34141 0.20560
#
# Static dielectric constant tensor:
#      x y z
#    x 3.003740 0.000000 0.000000 
#    y 0.000000 2.969040 0.000000 
#    z 0.000000 0.000000 2.897490 
# 
# 
# High freq. dielectric constant tensor:
#      x y z
#    x 1.598220 0.000000 0.000000 
#    y 0.000000 1.586110 0.000000 
#    z 0.000000 0.000000 1.582150 
# 
# From -- ./inp_files/26913.got.cif
#   From: 2010.03.12/outbox.cif.g09.slc.cpg/sg59_14_cif.got.tgz:26913.got - 2010.04.16 16:29:54.
