data_PCOD8246791
_publ_section_title
;
Structure prediction by ZEFSAII (Michael W. Deem and Ramdas Pophale) SiO2 
 PCOD8246791
Probable space group: P B C N
;
_chemical_formula_sum "Si O2"
_cell_formula_units_Z 64
_cell_length_a 31.137071
_cell_length_b 12.879574
_cell_length_c 9.225842
_cell_angle_alpha 90.000000
_cell_angle_beta 90.000000
_cell_angle_gamma 90.000000
_cell_volume 3699.859807
_symmetry_space_group_name_H-M "P B C N"
_symmetry_group_IT_number 60
_symmetry_cell_setting 'orthorhombic'
loop_
_space_group_symop_operation_xyz
x,y,z
1/2-x,1/2-y,1/2+z
1/2+x,1/2-y,-z
-x,y,1/2-z
-x,-y,-z
1/2+x,1/2+y,1/2-z
1/2-x,1/2+y,z
x,-y,1/2+z
loop_
_atom_site_type_symbol
_atom_site_label
_atom_site_fract_x
_atom_site_fract_y
_atom_site_fract_z
Si Si1 0.868467 0.649790 0.264357
Si Si2 0.319889 0.794493 0.466514
Si Si3 0.188845 0.681798 0.483267
Si Si4 0.270197 0.385763 0.571227
Si Si5 0.460180 0.093194 0.664300
Si Si6 0.540443 0.873634 0.680302
Si Si7 0.723598 0.413564 0.595394
Si Si8 0.366350 0.093979 0.715754
O O1 0.860300 0.686455 0.427947
O O2 0.829887 0.704403 0.176186
O O3 0.915192 0.688473 0.208137
O O4 0.866050 0.526236 0.244002
O O5 0.277045 0.852081 0.519985
O O6 0.312321 0.672036 0.442994
O O7 0.333797 0.843653 0.315874
O O8 0.196660 0.790724 0.562723
O O9 0.232408 0.617747 0.481437
O O10 0.152788 0.609683 0.556177
O O11 0.268667 0.426285 0.734360
O O12 0.289692 0.475516 0.469145
O O13 0.500000 0.148673 0.750000
O O14 0.465979 0.100247 0.490014
O O15 0.414606 0.142080 0.714176
O O16 0.458452 0.974354 0.715228
O O17 0.500000 0.809408 0.750000
#
# Coordination Sequence:
#
# PCOD8246791 Si02
#       8
#     8   8   8   8   8   8   8   8
#     4  11  21  33  54  77 103 143 176 215 255 305
#     4  11  24  36  53  78 104 139 181 218 256 313
#     4  11  22  38  51  76 106 135 181 216 255 309
#     4  11  24  38  55  74 105 138 174 222 265 308
#     4  10  20  31  47  70 103 141 173 211 258 308
#     4  10  20  31  47  71 103 139 175 209 257 310
#     4  11  24  38  55  75 103 140 174 220 270 302
#     4  11  21  35  52  75 107 141 180 213 256 306
#
# _framework density 17.297953
#
# number of rings (size 3 to 8) (size 9 to 14) (size 15 to 20)
#    0.000    1.250    3.750    3.750   10.500    0.000 
#    0.000    0.000    0.000    0.000    0.000    0.000 
#    0.000    6.000    0.000    0.000    0.000    0.000 
#
# Total GULP energy -793348.695999 kJ/mol
# GULP energy per Si atom -12396.073375 kJ/mol
# Density = 1.725858 g / cm^3
# Si number density = 17.297953 Si / 1000 Ang^3
#
#
#
# Elastic Constant Matrix: (Units=GPa)
#
#
# Indices 1 2 3 4 5 6 
#
# 1 100.3744 23.4599 29.4334 0.0000 0.0000 0.0000
# 2 23.4599 44.5760 27.8303 0.0000 0.0000 0.0000
# 3 29.4334 27.8303 93.6462 0.0000 0.0000 0.0000
# 4 0.0000 0.0000 0.0000 25.3700 0.0000 0.0000
# 5 0.0000 0.0000 0.0000 0.0000 29.3157 0.0000
# 6 0.0000 0.0000 0.0000 0.0000 0.0000 13.4011
#
#
#
# Elastic Compliance Matrix: (Units=1/GPa)
#
#
# Indices 1 2 3 4 5 6 
#
# 1 0.011742 -0.004759 -0.002277 0.000000 0.000000 0.000000
# 2 -0.004759 0.029473 -0.007263 0.000000 0.000000 0.000000
# 3 -0.002277 -0.007263 0.013553 0.000000 0.000000 0.000000
# 4 0.000000 0.000000 0.000000 0.039417 0.000000 0.000000
# 5 0.000000 0.000000 0.000000 0.000000 0.034111 0.000000
# 6 0.000000 0.000000 0.000000 0.000000 0.000000 0.074621
#
#
# Mechanical properties :
#
#
# Convention : Reuss Voigt Hill
#
# Bulk Modulus (GPa) = 38.21026 44.44933 41.32979
# Shear Modulus (GPa) = 20.81278 24.14221 22.47750
#
# Velocity S-wave (km/s) = 3.47247 3.73992 3.60867
# Velocity P-wave (km/s) = 6.18181 6.66344 6.42714
#
# Compressibility (1/GPa) = 0.02617098
#
# Stress axis : x y z
#
# Youngs Moduli (GPa) = 85.16094 33.92966 73.78694
#
# Poissons Ratio (x) = 0.16146 0.16798
# Poissons Ratio (y) = 0.40525 0.53593
# Poissons Ratio (z) = 0.19387 0.24644
#
# Static dielectric constant tensor:
#      x y z
#    x 3.784950 0.000000 0.000000 
#    y 0.000000 2.888450 0.000000 
#    z 0.000000 0.000000 3.347470 
# 
# 
# High freq. dielectric constant tensor:
#      x y z
#    x 1.671690 0.000000 0.000000 
#    y 0.000000 1.612070 0.000000 
#    z 0.000000 0.000000 1.692580 
# 
# From -- ./inp_files/8493.got.cif
#   From: 2010.03.12/outbox.cif.g09.slc.cpg/sg60_5_cif.got.tgz:8493.got - 2010.04.10 18:46:24.
