data_PCOD8246494
_publ_section_title
;
Structure prediction by ZEFSAII (Michael W. Deem and Ramdas Pophale) SiO2 
 PCOD8246494
Probable space group: P B C N
;
_chemical_formula_sum "Si O2"
_cell_formula_units_Z 60
_cell_length_a 8.935727
_cell_length_b 27.278707
_cell_length_c 12.332504
_cell_angle_alpha 90.000000
_cell_angle_beta 90.000000
_cell_angle_gamma 90.000000
_cell_volume 3006.110483
_symmetry_space_group_name_H-M "P B C N"
_symmetry_group_IT_number 60
_symmetry_cell_setting 'orthorhombic'
loop_
_space_group_symop_operation_xyz
x,y,z
1/2-x,1/2-y,1/2+z
1/2+x,1/2-y,-z
-x,y,1/2-z
-x,-y,-z
1/2+x,1/2+y,1/2-z
1/2-x,1/2+y,z
x,-y,1/2+z
loop_
_atom_site_type_symbol
_atom_site_label
_atom_site_fract_x
_atom_site_fract_y
_atom_site_fract_z
Si Si1 0.647254 0.362197 0.445021
Si Si2 0.898792 0.468313 0.149061
Si Si3 0.216478 0.880397 0.283900
Si Si4 0.549080 0.845401 0.868202
Si Si5 0.890443 0.718543 0.959812
Si Si6 0.656934 0.331790 0.988968
Si Si7 0.112009 0.432256 0.967830
Si Si8 0.500000 0.179499 0.750000
O O1 0.598883 0.375962 0.318825
O O2 0.736933 0.311320 0.446805
O O3 0.507077 0.355505 0.526903
O O4 0.735694 0.408343 0.491507
O O5 0.751935 0.436931 0.183470
O O6 0.842807 0.516798 0.087662
O O7 0.000000 0.484484 0.250000
O O8 0.999999 0.436432 0.068644
O O9 0.191200 0.846894 0.387896
O O10 0.364907 0.857803 0.231409
O O11 0.500000 0.827094 0.750000
O O12 0.726655 0.851311 0.897170
O O13 0.470057 0.897605 0.881985
O O14 0.488610 0.802845 0.944133
O O15 0.846407 0.773637 0.983653
O O16 0.997850 0.714996 0.854310
#
# Coordination Sequence:
#
# PCOD8246494 Si02
#       8
#     8   8   8   8   8   8   8   4
#     4  10  22  39  60  95 131 160 207 269 319 376
#     4  11  18  35  70  92 113 158 218 258 309 382
#     4  11  19  37  64  94 121 158 205 269 313 374
#     4  11  23  42  61  89 130 168 211 258 309 391
#     4  10  22  40  63  89 123 170 221 257 304 380
#     4  12  23  38  61  93 128 167 210 260 326 372
#     4  10  21  38  62  93 119 159 213 261 307 381
#     4  10  18  38  66  84 120 156 218 262 298 356
#
# _framework density 19.959347000000001
#
# number of rings (size 3 to 8) (size 9 to 14) (size 15 to 20)
#    0.000    1.333    4.667    2.400    0.000    3.200 
#    2.400    0.667    0.000    1.600    0.000    0.000 
#    0.000    0.000    0.000    0.000    0.000    0.000 
#
# Total GULP energy -743670.424253 kJ/mol
# GULP energy per Si atom -12394.507071 kJ/mol
# Density = 1.991392 g / cm^3
# Si number density = 19.959347 Si / 1000 Ang^3
#
#
#
# Elastic Constant Matrix: (Units=GPa)
#
#
# Indices 1 2 3 4 5 6 
#
# 1 53.9404 26.0274 39.4889 0.0000 0.0000 0.0000
# 2 26.0274 114.7681 40.0426 0.0000 0.0000 0.0000
# 3 39.4889 40.0426 133.7320 0.0000 0.0000 0.0000
# 4 0.0000 0.0000 0.0000 -30.6676 0.0000 0.0000
# 5 0.0000 0.0000 0.0000 0.0000 33.1314 0.0000
# 6 0.0000 0.0000 0.0000 0.0000 0.0000 6.3318
#
#
#
# Elastic Compliance Matrix: (Units=1/GPa)
#
#
# Indices 1 2 3 4 5 6 
#
# 1 0.024803 -0.003428 -0.006298 0.000000 0.000000 0.000000
# 2 -0.003428 0.010203 -0.002043 0.000000 0.000000 0.000000
# 3 -0.006298 -0.002043 0.009949 0.000000 0.000000 0.000000
# 4 0.000000 0.000000 0.000000 -0.032608 0.000000 0.000000
# 5 0.000000 0.000000 0.000000 0.000000 0.030183 0.000000
# 6 0.000000 0.000000 0.000000 0.000000 0.000000 0.157933
#
#
# Mechanical properties :
#
#
# Convention : Reuss Voigt Hill
#
# Bulk Modulus (GPa) = 46.68769 57.06204 51.87486
# Shear Modulus (GPa) = 21.63192 14.88455 18.25824
#
# Velocity S-wave (km/s) = 3.29568 2.73379 3.02780
# Velocity P-wave (km/s) = 6.15826 6.21418 6.18628
#
# Compressibility (1/GPa) = 0.02141892
#
# Stress axis : x y z
#
# Youngs Moduli (GPa) = 40.31708 98.00685 100.51293
#
# Poissons Ratio (x) = 0.33594 0.63300
# Poissons Ratio (y) = 0.13820 0.20535
# Poissons Ratio (z) = 0.25391 0.20023
#
# Static dielectric constant tensor:
#      x y z
#    x 4.492490 0.000000 0.000000 
#    y 0.000000 3.503600 0.000000 
#    z 0.000000 0.000000 4.331250 
# 
# 
# High freq. dielectric constant tensor:
#      x y z
#    x 1.771440 0.000000 0.000000 
#    y 0.000000 1.774080 0.000000 
#    z 0.000000 0.000000 1.784580 
# 
# From -- ./inp_files/10288.got.cif
#   From: 2010.03.12/outbox.cif.g09.slc.cpg/sg60_6_cif.got.tgz:10288.got - 2010.04.10 18:46:24.
