data_PCOD8246598
_publ_section_title
;
Structure prediction by ZEFSAII (Michael W. Deem and Ramdas Pophale) SiO2 
 PCOD8246598
Probable space group: P B C N
;
_chemical_formula_sum "Si O2"
_cell_formula_units_Z 64
_cell_length_a 5.319818
_cell_length_b 19.269544
_cell_length_c 28.632231
_cell_angle_alpha 90.000000
_cell_angle_beta 90.000000
_cell_angle_gamma 90.000000
_cell_volume 2935.103372
_symmetry_space_group_name_H-M "P B C N"
_symmetry_group_IT_number 60
_symmetry_cell_setting 'orthorhombic'
loop_
_space_group_symop_operation_xyz
x,y,z
1/2-x,1/2-y,1/2+z
1/2+x,1/2-y,-z
-x,y,1/2-z
-x,-y,-z
1/2+x,1/2+y,1/2-z
1/2-x,1/2+y,z
x,-y,1/2+z
loop_
_atom_site_type_symbol
_atom_site_label
_atom_site_fract_x
_atom_site_fract_y
_atom_site_fract_z
Si Si1 0.508947 0.211469 0.599498
Si Si2 0.470102 0.086938 0.834590
Si Si3 0.529812 0.445955 0.300884
Si Si4 0.457083 0.422332 0.017376
Si Si5 0.037064 0.994627 0.599572
Si Si6 0.508200 0.790521 0.896086
Si Si7 0.040070 0.658512 0.000263
Si Si8 0.036072 0.442853 0.885262
O O1 0.504094 0.132759 0.618903
O O2 0.264414 0.251944 0.618883
O O3 0.504195 0.210581 0.543241
O O4 0.762537 0.247170 0.618292
O O5 0.712432 0.098941 0.801529
O O6 0.211701 0.104602 0.807630
O O7 0.457098 0.004216 0.846882
O O8 0.500000 0.482772 0.250000
O O9 0.543599 0.499771 0.344046
O O10 0.470625 0.429759 0.074516
O O11 0.679528 0.372624 0.001011
O O12 0.182530 0.397711 0.001897
O O13 0.500000 0.500000 0.000000
O O14 0.794528 0.948730 0.584698
O O15 0.288873 0.954693 0.582311
O O16 0.488341 0.863604 0.867594
O O17 0.509017 0.800019 0.951904
#
# Coordination Sequence:
#
# PCOD8246598 Si02
#       8
#     8   8   8   8   8   8   8   8
#     4  12  24  40  58  82 118 158 195 241 298 347
#     4  10  21  38  60  88 116 147 188 237 292 350
#     4  10  19  34  59  92 120 145 184 242 297 347
#     4  12  22  35  57  85 118 155 195 245 297 341
#     4  10  19  34  54  85 120 148 186 239 298 346
#     4  12  24  39  57  83 115 158 205 242 289 344
#     4  12  23  37  53  77 114 158 202 244 287 342
#     4  10  20  37  58  82 112 145 191 242 280 341
#
# _framework density 21.805026000000002
#
# number of rings (size 3 to 8) (size 9 to 14) (size 15 to 20)
#    0.000    1.000    0.000    9.750    0.000    0.000 
#    0.000    0.000    0.000    0.000    0.000   70.000 
#    0.000    0.000    0.000    0.000    0.000    0.000 
#
# Total GULP energy -792842.730258 kJ/mol
# GULP energy per Si atom -12388.167660 kJ/mol
# Density = 2.175540 g / cm^3
# Si number density = 21.805026 Si / 1000 Ang^3
#
#
#
# Elastic Constant Matrix: (Units=GPa)
#
#
# Indices 1 2 3 4 5 6 
#
# 1 209.4726 26.7149 -7.1454 0.0000 0.0000 0.0000
# 2 26.7149 65.9391 16.6685 0.0000 0.0000 0.0000
# 3 -7.1454 16.6685 61.9354 0.0000 0.0000 0.0000
# 4 0.0000 0.0000 0.0000 12.7996 0.0000 0.0000
# 5 0.0000 0.0000 0.0000 0.0000 11.8459 0.0000
# 6 0.0000 0.0000 0.0000 0.0000 0.0000 30.2900
#
#
#
# Elastic Compliance Matrix: (Units=1/GPa)
#
#
# Indices 1 2 3 4 5 6 
#
# 1 0.005120 -0.002386 0.001233 0.000000 0.000000 0.000000
# 2 -0.002386 0.017384 -0.004954 0.000000 0.000000 0.000000
# 3 0.001233 -0.004954 0.017621 0.000000 0.000000 0.000000
# 4 0.000000 0.000000 0.000000 0.078127 0.000000 0.000000
# 5 0.000000 0.000000 0.000000 0.000000 0.084417 0.000000
# 6 0.000000 0.000000 0.000000 0.000000 0.000000 0.033014
#
#
# Mechanical properties :
#
#
# Convention : Reuss Voigt Hill
#
# Bulk Modulus (GPa) = 35.82713 45.53589 40.68151
# Shear Modulus (GPa) = 19.43992 31.06106 25.25049
#
# Velocity S-wave (km/s) = 2.98910 3.77834 3.40665
# Velocity P-wave (km/s) = 5.32722 6.32163 5.84561
#
# Compressibility (1/GPa) = 0.02791181
#
# Stress axis : x y z
#
# Youngs Moduli (GPa) = 195.30261 57.52253 56.74946
#
# Poissons Ratio (x) = 0.13725 -0.06997
# Poissons Ratio (y) = 0.46601 0.28113
# Poissons Ratio (z) = -0.24078 0.28496
#
# Static dielectric constant tensor:
#      x y z
#    x 5.560380 0.000000 0.000000 
#    y 0.000000 3.733060 0.000000 
#    z 0.000000 0.000000 3.686070 
# 
# 
# High freq. dielectric constant tensor:
#      x y z
#    x 1.910090 0.000000 0.000000 
#    y 0.000000 1.826900 0.000000 
#    z 0.000000 0.000000 1.811000 
# 
# From -- ./inp_files/25042.got.cif
#   From: 2010.03.12/outbox.cif.g09.slc.cpg/sg60_13_cif.got.tgz:25042.got - 2010.04.10 18:46:24.
