data_PCOD8246684
_publ_section_title
;
Structure prediction by ZEFSAII (Michael W. Deem and Ramdas Pophale) SiO2 
 PCOD8246684
Probable space group: P B C N
;
_chemical_formula_sum "Si O2"
_cell_formula_units_Z 64
_cell_length_a 18.652442
_cell_length_b 19.172567
_cell_length_c 9.046423
_cell_angle_alpha 90.000000
_cell_angle_beta 90.000000
_cell_angle_gamma 90.000000
_cell_volume 3235.138316
_symmetry_space_group_name_H-M "P B C N"
_symmetry_group_IT_number 60
_symmetry_cell_setting 'orthorhombic'
loop_
_space_group_symop_operation_xyz
x,y,z
1/2-x,1/2-y,1/2+z
1/2+x,1/2-y,-z
-x,y,1/2-z
-x,-y,-z
1/2+x,1/2+y,1/2-z
1/2-x,1/2+y,z
x,-y,1/2+z
loop_
_atom_site_type_symbol
_atom_site_label
_atom_site_fract_x
_atom_site_fract_y
_atom_site_fract_z
Si Si1 0.057886 0.387556 0.368707
Si Si2 0.569876 0.290301 0.958419
Si Si3 0.222869 0.216335 0.541945
Si Si4 0.458969 0.146382 0.394870
Si Si5 0.702963 0.954023 0.215361
Si Si6 0.583782 0.724127 0.131834
Si Si7 0.312616 0.084854 0.451482
Si Si8 0.298916 0.670731 0.866778
O O1 0.130725 0.430999 0.368015
O O2 0.075025 0.306362 0.345880
O O3 0.000000 0.414009 0.250000
O O4 0.020756 0.398758 0.526473
O O5 0.486641 0.312665 0.940288
O O6 0.604137 0.302404 0.796089
O O7 0.570318 0.209440 0.004928
O O8 0.617311 0.332707 0.080129
O O9 0.144325 0.203542 0.481211
O O10 0.272339 0.157548 0.469458
O O11 0.215016 0.215495 0.718578
O O12 0.254596 0.291422 0.497345
O O13 0.500000 0.174726 0.250000
O O14 0.390347 0.096968 0.376385
O O15 0.686297 0.951953 0.388784
O O16 0.769896 0.906361 0.164763
O O17 0.725137 0.031716 0.163182
#
# Coordination Sequence:
#
# PCOD8246684 Si02
#       8
#     8   8   8   8   8   8   8   8
#     4  11  19  37  58  81 121 161 195 238 290 347
#     4  10  20  36  58  88 122 148 194 245 301 355
#     4  11  23  37  62  88 119 154 200 250 300 352
#     4  11  23  35  56  88 121 158 203 241 284 354
#     4  11  25  41  59  82 119 163 201 243 296 347
#     4  10  19  36  60  86 119 155 187 247 304 350
#     4  11  25  43  56  84 121 160 203 246 289 354
#     4  11  23  37  60  90 118 154 200 251 297 355
#
# _framework density 19.782768999999998
#
# number of rings (size 3 to 8) (size 9 to 14) (size 15 to 20)
#    0.000    1.250    6.250    0.750    5.250    3.000 
#    0.000    0.000    0.000    0.750    0.000    0.000 
#    0.000    0.000    0.000    0.000    0.000    0.000 
#
# Total GULP energy -793165.391701 kJ/mol
# GULP energy per Si atom -12393.209245 kJ/mol
# Density = 1.973774 g / cm^3
# Si number density = 19.782769 Si / 1000 Ang^3
#
#
#
# Elastic Constant Matrix: (Units=GPa)
#
#
# Indices 1 2 3 4 5 6 
#
# 1 84.3124 8.4308 43.1551 0.0000 0.0000 0.0000
# 2 8.4308 30.6726 25.8018 0.0000 0.0000 0.0000
# 3 43.1551 25.8018 75.1728 0.0000 0.0000 0.0000
# 4 0.0000 0.0000 0.0000 25.9311 0.0000 0.0000
# 5 0.0000 0.0000 0.0000 0.0000 37.9097 0.0000
# 6 0.0000 0.0000 0.0000 0.0000 0.0000 18.8488
#
#
#
# Elastic Compliance Matrix: (Units=1/GPa)
#
#
# Indices 1 2 3 4 5 6 
#
# 1 0.017340 0.005072 -0.011695 0.000000 0.000000 0.000000
# 2 0.005072 0.047320 -0.019154 0.000000 0.000000 0.000000
# 3 -0.011695 -0.019154 0.026591 0.000000 0.000000 0.000000
# 4 0.000000 0.000000 0.000000 0.038564 0.000000 0.000000
# 5 0.000000 0.000000 0.000000 0.000000 0.026378 0.000000
# 6 0.000000 0.000000 0.000000 0.000000 0.000000 0.053054
#
#
# Mechanical properties :
#
#
# Convention : Reuss Voigt Hill
#
# Bulk Modulus (GPa) = 25.19077 38.32589 31.75833
# Shear Modulus (GPa) = 18.24600 24.05593 21.15097
#
# Velocity S-wave (km/s) = 3.04026 3.49091 3.27335
# Velocity P-wave (km/s) = 5.00855 5.97194 5.51133
#
# Compressibility (1/GPa) = 0.03969708
#
# Stress axis : x y z
#
# Youngs Moduli (GPa) = 57.67141 21.13258 37.60702
#
# Poissons Ratio (x) = -0.10718 0.43982
# Poissons Ratio (y) = -0.29251 0.72031
# Poissons Ratio (z) = 0.67448 0.40476
#
# Static dielectric constant tensor:
#      x y z
#    x 3.924610 0.000000 0.000000 
#    y 0.000000 3.208350 0.000000 
#    z 0.000000 0.000000 3.804260 
# 
# 
# High freq. dielectric constant tensor:
#      x y z
#    x 1.776620 0.000000 0.000000 
#    y 0.000000 1.723550 0.000000 
#    z 0.000000 0.000000 1.784210 
# 
# From -- ./inp_files/7567.got.cif
#   From: 2010.03.12/outbox.cif.g09.slc.cpg/sg60_4_cif.got.tgz:7567.got - 2010.04.10 18:46:24.
