data_PCOD8246333
_publ_section_title
;
Structure prediction by ZEFSAII (Michael W. Deem and Ramdas Pophale) SiO2 
 PCOD8246333
Probable space group: P B C N
;
_chemical_formula_sum "Si O2"
_cell_formula_units_Z 56
_cell_length_a 8.679682
_cell_length_b 15.365200
_cell_length_c 18.639048
_cell_angle_alpha 90.000000
_cell_angle_beta 90.000000
_cell_angle_gamma 90.000000
_cell_volume 2485.797566
_symmetry_space_group_name_H-M "P B C N"
_symmetry_group_IT_number 60
_symmetry_cell_setting 'orthorhombic'
loop_
_space_group_symop_operation_xyz
x,y,z
1/2-x,1/2-y,1/2+z
1/2+x,1/2-y,-z
-x,y,1/2-z
-x,-y,-z
1/2+x,1/2+y,1/2-z
1/2-x,1/2+y,z
x,-y,1/2+z
loop_
_atom_site_type_symbol
_atom_site_label
_atom_site_fract_x
_atom_site_fract_y
_atom_site_fract_z
Si Si1 0.527909 0.411687 0.633117
Si Si2 0.000000 0.951705 0.250000
Si Si3 0.221363 0.682347 0.154364
Si Si4 0.552871 0.776347 0.567948
Si Si5 0.244425 0.381602 0.153780
Si Si6 0.836137 0.868387 0.494161
Si Si7 0.736015 0.736229 0.193823
Si Si8 0.000000 0.373453 0.250000
O O1 0.572413 0.488898 0.687013
O O2 0.345479 0.392466 0.636450
O O3 0.590339 0.433602 0.553104
O O4 0.611719 0.323748 0.655513
O O5 0.128264 0.889938 0.215952
O O6 0.279529 0.779761 0.133114
O O7 0.186638 0.683230 0.239954
O O8 0.072068 0.659540 0.105949
O O9 0.672408 0.829564 0.519859
O O10 0.465807 0.705389 0.519618
O O11 0.639619 0.730814 0.635606
O O12 0.301675 0.424502 0.078733
O O13 0.082290 0.424863 0.183539
O O14 0.644950 0.818744 0.222994
#
# Coordination Sequence:
#
# PCOD8246333 Si02
#       8
#     8   4   8   8   8   8   8   4
#     4  11  20  41  65  91 126 172 210 259 324 386
#     4  12  25  42  66  93 128 176 218 260 317 398
#     4  10  18  36  61  98 119 161 215 267 309 372
#     4  10  21  30  59  94 130 156 208 271 323 371
#     4  10  23  38  60  92 128 158 217 259 323 379
#     4  10  22  37  57  96 131 167 207 267 326 387
#     4  10  17  33  62  92 120 160 210 264 309 369
#     4  10  19  36  62  83 124 160 202 268 313 368
#
# _framework density 22.527978999999998
#
# number of rings (size 3 to 8) (size 9 to 14) (size 15 to 20)
#    0.000    1.714    4.286    2.143   10.000    0.571 
#    0.000    2.857    0.000    1.714    0.000    0.000 
#    0.000    0.000    0.000    0.000    0.000    0.000 
#
# Total GULP energy -693820.616182 kJ/mol
# GULP energy per Si atom -12389.653860 kJ/mol
# Density = 2.247670 g / cm^3
# Si number density = 22.527979 Si / 1000 Ang^3
#
#
#
# Elastic Constant Matrix: (Units=GPa)
#
#
# Indices 1 2 3 4 5 6 
#
# 1 124.6201 11.8080 71.0160 0.0000 0.0000 0.0000
# 2 11.8080 21.6333 14.4372 0.0000 0.0000 0.0000
# 3 71.0160 14.4372 170.6213 0.0000 0.0000 0.0000
# 4 0.0000 0.0000 0.0000 21.4669 0.0000 0.0000
# 5 0.0000 0.0000 0.0000 0.0000 54.3077 0.0000
# 6 0.0000 0.0000 0.0000 0.0000 0.0000 9.5021
#
#
#
# Elastic Compliance Matrix: (Units=1/GPa)
#
#
# Indices 1 2 3 4 5 6 
#
# 1 0.010705 -0.003041 -0.004198 0.000000 0.000000 0.000000
# 2 -0.003041 0.049856 -0.002953 0.000000 0.000000 0.000000
# 3 -0.004198 -0.002953 0.007858 0.000000 0.000000 0.000000
# 4 0.000000 0.000000 0.000000 0.046583 0.000000 0.000000
# 5 0.000000 0.000000 0.000000 0.000000 0.018414 0.000000
# 6 0.000000 0.000000 0.000000 0.000000 0.000000 0.105239
#
#
# Mechanical properties :
#
#
# Convention : Reuss Voigt Hill
#
# Bulk Modulus (GPa) = 20.81849 56.82189 38.82019
# Shear Modulus (GPa) = 18.17843 31.69624 24.93733
#
# Velocity S-wave (km/s) = 2.84373 3.75503 3.33069
# Velocity P-wave (km/s) = 4.47701 6.63912 5.66222
#
# Compressibility (1/GPa) = 0.04803423
#
# Stress axis : x y z
#
# Youngs Moduli (GPa) = 93.41432 20.05792 127.25583
#
# Poissons Ratio (x) = 0.06100 0.53426
# Poissons Ratio (y) = 0.28410 0.37575
# Poissons Ratio (z) = 0.39218 0.05922
#
# Static dielectric constant tensor:
#      x y z
#    x 4.404090 0.000000 0.000000 
#    y 0.000000 3.335620 0.000000 
#    z 0.000000 0.000000 5.087870 
# 
# 
# High freq. dielectric constant tensor:
#      x y z
#    x 1.896380 0.000000 0.000000 
#    y 0.000000 1.822420 0.000000 
#    z 0.000000 0.000000 1.916420 
# 
# From -- ./inp_files/22325.got.cif
#   From: 2010.03.12/outbox.cif.g09.slc.cpg/sg60_12_cif.got.tgz:22325.got - 2010.04.10 18:46:24.
