data_PCOD8246407
_publ_section_title
;
Structure prediction by ZEFSAII (Michael W. Deem and Ramdas Pophale) SiO2 
 PCOD8246407
Probable space group: P B C N
;
_chemical_formula_sum "Si O2"
_cell_formula_units_Z 64
_cell_length_a 16.383473
_cell_length_b 18.076998
_cell_length_c 10.465861
_cell_angle_alpha 90.000000
_cell_angle_beta 90.000000
_cell_angle_gamma 90.000000
_cell_volume 3099.611348
_symmetry_space_group_name_H-M "P B C N"
_symmetry_group_IT_number 60
_symmetry_cell_setting 'orthorhombic'
loop_
_space_group_symop_operation_xyz
x,y,z
1/2-x,1/2-y,1/2+z
1/2+x,1/2-y,-z
-x,y,1/2-z
-x,-y,-z
1/2+x,1/2+y,1/2-z
1/2-x,1/2+y,z
x,-y,1/2+z
loop_
_atom_site_type_symbol
_atom_site_label
_atom_site_fract_x
_atom_site_fract_y
_atom_site_fract_z
Si Si1 0.640669 0.628236 0.551178
Si Si2 0.194681 0.383068 0.833560
Si Si3 0.018947 0.561533 0.393726
Si Si4 0.750000 0.754183 0.500000
Si Si5 0.481054 0.438467 0.106274
Si Si6 0.359331 0.128236 0.051178
Si Si7 0.805319 0.116932 0.833560
Si Si8 0.750000 0.002373 0.500000
O O1 0.670749 0.701156 0.475629
O O2 0.543992 0.629006 0.575003
O O3 0.690712 0.623938 0.683326
O O4 0.668892 0.552664 0.480863
O O5 0.108169 0.402577 0.901996
O O6 0.190712 0.376062 0.683325
O O7 0.230542 0.304769 0.878652
O O8 0.256357 0.448874 0.875440
O O9 0.000000 0.530849 0.250000
O O10 0.000000 0.500000 0.500000
O O11 0.956008 0.629006 0.424997
O O12 0.829251 0.701156 0.524372
O O13 0.769458 0.804769 0.378652
O O14 0.500000 0.469151 0.250000
O O15 0.391831 0.402576 0.098004
O O16 0.500000 0.500000 0.000000
O O17 0.331109 0.052664 0.980862
O O18 0.743643 0.051126 0.875440
#
# Coordination Sequence:
#
# PCOD8246407 Si02
#       8
#     8   8   8   8   8   8   8   8
#     4  10  20  35  56  82 114 151 193 240 287 346
#     4  10  20  35  56  82 114 151 193 240 287 346
#     4  10  20  37  59  87 117 151 196 243 294 346
#     4  10  22  36  50  80 114 148 192 228 294 336
#     4  10  20  37  59  87 117 151 196 243 294 346
#     4  10  20  35  56  82 114 151 193 240 287 346
#     4  10  20  35  56  82 114 151 193 240 287 346
#     4  10  18  32  56  84 112 144 194 234 290 344
#
# _framework density 20.647752000000001
#
# number of rings (size 3 to 8) (size 9 to 14) (size 15 to 20)
#    0.000    2.000    2.500    1.500    0.000    1.000 
#    0.000    6.250    0.000    0.000    0.000   12.250 
#    0.000    0.000    0.000    0.000    0.000    0.000 
#
# Total GULP energy -793015.325235 kJ/mol
# GULP energy per Si atom -12390.864457 kJ/mol
# Density = 2.060076 g / cm^3
# Si number density = 20.647752 Si / 1000 Ang^3
#
#
#
# Elastic Constant Matrix: (Units=GPa)
#
#
# Indices 1 2 3 4 5 6 
#
# 1 60.5320 23.2718 15.4824 0.0000 0.0000 0.0000
# 2 23.2718 133.1769 33.9553 0.0000 0.0000 0.0000
# 3 15.4824 33.9553 74.8627 0.0000 0.0000 0.0000
# 4 0.0000 0.0000 0.0000 15.2433 0.0000 0.0000
# 5 0.0000 0.0000 0.0000 0.0000 29.3665 0.0000
# 6 0.0000 0.0000 0.0000 0.0000 0.0000 23.9262
#
#
#
# Elastic Compliance Matrix: (Units=1/GPa)
#
#
# Indices 1 2 3 4 5 6 
#
# 1 0.018153 -0.002505 -0.002618 0.000000 0.000000 0.000000
# 2 -0.002505 0.008836 -0.003490 0.000000 0.000000 0.000000
# 3 -0.002618 -0.003490 0.015482 0.000000 0.000000 0.000000
# 4 0.000000 0.000000 0.000000 0.065603 0.000000 0.000000
# 5 0.000000 0.000000 0.000000 0.000000 0.034052 0.000000
# 6 0.000000 0.000000 0.000000 0.000000 0.000000 0.041795
#
#
# Mechanical properties :
#
#
# Convention : Reuss Voigt Hill
#
# Bulk Modulus (GPa) = 39.61036 45.99896 42.80466
# Shear Modulus (GPa) = 23.85931 26.76468 25.31199
#
# Velocity S-wave (km/s) = 3.40301 3.60426 3.50508
# Velocity P-wave (km/s) = 5.88780 6.29660 6.09563
#
# Compressibility (1/GPa) = 0.02524592
#
# Stress axis : x y z
#
# Youngs Moduli (GPa) = 55.08812 113.17013 64.59051
#
# Poissons Ratio (x) = 0.28344 0.16911
# Poissons Ratio (y) = 0.13797 0.22541
# Poissons Ratio (z) = 0.14423 0.39495
#
# Static dielectric constant tensor:
#      x y z
#    x 3.885460 0.000000 0.000000 
#    y 0.000000 3.781350 0.000000 
#    z 0.000000 0.000000 3.586440 
# 
# 
# High freq. dielectric constant tensor:
#      x y z
#    x 1.801780 0.000000 0.000000 
#    y 0.000000 1.806820 0.000000 
#    z 0.000000 0.000000 1.795440 
# 
# From -- ./inp_files/12629.got.cif
#   From: 2010.03.12/outbox.cif.g09.slc.cpg/sg60_7_cif.got.tgz:12629.got - 2010.04.10 18:46:24.
