data_PCOD8246634
_publ_section_title
;
Structure prediction by ZEFSAII (Michael W. Deem and Ramdas Pophale) SiO2 
 PCOD8246634
Probable space group: P B C N
;
_chemical_formula_sum "Si O2"
_cell_formula_units_Z 48
_cell_length_a 22.116137
_cell_length_b 13.330554
_cell_length_c 9.397962
_cell_angle_alpha 90.000000
_cell_angle_beta 90.000000
_cell_angle_gamma 90.000000
_cell_volume 2770.710526
_symmetry_space_group_name_H-M "P B C N"
_symmetry_group_IT_number 60
_symmetry_cell_setting 'orthorhombic'
loop_
_space_group_symop_operation_xyz
x,y,z
1/2-x,1/2-y,1/2+z
1/2+x,1/2-y,-z
-x,y,1/2-z
-x,-y,-z
1/2+x,1/2+y,1/2-z
1/2-x,1/2+y,z
x,-y,1/2+z
loop_
_atom_site_type_symbol
_atom_site_label
_atom_site_fract_x
_atom_site_fract_y
_atom_site_fract_z
Si Si1 0.546658 0.398454 0.636963
Si Si2 0.277563 0.103001 0.970157
Si Si3 0.841824 0.772189 0.026042
Si Si4 0.663130 0.725031 0.198095
Si Si5 0.037590 0.877901 0.376153
Si Si6 0.218061 0.398198 0.801036
O O1 0.500000 0.353973 0.750000
O O2 0.604255 0.327915 0.638236
O O3 0.564263 0.513923 0.673892
O O4 0.515624 0.394885 0.486331
O O5 0.208845 0.142108 0.952409
O O6 0.324524 0.180585 0.902110
O O7 0.285351 0.001533 0.884151
O O8 0.296254 0.086667 0.134292
O O9 0.907693 0.811884 0.066896
O O10 0.829532 0.678054 0.128074
O O11 0.842616 0.738530 0.861321
O O12 0.715233 0.643800 0.180335
O O13 0.000000 0.824105 0.250000
#
# Coordination Sequence:
#
# PCOD8246634 Si02
#       6
#     8   8   8   8   8   8
#     4  10  19  35  53  79 110 144 176 212 265 313
#     4  10  21  36  56  80 106 141 177 220 268 312
#     4  10  20  36  54  80 110 141 177 217 264 316
#     4  10  20  35  56  79 108 142 178 218 263 316
#     4  10  21  33  53  81 112 143 176 218 262 318
#     4  10  21  36  55  80 108 139 177 221 267 314
#
# _framework density 17.324076999999999
#
# number of rings (size 3 to 8) (size 9 to 14) (size 15 to 20)
#    0.000    2.000    1.667    2.000    2.333    1.333 
#    0.000    0.000    0.000    2.000    0.000    0.000 
#    0.000    0.000    0.000    0.000    0.000    0.000 
#
# Total GULP energy -595116.686902 kJ/mol
# GULP energy per Si atom -12398.264310 kJ/mol
# Density = 1.728465 g / cm^3
# Si number density = 17.324077 Si / 1000 Ang^3
#
#
#
# Elastic Constant Matrix: (Units=GPa)
#
#
# Indices 1 2 3 4 5 6 
#
# 1 93.0890 49.3835 46.1105 0.0000 0.0000 0.0000
# 2 49.3835 110.8924 67.5091 0.0000 0.0000 0.0000
# 3 46.1105 67.5091 130.7065 0.0000 0.0000 0.0000
# 4 0.0000 0.0000 0.0000 38.5700 0.0000 0.0000
# 5 0.0000 0.0000 0.0000 0.0000 29.2288 0.0000
# 6 0.0000 0.0000 0.0000 0.0000 0.0000 15.4366
#
#
#
# Elastic Compliance Matrix: (Units=1/GPa)
#
#
# Indices 1 2 3 4 5 6 
#
# 1 0.014658 -0.004930 -0.002625 0.000000 0.000000 0.000000
# 2 -0.004930 0.014812 -0.005911 0.000000 0.000000 0.000000
# 3 -0.002625 -0.005911 0.011630 0.000000 0.000000 0.000000
# 4 0.000000 0.000000 0.000000 0.025927 0.000000 0.000000
# 5 0.000000 0.000000 0.000000 0.000000 0.034213 0.000000
# 6 0.000000 0.000000 0.000000 0.000000 0.000000 0.064781
#
#
# Mechanical properties :
#
#
# Convention : Reuss Voigt Hill
#
# Bulk Modulus (GPa) = 70.58091 73.41045 71.99568
# Shear Modulus (GPa) = 25.29427 28.09274 26.69351
#
# Velocity S-wave (km/s) = 3.82522 4.03128 3.92960
# Velocity P-wave (km/s) = 7.76787 8.00844 7.88907
#
# Compressibility (1/GPa) = 0.01416814
#
# Stress axis : x y z
#
# Youngs Moduli (GPa) = 68.22347 67.51496 85.98658
#
# Poissons Ratio (x) = 0.33282 0.22570
# Poissons Ratio (y) = 0.33631 0.50827
# Poissons Ratio (z) = 0.17908 0.39908
#
# Static dielectric constant tensor:
#      x y z
#    x 3.075200 0.000000 0.000000 
#    y 0.000000 3.115360 0.000000 
#    z 0.000000 0.000000 3.472730 
# 
# 
# High freq. dielectric constant tensor:
#      x y z
#    x 1.660630 0.000000 0.000000 
#    y 0.000000 1.653390 0.000000 
#    z 0.000000 0.000000 1.691190 
# 
# From -- ./inp_files/7297.got.cif
#   From: 2010.03.12/outbox.cif.g09.slc.cpg/sg60_4_cif.got.tgz:7297.got - 2010.04.10 18:46:24.
