data_PCOD8246234
_publ_section_title
;
Structure prediction by ZEFSAII (Michael W. Deem and Ramdas Pophale) SiO2 
 PCOD8246234
Probable space group: P M M N
;
_chemical_formula_sum "Si O2"
_cell_formula_units_Z 56
_cell_length_a 9.477946
_cell_length_b 13.884696
_cell_length_c 26.203961
_cell_angle_alpha 90.000000
_cell_angle_beta 90.000000
_cell_angle_gamma 90.000000
_cell_volume 3448.399313
_symmetry_space_group_name_H-M "P M M N"
_symmetry_group_IT_number 59
_space_group.IT_coordinate_system_code '2'
_symmetry_cell_setting 'orthorhombic'
loop_
_space_group_symop_operation_xyz
x,y,z
1/2-x,1/2-y,z
1/2+x,-y,-z
-x,1/2+y,-z
-x,-y,-z
1/2+x,1/2+y,-z
1/2-x,y,z
x,1/2-y,z
loop_
_atom_site_type_symbol
_atom_site_label
_atom_site_fract_x
_atom_site_fract_y
_atom_site_fract_z
Si Si1 0.413310 0.857460 0.428420
Si Si2 0.086077 0.458670 0.373155
Si Si3 0.414674 0.860889 0.026737
Si Si4 0.089323 0.363569 0.475044
Si Si5 0.085831 0.976366 0.925919
Si Si6 0.913599 0.637726 0.727857
Si Si7 0.914208 0.139331 0.173727
O O1 0.250000 0.858781 0.444127
O O2 0.463275 0.750000 0.413182
O O3 0.498055 0.898949 0.476809
O O4 0.440205 0.926637 0.379715
O O5 0.250000 0.431473 0.370741
O O6 0.022658 0.406031 0.423019
O O7 0.020245 0.420719 0.320225
O O8 0.250000 0.870226 0.039199
O O9 0.464289 0.750000 0.030116
O O10 0.499462 0.924574 0.067816
O O11 0.449500 0.900248 0.970417
O O12 0.250000 0.399670 0.482804
O O13 0.081384 0.250000 0.470701
O O14 0.250000 0.003086 0.925935
O O15 0.038939 0.926604 0.873451
O O16 0.750000 0.613146 0.737230
O O17 0.936425 0.750000 0.716582
O O18 0.998497 0.603958 0.777469
O O19 0.750000 0.126910 0.186082
O O20 0.949641 0.250000 0.160199
#
# Coordination Sequence:
#
# PCOD8246234 Si02
#       7
#     8   8   8   8   8   8   8
#     4   9  17  28  41  58  80 105 133 164 199 242
#     4   9  16  27  43  60  80 107 135 165 204 248
#     4   9  17  29  45  67  95 123 151 185 222 257
#     4   9  16  26  41  60  81 105 132 161 197 244
#     4   9  17  29  46  67  91 122 155 182 214 261
#     4   9  17  29  45  64  83 105 138 178 215 250
#     4   9  17  30  47  66  90 118 145 175 215 261
#
# _framework density 16.239419000000002
#
# number of rings (size 3 to 8) (size 9 to 14) (size 15 to 20)
#    0.000    3.000    0.000    1.286    0.000    4.286 
#    0.000    1.429    0.000    6.857    0.000    2.000 
#    0.000    0.000    0.000    0.000    0.000    0.000 
#
# Total GULP energy -694261.821165 kJ/mol
# GULP energy per Si atom -12397.532521 kJ/mol
# Density = 1.620246 g / cm^3
# Si number density = 16.239419 Si / 1000 Ang^3
#
#
#
# Elastic Constant Matrix: (Units=GPa)
#
#
# Indices 1 2 3 4 5 6 
#
# 1 42.5660 36.0795 46.8949 0.0000 0.0000 0.0000
# 2 36.0795 95.5066 69.8761 0.0000 0.0000 0.0000
# 3 46.8949 69.8761 133.0665 0.0000 0.0000 0.0000
# 4 0.0000 0.0000 0.0000 29.7357 0.0000 0.0000
# 5 0.0000 0.0000 0.0000 0.0000 25.3955 0.0000
# 6 0.0000 0.0000 0.0000 0.0000 0.0000 20.6981
#
#
#
# Elastic Compliance Matrix: (Units=1/GPa)
#
#
# Indices 1 2 3 4 5 6 
#
# 1 0.042001 -0.008180 -0.010507 0.000000 0.000000 0.000000
# 2 -0.008180 0.018596 -0.006882 0.000000 0.000000 0.000000
# 3 -0.010507 -0.006882 0.014832 0.000000 0.000000 0.000000
# 4 0.000000 0.000000 0.000000 0.033630 0.000000 0.000000
# 5 0.000000 0.000000 0.000000 0.000000 0.039377 0.000000
# 6 0.000000 0.000000 0.000000 0.000000 0.000000 0.048314
#
#
# Mechanical properties :
#
#
# Convention : Reuss Voigt Hill
#
# Bulk Modulus (GPa) = 41.16667 64.09333 52.63000
# Shear Modulus (GPa) = 19.53243 23.05177 21.29210
#
# Velocity S-wave (km/s) = 3.47187 3.77171 3.62489
# Velocity P-wave (km/s) = 6.44024 7.64991 7.07099
#
# Compressibility (1/GPa) = 0.02429150
#
# Stress axis : x y z
#
# Youngs Moduli (GPa) = 23.80873 53.77488 67.42246
#
# Poissons Ratio (x) = 0.43987 0.70838
# Poissons Ratio (y) = 0.19475 0.46403
# Poissons Ratio (z) = 0.25015 0.37010
#
# Static dielectric constant tensor:
#      x y z
#    x 2.982740 0.000000 0.000000 
#    y 0.000000 3.132970 0.000000 
#    z 0.000000 0.000000 3.060620 
# 
# 
# High freq. dielectric constant tensor:
#      x y z
#    x 1.606680 0.000000 0.000000 
#    y 0.000000 1.623700 0.000000 
#    z 0.000000 0.000000 1.611060 
# 
# From -- ./inp_files/33180.got.cif
#   From: 2010.03.12/outbox.cif.g09.slc.cpg/sg59_17_cif.got.tgz:33180.got - 2010.04.16 16:29:54.
