data_PCOD8246017
_publ_section_title
;
Structure prediction by ZEFSAII (Michael W. Deem and Ramdas Pophale) SiO2 
 PCOD8246017
Probable space group: P M M N
;
_chemical_formula_sum "Si O2"
_cell_formula_units_Z 32
_cell_length_a 8.504495
_cell_length_b 13.466049
_cell_length_c 13.380200
_cell_angle_alpha 90.000000
_cell_angle_beta 90.000000
_cell_angle_gamma 90.000000
_cell_volume 1532.326547
_symmetry_space_group_name_H-M "P M M N"
_symmetry_group_IT_number 59
_space_group.IT_coordinate_system_code '2'
_symmetry_cell_setting 'orthorhombic'
loop_
_space_group_symop_operation_xyz
x,y,z
1/2-x,1/2-y,z
1/2+x,-y,-z
-x,1/2+y,-z
-x,-y,-z
1/2+x,1/2+y,-z
1/2-x,y,z
x,1/2-y,z
loop_
_atom_site_type_symbol
_atom_site_label
_atom_site_fract_x
_atom_site_fract_y
_atom_site_fract_z
Si Si1 0.568420 0.750000 0.598352
Si Si2 0.570902 0.750000 0.833617
Si Si3 0.933818 0.638483 0.244510
Si Si4 0.936147 0.965941 0.894457
Si Si5 0.433103 0.598332 0.458319
O O1 0.750000 0.750000 0.562943
O O2 0.556587 0.750000 0.715956
O O3 0.469931 0.660454 0.555718
O O4 0.750000 0.750000 0.869878
O O5 0.494049 0.645519 0.872239
O O6 0.750000 0.621020 0.230436
O O7 0.979274 0.750000 0.204532
O O8 0.019853 0.549158 0.187196
O O9 0.976373 0.635822 0.360908
O O10 0.750000 0.959019 0.895864
O O11 0.000000 0.000000 0.000000
O O12 0.500000 0.500000 0.500000
O O13 0.250000 0.594599 0.431937
#
# Coordination Sequence:
#
# PCOD8246017 Si02
#       5
#     4   4   8   8   8
#     4  11  21  39  64  93 126 169 217 266 324 387
#     4   9  22  43  66  91 128 171 213 268 332 393
#     4  11  24  43  67  97 135 176 221 276 336 396
#     4  11  24  44  69  98 130 172 222 275 338 401
#     4  12  24  39  62  94 133 176 220 268 323 389
#
# _framework density 20.883277
#
# number of rings (size 3 to 8) (size 9 to 14) (size 15 to 20)
#    0.000    1.000    1.250    5.625    1.750    3.500 
#    0.000    5.625    0.000    0.000    0.000    0.000 
#    0.000    0.000    0.000    0.000    0.000    0.000 
#
# Total GULP energy -396476.725082 kJ/mol
# GULP energy per Si atom -12389.897659 kJ/mol
# Density = 2.083575 g / cm^3
# Si number density = 20.883277 Si / 1000 Ang^3
#
#
#
# Elastic Constant Matrix: (Units=GPa)
#
#
# Indices 1 2 3 4 5 6 
#
# 1 64.1141 45.2386 26.6513 0.0000 0.0000 0.0000
# 2 45.2386 214.3865 60.8962 0.0000 0.0000 0.0000
# 3 26.6513 60.8962 86.2837 0.0000 0.0000 0.0000
# 4 0.0000 0.0000 0.0000 49.8737 0.0000 0.0000
# 5 0.0000 0.0000 0.0000 0.0000 38.6440 0.0000
# 6 0.0000 0.0000 0.0000 0.0000 0.0000 31.1489
#
#
#
# Elastic Compliance Matrix: (Units=1/GPa)
#
#
# Indices 1 2 3 4 5 6 
#
# 1 0.019302 -0.002976 -0.003862 0.000000 0.000000 0.000000
# 2 -0.002976 0.006293 -0.003522 0.000000 0.000000 0.000000
# 3 -0.003862 -0.003522 0.015268 0.000000 0.000000 0.000000
# 4 0.000000 0.000000 0.000000 0.020051 0.000000 0.000000
# 5 0.000000 0.000000 0.000000 0.000000 0.025877 0.000000
# 6 0.000000 0.000000 0.000000 0.000000 0.000000 0.032104
#
#
# Mechanical properties :
#
#
# Convention : Reuss Voigt Hill
#
# Bulk Modulus (GPa) = 49.64311 70.03963 59.84137
# Shear Modulus (GPa) = 34.16944 39.39986 36.78465
#
# Velocity S-wave (km/s) = 4.04940 4.34829 4.20151
# Velocity P-wave (km/s) = 6.75920 7.66953 7.22871
#
# Compressibility (1/GPa) = 0.02014378
#
# Stress axis : x y z
#
# Youngs Moduli (GPa) = 51.80705 158.90860 65.49564
#
# Poissons Ratio (x) = 0.47294 0.25292
# Poissons Ratio (y) = 0.15419 0.23068
# Poissons Ratio (z) = 0.20006 0.55968
#
# Static dielectric constant tensor:
#      x y z
#    x 3.877580 0.000000 0.000000 
#    y 0.000000 4.013300 0.000000 
#    z 0.000000 0.000000 3.591110 
# 
# 
# High freq. dielectric constant tensor:
#      x y z
#    x 1.811830 0.000000 0.000000 
#    y 0.000000 1.852170 0.000000 
#    z 0.000000 0.000000 1.820850 
# 
# From -- ./inp_files/13634.got.cif
#   From: 2010.03.12/outbox.cif.g09.slc.cpg/sg59_7_cif.got.tgz:13634.got - 2010.04.16 16:29:54.
