data_PCOD8246712
_publ_section_title
;
Structure prediction by ZEFSAII (Michael W. Deem and Ramdas Pophale) SiO2 
 PCOD8246712
Probable space group: P B C N
;
_chemical_formula_sum "Si O2"
_cell_formula_units_Z 48
_cell_length_a 31.220992
_cell_length_b 8.330547
_cell_length_c 8.615670
_cell_angle_alpha 90.000000
_cell_angle_beta 90.000000
_cell_angle_gamma 90.000000
_cell_volume 2240.831873
_symmetry_space_group_name_H-M "P B C N"
_symmetry_group_IT_number 60
_symmetry_cell_setting 'orthorhombic'
loop_
_space_group_symop_operation_xyz
x,y,z
1/2-x,1/2-y,1/2+z
1/2+x,1/2-y,-z
-x,y,1/2-z
-x,-y,-z
1/2+x,1/2+y,1/2-z
1/2-x,1/2+y,z
x,-y,1/2+z
loop_
_atom_site_type_symbol
_atom_site_label
_atom_site_fract_x
_atom_site_fract_y
_atom_site_fract_z
Si Si1 0.969101 0.568750 0.872315
Si Si2 0.841455 0.393719 0.082299
Si Si3 0.778279 0.335827 0.582829
Si Si4 0.914972 0.359136 0.643555
Si Si5 0.800911 0.841778 0.789370
Si Si6 0.344951 0.327119 0.202335
O O1 0.946816 0.420866 0.778962
O O2 0.000000 0.665852 0.750000
O O3 0.936649 0.679084 0.974504
O O4 0.000000 0.500000 0.000000
O O5 0.883302 0.494158 0.114995
O O6 0.829590 0.311039 0.245248
O O7 0.801608 0.502483 0.024485
O O8 0.852868 0.254201 0.962496
O O9 0.731259 0.381729 0.646791
O O10 0.774477 0.207474 0.442963
O O11 0.804529 0.257753 0.721444
O O12 0.888321 0.200762 0.695849
O O13 0.833591 0.987080 0.822091
#
# Coordination Sequence:
#
# PCOD8246712 Si02
#       6
#     8   8   8   8   8   8
#     4   9  18  34  64 100 128 160 210 250 296 370
#     4  11  23  39  60  85 123 165 203 260 315 359
#     4  11  24  41  61  81 120 163 219 266 302 368
#     4  10  19  37  61  96 132 159 201 257 302 367
#     4  12  25  41  61  87 117 165 216 264 321 371
#     4  11  23  38  59  89 124 163 207 263 322 359
#
# _framework density 21.420615999999999
#
# number of rings (size 3 to 8) (size 9 to 14) (size 15 to 20)
#    0.000    1.333    1.667    5.000    2.333    4.000 
#    0.000    1.667    0.000    0.000    0.000   23.333 
#    0.000    0.000    0.000    0.000    0.000    0.000 
#
# Total GULP energy -594884.141260 kJ/mol
# GULP energy per Si atom -12393.419610 kJ/mol
# Density = 2.137186 g / cm^3
# Si number density = 21.420616 Si / 1000 Ang^3
#
#
#
# Elastic Constant Matrix: (Units=GPa)
#
#
# Indices 1 2 3 4 5 6 
#
# 1 106.1954 38.3080 45.6268 0.0000 0.0000 0.0000
# 2 38.3080 98.3337 35.5910 0.0000 0.0000 0.0000
# 3 45.6268 35.5910 114.5167 0.0000 0.0000 0.0000
# 4 0.0000 0.0000 0.0000 28.3491 0.0000 0.0000
# 5 0.0000 0.0000 0.0000 0.0000 48.8341 0.0000
# 6 0.0000 0.0000 0.0000 0.0000 0.0000 16.3843
#
#
#
# Elastic Compliance Matrix: (Units=1/GPa)
#
#
# Indices 1 2 3 4 5 6 
#
# 1 0.012293 -0.003399 -0.003842 0.000000 0.000000 0.000000
# 2 -0.003399 0.012398 -0.002499 0.000000 0.000000 0.000000
# 3 -0.003842 -0.002499 0.011040 0.000000 0.000000 0.000000
# 4 0.000000 0.000000 0.000000 0.035275 0.000000 0.000000
# 5 0.000000 0.000000 0.000000 0.000000 0.020477 0.000000
# 6 0.000000 0.000000 0.000000 0.000000 0.000000 0.061034
#
#
# Mechanical properties :
#
#
# Convention : Reuss Voigt Hill
#
# Bulk Modulus (GPa) = 61.53071 62.01082 61.77077
# Shear Modulus (GPa) = 28.18282 32.01484 30.09883
#
# Velocity S-wave (km/s) = 3.63117 3.87017 3.75258
# Velocity P-wave (km/s) = 6.80940 6.99878 6.90474
#
# Compressibility (1/GPa) = 0.01625205
#
# Stress axis : x y z
#
# Youngs Moduli (GPa) = 81.34599 80.65829 90.58215
#
# Poissons Ratio (x) = 0.27412 0.34799
# Poissons Ratio (y) = 0.27646 0.22637
# Poissons Ratio (z) = 0.31251 0.20157
#
# Static dielectric constant tensor:
#      x y z
#    x 4.514380 0.000000 0.000000 
#    y 0.000000 3.648360 0.000000 
#    z 0.000000 0.000000 4.474200 
# 
# 
# High freq. dielectric constant tensor:
#      x y z
#    x 1.840490 0.000000 0.000000 
#    y 0.000000 1.797280 0.000000 
#    z 0.000000 0.000000 1.866120 
# 
# From -- ./inp_files/8398.got.cif
#   From: 2010.03.12/outbox.cif.g09.slc.cpg/sg60_5_cif.got.tgz:8398.got - 2010.04.10 18:46:24.
