data_PCOD8246082
_publ_section_title
;
Structure prediction by ZEFSAII (Michael W. Deem and Ramdas Pophale) SiO2 
 PCOD8246082
Probable space group: P M M N
;
_chemical_formula_sum "Si O2"
_cell_formula_units_Z 64
_cell_length_a 9.161499
_cell_length_b 19.056783
_cell_length_c 20.770571
_cell_angle_alpha 90.000000
_cell_angle_beta 90.000000
_cell_angle_gamma 90.000000
_cell_volume 3626.306956
_symmetry_space_group_name_H-M "P M M N"
_symmetry_group_IT_number 59
_space_group.IT_coordinate_system_code '2'
_symmetry_cell_setting 'orthorhombic'
loop_
_space_group_symop_operation_xyz
x,y,z
1/2-x,1/2-y,z
1/2+x,-y,-z
-x,1/2+y,-z
-x,-y,-z
1/2+x,1/2+y,-z
1/2-x,y,z
x,1/2-y,z
loop_
_atom_site_type_symbol
_atom_site_label
_atom_site_fract_x
_atom_site_fract_y
_atom_site_fract_z
Si Si1 0.923157 0.075083 0.997546
Si Si2 0.420817 0.830220 0.881942
Si Si3 0.419348 0.168050 0.894701
Si Si4 0.078820 0.423868 0.362528
Si Si5 0.917417 0.928314 0.498717
Si Si6 0.921243 0.669844 0.754258
Si Si7 0.922080 0.827040 0.250996
Si Si8 0.921699 0.928269 0.359750
O O1 0.750000 0.064630 0.992859
O O2 0.968650 0.119360 0.060252
O O3 0.977261 0.119033 0.936604
O O4 0.000000 0.000000 0.000000
O O5 0.250000 0.834516 0.869099
O O6 0.468159 0.750000 0.898087
O O7 0.500873 0.858657 0.818308
O O8 0.250000 0.152598 0.910398
O O9 0.454126 0.250000 0.907235
O O10 0.456481 0.147337 0.821188
O O11 0.250000 0.437475 0.353511
O O12 0.046731 0.388461 0.433643
O O13 0.020132 0.371797 0.307817
O O14 0.997238 0.496935 0.354888
O O15 0.750000 0.949368 0.498643
O O16 0.953579 0.890926 0.430014
O O17 0.000000 0.000000 0.500000
O O18 0.750000 0.660185 0.764088
O O19 0.964922 0.750000 0.742338
O O20 0.750000 0.821923 0.260695
O O21 0.990892 0.750000 0.262184
O O22 0.989605 0.879600 0.303816
O O23 0.750000 0.939332 0.349040
#
# Coordination Sequence:
#
# PCOD8246082 Si02
#       8
#     8   8   8   8   8   8   8   8
#     4  11  23  37  53  75 103 129 157 198 243 284
#     4   9  19  36  55  72  92 122 158 194 233 278
#     4   9  18  34  55  75  97 129 164 195 235 289
#     4   9  17  29  44  64  93 124 153 190 236 278
#     4   8  14  25  41  62  88 119 154 190 228 272
#     4   9  18  32  49  69  94 124 156 190 230 279
#     4   8  15  29  48  70  96 123 152 190 233 275
#     4   9  16  27  46  69  90 118 159 197 228 270
#
# _framework density 17.648810000000001
#
# number of rings (size 3 to 8) (size 9 to 14) (size 15 to 20)
#    0.000    3.000    0.000    1.500    0.000    3.250 
#    0.000    6.250    0.000    4.875    0.000    0.000 
#    0.000   10.000    0.000    0.000    0.000    0.000 
#
# Total GULP energy -792986.613322 kJ/mol
# GULP energy per Si atom -12390.415833 kJ/mol
# Density = 1.760864 g / cm^3
# Si number density = 17.648810 Si / 1000 Ang^3
#
#
#
# Elastic Constant Matrix: (Units=GPa)
#
#
# Indices 1 2 3 4 5 6 
#
# 1 34.5755 32.1814 45.4792 0.0000 0.0000 0.0000
# 2 32.1814 87.4436 84.7770 0.0000 0.0000 0.0000
# 3 45.4792 84.7770 181.7917 0.0000 0.0000 0.0000
# 4 0.0000 0.0000 0.0000 31.7917 0.0000 0.0000
# 5 0.0000 0.0000 0.0000 0.0000 23.9595 0.0000
# 6 0.0000 0.0000 0.0000 0.0000 0.0000 21.9563
#
#
#
# Elastic Compliance Matrix: (Units=1/GPa)
#
#
# Indices 1 2 3 4 5 6 
#
# 1 0.048345 -0.011072 -0.006931 0.000000 0.000000 0.000000
# 2 -0.011072 0.023409 -0.008147 0.000000 0.000000 0.000000
# 3 -0.006931 -0.008147 0.011034 0.000000 0.000000 0.000000
# 4 0.000000 0.000000 0.000000 0.031455 0.000000 0.000000
# 5 0.000000 0.000000 0.000000 0.000000 0.041737 0.000000
# 6 0.000000 0.000000 0.000000 0.000000 0.000000 0.045545
#
#
# Mechanical properties :
#
#
# Convention : Reuss Voigt Hill
#
# Bulk Modulus (GPa) = 32.80023 69.85399 51.32711
# Shear Modulus (GPa) = 18.94034 24.96638 21.95336
#
# Velocity S-wave (km/s) = 3.27950 3.76523 3.53072
# Velocity P-wave (km/s) = 5.74155 7.65300 6.76513
#
# Compressibility (1/GPa) = 0.03048759
#
# Stress axis : x y z
#
# Youngs Moduli (GPa) = 20.68482 42.71860 90.63037
#
# Poissons Ratio (x) = 0.47300 0.62816
# Poissons Ratio (y) = 0.22903 0.73833
# Poissons Ratio (z) = 0.14337 0.34801
#
# Static dielectric constant tensor:
#      x y z
#    x 3.587070 0.000000 0.000000 
#    y 0.000000 3.206660 0.000000 
#    z 0.000000 0.000000 3.864280 
# 
# 
# High freq. dielectric constant tensor:
#      x y z
#    x 1.665460 0.000000 0.000000 
#    y 0.000000 1.657770 0.000000 
#    z 0.000000 0.000000 1.705590 
# 
# From -- ./inp_files/29409.got.cif
#   From: 2010.03.12/outbox.cif.g09.slc.cpg/sg59_15_cif.got.tgz:29409.got - 2010.04.16 16:29:54.
