data_PCOD8246722
_publ_section_title
;
Structure prediction by ZEFSAII (Michael W. Deem and Ramdas Pophale) SiO2 
 PCOD8246722
Probable space group: P B C N
;
_chemical_formula_sum "Si O2"
_cell_formula_units_Z 56
_cell_length_a 15.196890
_cell_length_b 14.111877
_cell_length_c 12.912889
_cell_angle_alpha 90.000000
_cell_angle_beta 90.000000
_cell_angle_gamma 90.000000
_cell_volume 2769.254819
_symmetry_space_group_name_H-M "P B C N"
_symmetry_group_IT_number 60
_symmetry_cell_setting 'orthorhombic'
loop_
_space_group_symop_operation_xyz
x,y,z
1/2-x,1/2-y,1/2+z
1/2+x,1/2-y,-z
-x,y,1/2-z
-x,-y,-z
1/2+x,1/2+y,1/2-z
1/2-x,1/2+y,z
x,-y,1/2+z
loop_
_atom_site_type_symbol
_atom_site_label
_atom_site_fract_x
_atom_site_fract_y
_atom_site_fract_z
Si Si1 0.321760 0.085839 0.198533
Si Si2 0.927273 0.776000 0.040104
Si Si3 0.702714 0.064984 0.630748
Si Si4 0.829344 0.064660 0.451323
Si Si5 0.053685 0.914357 0.149031
Si Si6 0.187437 0.786497 0.264821
Si Si7 0.547254 0.902561 0.978250
O O1 0.248492 0.037981 0.127196
O O2 0.279952 0.188973 0.216037
O O3 0.332783 0.024339 0.303262
O O4 0.415775 0.096032 0.139716
O O5 0.871304 0.748858 0.140180
O O6 0.993881 0.858858 0.068931
O O7 0.862148 0.824718 0.954660
O O8 0.978319 0.682619 0.000965
O O9 0.790772 0.036934 0.565532
O O10 0.727927 0.151664 0.705525
O O11 0.628138 0.107457 0.556771
O O12 0.911617 0.002147 0.417181
O O13 0.131355 0.844761 0.182327
O O14 0.000000 0.950415 0.250000
O O15 0.500000 0.000000 0.000000
#
# Coordination Sequence:
#
# PCOD8246722 Si02
#       7
#     8   8   8   8   8   8   8
#     4  11  22  41  63  86 121 165 200 245 308 364
#     4  10  21  38  60  89 118 154 203 247 300 360
#     4  10  23  40  61  90 121 161 205 248 301 369
#     4  10  22  40  61  91 124 152 200 257 309 361
#     4  10  19  37  65  88 115 154 198 249 305 362
#     4  10  20  38  62  85 115 161 204 239 297 370
#     4  11  24  40  61  91 125 163 205 252 302 360
#
# _framework density 20.222047
#
# number of rings (size 3 to 8) (size 9 to 14) (size 15 to 20)
#    0.000    1.714    2.857    1.286    0.000    4.000 
#    5.143    0.000    0.000    0.000    0.000    0.000 
#    0.000    0.000    0.000    0.000    0.000    0.000 
#
# Total GULP energy -694212.210300 kJ/mol
# GULP energy per Si atom -12396.646613 kJ/mol
# Density = 2.017602 g / cm^3
# Si number density = 20.222047 Si / 1000 Ang^3
#
#
#
# Elastic Constant Matrix: (Units=GPa)
#
#
# Indices 1 2 3 4 5 6 
#
# 1 59.7007 24.7553 11.7179 0.0000 0.0000 0.0000
# 2 24.7553 105.1755 34.0285 0.0000 0.0000 0.0000
# 3 11.7179 34.0285 64.5793 0.0000 0.0000 0.0000
# 4 0.0000 0.0000 0.0000 17.2302 0.0000 0.0000
# 5 0.0000 0.0000 0.0000 0.0000 18.4715 0.0000
# 6 0.0000 0.0000 0.0000 0.0000 0.0000 33.2680
#
#
#
# Elastic Compliance Matrix: (Units=1/GPa)
#
#
# Indices 1 2 3 4 5 6 
#
# 1 0.018651 -0.003972 -0.001291 0.000000 0.000000 0.000000
# 2 -0.003972 0.012308 -0.005765 0.000000 0.000000 0.000000
# 3 -0.001291 -0.005765 0.018757 0.000000 0.000000 0.000000
# 4 0.000000 0.000000 0.000000 0.058038 0.000000 0.000000
# 5 0.000000 0.000000 0.000000 0.000000 0.054137 0.000000
# 6 0.000000 0.000000 0.000000 0.000000 0.000000 0.030059
#
#
# Mechanical properties :
#
#
# Convention : Reuss Voigt Hill
#
# Bulk Modulus (GPa) = 36.15395 41.16211 38.65803
# Shear Modulus (GPa) = 22.39896 24.39088 23.39492
#
# Velocity S-wave (km/s) = 3.33175 3.47674 3.40502
# Velocity P-wave (km/s) = 5.71997 6.04286 5.88363
#
# Compressibility (1/GPa) = 0.02765950
#
# Stress axis : x y z
#
# Youngs Moduli (GPa) = 53.61726 81.24849 53.31448
#
# Poissons Ratio (x) = 0.32273 0.06884
# Poissons Ratio (y) = 0.21297 0.30734
# Poissons Ratio (z) = 0.06923 0.46837
#
# Static dielectric constant tensor:
#      x y z
#    x 4.715480 0.000000 0.000000 
#    y 0.000000 3.573840 0.000000 
#    z 0.000000 0.000000 3.682730 
# 
# 
# High freq. dielectric constant tensor:
#      x y z
#    x 1.793680 0.000000 0.000000 
#    y 0.000000 1.785250 0.000000 
#    z 0.000000 0.000000 1.784620 
# 
# From -- ./inp_files/16866.got.cif
#   From: 2010.03.12/outbox.cif.g09.slc.cpg/sg60_9_cif.got.tgz:16866.got - 2010.04.10 18:46:24.
