data_PCOD8246881
_publ_section_title
;
Structure prediction by ZEFSAII (Michael W. Deem and Ramdas Pophale) SiO2 
 PCOD8246881
Probable space group: P B C N
;
_chemical_formula_sum "Si O2"
_cell_formula_units_Z 48
_cell_length_a 16.055334
_cell_length_b 17.340682
_cell_length_c 9.006326
_cell_angle_alpha 90.000000
_cell_angle_beta 90.000000
_cell_angle_gamma 90.000000
_cell_volume 2507.455196
_symmetry_space_group_name_H-M "P B C N"
_symmetry_group_IT_number 60
_symmetry_cell_setting 'orthorhombic'
loop_
_space_group_symop_operation_xyz
x,y,z
1/2-x,1/2-y,1/2+z
1/2+x,1/2-y,-z
-x,y,1/2-z
-x,-y,-z
1/2+x,1/2+y,1/2-z
1/2-x,1/2+y,z
x,-y,1/2+z
loop_
_atom_site_type_symbol
_atom_site_label
_atom_site_fract_x
_atom_site_fract_y
_atom_site_fract_z
Si Si1 0.042784 0.784431 0.901588
Si Si2 0.183495 0.326322 0.411584
Si Si3 0.294012 0.436962 0.282922
Si Si4 0.575854 0.309870 0.155947
Si Si5 0.309860 0.406461 0.938019
Si Si6 0.710179 0.204156 0.251977
O O1 0.086665 0.699654 0.908294
O O2 0.110463 0.849961 0.944081
O O3 0.000000 0.805640 0.750000
O O4 0.961036 0.783392 0.001137
O O5 0.202729 0.413599 0.352820
O O6 0.222942 0.317912 0.576086
O O7 0.227921 0.273233 0.288109
O O8 0.357002 0.376973 0.359626
O O9 0.326426 0.519902 0.334566
O O10 0.289967 0.432513 0.105059
O O11 0.500000 0.343610 0.250000
O O12 0.615485 0.233672 0.232405
O O13 0.230341 0.365357 0.861496
#
# Coordination Sequence:
#
# PCOD8246881 Si02
#       6
#     8   8   8   8   8   8
#     4  11  24  35  59  88 119 146 192 232 292 335
#     4  10  20  37  56  84 109 153 193 234 273 338
#     4  11  24  38  60  80 120 152 196 229 287 340
#     4  11  20  39  57  87 116 148 182 240 284 338
#     4  11  24  40  56  86 113 159 190 233 283 344
#     4  10  20  35  60  79 114 148 197 230 280 331
#
# _framework density 19.142914000000001
#
# number of rings (size 3 to 8) (size 9 to 14) (size 15 to 20)
#    0.000    1.333    3.333    4.000   14.000    1.333 
#    0.000    0.000    0.000    2.000    0.000    0.000 
#    0.000    0.000    0.000    0.000    0.000    0.000 
#
# Total GULP energy -594780.028605 kJ/mol
# GULP energy per Si atom -12391.250596 kJ/mol
# Density = 1.909934 g / cm^3
# Si number density = 19.142914 Si / 1000 Ang^3
#
#
#
# Elastic Constant Matrix: (Units=GPa)
#
#
# Indices 1 2 3 4 5 6 
#
# 1 50.4770 38.2934 10.3598 0.0000 0.0000 0.0000
# 2 38.2934 54.9092 11.5513 0.0000 0.0000 0.0000
# 3 10.3598 11.5513 92.5363 0.0000 0.0000 0.0000
# 4 0.0000 0.0000 0.0000 32.2275 0.0000 0.0000
# 5 0.0000 0.0000 0.0000 0.0000 32.5725 0.0000
# 6 0.0000 0.0000 0.0000 0.0000 0.0000 11.6651
#
#
#
# Elastic Compliance Matrix: (Units=1/GPa)
#
#
# Indices 1 2 3 4 5 6 
#
# 1 0.042172 -0.029184 -0.001078 0.000000 0.000000 0.000000
# 2 -0.029184 0.038899 -0.001588 0.000000 0.000000 0.000000
# 3 -0.001078 -0.001588 0.011126 0.000000 0.000000 0.000000
# 4 0.000000 0.000000 0.000000 0.031029 0.000000 0.000000
# 5 0.000000 0.000000 0.000000 0.000000 0.030701 0.000000
# 6 0.000000 0.000000 0.000000 0.000000 0.000000 0.085726
#
#
# Mechanical properties :
#
#
# Convention : Reuss Voigt Hill
#
# Bulk Modulus (GPa) = 35.09366 35.37019 35.23192
# Shear Modulus (GPa) = 15.98203 24.47422 20.22812
#
# Velocity S-wave (km/s) = 2.89256 3.57949 3.25420
# Velocity P-wave (km/s) = 5.43398 5.96663 5.70652
#
# Compressibility (1/GPa) = 0.02849518
#
# Stress axis : x y z
#
# Youngs Moduli (GPa) = 23.71244 25.70786 89.88292
#
# Poissons Ratio (x) = 0.75025 0.09692
# Poissons Ratio (y) = 0.69202 0.14278
# Poissons Ratio (z) = 0.02557 0.04084
#
# Static dielectric constant tensor:
#      x y z
#    x 4.079960 0.000000 0.000000 
#    y 0.000000 3.661110 0.000000 
#    z 0.000000 0.000000 4.268510 
# 
# 
# High freq. dielectric constant tensor:
#      x y z
#    x 1.729930 0.000000 0.000000 
#    y 0.000000 1.719430 0.000000 
#    z 0.000000 0.000000 1.770510 
# 
# From -- ./inp_files/5894.got.cif
#   From: 2010.03.12/outbox.cif.g09.slc.cpg/sg60_3_cif.got.tgz:5894.got - 2010.04.10 18:46:24.
