data_PCOD8246671
_publ_section_title
;
Structure prediction by ZEFSAII (Michael W. Deem and Ramdas Pophale) SiO2 
 PCOD8246671
Probable space group: P B C N
;
_chemical_formula_sum "Si O2"
_cell_formula_units_Z 52
_cell_length_a 9.747241
_cell_length_b 30.486496
_cell_length_c 8.444358
_cell_angle_alpha 90.000000
_cell_angle_beta 90.000000
_cell_angle_gamma 90.000000
_cell_volume 2509.318868
_symmetry_space_group_name_H-M "P B C N"
_symmetry_group_IT_number 60
_symmetry_cell_setting 'orthorhombic'
loop_
_space_group_symop_operation_xyz
x,y,z
1/2-x,1/2-y,1/2+z
1/2+x,1/2-y,-z
-x,y,1/2-z
-x,-y,-z
1/2+x,1/2+y,1/2-z
1/2-x,1/2+y,z
x,-y,1/2+z
loop_
_atom_site_type_symbol
_atom_site_label
_atom_site_fract_x
_atom_site_fract_y
_atom_site_fract_z
Si Si1 0.379375 0.944773 0.032384
Si Si2 0.033756 0.047312 0.934998
Si Si3 0.000000 0.169310 0.750000
Si Si4 0.684104 0.712875 0.151621
Si Si5 0.342774 0.621841 0.496426
Si Si6 0.406777 0.733929 0.011694
Si Si7 0.170713 0.534830 0.884512
O O1 0.310094 0.898460 0.987803
O O2 0.316041 0.960462 0.197276
O O3 0.542908 0.938246 0.043277
O O4 0.344723 0.982542 0.906722
O O5 0.195015 0.055335 0.964645
O O6 0.000000 0.050616 0.750000
O O7 0.952317 0.083250 0.039575
O O8 0.000000 0.000000 0.000000
O O9 0.880842 0.140187 0.829440
O O10 0.914742 0.196686 0.621417
O O11 0.830509 0.724658 0.070963
O O12 0.688226 0.719934 0.339944
O O13 0.648815 0.661607 0.127683
O O14 0.562409 0.742970 0.073323
#
# Coordination Sequence:
#
# PCOD8246671 Si02
#       7
#     8   8   4   8   8   8   8
#     4  10  20  35  58  77 118 154 208 258 309 366
#     4  12  21  37  58  87 120 164 219 260 320 373
#     4  10  20  38  66  88 128 154 204 264 314 384
#     4  10  22  40  67  96 127 165 212 257 327 388
#     4  11  20  37  56  87 120 160 206 269 307 375
#     4  10  21  42  67  96 126 171 199 258 326 399
#     4  10  19  36  54  80 108 162 205 250 314 376
#
# _framework density 20.722754999999999
#
# number of rings (size 3 to 8) (size 9 to 14) (size 15 to 20)
#    0.000    1.538    3.846    1.846    0.000    0.000 
#    5.538   10.769    0.000    9.231    0.000    0.000 
#    0.000    0.000    0.000    0.000    0.000    0.000 
#
# Total GULP energy -644537.292893 kJ/mol
# GULP energy per Si atom -12394.947940 kJ/mol
# Density = 2.067559 g / cm^3
# Si number density = 20.722755 Si / 1000 Ang^3
#
#
#
# Elastic Constant Matrix: (Units=GPa)
#
#
# Indices 1 2 3 4 5 6 
#
# 1 137.7865 47.8192 21.0102 0.0000 0.0000 0.0000
# 2 47.8192 107.1168 34.5795 0.0000 0.0000 0.0000
# 3 21.0102 34.5795 74.1893 0.0000 0.0000 0.0000
# 4 0.0000 0.0000 0.0000 23.2439 0.0000 0.0000
# 5 0.0000 0.0000 0.0000 0.0000 22.0461 0.0000
# 6 0.0000 0.0000 0.0000 0.0000 0.0000 35.5497
#
#
#
# Elastic Compliance Matrix: (Units=1/GPa)
#
#
# Indices 1 2 3 4 5 6 
#
# 1 0.008625 -0.003604 -0.000763 0.000000 0.000000 0.000000
# 2 -0.003604 0.012495 -0.004803 0.000000 0.000000 0.000000
# 3 -0.000763 -0.004803 0.015934 0.000000 0.000000 0.000000
# 4 0.000000 0.000000 0.000000 0.043022 0.000000 0.000000
# 5 0.000000 0.000000 0.000000 0.000000 0.045360 0.000000
# 6 0.000000 0.000000 0.000000 0.000000 0.000000 0.028130
#
#
# Mechanical properties :
#
#
# Convention : Reuss Voigt Hill
#
# Bulk Modulus (GPa) = 53.43691 58.43449 55.93570
# Shear Modulus (GPa) = 28.06738 30.54684 29.30711
#
# Velocity S-wave (km/s) = 3.68424 3.84353 3.76473
# Velocity P-wave (km/s) = 6.62878 6.92506 6.77854
#
# Compressibility (1/GPa) = 0.01871366
#
# Stress axis : x y z
#
# Youngs Moduli (GPa) = 115.94610 80.03119 62.75956
#
# Poissons Ratio (x) = 0.28844 0.04786
# Poissons Ratio (y) = 0.41788 0.30145
# Poissons Ratio (z) = 0.08843 0.38441
#
# Static dielectric constant tensor:
#      x y z
#    x 4.072160 0.000000 0.000000 
#    y 0.000000 3.814710 0.000000 
#    z 0.000000 0.000000 3.823390 
# 
# 
# High freq. dielectric constant tensor:
#      x y z
#    x 1.818590 0.000000 0.000000 
#    y 0.000000 1.788440 0.000000 
#    z 0.000000 0.000000 1.807050 
# 
# From -- ./inp_files/5283.got.cif
#   From: 2010.03.12/outbox.cif.g09.slc.cpg/sg60_3_cif.got.tgz:5283.got - 2010.04.10 18:46:24.
