data_PCOD8246919
_publ_section_title
;
Structure prediction by ZEFSAII (Michael W. Deem and Ramdas Pophale) SiO2 
 PCOD8246919
Probable space group: P B C N
;
_chemical_formula_sum "Si O2"
_cell_formula_units_Z 56
_cell_length_a 20.673905
_cell_length_b 14.381016
_cell_length_c 8.702200
_cell_angle_alpha 90.000000
_cell_angle_beta 90.000000
_cell_angle_gamma 90.000000
_cell_volume 2587.266386
_symmetry_space_group_name_H-M "P B C N"
_symmetry_group_IT_number 60
_symmetry_cell_setting 'orthorhombic'
loop_
_space_group_symop_operation_xyz
x,y,z
1/2-x,1/2-y,1/2+z
1/2+x,1/2-y,-z
-x,y,1/2-z
-x,-y,-z
1/2+x,1/2+y,1/2-z
1/2-x,1/2+y,z
x,-y,1/2+z
loop_
_atom_site_type_symbol
_atom_site_label
_atom_site_fract_x
_atom_site_fract_y
_atom_site_fract_z
Si Si1 0.140537 0.749386 0.032567
Si Si2 0.689125 0.407099 0.671594
Si Si3 0.613673 0.466618 0.951556
Si Si4 0.404407 0.953573 0.947253
Si Si5 0.177609 0.433420 0.666763
Si Si6 0.069911 0.127977 0.749633
Si Si7 0.020910 0.644925 0.914875
O O1 0.182958 0.657433 0.059520
O O2 0.128813 0.806960 0.190581
O O3 0.183405 0.805718 0.907492
O O4 0.067277 0.725260 0.980037
O O5 0.641019 0.402801 0.815569
O O6 0.671450 0.482062 0.542220
O O7 0.757080 0.443964 0.737104
O O8 0.566083 0.540715 0.869584
O O9 0.578978 0.401020 0.073688
O O10 0.378490 0.913057 0.788712
O O11 0.440623 0.048748 0.909423
O O12 0.453542 0.872432 0.996502
O O13 0.345181 0.975794 0.067655
O O14 0.000000 0.177846 0.750000
O O15 0.000000 0.680530 0.750000
#
# Coordination Sequence:
#
# PCOD8246919 Si02
#       7
#     8   8   8   8   8   8   8
#     4  10  25  37  55  90 126 159 198 249 319 373
#     4  10  21  42  60  88 121 161 209 257 302 367
#     4   9  20  39  64  83 114 156 211 251 298 360
#     4  10  21  37  66  91 114 164 207 257 304 357
#     4  11  22  40  61  90 122 160 212 250 305 367
#     4  10  20  36  59  89 115 155 199 253 309 363
#     4  10  20  39  60  90 128 153 206 256 307 378
#
# _framework density 21.644468
#
# number of rings (size 3 to 8) (size 9 to 14) (size 15 to 20)
#    0.000    2.000    1.429    1.286    2.000    2.286 
#    2.571    4.286    0.000    0.000    0.000    0.000 
#    0.000    0.000    0.000    0.000    0.000    0.000 
#
# Total GULP energy -693941.119719 kJ/mol
# GULP energy per Si atom -12391.805709 kJ/mol
# Density = 2.159520 g / cm^3
# Si number density = 21.644468 Si / 1000 Ang^3
#
#
#
# Elastic Constant Matrix: (Units=GPa)
#
#
# Indices 1 2 3 4 5 6 
#
# 1 56.0294 1.1980 1.4481 0.0000 0.0000 0.0000
# 2 1.1980 34.6931 7.5799 0.0000 0.0000 0.0000
# 3 1.4481 7.5799 93.7499 0.0000 0.0000 0.0000
# 4 0.0000 0.0000 0.0000 11.5005 0.0000 0.0000
# 5 0.0000 0.0000 0.0000 0.0000 36.2720 0.0000
# 6 0.0000 0.0000 0.0000 0.0000 0.0000 21.6447
#
#
#
# Elastic Compliance Matrix: (Units=1/GPa)
#
#
# Indices 1 2 3 4 5 6 
#
# 1 0.017866 -0.000567 -0.000230 0.000000 0.000000 0.000000
# 2 -0.000567 0.029360 -0.002365 0.000000 0.000000 0.000000
# 3 -0.000230 -0.002365 0.010861 0.000000 0.000000 0.000000
# 4 0.000000 0.000000 0.000000 0.086953 0.000000 0.000000
# 5 0.000000 0.000000 0.000000 0.000000 0.027569 0.000000
# 6 0.000000 0.000000 0.000000 0.000000 0.000000 0.046201
#
#
# Mechanical properties :
#
#
# Convention : Reuss Voigt Hill
#
# Bulk Modulus (GPa) = 19.31845 22.76938 21.04392
# Shear Modulus (GPa) = 20.62797 25.49987 23.06392
#
# Velocity S-wave (km/s) = 3.09048 3.43610 3.26786
# Velocity P-wave (km/s) = 4.65612 5.12689 4.89717
#
# Compressibility (1/GPa) = 0.05176398
#
# Stress axis : x y z
#
# Youngs Moduli (GPa) = 55.97272 34.05940 92.06871
#
# Poissons Ratio (x) = 0.01930 0.02119
# Poissons Ratio (y) = 0.03172 0.21775
# Poissons Ratio (z) = 0.01288 0.08055
#
# Static dielectric constant tensor:
#      x y z
#    x 3.771010 0.000000 0.000000 
#    y 0.000000 3.614920 0.000000 
#    z 0.000000 0.000000 4.131270 
# 
# 
# High freq. dielectric constant tensor:
#      x y z
#    x 1.839270 0.000000 0.000000 
#    y 0.000000 1.826970 0.000000 
#    z 0.000000 0.000000 1.867360 
# 
# From -- ./inp_files/7441.got.cif
#   From: 2010.03.12/outbox.cif.g09.slc.cpg/sg60_4_cif.got.tgz:7441.got - 2010.04.10 18:46:24.
