data_PCOD8246515
_publ_section_title
;
Structure prediction by ZEFSAII (Michael W. Deem and Ramdas Pophale) SiO2 
 PCOD8246515
Probable space group: P B C N
;
_chemical_formula_sum "Si O2"
_cell_formula_units_Z 40
_cell_length_a 15.581615
_cell_length_b 8.741719
_cell_length_c 13.041884
_cell_angle_alpha 90.000000
_cell_angle_beta 90.000000
_cell_angle_gamma 90.000000
_cell_volume 1776.436322
_symmetry_space_group_name_H-M "P B C N"
_symmetry_group_IT_number 60
_symmetry_cell_setting 'orthorhombic'
loop_
_space_group_symop_operation_xyz
x,y,z
1/2-x,1/2-y,1/2+z
1/2+x,1/2-y,-z
-x,y,1/2-z
-x,-y,-z
1/2+x,1/2+y,1/2-z
1/2-x,1/2+y,z
x,-y,1/2+z
loop_
_atom_site_type_symbol
_atom_site_label
_atom_site_fract_x
_atom_site_fract_y
_atom_site_fract_z
Si Si1 0.646439 0.176597 0.030486
Si Si2 0.000000 0.520752 0.750000
Si Si3 0.126098 0.722360 0.236783
Si Si4 0.809014 0.660023 0.465093
Si Si5 0.000000 0.992337 0.250000
Si Si6 0.028143 0.757546 0.918258
O O1 0.649803 0.158318 0.152410
O O2 0.716150 0.307805 0.011097
O O3 0.672380 0.019170 0.976654
O O4 0.553172 0.230153 0.991928
O O5 0.063428 0.407420 0.689120
O O6 0.044090 0.621605 0.837561
O O7 0.084919 0.890124 0.239094
O O8 0.202376 0.715073 0.153884
O O9 0.884789 0.764072 0.515425
O O10 0.011951 0.088386 0.354044
#
# Coordination Sequence:
#
# PCOD8246515 Si02
#       6
#     8   4   8   8   4   8
#     4  12  28  47  75 105 144 189 239 299 356 427
#     4  10  18  42  76 100 126 194 236 274 348 434
#     4  11  24  44  72 104 143 185 243 286 361 424
#     4  12  28  47  75 105 144 189 239 299 356 427
#     4  10  26  40  78 110 140 190 238 298 346 432
#     4  11  23  47  73 102 146 186 236 289 360 413
#
# _framework density 22.516988999999999
#
# number of rings (size 3 to 8) (size 9 to 14) (size 15 to 20)
#    0.000    0.800    4.000    3.000    5.600    6.400 
#    0.000    0.000    0.000    0.000    0.000    0.000 
#    0.000    0.000    0.000    0.000    0.000    0.000 
#
# Total GULP energy -495884.817024 kJ/mol
# GULP energy per Si atom -12397.120426 kJ/mol
# Density = 2.246574 g / cm^3
# Si number density = 22.516989 Si / 1000 Ang^3
#
#
#
# Elastic Constant Matrix: (Units=GPa)
#
#
# Indices 1 2 3 4 5 6 
#
# 1 82.8586 10.8102 10.6710 0.0000 0.0000 0.0000
# 2 10.8102 106.6147 32.5151 0.0000 0.0000 0.0000
# 3 10.6710 32.5151 126.3458 0.0000 0.0000 0.0000
# 4 0.0000 0.0000 0.0000 25.2531 0.0000 0.0000
# 5 0.0000 0.0000 0.0000 0.0000 16.1985 0.0000
# 6 0.0000 0.0000 0.0000 0.0000 0.0000 14.7981
#
#
#
# Elastic Compliance Matrix: (Units=1/GPa)
#
#
# Indices 1 2 3 4 5 6 
#
# 1 0.012301 -0.001010 -0.000779 0.000000 0.000000 0.000000
# 2 -0.001010 0.010261 -0.002555 0.000000 0.000000 0.000000
# 3 -0.000779 -0.002555 0.008638 0.000000 0.000000 0.000000
# 4 0.000000 0.000000 0.000000 0.039599 0.000000 0.000000
# 5 0.000000 0.000000 0.000000 0.000000 0.061734 0.000000
# 6 0.000000 0.000000 0.000000 0.000000 0.000000 0.067576
#
#
# Mechanical properties :
#
#
# Convention : Reuss Voigt Hill
#
# Bulk Modulus (GPa) = 44.42080 47.09016 45.75548
# Shear Modulus (GPa) = 23.11582 28.70480 25.91031
#
# Velocity S-wave (km/s) = 3.20753 3.57432 3.39588
# Velocity P-wave (km/s) = 5.78689 6.16384 5.97834
#
# Compressibility (1/GPa) = 0.02251198
#
# Stress axis : x y z
#
# Youngs Moduli (GPa) = 81.29543 97.45352 115.76434
#
# Poissons Ratio (x) = 0.09839 0.09019
# Poissons Ratio (y) = 0.08208 0.29583
# Poissons Ratio (z) = 0.06334 0.24904
#
# Static dielectric constant tensor:
#      x y z
#    x 4.152440 0.000000 0.000000 
#    y 0.000000 4.094660 0.000000 
#    z 0.000000 0.000000 4.367730 
# 
# 
# High freq. dielectric constant tensor:
#      x y z
#    x 1.868650 0.000000 0.000000 
#    y 0.000000 1.898590 0.000000 
#    z 0.000000 0.000000 1.908110 
# 
# From -- ./inp_files/12337.got.cif
#   From: 2010.03.12/outbox.cif.g09.slc.cpg/sg60_7_cif.got.tgz:12337.got - 2010.04.10 18:46:24.
