data_PCOD8246477
_publ_section_title
;
Structure prediction by ZEFSAII (Michael W. Deem and Ramdas Pophale) SiO2 
 PCOD8246477
Probable space group: P B C N
;
_chemical_formula_sum "Si O2"
_cell_formula_units_Z 40
_cell_length_a 10.068091
_cell_length_b 24.133730
_cell_length_c 7.889981
_cell_angle_alpha 90.000000
_cell_angle_beta 90.000000
_cell_angle_gamma 90.000000
_cell_volume 1917.112237
_symmetry_space_group_name_H-M "P B C N"
_symmetry_group_IT_number 60
_symmetry_cell_setting 'orthorhombic'
loop_
_space_group_symop_operation_xyz
x,y,z
1/2-x,1/2-y,1/2+z
1/2+x,1/2-y,-z
-x,y,1/2-z
-x,-y,-z
1/2+x,1/2+y,1/2-z
1/2-x,1/2+y,z
x,-y,1/2+z
loop_
_atom_site_type_symbol
_atom_site_label
_atom_site_fract_x
_atom_site_fract_y
_atom_site_fract_z
Si Si1 0.049336 0.892522 0.439756
Si Si2 0.369814 0.811918 0.135342
Si Si3 0.349942 0.477937 0.682453
Si Si4 0.129836 0.219880 0.860924
Si Si5 0.727165 0.583149 0.007856
O O1 0.138644 0.943538 0.506296
O O2 0.136557 0.837173 0.468130
O O3 0.000000 0.903872 0.250000
O O4 0.912788 0.885820 0.545100
O O5 0.500000 0.818191 0.250000
O O6 0.259670 0.779586 0.244312
O O7 0.390227 0.773990 0.972143
O O8 0.333357 0.872455 0.060561
O O9 0.500000 0.485846 0.750000
O O10 0.285869 0.537039 0.638994
O O11 0.246903 0.446892 0.811083
O O12 0.000000 0.214439 0.750000
#
# Coordination Sequence:
#
# PCOD8246477 Si02
#       5
#     8   8   8   8   8
#     4  10  18  36  65  96 129 163 217 276 325 378
#     4  12  27  43  67  99 137 173 221 270 336 395
#     4  10  21  33  66  96 132 165 228 273 329 381
#     4  11  24  45  71  94 132 173 223 272 323 396
#     4  11  21  39  61  99 128 174 213 283 324 391
#
# _framework density 20.864715
#
# number of rings (size 3 to 8) (size 9 to 14) (size 15 to 20)
#    0.000    1.200    4.000    5.400    2.800    0.800 
#    0.000    1.000    0.000    0.000    0.000    0.000 
#    0.000    0.000    0.000    0.000    0.000    0.000 
#
# Total GULP energy -495631.169105 kJ/mol
# GULP energy per Si atom -12390.779228 kJ/mol
# Density = 2.081723 g / cm^3
# Si number density = 20.864715 Si / 1000 Ang^3
#
#
#
# Elastic Constant Matrix: (Units=GPa)
#
#
# Indices 1 2 3 4 5 6 
#
# 1 76.5388 26.2546 21.3044 0.0000 0.0000 0.0000
# 2 26.2546 148.8857 57.5259 0.0000 0.0000 0.0000
# 3 21.3044 57.5259 97.5236 0.0000 0.0000 0.0000
# 4 0.0000 0.0000 0.0000 47.9318 0.0000 0.0000
# 5 0.0000 0.0000 0.0000 0.0000 16.9828 0.0000
# 6 0.0000 0.0000 0.0000 0.0000 0.0000 43.4871
#
#
#
# Elastic Compliance Matrix: (Units=1/GPa)
#
#
# Indices 1 2 3 4 5 6 
#
# 1 0.014234 -0.001695 -0.002110 0.000000 0.000000 0.000000
# 2 -0.001695 0.008901 -0.004880 0.000000 0.000000 0.000000
# 3 -0.002110 -0.004880 0.013593 0.000000 0.000000 0.000000
# 4 0.000000 0.000000 0.000000 0.020863 0.000000 0.000000
# 5 0.000000 0.000000 0.000000 0.000000 0.058883 0.000000
# 6 0.000000 0.000000 0.000000 0.000000 0.000000 0.022995
#
#
# Mechanical properties :
#
#
# Convention : Reuss Voigt Hill
#
# Bulk Modulus (GPa) = 51.65588 59.23530 55.44559
# Shear Modulus (GPa) = 30.61995 36.20455 33.41225
#
# Velocity S-wave (km/s) = 3.83501 4.17010 4.00606
# Velocity P-wave (km/s) = 6.66491 7.18597 6.93034
#
# Compressibility (1/GPa) = 0.01935888
#
# Stress axis : x y z
#
# Youngs Moduli (GPa) = 70.25489 112.34678 73.56492
#
# Poissons Ratio (x) = 0.19041 0.15520
# Poissons Ratio (y) = 0.11907 0.35901
# Poissons Ratio (z) = 0.14822 0.54827
#
# Static dielectric constant tensor:
#      x y z
#    x 3.467980 0.000000 0.000000 
#    y 0.000000 4.199320 0.000000 
#    z 0.000000 0.000000 4.100000 
# 
# 
# High freq. dielectric constant tensor:
#      x y z
#    x 1.764650 0.000000 0.000000 
#    y 0.000000 1.838640 0.000000 
#    z 0.000000 0.000000 1.827190 
# 
# From -- ./inp_files/3816.got.cif
#   From: 2010.03.12/outbox.cif.g09.slc.cpg/sg60_2_cif.got.tgz:3816.got - 2010.04.10 18:46:24.
