data_PCOD8246728
_publ_section_title
;
Structure prediction by ZEFSAII (Michael W. Deem and Ramdas Pophale) SiO2 
 PCOD8246728
Probable space group: P B C N
;
_chemical_formula_sum "Si O2"
_cell_formula_units_Z 64
_cell_length_a 20.586252
_cell_length_b 8.927707
_cell_length_c 16.714241
_cell_angle_alpha 90.000000
_cell_angle_beta 90.000000
_cell_angle_gamma 90.000000
_cell_volume 3071.877361
_symmetry_space_group_name_H-M "P B C N"
_symmetry_group_IT_number 60
_symmetry_cell_setting 'orthorhombic'
loop_
_space_group_symop_operation_xyz
x,y,z
1/2-x,1/2-y,1/2+z
1/2+x,1/2-y,-z
-x,y,1/2-z
-x,-y,-z
1/2+x,1/2+y,1/2-z
1/2-x,1/2+y,z
x,-y,1/2+z
loop_
_atom_site_type_symbol
_atom_site_label
_atom_site_fract_x
_atom_site_fract_y
_atom_site_fract_z
Si Si1 0.192838 0.817065 0.962223
Si Si2 0.095106 0.229193 0.605369
Si Si3 0.369543 0.210762 0.807414
Si Si4 0.823054 0.842590 0.007406
Si Si5 0.926600 0.583657 0.245668
Si Si6 0.052852 0.192084 0.897272
Si Si7 0.375405 0.404251 0.654049
Si Si8 0.985737 0.885620 0.660621
O O1 0.181009 0.733408 0.878307
O O2 0.266840 0.776728 0.979807
O O3 0.188961 0.995934 0.951823
O O4 0.143471 0.753985 0.030041
O O5 0.099848 0.365303 0.667629
O O6 0.020539 0.227315 0.572476
O O7 0.114209 0.083269 0.657797
O O8 0.352966 0.330558 0.737381
O O9 0.441664 0.239256 0.841430
O O10 0.372663 0.039596 0.778497
O O11 0.891338 0.772599 0.037881
O O12 0.822761 0.863069 0.911966
O O13 0.928713 0.720788 0.183582
O O14 0.000000 0.516988 0.250000
O O15 0.054440 0.013628 0.884634
O O16 0.445059 0.339390 0.623213
O O17 0.000000 0.946417 0.750000
#
# Coordination Sequence:
#
# PCOD8246728 Si02
#       8
#     8   8   8   8   8   8   8   8
#     4  11  26  44  63  91 127 167 213 265 312 377
#     4   9  21  41  68  94 123 162 214 261 318 373
#     4  11  21  38  62  95 126 163 203 253 317 374
#     4  11  25  43  61  90 127 166 212 261 315 373
#     4  10  20  37  60  99 130 160 201 258 321 375
#     4  10  19  37  67  93 122 165 209 259 315 378
#     4   9  20  38  64  90 120 160 207 261 308 371
#     4   9  16  32  64  96 119 148 205 264 304 366
#
# _framework density 20.834166
#
# number of rings (size 3 to 8) (size 9 to 14) (size 15 to 20)
#    0.000    2.000    1.250    3.750    3.500    2.500 
#    2.250    1.250    0.000    0.000    0.000    0.000 
#    0.000    0.000    0.000    0.000    0.000    0.000 
#
# Total GULP energy -793149.161786 kJ/mol
# GULP energy per Si atom -12392.955653 kJ/mol
# Density = 2.078675 g / cm^3
# Si number density = 20.834166 Si / 1000 Ang^3
#
#
#
# Elastic Constant Matrix: (Units=GPa)
#
#
# Indices 1 2 3 4 5 6 
#
# 1 87.8269 23.6759 43.8761 0.0000 0.0000 0.0000
# 2 23.6759 62.1750 28.7096 0.0000 0.0000 0.0000
# 3 43.8761 28.7096 80.5140 0.0000 0.0000 0.0000
# 4 0.0000 0.0000 0.0000 21.8860 0.0000 0.0000
# 5 0.0000 0.0000 0.0000 0.0000 24.4074 0.0000
# 6 0.0000 0.0000 0.0000 0.0000 0.0000 27.5382
#
#
#
# Elastic Compliance Matrix: (Units=1/GPa)
#
#
# Indices 1 2 3 4 5 6 
#
# 1 0.015955 -0.002467 -0.007815 0.000000 0.000000 0.000000
# 2 -0.002467 0.019635 -0.005657 0.000000 0.000000 0.000000
# 3 -0.007815 -0.005657 0.018696 0.000000 0.000000 0.000000
# 4 0.000000 0.000000 0.000000 0.045691 0.000000 0.000000
# 5 0.000000 0.000000 0.000000 0.000000 0.040971 0.000000
# 6 0.000000 0.000000 0.000000 0.000000 0.000000 0.036313
#
#
# Mechanical properties :
#
#
# Convention : Reuss Voigt Hill
#
# Bulk Modulus (GPa) = 44.62639 47.00435 45.81537
# Shear Modulus (GPa) = 23.08289 23.71661 23.39975
#
# Velocity S-wave (km/s) = 3.33218 3.37761 3.35497
# Velocity P-wave (km/s) = 6.02253 6.14989 6.08654
#
# Compressibility (1/GPa) = 0.02240827
#
# Stress axis : x y z
#
# Youngs Moduli (GPa) = 62.67496 50.92882 53.48657
#
# Poissons Ratio (x) = 0.12564 0.41801
# Poissons Ratio (y) = 0.15462 0.30258
# Poissons Ratio (z) = 0.48982 0.28811
#
# Static dielectric constant tensor:
#      x y z
#    x 3.708980 0.000000 0.000000 
#    y 0.000000 3.546150 0.000000 
#    z 0.000000 0.000000 3.709280 
# 
# 
# High freq. dielectric constant tensor:
#      x y z
#    x 1.802450 0.000000 0.000000 
#    y 0.000000 1.801710 0.000000 
#    z 0.000000 0.000000 1.812740 
# 
# From -- ./inp_files/21078.got.cif
#   From: 2010.03.12/outbox.cif.g09.slc.cpg/sg60_11_cif.got.tgz:21078.got - 2010.04.10 18:46:24.
