data_PCOD8246463
_publ_section_title
;
Structure prediction by ZEFSAII (Michael W. Deem and Ramdas Pophale) SiO2 
 PCOD8246463
Probable space group: P B C N
;
_chemical_formula_sum "Si O2"
_cell_formula_units_Z 64
_cell_length_a 9.307237
_cell_length_b 22.801511
_cell_length_c 15.399367
_cell_angle_alpha 90.000000
_cell_angle_beta 90.000000
_cell_angle_gamma 90.000000
_cell_volume 3268.039295
_symmetry_space_group_name_H-M "P B C N"
_symmetry_group_IT_number 60
_symmetry_cell_setting 'orthorhombic'
loop_
_space_group_symop_operation_xyz
x,y,z
1/2-x,1/2-y,1/2+z
1/2+x,1/2-y,-z
-x,y,1/2-z
-x,-y,-z
1/2+x,1/2+y,1/2-z
1/2-x,1/2+y,z
x,-y,1/2+z
loop_
_atom_site_type_symbol
_atom_site_label
_atom_site_fract_x
_atom_site_fract_y
_atom_site_fract_z
Si Si1 0.645974 0.846791 0.301513
Si Si2 0.885901 0.933100 0.323076
Si Si3 0.120916 0.110516 0.482852
Si Si4 0.942262 0.206617 0.537798
Si Si5 0.568017 0.432502 0.839032
Si Si6 0.918691 0.341877 0.499596
Si Si7 0.713194 0.151890 0.431359
Si Si8 0.117442 0.757595 0.185808
O O1 0.500000 0.848934 0.250000
O O2 0.730380 0.908188 0.294748
O O3 0.594455 0.834816 0.398066
O O4 0.753481 0.794584 0.269688
O O5 0.922676 0.912748 0.421349
O O6 0.000000 0.912077 0.250000
O O7 0.873131 0.002990 0.321473
O O8 0.289881 0.117701 0.464957
O O9 0.051500 0.175843 0.468668
O O10 0.057735 0.066179 0.411423
O O11 0.919612 0.275790 0.534326
O O12 0.793075 0.172647 0.520377
O O13 0.022386 0.195493 0.629952
O O14 0.500000 0.406123 0.750000
O O15 0.702776 0.395412 0.874248
O O16 0.062577 0.374148 0.533872
O O17 0.692201 0.208324 0.371360
O O18 0.000000 0.728437 0.250000
#
# Coordination Sequence:
#
# PCOD8246463 Si02
#       8
#     8   8   8   8   8   8   8   8
#     4  11  23  37  57  93 123 149 193 254 305 359
#     4  10  21  42  65  86 116 157 208 250 298 360
#     4  10  20  37  61  86 117 159 203 250 292 363
#     4  10  18  36  57  81 119 161 198 230 292 362
#     4  10  23  41  62  85 115 157 211 251 295 358
#     4  10  19  37  55  86 125 155 191 239 305 359
#     4  10  22  37  57  87 117 161 198 242 299 351
#     4  11  22  37  56  87 120 162 198 240 298 368
#
# _framework density 19.583608999999999
#
# number of rings (size 3 to 8) (size 9 to 14) (size 15 to 20)
#    0.000    1.750    3.750    1.500    1.750    3.500 
#    0.000    5.625    0.000    0.000    0.000    0.000 
#    0.000    0.000    0.000    0.000    0.000    0.000 
#
# Total GULP energy -792918.597586 kJ/mol
# GULP energy per Si atom -12389.353087 kJ/mol
# Density = 1.953904 g / cm^3
# Si number density = 19.583609 Si / 1000 Ang^3
#
#
#
# Elastic Constant Matrix: (Units=GPa)
#
#
# Indices 1 2 3 4 5 6 
#
# 1 152.6503 35.3128 51.4820 0.0000 0.0000 0.0000
# 2 35.3128 53.0580 13.4747 0.0000 0.0000 0.0000
# 3 51.4820 13.4747 64.4850 0.0000 0.0000 0.0000
# 4 0.0000 0.0000 0.0000 26.1803 0.0000 0.0000
# 5 0.0000 0.0000 0.0000 0.0000 44.1576 0.0000
# 6 0.0000 0.0000 0.0000 0.0000 0.0000 -50.5051
#
#
#
# Elastic Compliance Matrix: (Units=1/GPa)
#
#
# Indices 1 2 3 4 5 6 
#
# 1 0.010045 -0.004910 -0.006994 0.000000 0.000000 0.000000
# 2 -0.004910 0.022303 -0.000741 0.000000 0.000000 0.000000
# 3 -0.006994 -0.000741 0.021246 0.000000 0.000000 0.000000
# 4 0.000000 0.000000 0.000000 0.038197 0.000000 0.000000
# 5 0.000000 0.000000 0.000000 0.000000 0.022646 0.000000
# 6 0.000000 0.000000 0.000000 0.000000 0.000000 -0.019800
#
#
# Mechanical properties :
#
#
# Convention : Reuss Voigt Hill
#
# Bulk Modulus (GPa) = 35.32857 52.30361 43.81609
# Shear Modulus (GPa) = 38.65155 15.29482 26.97319
#
# Velocity S-wave (km/s) = 4.44742 2.79767 3.71527
# Velocity P-wave (km/s) = 6.66721 6.09933 6.38958
#
# Compressibility (1/GPa) = 0.02830570
#
# Stress axis : x y z
#
# Youngs Moduli (GPa) = 99.54831 44.83706 47.06789
#
# Poissons Ratio (x) = 0.22013 0.32919
# Poissons Ratio (y) = 0.48873 0.03487
# Poissons Ratio (z) = 0.69623 0.03322
#
# Static dielectric constant tensor:
#      x y z
#    x 4.262110 0.000000 0.000000 
#    y 0.000000 3.348200 0.000000 
#    z 0.000000 0.000000 4.366350 
# 
# 
# High freq. dielectric constant tensor:
#      x y z
#    x 1.774040 0.000000 0.000000 
#    y 0.000000 1.744970 0.000000 
#    z 0.000000 0.000000 1.758170 
# 
# From -- ./inp_files/15434.got.cif
#   From: 2010.03.12/outbox.cif.g09.slc.cpg/sg60_8_cif.got.tgz:15434.got - 2010.04.10 18:46:24.
