data_PCOD8246297
_publ_section_title
;
Structure prediction by ZEFSAII (Michael W. Deem and Ramdas Pophale) SiO2 
 PCOD8246297
Probable space group: P B C N
;
_chemical_formula_sum "Si O2"
_cell_formula_units_Z 44
_cell_length_a 5.328527
_cell_length_b 27.578389
_cell_length_c 12.273332
_cell_angle_alpha 90.000000
_cell_angle_beta 90.000000
_cell_angle_gamma 90.000000
_cell_volume 1803.593021
_symmetry_space_group_name_H-M "P B C N"
_symmetry_group_IT_number 60
_symmetry_cell_setting 'orthorhombic'
loop_
_space_group_symop_operation_xyz
x,y,z
1/2-x,1/2-y,1/2+z
1/2+x,1/2-y,-z
-x,y,1/2-z
-x,-y,-z
1/2+x,1/2+y,1/2-z
1/2-x,1/2+y,z
x,-y,1/2+z
loop_
_atom_site_type_symbol
_atom_site_label
_atom_site_fract_x
_atom_site_fract_y
_atom_site_fract_z
Si Si1 0.261435 0.300028 0.915402
Si Si2 0.500000 0.636482 0.250000
Si Si3 0.236751 0.308749 0.448829
Si Si4 0.860455 0.954609 0.369885
Si Si5 0.849400 0.060620 0.424037
Si Si6 0.643811 0.908816 0.133383
O O1 0.286628 0.329298 0.802973
O O2 0.995900 0.313132 0.968319
O O3 0.496417 0.315256 0.991569
O O4 0.274060 0.242752 0.887828
O O5 0.365619 0.603586 0.161165
O O6 0.211453 0.351738 0.359664
O O7 0.635875 0.920109 0.320230
O O8 0.899203 0.943693 0.499992
O O9 0.131817 0.941942 0.312613
O O10 0.792828 0.011201 0.357720
O O11 0.622836 0.074583 0.506103
#
# Coordination Sequence:
#
# PCOD8246297 Si02
#       6
#     8   4   8   8   8   8
#     4  10  22  35  54  81 118 144 190 236 292 340
#     4  12  20  40  54  94 116 144 182 260 298 320
#     4  10  19  38  56  79 109 158 191 225 279 363
#     4   9  19  33  53  78 108 145 186 219 266 355
#     4   9  20  31  54  79 116 139 179 225 288 328
#     4  10  16  33  56  76 100 145 189 218 262 332
#
# _framework density 24.395747
#
# number of rings (size 3 to 8) (size 9 to 14) (size 15 to 20)
#    1.091    1.091    1.818    2.727    0.000    0.727 
#    3.273    0.000    0.000    2.182    0.000    0.000 
#    0.000    0.000    0.000    0.000    0.000    0.000 
#
# Total GULP energy -545499.326364 kJ/mol
# GULP energy per Si atom -12397.711963 kJ/mol
# Density = 2.434022 g / cm^3
# Si number density = 24.395747 Si / 1000 Ang^3
#
#
#
# Elastic Constant Matrix: (Units=GPa)
#
#
# Indices 1 2 3 4 5 6 
#
# 1 118.1331 28.4859 28.5306 0.0000 0.0000 0.0000
# 2 28.4859 167.3117 33.9497 0.0000 0.0000 0.0000
# 3 28.5306 33.9497 81.1000 0.0000 0.0000 0.0000
# 4 0.0000 0.0000 0.0000 35.8384 0.0000 0.0000
# 5 0.0000 0.0000 0.0000 0.0000 32.4077 0.0000
# 6 0.0000 0.0000 0.0000 0.0000 0.0000 31.6763
#
#
#
# Elastic Compliance Matrix: (Units=1/GPa)
#
#
# Indices 1 2 3 4 5 6 
#
# 1 0.009407 -0.001016 -0.002884 0.000000 0.000000 0.000000
# 2 -0.001016 0.006642 -0.002423 0.000000 0.000000 0.000000
# 3 -0.002884 -0.002423 0.014359 0.000000 0.000000 0.000000
# 4 0.000000 0.000000 0.000000 0.027903 0.000000 0.000000
# 5 0.000000 0.000000 0.000000 0.000000 0.030857 0.000000
# 6 0.000000 0.000000 0.000000 0.000000 0.000000 0.031569
#
#
# Mechanical properties :
#
#
# Convention : Reuss Voigt Hill
#
# Bulk Modulus (GPa) = 56.30115 60.94192 58.62153
# Shear Modulus (GPa) = 35.89312 38.35639 37.12476
#
# Velocity S-wave (km/s) = 3.83990 3.96947 3.90522
# Velocity P-wave (km/s) = 6.54126 6.78555 6.66453
#
# Compressibility (1/GPa) = 0.01776163
#
# Stress axis : x y z
#
# Youngs Moduli (GPa) = 106.30871 150.56823 69.64225
#
# Poissons Ratio (x) = 0.15304 0.20083
# Poissons Ratio (y) = 0.10805 0.16872
# Poissons Ratio (z) = 0.30656 0.36478
#
# Static dielectric constant tensor:
#      x y z
#    x 4.224800 0.000000 0.000000 
#    y 0.000000 4.592540 0.000000 
#    z 0.000000 0.000000 4.569840 
# 
# 
# High freq. dielectric constant tensor:
#      x y z
#    x 1.970440 0.000000 0.000000 
#    y 0.000000 1.979430 0.000000 
#    z 0.000000 0.000000 1.981890 
# 
# From -- ./inp_files/13883.got.cif
#   From: 2010.03.12/outbox.cif.g09.slc.cpg/sg60_7_cif.got.tgz:13883.got - 2010.04.10 18:46:24.
