data_PCOD8246562
_publ_section_title
;
Structure prediction by ZEFSAII (Michael W. Deem and Ramdas Pophale) SiO2 
 PCOD8246562
Probable space group: P B C N
;
_chemical_formula_sum "Si O2"
_cell_formula_units_Z 40
_cell_length_a 20.484114
_cell_length_b 17.841885
_cell_length_c 4.966627
_cell_angle_alpha 90.000000
_cell_angle_beta 90.000000
_cell_angle_gamma 90.000000
_cell_volume 1815.179028
_symmetry_space_group_name_H-M "P B C N"
_symmetry_group_IT_number 60
_symmetry_cell_setting 'orthorhombic'
loop_
_space_group_symop_operation_xyz
x,y,z
1/2-x,1/2-y,1/2+z
1/2+x,1/2-y,-z
-x,y,1/2-z
-x,-y,-z
1/2+x,1/2+y,1/2-z
1/2-x,1/2+y,z
x,-y,1/2+z
loop_
_atom_site_type_symbol
_atom_site_label
_atom_site_fract_x
_atom_site_fract_y
_atom_site_fract_z
Si Si1 0.587944 0.312843 0.135945
Si Si2 0.290393 0.250910 0.610368
Si Si3 0.122037 0.680098 0.996701
Si Si4 0.000000 0.724950 0.750000
Si Si5 0.500000 0.554294 0.750000
Si Si6 0.574396 0.047972 0.209603
O O1 0.611959 0.263496 0.385676
O O2 0.566417 0.395383 0.233966
O O3 0.651135 0.311663 0.931946
O O4 0.523592 0.278316 0.993700
O O5 0.266734 0.218696 0.315258
O O6 0.316322 0.180644 0.792788
O O7 0.124374 0.616112 0.224692
O O8 0.057159 0.666540 0.820034
O O9 0.500000 0.500000 0.500000
O O10 0.500000 0.075734 0.250000
O O11 0.589107 0.978241 0.407917
#
# Coordination Sequence:
#
# PCOD8246562 Si02
#       6
#     8   8   8   4   4   8
#     4  11  22  40  67  97 133 173 220 279 336 412
#     4  11  24  41  66  99 122 166 233 294 323 375
#     4  11  22  37  67  90 132 168 220 269 323 390
#     4  10  19  32  62  99 124 158 218 258 335 380
#     4  12  27  42  66 105 146 174 214 276 365 438
#     4  10  23  36  54  90 135 167 198 244 312 383
#
# _framework density 22.036394999999999
#
# number of rings (size 3 to 8) (size 9 to 14) (size 15 to 20)
#    0.000    1.200    4.000    1.800   12.600    0.000 
#    0.000    0.000    0.000    7.200    0.000    0.000 
#    0.000    0.000    0.000    0.000    0.000    0.000 
#
# Total GULP energy -495652.273633 kJ/mol
# GULP energy per Si atom -12391.306841 kJ/mol
# Density = 2.198624 g / cm^3
# Si number density = 22.036395 Si / 1000 Ang^3
#
#
#
# Elastic Constant Matrix: (Units=GPa)
#
#
# Indices 1 2 3 4 5 6 
#
# 1 81.4897 28.3628 16.1251 0.0000 0.0000 0.0000
# 2 28.3628 99.7920 22.1194 0.0000 0.0000 0.0000
# 3 16.1251 22.1194 105.8927 0.0000 0.0000 0.0000
# 4 0.0000 0.0000 0.0000 29.7679 0.0000 0.0000
# 5 0.0000 0.0000 0.0000 0.0000 41.9769 0.0000
# 6 0.0000 0.0000 0.0000 0.0000 0.0000 7.8885
#
#
#
# Elastic Compliance Matrix: (Units=1/GPa)
#
#
# Indices 1 2 3 4 5 6 
#
# 1 0.013799 -0.003624 -0.001344 0.000000 0.000000 0.000000
# 2 -0.003624 0.011459 -0.001842 0.000000 0.000000 0.000000
# 3 -0.001344 -0.001842 0.010033 0.000000 0.000000 0.000000
# 4 0.000000 0.000000 0.000000 0.033593 0.000000 0.000000
# 5 0.000000 0.000000 0.000000 0.000000 0.023823 0.000000
# 6 0.000000 0.000000 0.000000 0.000000 0.000000 0.126766
#
#
# Mechanical properties :
#
#
# Convention : Reuss Voigt Hill
#
# Bulk Modulus (GPa) = 46.14490 46.70990 46.42740
# Shear Modulus (GPa) = 20.80591 30.63114 25.71853
#
# Velocity S-wave (km/s) = 3.07605 3.73235 3.41998
# Velocity P-wave (km/s) = 5.79672 6.31004 6.05882
#
# Compressibility (1/GPa) = 0.02167087
#
# Stress axis : x y z
#
# Youngs Moduli (GPa) = 72.47003 87.26707 99.67166
#
# Poissons Ratio (x) = 0.31625 0.13399
# Poissons Ratio (y) = 0.26263 0.18357
# Poissons Ratio (z) = 0.09742 0.16073
#
# Static dielectric constant tensor:
#      x y z
#    x 4.322820 0.000000 0.000000 
#    y 0.000000 3.607940 0.000000 
#    z 0.000000 0.000000 4.337600 
# 
# 
# High freq. dielectric constant tensor:
#      x y z
#    x 1.857830 0.000000 0.000000 
#    y 0.000000 1.815200 0.000000 
#    z 0.000000 0.000000 1.902510 
# 
# From -- ./inp_files/2025.got.cif
#   From: 2010.03.12/outbox.cif.g09.slc.cpg/sg60_2_cif.got.tgz:2025.got - 2010.04.10 18:46:24.
