data_PCOD8246936
_publ_section_title
;
Structure prediction by ZEFSAII (Michael W. Deem and Ramdas Pophale) SiO2 
 PCOD8246936
Probable space group: P B C N
;
_chemical_formula_sum "Si O2"
_cell_formula_units_Z 56
_cell_length_a 12.234254
_cell_length_b 14.328833
_cell_length_c 14.210407
_cell_angle_alpha 90.000000
_cell_angle_beta 90.000000
_cell_angle_gamma 90.000000
_cell_volume 2491.121045
_symmetry_space_group_name_H-M "P B C N"
_symmetry_group_IT_number 60
_symmetry_cell_setting 'orthorhombic'
loop_
_space_group_symop_operation_xyz
x,y,z
1/2-x,1/2-y,1/2+z
1/2+x,1/2-y,-z
-x,y,1/2-z
-x,-y,-z
1/2+x,1/2+y,1/2-z
1/2-x,1/2+y,z
x,-y,1/2+z
loop_
_atom_site_type_symbol
_atom_site_label
_atom_site_fract_x
_atom_site_fract_y
_atom_site_fract_z
Si Si1 0.007011 0.213222 0.548116
Si Si2 0.072009 0.459872 0.128918
Si Si3 0.218966 0.745963 0.173603
Si Si4 0.108879 0.884512 0.302510
Si Si5 0.465831 0.238705 0.649237
Si Si6 0.604328 0.094077 0.073273
Si Si7 0.260668 0.045727 0.259771
O O1 0.932938 0.127554 0.589037
O O2 0.020829 0.200325 0.434706
O O3 0.926184 0.299380 0.562354
O O4 0.125594 0.231366 0.595679
O O5 0.993912 0.368966 0.144498
O O6 0.159810 0.469873 0.211935
O O7 0.994406 0.548961 0.132403
O O8 0.128182 0.456106 0.025896
O O9 0.194870 0.804166 0.269345
O O10 0.335857 0.776046 0.132928
O O11 0.238901 0.635850 0.192537
O O12 0.000000 0.857186 0.250000
O O13 0.147298 0.989125 0.275744
O O14 0.500000 0.284122 0.750000
O O15 0.711096 0.079777 0.135830
#
# Coordination Sequence:
#
# PCOD8246936 Si02
#       7
#     8   8   8   8   8   8   8
#     4  10  22  43  66  94 135 178 225 272 339 416
#     4  10  21  35  58  97 130 153 209 282 342 388
#     4  11  23  40  67  97 129 179 226 274 338 407
#     4  10  23  42  63  93 132 181 224 270 337 417
#     4  11  24  42  63 100 137 170 220 287 338 392
#     4  10  20  36  62  96 125 159 215 282 338 397
#     4  12  21  38  68  91 129 171 222 277 340 396
#
# _framework density 22.479838000000001
#
# number of rings (size 3 to 8) (size 9 to 14) (size 15 to 20)
#    0.000    1.429    4.286    1.286    0.000    2.857 
#    0.000    0.000    0.000    3.429    0.000    0.000 
#    0.000    0.000    0.000    0.000    0.000    0.000 
#
# Total GULP energy -693760.467597 kJ/mol
# GULP energy per Si atom -12388.579779 kJ/mol
# Density = 2.242867 g / cm^3
# Si number density = 22.479838 Si / 1000 Ang^3
#
#
#
# Elastic Constant Matrix: (Units=GPa)
#
#
# Indices 1 2 3 4 5 6 
#
# 1 75.6293 20.9080 38.8587 0.0000 0.0000 0.0000
# 2 20.9080 67.8646 15.4588 0.0000 0.0000 0.0000
# 3 38.8587 15.4588 148.1844 0.0000 0.0000 0.0000
# 4 0.0000 0.0000 0.0000 17.3819 0.0000 0.0000
# 5 0.0000 0.0000 0.0000 0.0000 22.2277 0.0000
# 6 0.0000 0.0000 0.0000 0.0000 0.0000 30.2811
#
#
#
# Elastic Compliance Matrix: (Units=1/GPa)
#
#
# Indices 1 2 3 4 5 6 
#
# 1 0.016353 -0.004160 -0.003854 0.000000 0.000000 0.000000
# 2 -0.004160 0.016152 -0.000594 0.000000 0.000000 0.000000
# 3 -0.003854 -0.000594 0.007821 0.000000 0.000000 0.000000
# 4 0.000000 0.000000 0.000000 0.057531 0.000000 0.000000
# 5 0.000000 0.000000 0.000000 0.000000 0.044989 0.000000
# 6 0.000000 0.000000 0.000000 0.000000 0.000000 0.033024
#
#
# Mechanical properties :
#
#
# Convention : Reuss Voigt Hill
#
# Bulk Modulus (GPa) = 43.27288 49.12548 46.19918
# Shear Modulus (GPa) = 24.90164 28.40832 26.65498
#
# Velocity S-wave (km/s) = 3.33187 3.55875 3.44718
# Velocity P-wave (km/s) = 5.83894 6.22791 6.03656
#
# Compressibility (1/GPa) = 0.02310916
#
# Stress axis : x y z
#
# Youngs Moduli (GPa) = 61.15166 61.91100 127.86043
#
# Poissons Ratio (x) = 0.25756 0.49280
# Poissons Ratio (y) = 0.25440 0.07596
# Poissons Ratio (z) = 0.23569 0.03678
#
# Static dielectric constant tensor:
#      x y z
#    x 3.881120 0.000000 0.000000 
#    y 0.000000 3.934130 0.000000 
#    z 0.000000 0.000000 4.426730 
# 
# 
# High freq. dielectric constant tensor:
#      x y z
#    x 1.863630 0.000000 0.000000 
#    y 0.000000 1.875160 0.000000 
#    z 0.000000 0.000000 1.891620 
# 
# From -- ./inp_files/16136.got.cif
#   From: 2010.03.12/outbox.cif.g09.slc.cpg/sg60_9_cif.got.tgz:16136.got - 2010.04.10 18:46:24.
