data_PCOD8246067
_publ_section_title
;
Structure prediction by ZEFSAII (Michael W. Deem and Ramdas Pophale) SiO2 
 PCOD8246067
Probable space group: P M M N
;
_chemical_formula_sum "Si O2"
_cell_formula_units_Z 40
_cell_length_a 8.824778
_cell_length_b 9.996180
_cell_length_c 23.576254
_cell_angle_alpha 90.000000
_cell_angle_beta 90.000000
_cell_angle_gamma 90.000000
_cell_volume 2079.757305
_symmetry_space_group_name_H-M "P M M N"
_symmetry_group_IT_number 59
_space_group.IT_coordinate_system_code '2'
_symmetry_cell_setting 'orthorhombic'
loop_
_space_group_symop_operation_xyz
x,y,z
1/2-x,1/2-y,z
1/2+x,-y,-z
-x,1/2+y,-z
-x,-y,-z
1/2+x,1/2+y,-z
1/2-x,y,z
x,1/2-y,z
loop_
_atom_site_type_symbol
_atom_site_label
_atom_site_fract_x
_atom_site_fract_y
_atom_site_fract_z
Si Si1 0.423983 0.598029 0.239780
Si Si2 0.429767 0.250000 0.955598
Si Si3 0.572040 0.101419 0.456666
Si Si4 0.929453 0.750000 0.916714
Si Si5 0.925457 0.405370 0.327567
Si Si6 0.071285 0.483714 0.874838
O O1 0.250000 0.571406 0.222619
O O2 0.446582 0.750000 0.261289
O O3 0.468816 0.497457 0.289487
O O4 0.530910 0.575463 0.186031
O O5 0.250000 0.250000 0.955626
O O6 0.488032 0.118056 0.923168
O O7 0.495866 0.250000 0.019216
O O8 0.750000 0.099402 0.465032
O O9 0.509188 0.250000 0.469552
O O10 0.531241 0.061608 0.392370
O O11 0.500000 0.000000 0.500000
O O12 0.750000 0.750000 0.917904
O O13 0.987011 0.622693 0.882780
O O14 0.750000 0.438729 0.315655
O O15 0.957408 0.250000 0.313759
O O16 0.250000 0.506458 0.878631
#
# Coordination Sequence:
#
# PCOD8246067 Si02
#       6
#     8   4   8   4   8   8
#     4  11  24  40  58  84 116 150 189 239 297 347
#     4   9  20  39  63  87 115 149 192 237 282 339
#     4   9  19  36  57  84 118 154 193 237 284 336
#     4  11  23  39  59  89 121 149 186 237 288 341
#     4   9  20  39  61  84 113 152 196 239 284 339
#     4  11  22  40  62  86 114 152 195 235 283 345
#
# _framework density 19.233013
#
# number of rings (size 3 to 8) (size 9 to 14) (size 15 to 20)
#    0.000    2.000    1.000    3.300    1.400    3.600 
#    0.000    9.000    0.000    0.000    0.000    0.000 
#    0.000    0.000    0.000    0.000    0.000    0.000 
#
# Total GULP energy -496105.908153 kJ/mol
# GULP energy per Si atom -12402.647704 kJ/mol
# Density = 1.918924 g / cm^3
# Si number density = 19.233013 Si / 1000 Ang^3
#
#
#
# Elastic Constant Matrix: (Units=GPa)
#
#
# Indices 1 2 3 4 5 6 
#
# 1 59.1305 38.8101 30.8854 0.0000 0.0000 0.0000
# 2 38.8101 118.3939 48.4879 0.0000 0.0000 0.0000
# 3 30.8854 48.4879 95.9388 0.0000 0.0000 0.0000
# 4 0.0000 0.0000 0.0000 40.7150 0.0000 0.0000
# 5 0.0000 0.0000 0.0000 0.0000 32.3269 0.0000
# 6 0.0000 0.0000 0.0000 0.0000 0.0000 27.7093
#
#
#
# Elastic Compliance Matrix: (Units=1/GPa)
#
#
# Indices 1 2 3 4 5 6 
#
# 1 0.023013 -0.005687 -0.004534 0.000000 0.000000 0.000000
# 2 -0.005687 0.012056 -0.004263 0.000000 0.000000 0.000000
# 3 -0.004534 -0.004263 0.014037 0.000000 0.000000 0.000000
# 4 0.000000 0.000000 0.000000 0.024561 0.000000 0.000000
# 5 0.000000 0.000000 0.000000 0.000000 0.030934 0.000000
# 6 0.000000 0.000000 0.000000 0.000000 0.000000 0.036089
#
#
# Mechanical properties :
#
#
# Convention : Reuss Voigt Hill
#
# Bulk Modulus (GPa) = 49.65479 56.64779 53.15129
# Shear Modulus (GPa) = 28.34947 30.50222 29.42584
#
# Velocity S-wave (km/s) = 3.84344 3.98669 3.91572
# Velocity P-wave (km/s) = 6.75052 7.12103 6.93825
#
# Compressibility (1/GPa) = 0.02013904
#
# Stress axis : x y z
#
# Youngs Moduli (GPa) = 43.45461 82.94484 71.23835
#
# Poissons Ratio (x) = 0.47167 0.32302
# Poissons Ratio (y) = 0.24711 0.30366
# Poissons Ratio (z) = 0.19704 0.35356
#
# Static dielectric constant tensor:
#      x y z
#    x 3.379090 0.000000 0.000000 
#    y 0.000000 3.510820 0.000000 
#    z 0.000000 0.000000 3.298890 
# 
# 
# High freq. dielectric constant tensor:
#      x y z
#    x 1.740530 0.000000 0.000000 
#    y 0.000000 1.760350 0.000000 
#    z 0.000000 0.000000 1.752550 
# 
# From -- ./inp_files/32426.got.cif
#   From: 2010.03.12/outbox.cif.g09.slc.cpg/sg59_17_cif.got.tgz:32426.got - 2010.04.16 16:29:54.
