data_PCOD8246769
_publ_section_title
;
Structure prediction by ZEFSAII (Michael W. Deem and Ramdas Pophale) SiO2 
 PCOD8246769
Probable space group: P B C N
;
_chemical_formula_sum "Si O2"
_cell_formula_units_Z 44
_cell_length_a 6.288605
_cell_length_b 13.333848
_cell_length_c 25.405994
_cell_angle_alpha 90.000000
_cell_angle_beta 90.000000
_cell_angle_gamma 90.000000
_cell_volume 2130.325706
_symmetry_space_group_name_H-M "P B C N"
_symmetry_group_IT_number 60
_symmetry_cell_setting 'orthorhombic'
loop_
_space_group_symop_operation_xyz
x,y,z
1/2-x,1/2-y,1/2+z
1/2+x,1/2-y,-z
-x,y,1/2-z
-x,-y,-z
1/2+x,1/2+y,1/2-z
1/2-x,1/2+y,z
x,-y,1/2+z
loop_
_atom_site_type_symbol
_atom_site_label
_atom_site_fract_x
_atom_site_fract_y
_atom_site_fract_z
Si Si1 0.745666 0.543081 0.656626
Si Si2 0.303003 0.552598 0.528544
Si Si3 0.045093 0.583196 0.428637
Si Si4 0.876216 0.340494 0.297506
Si Si5 0.929541 0.794696 0.383866
Si Si6 0.000000 0.964445 0.250000
O O1 0.779780 0.479186 0.604219
O O2 0.616823 0.645018 0.644920
O O3 0.605470 0.477418 0.699730
O O4 0.975102 0.572844 0.678598
O O5 0.500000 0.500000 0.500000
O O6 0.141023 0.599509 0.486335
O O7 0.369527 0.646508 0.563451
O O8 0.181380 0.472786 0.565826
O O9 0.015425 0.686859 0.399059
O O10 0.775192 0.276068 0.345377
O O11 0.686753 0.394301 0.268780
O O12 0.000000 0.279544 0.250000
#
# Coordination Sequence:
#
# PCOD8246769 Si02
#       6
#     8   8   8   8   8   4
#     4  10  19  40  63  92 123 159 208 260 311 377
#     4  11  24  42  58  92 131 165 216 265 311 379
#     4  11  25  39  65  93 124 166 216 256 313 390
#     4   9  18  38  67  87 123 163 204 260 317 368
#     4  11  23  39  66  92 126 169 207 261 324 370
#     4   8  18  34  70  84 118 168 196 260 322 354
#
# _framework density 20.654119000000001
#
# number of rings (size 3 to 8) (size 9 to 14) (size 15 to 20)
#    0.000    1.818    3.636    0.000    2.545    1.455 
#    0.000    0.000   48.000    0.000    0.000    0.000 
#    0.000    0.000    0.000    0.000    0.000    0.000 
#
# Total GULP energy -545138.376718 kJ/mol
# GULP energy per Si atom -12389.508562 kJ/mol
# Density = 2.060711 g / cm^3
# Si number density = 20.654119 Si / 1000 Ang^3
#
#
#
# Elastic Constant Matrix: (Units=GPa)
#
#
# Indices 1 2 3 4 5 6 
#
# 1 105.7629 29.8684 49.5527 0.0000 0.0000 0.0000
# 2 29.8684 71.2467 38.3801 0.0000 0.0000 0.0000
# 3 49.5527 38.3801 124.5785 0.0000 0.0000 0.0000
# 4 0.0000 0.0000 0.0000 17.9125 0.0000 0.0000
# 5 0.0000 0.0000 0.0000 0.0000 60.1430 0.0000
# 6 0.0000 0.0000 0.0000 0.0000 0.0000 18.7696
#
#
#
# Elastic Compliance Matrix: (Units=1/GPa)
#
#
# Indices 1 2 3 4 5 6 
#
# 1 0.012126 -0.002980 -0.003905 0.000000 0.000000 0.000000
# 2 -0.002980 0.017561 -0.004225 0.000000 0.000000 0.000000
# 3 -0.003905 -0.004225 0.010882 0.000000 0.000000 0.000000
# 4 0.000000 0.000000 0.000000 0.055827 0.000000 0.000000
# 5 0.000000 0.000000 0.000000 0.000000 0.016627 0.000000
# 6 0.000000 0.000000 0.000000 0.000000 0.000000 0.053278
#
#
# Mechanical properties :
#
#
# Convention : Reuss Voigt Hill
#
# Bulk Modulus (GPa) = 54.49858 59.68785 57.09322
# Shear Modulus (GPa) = 25.68872 31.61746 28.65309
#
# Velocity S-wave (km/s) = 3.53052 3.91680 3.72866
# Velocity P-wave (km/s) = 6.56224 7.02969 6.79998
#
# Compressibility (1/GPa) = 0.01834910
#
# Stress axis : x y z
#
# Youngs Moduli (GPa) = 82.46440 56.94468 91.89412
#
# Poissons Ratio (x) = 0.16969 0.35888
# Poissons Ratio (y) = 0.24573 0.38824
# Poissons Ratio (z) = 0.32206 0.24058
#
# Static dielectric constant tensor:
#      x y z
#    x 4.179290 0.000000 0.000000 
#    y 0.000000 3.128330 0.000000 
#    z 0.000000 0.000000 4.479180 
# 
# 
# High freq. dielectric constant tensor:
#      x y z
#    x 1.832260 0.000000 0.000000 
#    y 0.000000 1.747700 0.000000 
#    z 0.000000 0.000000 1.844190 
# 
# From -- ./inp_files/24832.got.cif
#   From: 2010.03.12/outbox.cif.g09.slc.cpg/sg60_13_cif.got.tgz:24832.got - 2010.04.10 18:46:24.
