data_PCOD8246170
_publ_section_title
;
Structure prediction by ZEFSAII (Michael W. Deem and Ramdas Pophale) SiO2 
 PCOD8246170
Probable space group: P M M N
;
_chemical_formula_sum "Si O2"
_cell_formula_units_Z 48
_cell_length_a 9.311186
_cell_length_b 18.659000
_cell_length_c 16.461010
_cell_angle_alpha 90.000000
_cell_angle_beta 90.000000
_cell_angle_gamma 90.000000
_cell_volume 2859.893401
_symmetry_space_group_name_H-M "P M M N"
_symmetry_group_IT_number 59
_space_group.IT_coordinate_system_code '2'
_symmetry_cell_setting 'orthorhombic'
loop_
_space_group_symop_operation_xyz
x,y,z
1/2-x,1/2-y,z
1/2+x,-y,-z
-x,1/2+y,-z
-x,-y,-z
1/2+x,1/2+y,-z
1/2-x,y,z
x,1/2-y,z
loop_
_atom_site_type_symbol
_atom_site_label
_atom_site_fract_x
_atom_site_fract_y
_atom_site_fract_z
Si Si1 0.920312 0.527216 0.578815
Si Si2 0.419244 0.831052 0.150514
Si Si3 0.080206 0.959762 0.256073
Si Si4 0.920781 0.898551 0.825022
Si Si5 0.920488 0.671025 0.661697
Si Si6 0.414917 0.333763 0.009589
O O1 0.750000 0.522015 0.565649
O O2 0.973753 0.476144 0.652797
O O3 0.968272 0.609375 0.598012
O O4 0.000000 0.500000 0.500000
O O5 0.250000 0.837369 0.136504
O O6 0.464862 0.750000 0.173082
O O7 0.471577 0.882050 0.224398
O O8 0.494462 0.857513 0.068434
O O9 0.250000 0.964151 0.258355
O O10 0.025747 0.020702 0.193400
O O11 0.750000 0.893085 0.828565
O O12 0.977642 0.847672 0.752107
O O13 0.982005 0.873805 0.912009
O O14 0.750000 0.671633 0.664294
O O15 0.979370 0.750000 0.635948
O O16 0.250000 0.355264 0.993978
O O17 0.430408 0.250000 0.026363
#
# Coordination Sequence:
#
# PCOD8246170 Si02
#       6
#     8   8   8   8   8   8
#     4   9  17  30  48  67  87 110 136 171 213 255
#     4   9  17  29  43  57  78 112 148 174 196 230
#     4   8  15  28  44  61  80 105 139 172 201 240
#     4   8  13  22  39  62  84 106 134 170 208 244
#     4   8  13  23  42  66  87 108 138 173 207 248
#     4   9  16  25  39  61  86 108 133 169 209 241
#
# _framework density 16.783842
#
# number of rings (size 3 to 8) (size 9 to 14) (size 15 to 20)
#    0.000    3.500    0.000    2.500    0.000    2.667 
#    0.000    1.667    0.000    5.500    0.000    0.000 
#    0.000    0.000    0.000    0.000    0.000    0.000 
#
# Total GULP energy -594760.657921 kJ/mol
# GULP energy per Si atom -12390.847040 kJ/mol
# Density = 1.674564 g / cm^3
# Si number density = 16.783842 Si / 1000 Ang^3
#
#
#
# Elastic Constant Matrix: (Units=GPa)
#
#
# Indices 1 2 3 4 5 6 
#
# 1 18.5650 23.4153 28.5498 0.0000 0.0000 0.0000
# 2 23.4153 128.7412 91.7006 0.0000 0.0000 0.0000
# 3 28.5498 91.7006 141.6023 0.0000 0.0000 0.0000
# 4 0.0000 0.0000 0.0000 27.8282 0.0000 0.0000
# 5 0.0000 0.0000 0.0000 0.0000 25.6471 0.0000
# 6 0.0000 0.0000 0.0000 0.0000 0.0000 11.9517
#
#
#
# Elastic Compliance Matrix: (Units=1/GPa)
#
#
# Indices 1 2 3 4 5 6 
#
# 1 0.080265 -0.005702 -0.012491 0.000000 0.000000 0.000000
# 2 -0.005702 0.014823 -0.008450 0.000000 0.000000 0.000000
# 3 -0.012491 -0.008450 0.015052 0.000000 0.000000 0.000000
# 4 0.000000 0.000000 0.000000 0.035935 0.000000 0.000000
# 5 0.000000 0.000000 0.000000 0.000000 0.038991 0.000000
# 6 0.000000 0.000000 0.000000 0.000000 0.000000 0.083670
#
#
# Mechanical properties :
#
#
# Convention : Reuss Voigt Hill
#
# Bulk Modulus (GPa) = 17.58825 64.02666 40.80746
# Shear Modulus (GPa) = 14.66395 22.76824 18.71609
#
# Velocity S-wave (km/s) = 2.95904 3.68714 3.34297
# Velocity P-wave (km/s) = 4.70920 7.50715 6.26633
#
# Compressibility (1/GPa) = 0.05685615
#
# Stress axis : x y z
#
# Youngs Moduli (GPa) = 12.45880 67.46161 66.43428
#
# Poissons Ratio (x) = 0.38463 0.82981
# Poissons Ratio (y) = 0.07103 0.56136
# Poissons Ratio (z) = 0.15562 0.57004
#
# Static dielectric constant tensor:
#      x y z
#    x 2.922710 0.000000 0.000000 
#    y 0.000000 3.519650 0.000000 
#    z 0.000000 0.000000 3.196900 
# 
# 
# High freq. dielectric constant tensor:
#      x y z
#    x 1.590660 0.000000 0.000000 
#    y 0.000000 1.652850 0.000000 
#    z 0.000000 0.000000 1.640990 
# 
# From -- ./inp_files/23822.got.cif
#   From: 2010.03.12/outbox.cif.g09.slc.cpg/sg59_12_cif.got.tgz:23822.got - 2010.04.16 16:29:54.
