data_PCOD8246061
_publ_section_title
;
Structure prediction by ZEFSAII (Michael W. Deem and Ramdas Pophale) SiO2 
 PCOD8246061
Probable space group: P M M N
;
_chemical_formula_sum "Si O2"
_cell_formula_units_Z 48
_cell_length_a 8.700671
_cell_length_b 28.396223
_cell_length_c 9.927227
_cell_angle_alpha 90.000000
_cell_angle_beta 90.000000
_cell_angle_gamma 90.000000
_cell_volume 2452.682192
_symmetry_space_group_name_H-M "P M M N"
_symmetry_group_IT_number 59
_space_group.IT_coordinate_system_code '2'
_symmetry_cell_setting 'orthorhombic'
loop_
_space_group_symop_operation_xyz
x,y,z
1/2-x,1/2-y,z
1/2+x,-y,-z
-x,1/2+y,-z
-x,-y,-z
1/2+x,1/2+y,-z
1/2-x,y,z
x,1/2-y,z
loop_
_atom_site_type_symbol
_atom_site_label
_atom_site_fract_x
_atom_site_fract_y
_atom_site_fract_z
Si Si1 0.431064 0.881615 0.713205
Si Si2 0.574276 0.631322 0.996983
Si Si3 0.577624 0.305405 0.792026
Si Si4 0.067198 0.802448 0.508247
Si Si5 0.928162 0.969474 0.116610
Si Si6 0.431323 0.481822 0.362546
O O1 0.250000 0.888008 0.695788
O O2 0.495100 0.840385 0.615531
O O3 0.511458 0.930106 0.675068
O O4 0.467700 0.867427 0.865847
O O5 0.750000 0.635189 0.949071
O O6 0.533974 0.674123 0.094882
O O7 0.545914 0.584680 0.083134
O O8 0.750000 0.325833 0.810989
O O9 0.580041 0.250000 0.811603
O O10 0.514521 0.317687 0.642186
O O11 0.250000 0.800420 0.510967
O O12 0.003230 0.750000 0.543758
O O13 0.750000 0.982713 0.133404
O O14 0.018029 0.980192 0.252710
O O15 0.000000 0.000000 0.000000
O O16 0.500000 0.500000 0.500000
O O17 0.250000 0.480439 0.372546
#
# Coordination Sequence:
#
# PCOD8246061 Si02
#       6
#     8   8   8   8   8   8
#     4  11  22  38  62  91 121 157 202 249 301 358
#     4  11  24  39  58  88 123 159 197 246 303 360
#     4   9  19  38  63  89 117 153 199 248 298 357
#     4   8  17  36  61  89 118 149 192 245 297 352
#     4  11  23  41  63  88 121 162 202 245 300 357
#     4  12  26  43  62  88 123 160 203 252 302 361
#
# _framework density 19.570411
#
# number of rings (size 3 to 8) (size 9 to 14) (size 15 to 20)
#    0.000    1.667    1.667    4.000    2.333    3.000 
#    0.000    2.500    0.000    3.500    0.000    0.000 
#    0.000    0.000    0.000    0.000    0.000    0.000 
#
# Total GULP energy -595309.668372 kJ/mol
# GULP energy per Si atom -12402.284758 kJ/mol
# Density = 1.952587 g / cm^3
# Si number density = 19.570411 Si / 1000 Ang^3
#
#
#
# Elastic Constant Matrix: (Units=GPa)
#
#
# Indices 1 2 3 4 5 6 
#
# 1 90.4796 33.1700 45.2180 0.0000 0.0000 0.0000
# 2 33.1700 73.5907 57.7585 0.0000 0.0000 0.0000
# 3 45.2180 57.7585 153.1702 0.0000 0.0000 0.0000
# 4 0.0000 0.0000 0.0000 38.2324 0.0000 0.0000
# 5 0.0000 0.0000 0.0000 0.0000 29.7789 0.0000
# 6 0.0000 0.0000 0.0000 0.0000 0.0000 27.5708
#
#
#
# Elastic Compliance Matrix: (Units=1/GPa)
#
#
# Indices 1 2 3 4 5 6 
#
# 1 0.013867 -0.004314 -0.002467 0.000000 0.000000 0.000000
# 2 -0.004314 0.020643 -0.006511 0.000000 0.000000 0.000000
# 3 -0.002467 -0.006511 0.009712 0.000000 0.000000 0.000000
# 4 0.000000 0.000000 0.000000 0.026156 0.000000 0.000000
# 5 0.000000 0.000000 0.000000 0.000000 0.033581 0.000000
# 6 0.000000 0.000000 0.000000 0.000000 0.000000 0.036270
#
#
# Mechanical properties :
#
#
# Convention : Reuss Voigt Hill
#
# Bulk Modulus (GPa) = 56.69381 65.50371 61.09876
# Shear Modulus (GPa) = 28.95340 31.18938 30.07139
#
# Velocity S-wave (km/s) = 3.85053 3.99645 3.92417
# Velocity P-wave (km/s) = 6.98576 7.40533 7.19860
#
# Compressibility (1/GPa) = 0.01763861
#
# Stress axis : x y z
#
# Youngs Moduli (GPa) = 72.11581 48.44212 102.96510
#
# Poissons Ratio (x) = 0.20898 0.25400
# Poissons Ratio (y) = 0.31111 0.67038
# Poissons Ratio (z) = 0.17790 0.31539
#
# Static dielectric constant tensor:
#      x y z
#    x 3.317000 0.000000 0.000000 
#    y 0.000000 3.609040 0.000000 
#    z 0.000000 0.000000 3.680390 
# 
# 
# High freq. dielectric constant tensor:
#      x y z
#    x 1.753840 0.000000 0.000000 
#    y 0.000000 1.768620 0.000000 
#    z 0.000000 0.000000 1.775220 
# 
# From -- ./inp_files/6275.got.cif
#   From: 2010.03.12/outbox.cif.g09.slc.cpg/sg59_4_cif.got.tgz:6275.got - 2010.04.16 16:29:54.
