data_PCOD8246681
_publ_section_title
;
Structure prediction by ZEFSAII (Michael W. Deem and Ramdas Pophale) SiO2 
 PCOD8246681
Probable space group: P B C N
;
_chemical_formula_sum "Si O2"
_cell_formula_units_Z 48
_cell_length_a 17.651007
_cell_length_b 15.224402
_cell_length_c 8.614958
_cell_angle_alpha 90.000000
_cell_angle_beta 90.000000
_cell_angle_gamma 90.000000
_cell_volume 2315.063430
_symmetry_space_group_name_H-M "P B C N"
_symmetry_group_IT_number 60
_symmetry_cell_setting 'orthorhombic'
loop_
_space_group_symop_operation_xyz
x,y,z
1/2-x,1/2-y,1/2+z
1/2+x,1/2-y,-z
-x,y,1/2-z
-x,-y,-z
1/2+x,1/2+y,1/2-z
1/2-x,1/2+y,z
x,-y,1/2+z
loop_
_atom_site_type_symbol
_atom_site_label
_atom_site_fract_x
_atom_site_fract_y
_atom_site_fract_z
Si Si1 0.763134 0.553509 0.642679
Si Si2 0.077094 0.386148 0.312895
Si Si3 0.542500 0.776011 0.903946
Si Si4 0.815861 0.227856 0.727463
Si Si5 0.284321 0.609054 0.185799
Si Si6 0.903745 0.773962 0.920563
O O1 0.851566 0.548153 0.694475
O O2 0.722609 0.632867 0.732171
O O3 0.758397 0.566598 0.459540
O O4 0.721134 0.462032 0.678022
O O5 0.065412 0.359402 0.492314
O O6 0.093559 0.300071 0.210347
O O7 0.000000 0.432754 0.250000
O O8 0.500000 0.811477 0.750000
O O9 0.617507 0.723091 0.855435
O O10 0.487253 0.712137 0.004831
O O11 0.754131 0.299634 0.769865
O O12 0.846317 0.254176 0.557615
O O13 0.372440 0.634084 0.150910
#
# Coordination Sequence:
#
# PCOD8246681 Si02
#       6
#     8   8   8   8   8   8
#     4  11  24  37  58  91 123 163 208 253 316 373
#     4  10  19  36  59  88 119 157 205 248 309 369
#     4   9  18  36  63  89 116 162 208 253 313 372
#     4  10  20  39  62  86 120 161 207 263 314 367
#     4  11  23  38  59  91 124 162 209 258 310 374
#     4   9  20  36  61  89 118 160 205 254 316 368
#
# _framework density 20.733774
#
# number of rings (size 3 to 8) (size 9 to 14) (size 15 to 20)
#    0.000    2.000    3.333    0.000    2.333    1.333 
#    0.000    4.167    0.000    7.000    0.000    0.000 
#    0.000    0.000    0.000    0.000    0.000    0.000 
#
# Total GULP energy -595046.585146 kJ/mol
# GULP energy per Si atom -12396.803857 kJ/mol
# Density = 2.068658 g / cm^3
# Si number density = 20.733774 Si / 1000 Ang^3
#
#
#
# Elastic Constant Matrix: (Units=GPa)
#
#
# Indices 1 2 3 4 5 6 
#
# 1 74.4493 21.5569 17.7276 0.0000 0.0000 0.0000
# 2 21.5569 62.3544 5.4840 0.0000 0.0000 0.0000
# 3 17.7276 5.4840 58.0784 0.0000 0.0000 0.0000
# 4 0.0000 0.0000 0.0000 14.2181 0.0000 0.0000
# 5 0.0000 0.0000 0.0000 0.0000 26.0198 0.0000
# 6 0.0000 0.0000 0.0000 0.0000 0.0000 23.8784
#
#
#
# Elastic Compliance Matrix: (Units=1/GPa)
#
#
# Indices 1 2 3 4 5 6 
#
# 1 0.015963 -0.005133 -0.004388 0.000000 0.000000 0.000000
# 2 -0.005133 0.017822 -0.000116 0.000000 0.000000 0.000000
# 3 -0.004388 -0.000116 0.018568 0.000000 0.000000 0.000000
# 4 0.000000 0.000000 0.000000 0.070333 0.000000 0.000000
# 5 0.000000 0.000000 0.000000 0.000000 0.038432 0.000000
# 6 0.000000 0.000000 0.000000 0.000000 0.000000 0.041879
#
#
# Mechanical properties :
#
#
# Convention : Reuss Voigt Hill
#
# Bulk Modulus (GPa) = 30.22972 31.60212 30.91592
# Shear Modulus (GPa) = 21.43186 22.83083 22.13134
#
# Velocity S-wave (km/s) = 3.21856 3.32195 3.27066
# Velocity P-wave (km/s) = 5.33139 5.47619 5.40428
#
# Compressibility (1/GPa) = 0.03308003
#
# Stress axis : x y z
#
# Youngs Moduli (GPa) = 62.64498 56.11029 53.85493
#
# Poissons Ratio (x) = 0.28800 0.23631
# Poissons Ratio (y) = 0.32154 0.00625
# Poissons Ratio (z) = 0.27487 0.00652
#
# Static dielectric constant tensor:
#      x y z
#    x 4.198780 0.000000 0.000000 
#    y 0.000000 3.300940 0.000000 
#    z 0.000000 0.000000 3.998820 
# 
# 
# High freq. dielectric constant tensor:
#      x y z
#    x 1.825810 0.000000 0.000000 
#    y 0.000000 1.760960 0.000000 
#    z 0.000000 0.000000 1.829880 
# 
# From -- ./inp_files/6811.got.cif
#   From: 2010.03.12/outbox.cif.g09.slc.cpg/sg60_4_cif.got.tgz:6811.got - 2010.04.10 18:46:24.
