data_PCOD8246632
_publ_section_title
;
Structure prediction by ZEFSAII (Michael W. Deem and Ramdas Pophale) SiO2 
 PCOD8246632
Probable space group: P B C N
;
_chemical_formula_sum "Si O2"
_cell_formula_units_Z 40
_cell_length_a 18.898112
_cell_length_b 19.153426
_cell_length_c 5.312648
_cell_angle_alpha 90.000000
_cell_angle_beta 90.000000
_cell_angle_gamma 90.000000
_cell_volume 1922.985141
_symmetry_space_group_name_H-M "P B C N"
_symmetry_group_IT_number 60
_symmetry_cell_setting 'orthorhombic'
loop_
_space_group_symop_operation_xyz
x,y,z
1/2-x,1/2-y,1/2+z
1/2+x,1/2-y,-z
-x,y,1/2-z
-x,-y,-z
1/2+x,1/2+y,1/2-z
1/2-x,1/2+y,z
x,-y,1/2+z
loop_
_atom_site_type_symbol
_atom_site_label
_atom_site_fract_x
_atom_site_fract_y
_atom_site_fract_z
Si Si1 0.083485 0.429324 0.750000
Si Si2 0.828534 0.213008 0.250001
Si Si3 0.791759 0.469869 0.249999
Si Si4 0.416901 0.847184 0.250000
Si Si5 0.781346 0.171086 0.750001
O O1 0.125528 0.503212 0.750001
O O2 0.109092 0.386124 0.505059
O O3 0.000000 0.447090 0.750000
O O4 0.109092 0.386124 0.994941
O O5 0.892850 0.267109 0.250000
O O6 0.830534 0.164427 0.500620
O O7 0.753251 0.252598 0.250001
O O8 0.830534 0.164426 0.999383
O O9 0.753525 0.500001 0.499998
O O10 0.782529 0.385867 0.250002
O O11 0.500000 0.845023 0.250000
#
# Coordination Sequence:
#
# PCOD8246632 Si02
#       5
#     8   8   8   8   8
#     4  10  21  35  52  77 111 149 183 213 252 308
#     4  10  19  35  53  71 101 133 177 227 262 302
#     4  12  23  35  52  74 108 143 181 220 260 309
#     4  10  20  36  58  82 108 143 183 219 261 314
#     4  10  21  33  51  74  98 140 180 215 263 307
#
# _framework density 20.800992999999998
#
# number of rings (size 3 to 8) (size 9 to 14) (size 15 to 20)
#    0.000    1.600    0.000    6.000    0.000    4.000 
#    0.000    1.000    0.000    0.000    0.000    0.000 
#    0.000   16.000    0.000    0.000    0.000    0.000 
#
# Total GULP energy -495762.965343 kJ/mol
# GULP energy per Si atom -12394.074134 kJ/mol
# Density = 2.075365 g / cm^3
# Si number density = 20.800993 Si / 1000 Ang^3
#
#
#
# Elastic Constant Matrix: (Units=GPa)
#
#
# Indices 1 2 3 4 5 6 
#
# 1 39.3974 46.6887 38.5547 0.0000 0.0000 0.0000
# 2 46.6887 98.6202 66.3854 0.0000 0.0000 0.0000
# 3 38.5547 66.3854 243.6599 0.0000 0.0000 0.0000
# 4 0.0000 0.0000 0.0000 32.0465 0.0000 0.0000
# 5 0.0000 0.0000 0.0000 0.0000 22.0779 0.0000
# 6 0.0000 0.0000 0.0000 0.0000 0.0000 45.3207
#
#
#
# Elastic Compliance Matrix: (Units=1/GPa)
#
#
# Indices 1 2 3 4 5 6 
#
# 1 0.058689 -0.026370 -0.002102 0.000000 0.000000 0.000000
# 2 -0.026370 0.024265 -0.002439 0.000000 0.000000 0.000000
# 3 -0.002102 -0.002439 0.005101 0.000000 0.000000 0.000000
# 4 0.000000 0.000000 0.000000 0.031205 0.000000 0.000000
# 5 0.000000 0.000000 0.000000 0.000000 0.045294 0.000000
# 6 0.000000 0.000000 0.000000 0.000000 0.000000 0.022065
#
#
# Mechanical properties :
#
#
# Convention : Reuss Voigt Hill
#
# Bulk Modulus (GPa) = 38.11684 76.10390 57.11037
# Shear Modulus (GPa) = 19.44123 35.22560 27.33341
#
# Velocity S-wave (km/s) = 3.06049 4.11963 3.62891
# Velocity P-wave (km/s) = 5.55456 7.70030 6.71370
#
# Compressibility (1/GPa) = 0.02623512
#
# Stress axis : x y z
#
# Youngs Moduli (GPa) = 17.03886 41.21100 196.03634
#
# Poissons Ratio (x) = 1.08672 0.41208
# Poissons Ratio (y) = 0.44931 0.47806
# Poissons Ratio (z) = 0.03582 0.10050
#
# Static dielectric constant tensor:
#      x y z
#    x 3.153300 0.000000 0.000000 
#    y 0.000000 3.487200 0.000000 
#    z 0.000000 0.000000 5.321230 
# 
# 
# High freq. dielectric constant tensor:
#      x y z
#    x 1.747140 0.000000 0.000000 
#    y 0.000000 1.784450 0.000000 
#    z 0.000000 0.000000 1.871720 
# 
# From -- ./inp_files/1629.got.cif
#   From: 2010.03.12/outbox.cif.g09.slc.cpg/sg60_1_cif.got.tgz:1629.got - 2010.04.10 18:46:24.
