data_PCOD8246620
_publ_section_title
;
Structure prediction by ZEFSAII (Michael W. Deem and Ramdas Pophale) SiO2 
 PCOD8246620
Probable space group: P B C N
;
_chemical_formula_sum "Si O2"
_cell_formula_units_Z 40
_cell_length_a 6.155188
_cell_length_b 18.941133
_cell_length_c 18.675471
_cell_angle_alpha 90.000000
_cell_angle_beta 90.000000
_cell_angle_gamma 90.000000
_cell_volume 2177.302842
_symmetry_space_group_name_H-M "P B C N"
_symmetry_group_IT_number 60
_symmetry_cell_setting 'orthorhombic'
loop_
_space_group_symop_operation_xyz
x,y,z
1/2-x,1/2-y,1/2+z
1/2+x,1/2-y,-z
-x,y,1/2-z
-x,-y,-z
1/2+x,1/2+y,1/2-z
1/2-x,1/2+y,z
x,-y,1/2+z
loop_
_atom_site_type_symbol
_atom_site_label
_atom_site_fract_x
_atom_site_fract_y
_atom_site_fract_z
Si Si1 0.098917 0.604787 0.828464
Si Si2 0.129785 0.494885 0.574058
Si Si3 0.627007 0.794914 0.427986
Si Si4 0.492960 0.599536 0.914827
Si Si5 0.306845 0.849166 0.538474
O O1 0.361152 0.597100 0.838299
O O2 0.000000 0.607711 0.750000
O O3 0.996017 0.536087 0.864623
O O4 0.034105 0.679069 0.865900
O O5 0.370935 0.528615 0.570370
O O6 0.140154 0.411450 0.595430
O O7 0.000000 0.500000 0.500000
O O8 0.525723 0.814631 0.505632
O O9 0.659290 0.710586 0.424323
O O10 0.856976 0.831783 0.416178
O O11 0.315365 0.607328 0.976559
#
# Coordination Sequence:
#
# PCOD8246620 Si02
#       5
#     8   8   8   8   8
#     4  10  23  40  57  79 117 157 204 237 298 372
#     4  11  20  33  57  90 111 146 199 245 298 355
#     4  10  20  32  57  84 114 148 187 237 298 360
#     4  10  19  34  59  83 113 148 186 249 288 345
#     4  11  19  32  54  88 116 139 189 240 300 346
#
# _framework density 18.371354
#
# number of rings (size 3 to 8) (size 9 to 14) (size 15 to 20)
#    0.000    1.600    8.000    0.600    0.000    3.200 
#    0.000    0.000    8.800    0.000    0.000    0.000 
#    0.000    0.000    0.000    0.000    0.000    0.000 
#
# Total GULP energy -495638.181705 kJ/mol
# GULP energy per Si atom -12390.954543 kJ/mol
# Density = 1.832954 g / cm^3
# Si number density = 18.371354 Si / 1000 Ang^3
#
#
#
# Elastic Constant Matrix: (Units=GPa)
#
#
# Indices 1 2 3 4 5 6 
#
# 1 111.9757 42.0731 31.7389 0.0000 0.0000 0.0000
# 2 42.0731 170.7225 38.3492 0.0000 0.0000 0.0000
# 3 31.7389 38.3492 78.9142 0.0000 0.0000 0.0000
# 4 0.0000 0.0000 0.0000 17.9682 0.0000 0.0000
# 5 0.0000 0.0000 0.0000 0.0000 21.7920 0.0000
# 6 0.0000 0.0000 0.0000 0.0000 0.0000 33.1363
#
#
#
# Elastic Compliance Matrix: (Units=1/GPa)
#
#
# Indices 1 2 3 4 5 6 
#
# 1 0.010577 -0.001853 -0.003353 0.000000 0.000000 0.000000
# 2 -0.001853 0.006900 -0.002608 0.000000 0.000000 0.000000
# 3 -0.003353 -0.002608 0.015288 0.000000 0.000000 0.000000
# 4 0.000000 0.000000 0.000000 0.055654 0.000000 0.000000
# 5 0.000000 0.000000 0.000000 0.000000 0.045888 0.000000
# 6 0.000000 0.000000 0.000000 0.000000 0.000000 0.030178
#
#
# Mechanical properties :
#
#
# Convention : Reuss Voigt Hill
#
# Bulk Modulus (GPa) = 58.35605 65.10386 61.72995
# Shear Modulus (GPa) = 26.90670 31.20939 29.05804
#
# Velocity S-wave (km/s) = 3.83116 4.12613 3.98138
# Velocity P-wave (km/s) = 7.16966 7.62985 7.40333
#
# Compressibility (1/GPa) = 0.01713619
#
# Stress axis : x y z
#
# Youngs Moduli (GPa) = 94.54092 144.92797 65.41086
#
# Poissons Ratio (x) = 0.26861 0.21936
# Poissons Ratio (y) = 0.17522 0.17057
# Poissons Ratio (z) = 0.31704 0.37793
#
# Static dielectric constant tensor:
#      x y z
#    x 3.713960 0.000000 0.000000 
#    y 0.000000 3.628780 0.000000 
#    z 0.000000 0.000000 3.113390 
# 
# 
# High freq. dielectric constant tensor:
#      x y z
#    x 1.731050 0.000000 0.000000 
#    y 0.000000 1.719340 0.000000 
#    z 0.000000 0.000000 1.656440 
# 
# From -- ./inp_files/18519.got.cif
#   From: 2010.03.12/outbox.cif.g09.slc.cpg/sg60_10_cif.got.tgz:18519.got - 2010.04.10 18:46:24.
