data_PCOD8246789
_publ_section_title
;
Structure prediction by ZEFSAII (Michael W. Deem and Ramdas Pophale) SiO2 
 PCOD8246789
Probable space group: P B C N
;
_chemical_formula_sum "Si O2"
_cell_formula_units_Z 48
_cell_length_a 23.071860
_cell_length_b 21.728761
_cell_length_c 5.157864
_cell_angle_alpha 90.000000
_cell_angle_beta 90.000000
_cell_angle_gamma 90.000000
_cell_volume 2585.755502
_symmetry_space_group_name_H-M "P B C N"
_symmetry_group_IT_number 60
_symmetry_cell_setting 'orthorhombic'
loop_
_space_group_symop_operation_xyz
x,y,z
1/2-x,1/2-y,1/2+z
1/2+x,1/2-y,-z
-x,y,1/2-z
-x,-y,-z
1/2+x,1/2+y,1/2-z
1/2-x,1/2+y,z
x,-y,1/2+z
loop_
_atom_site_type_symbol
_atom_site_label
_atom_site_fract_x
_atom_site_fract_y
_atom_site_fract_z
Si Si1 0.065616 0.233231 0.248620
Si Si2 0.565191 0.347984 0.254232
Si Si3 0.318342 0.215302 0.856755
Si Si4 0.239100 0.971458 0.947465
Si Si5 0.609204 0.473427 0.401302
Si Si6 0.258729 0.168830 0.361163
O O1 0.074703 0.190592 0.491757
O O2 0.113046 0.287052 0.287382
O O3 0.000000 0.260613 0.250000
O O4 0.079686 0.194300 0.991393
O O5 0.500000 0.373968 0.250000
O O6 0.608398 0.405346 0.278661
O O7 0.286860 0.175030 0.642021
O O8 0.296774 0.286303 0.838931
O O9 0.305090 0.185765 0.136883
O O10 0.174199 0.994088 0.021008
O O11 0.269918 0.985991 0.224712
O O12 0.239076 0.901594 0.845362
O O13 0.578611 0.481813 0.683977
#
# Coordination Sequence:
#
# PCOD8246789 Si02
#       6
#     8   8   8   8   8   8
#     4  10  20  34  51  71  97 128 163 201 248 304
#     4  10  20  32  47  66  91 128 168 208 249 285
#     4  10  20  33  52  76 102 131 162 205 252 297
#     4  10  20  33  49  70  99 132 165 201 243 296
#     4  10  20  31  45  65  90 127 170 209 246 280
#     4  10  20  33  51  76 103 131 164 203 250 298
#
# _framework density 18.563241000000001
#
# number of rings (size 3 to 8) (size 9 to 14) (size 15 to 20)
#    0.000    2.000    0.000    4.000    0.000    6.000 
#    0.000    0.000    0.000    0.000    0.000    0.000 
#    0.000   13.333    0.000    0.000    0.000    0.000 
#
# Total GULP energy -594706.552746 kJ/mol
# GULP energy per Si atom -12389.719849 kJ/mol
# Density = 1.852099 g / cm^3
# Si number density = 18.563241 Si / 1000 Ang^3
#
#
#
# Elastic Constant Matrix: (Units=GPa)
#
#
# Indices 1 2 3 4 5 6 
#
# 1 57.8768 10.5059 16.7880 0.0000 0.0000 0.0000
# 2 10.5059 59.1510 32.2348 0.0000 0.0000 0.0000
# 3 16.7880 32.2348 154.2810 0.0000 0.0000 0.0000
# 4 0.0000 0.0000 0.0000 5.8370 0.0000 0.0000
# 5 0.0000 0.0000 0.0000 0.0000 18.9619 0.0000
# 6 0.0000 0.0000 0.0000 0.0000 0.0000 20.3528
#
#
#
# Elastic Compliance Matrix: (Units=1/GPa)
#
#
# Indices 1 2 3 4 5 6 
#
# 1 0.018144 -0.002422 -0.001468 0.000000 0.000000 0.000000
# 2 -0.002422 0.019402 -0.003790 0.000000 0.000000 0.000000
# 3 -0.001468 -0.003790 0.007433 0.000000 0.000000 0.000000
# 4 0.000000 0.000000 0.000000 0.171322 0.000000 0.000000
# 5 0.000000 0.000000 0.000000 0.000000 0.052737 0.000000
# 6 0.000000 0.000000 0.000000 0.000000 0.000000 0.049133
#
#
# Mechanical properties :
#
#
# Convention : Reuss Voigt Hill
#
# Bulk Modulus (GPa) = 33.76419 43.37404 38.56911
# Shear Modulus (GPa) = 14.56008 23.14901 18.85454
#
# Velocity S-wave (km/s) = 2.80366 3.53517 3.19045
# Velocity P-wave (km/s) = 5.35807 6.33084 5.86466
#
# Compressibility (1/GPa) = 0.02961718
#
# Stress axis : x y z
#
# Youngs Moduli (GPa) = 55.11567 51.54220 134.52939
#
# Poissons Ratio (x) = 0.12486 0.19751
# Poissons Ratio (y) = 0.13351 0.50988
# Poissons Ratio (z) = 0.08092 0.19535
#
# Static dielectric constant tensor:
#      x y z
#    x 7.292910 0.000000 0.000000 
#    y 0.000000 2.973260 0.000000 
#    z 0.000000 0.000000 4.170060 
# 
# 
# High freq. dielectric constant tensor:
#      x y z
#    x 1.681020 0.000000 0.000000 
#    y 0.000000 1.682550 0.000000 
#    z 0.000000 0.000000 1.762850 
# 
# From -- ./inp_files/2063.got.cif
#   From: 2010.03.12/outbox.cif.g09.slc.cpg/sg60_2_cif.got.tgz:2063.got - 2010.04.10 18:46:24.
