data_PCOD8246475
_publ_section_title
;
Structure prediction by ZEFSAII (Michael W. Deem and Ramdas Pophale) SiO2 
 PCOD8246475
Probable space group: P B C N
;
_chemical_formula_sum "Si O2"
_cell_formula_units_Z 64
_cell_length_a 18.778588
_cell_length_b 7.700608
_cell_length_c 21.613458
_cell_angle_alpha 90.000000
_cell_angle_beta 90.000000
_cell_angle_gamma 90.000000
_cell_volume 3125.447486
_symmetry_space_group_name_H-M "P B C N"
_symmetry_group_IT_number 60
_symmetry_cell_setting 'orthorhombic'
loop_
_space_group_symop_operation_xyz
x,y,z
1/2-x,1/2-y,1/2+z
1/2+x,1/2-y,-z
-x,y,1/2-z
-x,-y,-z
1/2+x,1/2+y,1/2-z
1/2-x,1/2+y,z
x,-y,1/2+z
loop_
_atom_site_type_symbol
_atom_site_label
_atom_site_fract_x
_atom_site_fract_y
_atom_site_fract_z
Si Si1 0.610537 0.680792 0.427408
Si Si2 0.745993 0.702338 0.344651
Si Si3 0.836467 0.168991 0.559651
Si Si4 0.958115 0.516424 0.855570
Si Si5 0.824726 0.770342 0.548626
Si Si6 0.834099 0.562280 0.770907
Si Si7 0.119988 0.803346 0.087891
Si Si8 0.121222 0.521908 0.359619
O O1 0.690516 0.688718 0.400756
O O2 0.613967 0.707348 0.500853
O O3 0.556802 0.823976 0.401764
O O4 0.579761 0.488963 0.412432
O O5 0.702553 0.750601 0.281077
O O6 0.787299 0.530023 0.324674
O O7 0.810004 0.826467 0.369015
O O8 0.758333 0.235231 0.543819
O O9 0.867219 0.282939 0.616021
O O10 0.837220 0.964035 0.576317
O O11 0.916318 0.551836 0.791656
O O12 0.935112 0.336786 0.886841
O O13 0.040422 0.505031 0.838906
O O14 0.857787 0.748670 0.481064
O O15 0.860453 0.626788 0.591758
O O16 0.827944 0.498704 0.700683
#
# Coordination Sequence:
#
# PCOD8246475 Si02
#       8
#     8   8   8   8   8   8   8   8
#     4  10  20  37  65  95 124 149 211 266 304 368
#     4  10  18  36  64  96 114 152 210 270 310 342
#     4  11  23  37  63  95 125 162 201 258 323 371
#     4  10  24  42  63  89 120 180 207 245 312 362
#     4  11  23  37  63  95 125 162 201 258 323 371
#     4  10  23  38  66  88 122 163 215 259 300 362
#     4  10  20  37  65  95 124 149 211 266 304 368
#     4  12  26  44  57  87 141 166 203 250 307 389
#
# _framework density 20.477067999999999
#
# number of rings (size 3 to 8) (size 9 to 14) (size 15 to 20)
#    0.000    1.500    3.750    1.125    1.750    3.000 
#    0.000    2.500    0.000    4.500    0.000    0.000 
#    0.000    0.000    0.000    0.000    0.000    0.000 
#
# Total GULP energy -793264.129629 kJ/mol
# GULP energy per Si atom -12394.752025 kJ/mol
# Density = 2.043046 g / cm^3
# Si number density = 20.477068 Si / 1000 Ang^3
#
#
#
# Elastic Constant Matrix: (Units=GPa)
#
#
# Indices 1 2 3 4 5 6 
#
# 1 38.3149 14.5406 9.8948 0.0000 0.0000 0.0000
# 2 14.5406 92.4439 23.9324 0.0000 0.0000 0.0000
# 3 9.8948 23.9324 87.2373 0.0000 0.0000 0.0000
# 4 0.0000 0.0000 0.0000 23.6054 0.0000 0.0000
# 5 0.0000 0.0000 0.0000 0.0000 21.1786 0.0000
# 6 0.0000 0.0000 0.0000 0.0000 0.0000 23.2540
#
#
#
# Elastic Compliance Matrix: (Units=1/GPa)
#
#
# Indices 1 2 3 4 5 6 
#
# 1 0.028118 -0.003872 -0.002127 0.000000 0.000000 0.000000
# 2 -0.003872 0.012178 -0.002902 0.000000 0.000000 0.000000
# 3 -0.002127 -0.002902 0.012500 0.000000 0.000000 0.000000
# 4 0.000000 0.000000 0.000000 0.042363 0.000000 0.000000
# 5 0.000000 0.000000 0.000000 0.000000 0.047217 0.000000
# 6 0.000000 0.000000 0.000000 0.000000 0.000000 0.043003
#
#
# Mechanical properties :
#
#
# Convention : Reuss Voigt Hill
#
# Bulk Modulus (GPa) = 28.57572 34.97018 31.77295
# Shear Modulus (GPa) = 23.27242 24.91613 24.09427
#
# Velocity S-wave (km/s) = 3.37488 3.49202 3.43395
# Velocity P-wave (km/s) = 5.40108 5.77701 5.59220
#
# Compressibility (1/GPa) = 0.03499474
#
# Stress axis : x y z
#
# Youngs Moduli (GPa) = 35.56404 82.11804 79.99840
#
# Poissons Ratio (x) = 0.31797 0.17016
# Poissons Ratio (y) = 0.13771 0.23212
# Poissons Ratio (z) = 0.07565 0.23827
#
# Static dielectric constant tensor:
#      x y z
#    x 3.564730 0.000000 0.000000 
#    y 0.000000 3.899590 0.000000 
#    z 0.000000 0.000000 3.494140 
# 
# 
# High freq. dielectric constant tensor:
#      x y z
#    x 1.788430 0.000000 0.000000 
#    y 0.000000 1.812070 0.000000 
#    z 0.000000 0.000000 1.791770 
# 
# From -- ./inp_files/23102.got.cif
#   From: 2010.03.12/outbox.cif.g09.slc.cpg/sg60_12_cif.got.tgz:23102.got - 2010.04.10 18:46:24.
