data_PCOD8246071
_publ_section_title
;
Structure prediction by ZEFSAII (Michael W. Deem and Ramdas Pophale) SiO2 
 PCOD8246071
Probable space group: P M M N
;
_chemical_formula_sum "Si O2"
_cell_formula_units_Z 64
_cell_length_a 22.104409
_cell_length_b 9.353909
_cell_length_c 20.374089
_cell_angle_alpha 90.000000
_cell_angle_beta 90.000000
_cell_angle_gamma 90.000000
_cell_volume 4212.600231
_symmetry_space_group_name_H-M "P M M N"
_symmetry_group_IT_number 59
_space_group.IT_coordinate_system_code '2'
_symmetry_cell_setting 'orthorhombic'
loop_
_space_group_symop_operation_xyz
x,y,z
1/2-x,1/2-y,z
1/2+x,-y,-z
-x,1/2+y,-z
-x,-y,-z
1/2+x,1/2+y,-z
1/2-x,y,z
x,1/2-y,z
loop_
_atom_site_type_symbol
_atom_site_label
_atom_site_fract_x
_atom_site_fract_y
_atom_site_fract_z
Si Si1 0.320649 0.916330 0.709609
Si Si2 0.109558 0.412064 0.814669
Si Si3 0.452291 0.086041 0.089153
Si Si4 0.464553 0.584270 0.355679
Si Si5 0.567621 0.587177 0.050415
Si Si6 0.469444 0.914767 0.208906
Si Si7 0.397366 0.412125 0.610386
Si Si8 0.942556 0.584470 0.525672
O O1 0.250000 0.947131 0.706093
O O2 0.335934 0.750000 0.710531
O O3 0.345875 0.983747 0.776524
O O4 0.350437 0.983341 0.644895
O O5 0.123867 0.250000 0.792816
O O6 0.119386 0.431840 0.893666
O O7 0.040422 0.450680 0.796852
O O8 0.457752 0.250000 0.109935
O O9 0.516943 0.029482 0.065382
O O10 0.430824 0.001101 0.154100
O O11 0.408280 0.066393 0.024861
O O12 0.451718 0.750000 0.370730
O O13 0.446366 0.543053 0.281428
O O14 0.535225 0.549733 0.365671
O O15 0.423564 0.488433 0.405157
O O16 0.541169 0.750000 0.057294
O O17 0.457424 0.750000 0.194996
O O18 0.382003 0.250000 0.631097
O O19 0.391543 0.429891 0.531096
O O20 0.959116 0.750000 0.537211
O O21 0.000000 0.500000 0.500000
#
# Coordination Sequence:
#
# PCOD8246071 Si02
#       8
#     8   8   8   8   8   8   8   8
#     4  11  23  33  41  58  80  99 128 174 216 243
#     4   9  16  29  44  54  69 100 135 165 199 236
#     4   9  15  22  34  54  75  98 129 159 188 225
#     4   9  16  27  41  58  80 105 133 162 194 232
#     4   8  15  26  37  50  72  98 126 161 195 226
#     4   9  16  26  38  54  80 107 131 161 192 225
#     4   9  17  31  45  56  73 101 133 163 197 241
#     4   9  17  27  40  59  79  98 127 162 195 235
#
# _framework density 15.192515999999999
#
# number of rings (size 3 to 8) (size 9 to 14) (size 15 to 20)
#    0.000    2.875    1.250    2.625    0.000    6.500 
#    0.000    0.000    0.000    0.000    0.000    0.000 
#    0.000    0.000    0.000    1.125    0.000   20.250 
#
# Total GULP energy -792887.997054 kJ/mol
# GULP energy per Si atom -12388.874954 kJ/mol
# Density = 1.515794 g / cm^3
# Si number density = 15.192516 Si / 1000 Ang^3
#
#
#
# Elastic Constant Matrix: (Units=GPa)
#
#
# Indices 1 2 3 4 5 6 
#
# 1 26.1931 27.4186 28.2100 0.0000 0.0000 0.0000
# 2 27.4186 88.2941 71.8422 0.0000 0.0000 0.0000
# 3 28.2100 71.8422 160.4600 0.0000 0.0000 0.0000
# 4 0.0000 0.0000 0.0000 31.6988 0.0000 0.0000
# 5 0.0000 0.0000 0.0000 0.0000 9.2220 0.0000
# 6 0.0000 0.0000 0.0000 0.0000 0.0000 13.8253
#
#
#
# Elastic Compliance Matrix: (Units=1/GPa)
#
#
# Indices 1 2 3 4 5 6 
#
# 1 0.057679 -0.015197 -0.003336 0.000000 0.000000 0.000000
# 2 -0.015197 0.021820 -0.007098 0.000000 0.000000 0.000000
# 3 -0.003336 -0.007098 0.009997 0.000000 0.000000 0.000000
# 4 0.000000 0.000000 0.000000 0.031547 0.000000 0.000000
# 5 0.000000 0.000000 0.000000 0.000000 0.108437 0.000000
# 6 0.000000 0.000000 0.000000 0.000000 0.000000 0.072331
#
#
# Mechanical properties :
#
#
# Convention : Reuss Voigt Hill
#
# Bulk Modulus (GPa) = 26.15476 58.87650 42.51563
# Shear Modulus (GPa) = 13.66803 20.78097 17.22450
#
# Velocity S-wave (km/s) = 3.00268 3.70245 3.37077
# Velocity P-wave (km/s) = 5.41058 7.55746 6.57228
#
# Compressibility (1/GPa) = 0.03823395
#
# Stress axis : x y z
#
# Youngs Moduli (GPa) = 17.33727 45.82908 100.03500
#
# Poissons Ratio (x) = 0.69646 0.33375
# Poissons Ratio (y) = 0.26347 0.71003
# Poissons Ratio (z) = 0.05784 0.32528
#
# Static dielectric constant tensor:
#      x y z
#    x 2.294670 0.000000 0.000000 
#    y 0.000000 3.046670 0.000000 
#    z 0.000000 0.000000 3.692970 
# 
# 
# High freq. dielectric constant tensor:
#      x y z
#    x 1.487880 0.000000 0.000000 
#    y 0.000000 1.592830 0.000000 
#    z 0.000000 0.000000 1.609320 
# 
# From -- ./inp_files/31059.got.cif
#   From: 2010.03.12/outbox.cif.g09.slc.cpg/sg59_16_cif.got.tgz:31059.got - 2010.04.16 16:29:54.
