data_PCOD8246126
_publ_section_title
;
Structure prediction by ZEFSAII (Michael W. Deem and Ramdas Pophale) SiO2 
 PCOD8246126
Probable space group: P M M N
;
_chemical_formula_sum "Si O2"
_cell_formula_units_Z 32
_cell_length_a 13.719876
_cell_length_b 7.713246
_cell_length_c 14.055287
_cell_angle_alpha 90.000000
_cell_angle_beta 90.000000
_cell_angle_gamma 90.000000
_cell_volume 1487.397636
_symmetry_space_group_name_H-M "P M M N"
_symmetry_group_IT_number 59
_space_group.IT_coordinate_system_code '2'
_symmetry_cell_setting 'orthorhombic'
loop_
_space_group_symop_operation_xyz
x,y,z
1/2-x,1/2-y,z
1/2+x,-y,-z
-x,1/2+y,-z
-x,-y,-z
1/2+x,1/2+y,-z
1/2-x,y,z
x,1/2-y,z
loop_
_atom_site_type_symbol
_atom_site_label
_atom_site_fract_x
_atom_site_fract_y
_atom_site_fract_z
Si Si1 0.861399 0.546936 0.241503
Si Si2 0.366923 0.750000 0.415496
Si Si3 0.864565 0.250000 0.799238
Si Si4 0.975739 0.944093 0.894215
Si Si5 0.634080 0.558118 0.455579
O O1 0.750000 0.494488 0.222661
O O2 0.878095 0.750000 0.223455
O O3 0.892294 0.497631 0.348895
O O4 0.926029 0.441140 0.167596
O O5 0.250000 0.750000 0.419778
O O6 0.406982 0.750000 0.308157
O O7 0.408915 0.578501 0.468197
O O8 0.750000 0.250000 0.796472
O O9 0.897618 0.423857 0.851462
O O10 0.931293 0.750000 0.893804
O O11 0.000000 0.000000 0.000000
O O12 0.750000 0.567670 0.464618
O O13 0.590216 0.750000 0.476020
#
# Coordination Sequence:
#
# PCOD8246126 Si02
#       5
#     8   4   4   8   8
#     4   9  18  36  65  99 134 169 210 267 332 388
#     4   9  18  34  59  88 126 171 213 256 309 376
#     4  11  26  48  68  94 132 175 220 264 318 388
#     4  12  25  45  70  94 131 169 213 276 333 383
#     4   8  15  29  54  89 127 166 209 257 310 370
#
# _framework density 21.514085000000001
#
# number of rings (size 3 to 8) (size 9 to 14) (size 15 to 20)
#    0.000    2.250    2.500    1.500    1.750    3.000 
#    0.000    3.750    0.000    0.000    0.000    0.000 
#    0.000    0.000    0.000    0.000    0.000    0.000 
#
# Total GULP energy -396856.604441 kJ/mol
# GULP energy per Si atom -12401.768889 kJ/mol
# Density = 2.146512 g / cm^3
# Si number density = 21.514085 Si / 1000 Ang^3
#
#
#
# Elastic Constant Matrix: (Units=GPa)
#
#
# Indices 1 2 3 4 5 6 
#
# 1 41.8943 32.5800 36.0855 0.0000 0.0000 0.0000
# 2 32.5800 165.4602 86.9824 0.0000 0.0000 0.0000
# 3 36.0855 86.9824 176.0260 0.0000 0.0000 0.0000
# 4 0.0000 0.0000 0.0000 37.5184 0.0000 0.0000
# 5 0.0000 0.0000 0.0000 0.0000 31.8103 0.0000
# 6 0.0000 0.0000 0.0000 0.0000 0.0000 32.4541
#
#
#
# Elastic Compliance Matrix: (Units=1/GPa)
#
#
# Indices 1 2 3 4 5 6 
#
# 1 0.030562 -0.003680 -0.004447 0.000000 0.000000 0.000000
# 2 -0.003680 0.008608 -0.003499 0.000000 0.000000 0.000000
# 3 -0.004447 -0.003499 0.008322 0.000000 0.000000 0.000000
# 4 0.000000 0.000000 0.000000 0.026654 0.000000 0.000000
# 5 0.000000 0.000000 0.000000 0.000000 0.031436 0.000000
# 6 0.000000 0.000000 0.000000 0.000000 0.000000 0.030813
#
#
# Mechanical properties :
#
#
# Convention : Reuss Voigt Hill
#
# Bulk Modulus (GPa) = 41.25523 77.18626 59.22075
# Shear Modulus (GPa) = 29.81063 35.53874 32.67468
#
# Velocity S-wave (km/s) = 3.72645 4.06874 3.90135
# Velocity P-wave (km/s) = 6.14270 7.61760 6.91956
#
# Compressibility (1/GPa) = 0.02423935
#
# Stress axis : x y z
#
# Youngs Moduli (GPa) = 32.72072 116.17278 120.16908
#
# Poissons Ratio (x) = 0.42753 0.53435
# Poissons Ratio (y) = 0.12042 0.42048
# Poissons Ratio (z) = 0.14550 0.40650
#
# Static dielectric constant tensor:
#      x y z
#    x 3.669960 0.000000 0.000000 
#    y 0.000000 4.061290 0.000000 
#    z 0.000000 0.000000 4.013330 
# 
# 
# High freq. dielectric constant tensor:
#      x y z
#    x 1.840810 0.000000 0.000000 
#    y 0.000000 1.849510 0.000000 
#    z 0.000000 0.000000 1.846120 
# 
# From -- ./inp_files/13685.got.cif
#   From: 2010.03.12/outbox.cif.g09.slc.cpg/sg59_7_cif.got.tgz:13685.got - 2010.04.16 16:29:54.
