data_PCOD8246984
_publ_section_title
;
Structure prediction by ZEFSAII (Michael W. Deem and Ramdas Pophale) SiO2 
 PCOD8246984
Probable space group: P B C N
;
_chemical_formula_sum "Si O2"
_cell_formula_units_Z 32
_cell_length_a 12.286673
_cell_length_b 14.725205
_cell_length_c 8.365988
_cell_angle_alpha 90.000000
_cell_angle_beta 90.000000
_cell_angle_gamma 90.000000
_cell_volume 1513.606161
_symmetry_space_group_name_H-M "P B C N"
_symmetry_group_IT_number 60
_symmetry_cell_setting 'orthorhombic'
loop_
_space_group_symop_operation_xyz
x,y,z
1/2-x,1/2-y,1/2+z
1/2+x,1/2-y,-z
-x,y,1/2-z
-x,-y,-z
1/2+x,1/2+y,1/2-z
1/2-x,1/2+y,z
x,-y,1/2+z
loop_
_atom_site_type_symbol
_atom_site_label
_atom_site_fract_x
_atom_site_fract_y
_atom_site_fract_z
Si Si1 0.597403 0.434743 0.861903
Si Si2 0.961232 0.406500 0.569965
Si Si3 0.973011 0.786244 0.436777
Si Si4 0.793077 0.097660 0.052026
O O1 0.500000 0.474913 0.750000
O O2 0.690554 0.399078 0.743160
O O3 0.554210 0.352166 0.968332
O O4 0.647281 0.510221 0.976881
O O5 0.834406 0.400749 0.528767
O O6 0.000000 0.407652 0.750000
O O7 0.000000 0.500000 0.500000
O O8 0.013652 0.315809 0.493146
O O9 0.847802 0.814689 0.468243
O O10 0.000000 0.789737 0.250000
#
# Coordination Sequence:
#
# PCOD8246984 Si02
#       4
#     8   8   8   8
#     4  10  20  37  62  94 121 154 203 246 294 360
#     4  11  26  43  60  88 123 158 203 248 298 362
#     4  10  22  40  61  91 122 156 204 248 292 359
#     4  11  21  38  64  89 122 162 193 248 305 345
#
# _framework density 21.141563000000001
#
# number of rings (size 3 to 8) (size 9 to 14) (size 15 to 20)
#    0.000    1.500    0.000    6.750    0.000    9.000 
#    0.000    0.000    0.000    0.000    0.000    0.000 
#    0.000    0.000    0.000    0.000    0.000    0.000 
#
# Total GULP energy -396587.635191 kJ/mol
# GULP energy per Si atom -12393.363600 kJ/mol
# Density = 2.109344 g / cm^3
# Si number density = 21.141563 Si / 1000 Ang^3
#
#
#
# Elastic Constant Matrix: (Units=GPa)
#
#
# Indices 1 2 3 4 5 6 
#
# 1 159.5973 100.6438 41.5442 0.0000 0.0000 0.0000
# 2 100.6438 201.3661 59.2547 0.0000 0.0000 0.0000
# 3 41.5442 59.2547 95.9888 0.0000 0.0000 0.0000
# 4 0.0000 0.0000 0.0000 34.6910 0.0000 0.0000
# 5 0.0000 0.0000 0.0000 0.0000 29.2764 0.0000
# 6 0.0000 0.0000 0.0000 0.0000 0.0000 203.2007
#
#
#
# Elastic Compliance Matrix: (Units=1/GPa)
#
#
# Indices 1 2 3 4 5 6 
#
# 1 0.009304 -0.004234 -0.001413 0.000000 0.000000 0.000000
# 2 -0.004234 0.007996 -0.003103 0.000000 0.000000 0.000000
# 3 -0.001413 -0.003103 0.012945 0.000000 0.000000 0.000000
# 4 0.000000 0.000000 0.000000 0.028826 0.000000 0.000000
# 5 0.000000 0.000000 0.000000 0.000000 0.034157 0.000000
# 6 0.000000 0.000000 0.000000 0.000000 0.000000 0.004921
#
#
# Mechanical properties :
#
#
# Convention : Reuss Voigt Hill
#
# Bulk Modulus (GPa) = 78.46975 95.53752 87.00364
# Shear Modulus (GPa) = 41.70249 70.46757 56.08503
#
# Velocity S-wave (km/s) = 4.44614 5.77959 5.15615
# Velocity P-wave (km/s) = 7.97211 9.47764 8.75729
#
# Compressibility (1/GPa) = 0.01274376
#
# Stress axis : x y z
#
# Youngs Moduli (GPa) = 107.48360 125.06974 77.25048
#
# Poissons Ratio (x) = 0.52959 0.10914
# Poissons Ratio (y) = 0.45512 0.23971
# Poissons Ratio (z) = 0.15185 0.38810
#
# Static dielectric constant tensor:
#      x y z
#    x 3.830040 0.000000 0.000000 
#    y 0.000000 13.270980 0.000000 
#    z 0.000000 0.000000 4.030100 
# 
# 
# High freq. dielectric constant tensor:
#      x y z
#    x 1.825950 0.000000 0.000000 
#    y 0.000000 1.837550 0.000000 
#    z 0.000000 0.000000 1.837590 
# 
# From -- ./inp_files/4517.got.cif
#   From: 2010.03.12/outbox.cif.g09.slc.cpg/sg60_3_cif.got.tgz:4517.got - 2010.04.10 18:46:24.
