data_PCOD8246025
_publ_section_title
;
Structure prediction by ZEFSAII (Michael W. Deem and Ramdas Pophale) SiO2 
 PCOD8246025
Probable space group: P M M N
;
_chemical_formula_sum "Si O2"
_cell_formula_units_Z 64
_cell_length_a 14.511922
_cell_length_b 9.079884
_cell_length_c 24.381500
_cell_angle_alpha 90.000000
_cell_angle_beta 90.000000
_cell_angle_gamma 90.000000
_cell_volume 3212.666587
_symmetry_space_group_name_H-M "P M M N"
_symmetry_group_IT_number 59
_space_group.IT_coordinate_system_code '2'
_symmetry_cell_setting 'orthorhombic'
loop_
_space_group_symop_operation_xyz
x,y,z
1/2-x,1/2-y,z
1/2+x,-y,-z
-x,1/2+y,-z
-x,-y,-z
1/2+x,1/2+y,-z
1/2-x,y,z
x,1/2-y,z
loop_
_atom_site_type_symbol
_atom_site_label
_atom_site_fract_x
_atom_site_fract_y
_atom_site_fract_z
Si Si1 0.037219 0.076770 0.134000
Si Si2 0.145399 0.925177 0.349223
Si Si3 0.149288 0.575935 0.917943
Si Si4 0.642317 0.083532 0.959771
Si Si5 0.851619 0.088321 0.390502
Si Si6 0.648327 0.414405 0.261241
Si Si7 0.508737 0.078219 0.557744
Si Si8 0.965340 0.423872 0.757500
O O1 0.048887 0.250000 0.141627
O O2 0.929454 0.030764 0.125459
O O3 0.093621 0.027350 0.081416
O O4 0.077547 0.996293 0.187929
O O5 0.250000 0.986972 0.348726
O O6 0.145542 0.750000 0.347489
O O7 0.094921 0.978677 0.405218
O O8 0.089844 0.984192 0.295880
O O9 0.250000 0.512951 0.899640
O O10 0.156551 0.750000 0.922604
O O11 0.123190 0.520583 0.979080
O O12 0.750000 0.082390 0.947039
O O13 0.603679 0.250000 0.952446
O O14 0.750000 0.059804 0.415225
O O15 0.887049 0.250000 0.410798
O O16 0.846343 0.088584 0.325949
O O17 0.916083 0.956100 0.409371
O O18 0.750000 0.457901 0.238136
O O19 0.621824 0.250000 0.239412
O O20 0.572481 0.531762 0.243527
O O21 0.517479 0.250000 0.547344
O O22 0.500000 0.000000 0.500000
O O23 0.956281 0.250000 0.761585
#
# Coordination Sequence:
#
# PCOD8246025 Si02
#       8
#     8   8   8   8   8   8   8   8
#     4  11  22  34  53  83 116 149 186 234 290 344
#     4   9  20  40  62  81 106 147 195 236 278 329
#     4   8  16  33  56  80 108 146 189 230 280 344
#     4   9  18  35  58  80 105 143 190 237 285 339
#     4   9  18  34  57  83 112 146 180 219 274 338
#     4   9  18  34  57  82 109 143 180 222 280 343
#     4  11  22  37  59  88 117 148 187 235 287 339
#     4  11  22  37  57  82 111 148 196 243 283 330
#
# _framework density 19.921146
#
# number of rings (size 3 to 8) (size 9 to 14) (size 15 to 20)
#    0.000    2.375    1.250    3.000    0.000    2.250 
#    0.000    5.625    0.000    7.875    0.000    0.000 
#    0.000    0.000    0.000    0.000    0.000    0.000 
#
# Total GULP energy -793272.287516 kJ/mol
# GULP energy per Si atom -12394.879492 kJ/mol
# Density = 1.987580 g / cm^3
# Si number density = 19.921146 Si / 1000 Ang^3
#
#
#
# Elastic Constant Matrix: (Units=GPa)
#
#
# Indices 1 2 3 4 5 6 
#
# 1 90.5133 30.0200 43.8717 0.0000 0.0000 0.0000
# 2 30.0200 61.5933 36.8479 0.0000 0.0000 0.0000
# 3 43.8717 36.8479 108.8219 0.0000 0.0000 0.0000
# 4 0.0000 0.0000 0.0000 29.6634 0.0000 0.0000
# 5 0.0000 0.0000 0.0000 0.0000 13.1096 0.0000
# 6 0.0000 0.0000 0.0000 0.0000 0.0000 28.6162
#
#
#
# Elastic Compliance Matrix: (Units=1/GPa)
#
#
# Indices 1 2 3 4 5 6 
#
# 1 0.014675 -0.004531 -0.004382 0.000000 0.000000 0.000000
# 2 -0.004531 0.021759 -0.005541 0.000000 0.000000 0.000000
# 3 -0.004382 -0.005541 0.012832 0.000000 0.000000 0.000000
# 4 0.000000 0.000000 0.000000 0.033712 0.000000 0.000000
# 5 0.000000 0.000000 0.000000 0.000000 0.076280 0.000000
# 6 0.000000 0.000000 0.000000 0.000000 0.000000 0.034945
#
#
# Mechanical properties :
#
#
# Convention : Reuss Voigt Hill
#
# Bulk Modulus (GPa) = 49.12094 53.60085 51.36089
# Shear Modulus (GPa) = 21.74896 24.29044 23.01970
#
# Velocity S-wave (km/s) = 3.30775 3.49568 3.40301
# Velocity P-wave (km/s) = 6.26893 6.57708 6.42485
#
# Compressibility (1/GPa) = 0.02035792
#
# Stress axis : x y z
#
# Youngs Moduli (GPa) = 68.14427 45.95855 77.92927
#
# Poissons Ratio (x) = 0.20823 0.34148
# Poissons Ratio (y) = 0.30875 0.43181
# Poissons Ratio (z) = 0.29861 0.25466
#
# Static dielectric constant tensor:
#      x y z
#    x -3.274850 0.000000 0.000000 
#    y 0.000000 3.015100 0.000000 
#    z 0.000000 0.000000 3.819090 
# 
# 
# High freq. dielectric constant tensor:
#      x y z
#    x 1.777770 0.000000 0.000000 
#    y 0.000000 1.745960 0.000000 
#    z 0.000000 0.000000 1.783590 
# 
# From -- ./inp_files/32127.got.cif
#   From: 2010.03.12/outbox.cif.g09.slc.cpg/sg59_17_cif.got.tgz:32127.got - 2010.04.16 16:29:54.
