data_PCOD8246968
_publ_section_title
;
Structure prediction by ZEFSAII (Michael W. Deem and Ramdas Pophale) SiO2 
 PCOD8246968
Probable space group: P B C N
;
_chemical_formula_sum "Si O2"
_cell_formula_units_Z 60
_cell_length_a 7.562111
_cell_length_b 21.263883
_cell_length_c 18.833837
_cell_angle_alpha 90.000000
_cell_angle_beta 90.000000
_cell_angle_gamma 90.000000
_cell_volume 3028.478043
_symmetry_space_group_name_H-M "P B C N"
_symmetry_group_IT_number 60
_symmetry_cell_setting 'orthorhombic'
loop_
_space_group_symop_operation_xyz
x,y,z
1/2-x,1/2-y,1/2+z
1/2+x,1/2-y,-z
-x,y,1/2-z
-x,-y,-z
1/2+x,1/2+y,1/2-z
1/2-x,1/2+y,z
x,-y,1/2+z
loop_
_atom_site_type_symbol
_atom_site_label
_atom_site_fract_x
_atom_site_fract_y
_atom_site_fract_z
Si Si1 0.825311 0.241165 0.703926
Si Si2 0.303197 0.950229 0.544474
Si Si3 0.031850 0.099866 0.383567
Si Si4 0.878834 0.380423 0.181103
Si Si5 0.500000 0.677318 0.250000
Si Si6 0.839618 0.508057 0.102358
Si Si7 0.766095 0.208237 0.055791
Si Si8 0.544516 0.167461 0.533132
O O1 0.784257 0.166295 0.699057
O O2 0.665335 0.276701 0.741756
O O3 0.845807 0.272641 0.626146
O O4 0.000000 0.251567 0.750000
O O5 0.284558 0.999655 0.480226
O O6 0.347285 0.884305 0.508989
O O7 0.115485 0.946163 0.583812
O O8 0.453235 0.971600 0.601381
O O9 0.074769 0.159673 0.432346
O O10 0.954675 0.129933 0.312844
O O11 0.213185 0.062168 0.367012
O O12 0.809829 0.447769 0.153077
O O13 0.000000 0.390024 0.250000
O O14 0.986007 0.348348 0.116203
O O15 0.848520 0.269227 0.020424
O O16 0.648042 0.173039 0.998803
#
# Coordination Sequence:
#
# PCOD8246968 Si02
#       8
#     8   8   8   8   4   8   8   8
#     4  10  22  41  63  89 125 166 204 252 325 376
#     4  10  21  39  64  86 120 164 196 264 310 350
#     4  11  22  39  61  90 125 159 203 252 311 372
#     4  10  22  42  61  86 127 165 205 260 306 370
#     4  10  24  38  60  94 124 158 200 260 310 380
#     4  10  22  41  60  88 122 159 214 250 305 372
#     4  10  21  36  61  96 125 158 207 262 305 388
#     4  10  20  37  60  93 125 155 210 255 311 366
#
# _framework density 19.811931000000001
#
# number of rings (size 3 to 8) (size 9 to 14) (size 15 to 20)
#    0.000    1.867    2.000    1.200    1.867    2.133 
#    3.600    0.667    0.000    0.000    0.000    0.000 
#    0.000    0.000    0.000    0.000    0.000    0.000 
#
# Total GULP energy -743914.748447 kJ/mol
# GULP energy per Si atom -12398.579141 kJ/mol
# Density = 1.976684 g / cm^3
# Si number density = 19.811931 Si / 1000 Ang^3
#
#
#
# Elastic Constant Matrix: (Units=GPa)
#
#
# Indices 1 2 3 4 5 6 
#
# 1 88.8152 23.6787 41.1017 0.0000 0.0000 0.0000
# 2 23.6787 87.3332 16.8542 0.0000 0.0000 0.0000
# 3 41.1017 16.8542 75.0572 0.0000 0.0000 0.0000
# 4 0.0000 0.0000 0.0000 24.4140 0.0000 0.0000
# 5 0.0000 0.0000 0.0000 0.0000 -84.4917 0.0000
# 6 0.0000 0.0000 0.0000 0.0000 0.0000 24.2882
#
#
#
# Elastic Compliance Matrix: (Units=1/GPa)
#
#
# Indices 1 2 3 4 5 6 
#
# 1 0.015672 -0.002710 -0.007973 0.000000 0.000000 0.000000
# 2 -0.002710 0.012438 -0.001309 0.000000 0.000000 0.000000
# 3 -0.007973 -0.001309 0.017983 0.000000 0.000000 0.000000
# 4 0.000000 0.000000 0.000000 0.040960 0.000000 0.000000
# 5 0.000000 0.000000 0.000000 0.000000 -0.011835 0.000000
# 6 0.000000 0.000000 0.000000 0.000000 0.000000 0.041172
#
#
# Mechanical properties :
#
#
# Convention : Reuss Voigt Hill
#
# Bulk Modulus (GPa) = 45.23235 46.05276 45.64256
# Shear Modulus (GPa) = 33.84228 4.14683 18.99456
#
# Velocity S-wave (km/s) = 4.13749 1.44832 3.09972
# Velocity P-wave (km/s) = 6.76059 5.10806 5.99157
#
# Compressibility (1/GPa) = 0.02210807
#
# Stress axis : x y z
#
# Youngs Moduli (GPa) = 63.80879 80.39991 55.60711
#
# Poissons Ratio (x) = 0.21791 0.44338
# Poissons Ratio (y) = 0.17294 0.07277
# Poissons Ratio (z) = 0.50877 0.10522
#
# Static dielectric constant tensor:
#      x y z
#    x 3.378220 0.000000 0.000000 
#    y 0.000000 3.813630 0.000000 
#    z 0.000000 0.000000 3.536520 
# 
# 
# High freq. dielectric constant tensor:
#      x y z
#    x 1.756770 0.000000 0.000000 
#    y 0.000000 1.790090 0.000000 
#    z 0.000000 0.000000 1.768450 
# 
# From -- ./inp_files/21761.got.cif
#   From: 2010.03.12/outbox.cif.g09.slc.cpg/sg60_11_cif.got.tgz:21761.got - 2010.04.10 18:46:24.
