data_PCOD8246557
_publ_section_title
;
Structure prediction by ZEFSAII (Michael W. Deem and Ramdas Pophale) SiO2 
 PCOD8246557
Probable space group: P B C N
;
_chemical_formula_sum "Si O2"
_cell_formula_units_Z 64
_cell_length_a 19.582456
_cell_length_b 9.588462
_cell_length_c 18.261264
_cell_angle_alpha 90.000000
_cell_angle_beta 90.000000
_cell_angle_gamma 90.000000
_cell_volume 3428.837835
_symmetry_space_group_name_H-M "P B C N"
_symmetry_group_IT_number 60
_symmetry_cell_setting 'orthorhombic'
loop_
_space_group_symop_operation_xyz
x,y,z
1/2-x,1/2-y,1/2+z
1/2+x,1/2-y,-z
-x,y,1/2-z
-x,-y,-z
1/2+x,1/2+y,1/2-z
1/2-x,1/2+y,z
x,-y,1/2+z
loop_
_atom_site_type_symbol
_atom_site_label
_atom_site_fract_x
_atom_site_fract_y
_atom_site_fract_z
Si Si1 0.269890 0.715463 0.997929
Si Si2 0.319267 0.984219 0.051702
Si Si3 0.823158 0.569277 0.294200
Si Si4 0.262175 0.189256 0.769674
Si Si5 0.642914 0.395707 0.126784
Si Si6 0.561212 0.968920 0.055637
Si Si7 0.940974 0.339398 0.691987
Si Si8 0.644095 0.713125 0.103129
O O1 0.334315 0.685067 0.946032
O O2 0.205075 0.780895 0.955518
O O3 0.294643 0.824502 0.060108
O O4 0.248896 0.571577 0.035084
O O5 0.353192 0.059026 0.122884
O O6 0.369123 0.981679 0.982040
O O7 0.788005 0.420624 0.288551
O O8 0.768052 0.689157 0.280670
O O9 0.880232 0.584894 0.233689
O O10 0.206873 0.107952 0.818548
O O11 0.325638 0.239653 0.818850
O O12 0.579186 0.312438 0.161246
O O13 0.618951 0.553356 0.110302
O O14 0.577928 0.807826 0.079562
O O15 0.539899 0.057387 0.126480
O O16 0.500000 0.000000 0.000000
O O17 0.000000 0.314559 0.750000
#
# Coordination Sequence:
#
# PCOD8246557 Si02
#       8
#     8   8   8   8   8   8   8   8
#     4  10  19  32  58  91 119 150 191 237 309 361
#     4  11  21  35  57  89 125 152 188 249 301 360
#     4  11  21  35  57  90 125 148 188 245 296 363
#     4  10  19  32  58  92 119 150 187 237 306 359
#     4  10  19  35  61  86 117 152 196 243 297 365
#     4  11  23  40  61  84 114 161 210 249 290 353
#     4  11  23  40  61  82 114 165 205 244 293 353
#     4  10  19  35  61  88 116 152 197 245 295 366
#
# _framework density 18.665216999999998
#
# number of rings (size 3 to 8) (size 9 to 14) (size 15 to 20)
#    0.000    1.500    5.000    1.500    0.000    0.000 
#    0.000    1.250    0.000    0.000    0.000    0.000 
#    0.000    0.000    0.000    0.000    0.000    0.000 
#
# Total GULP energy -793180.823851 kJ/mol
# GULP energy per Si atom -12393.450373 kJ/mol
# Density = 1.862273 g / cm^3
# Si number density = 18.665217 Si / 1000 Ang^3
#
#
#
# Elastic Constant Matrix: (Units=GPa)
#
#
# Indices 1 2 3 4 5 6 
#
# 1 72.3510 55.7360 29.2037 0.0000 0.0000 0.0000
# 2 55.7360 145.3827 46.6601 0.0000 0.0000 0.0000
# 3 29.2037 46.6601 83.5167 0.0000 0.0000 0.0000
# 4 0.0000 0.0000 0.0000 25.6556 0.0000 0.0000
# 5 0.0000 0.0000 0.0000 0.0000 31.6994 0.0000
# 6 0.0000 0.0000 0.0000 0.0000 0.0000 55.1778
#
#
#
# Elastic Compliance Matrix: (Units=1/GPa)
#
#
# Indices 1 2 3 4 5 6 
#
# 1 0.020360 -0.006727 -0.003361 0.000000 0.000000 0.000000
# 2 -0.006727 0.010604 -0.003572 0.000000 0.000000 0.000000
# 3 -0.003361 -0.003572 0.015145 0.000000 0.000000 0.000000
# 4 0.000000 0.000000 0.000000 0.038978 0.000000 0.000000
# 5 0.000000 0.000000 0.000000 0.000000 0.031546 0.000000
# 6 0.000000 0.000000 0.000000 0.000000 0.000000 0.018123
#
#
# Mechanical properties :
#
#
# Convention : Reuss Voigt Hill
#
# Bulk Modulus (GPa) = 53.22410 62.71664 57.97037
# Shear Modulus (GPa) = 29.70194 33.81660 31.75927
#
# Velocity S-wave (km/s) = 3.99344 4.26108 4.12943
# Velocity P-wave (km/s) = 7.05977 7.60807 7.33905
#
# Compressibility (1/GPa) = 0.01878848
#
# Stress axis : x y z
#
# Youngs Moduli (GPa) = 49.11518 94.30656 66.02995
#
# Poissons Ratio (x) = 0.63438 0.22194
# Poissons Ratio (y) = 0.33039 0.23586
# Poissons Ratio (z) = 0.16509 0.33686
#
# Static dielectric constant tensor:
#      x y z
#    x 3.066410 0.000000 0.000000 
#    y 0.000000 3.474780 0.000000 
#    z 0.000000 0.000000 3.502760 
# 
# 
# High freq. dielectric constant tensor:
#      x y z
#    x 1.691290 0.000000 0.000000 
#    y 0.000000 1.733850 0.000000 
#    z 0.000000 0.000000 1.730980 
# 
# From -- ./inp_files/23220.got.cif
#   From: 2010.03.12/outbox.cif.g09.slc.cpg/sg60_12_cif.got.tgz:23220.got - 2010.04.10 18:46:24.
