data_PCOD8246914
_publ_section_title
;
Structure prediction by ZEFSAII (Michael W. Deem and Ramdas Pophale) SiO2 
 PCOD8246914
Probable space group: P B C N
;
_chemical_formula_sum "Si O2"
_cell_formula_units_Z 48
_cell_length_a 9.073714
_cell_length_b 18.095434
_cell_length_c 15.040362
_cell_angle_alpha 90.000000
_cell_angle_beta 90.000000
_cell_angle_gamma 90.000000
_cell_volume 2469.519042
_symmetry_space_group_name_H-M "P B C N"
_symmetry_group_IT_number 60
_symmetry_cell_setting 'orthorhombic'
loop_
_space_group_symop_operation_xyz
x,y,z
1/2-x,1/2-y,1/2+z
1/2+x,1/2-y,-z
-x,y,1/2-z
-x,-y,-z
1/2+x,1/2+y,1/2-z
1/2-x,1/2+y,z
x,-y,1/2+z
loop_
_atom_site_type_symbol
_atom_site_label
_atom_site_fract_x
_atom_site_fract_y
_atom_site_fract_z
Si Si1 0.650289 0.043080 0.493954
Si Si2 0.173517 0.953275 0.669681
Si Si3 0.430904 0.211685 0.031563
Si Si4 0.159130 0.689458 0.218276
Si Si5 0.161097 0.966149 0.864836
Si Si6 0.745890 0.801583 0.597152
O O1 0.715263 0.012369 0.401266
O O2 0.628054 0.130545 0.491765
O O3 0.500000 0.000000 0.500000
O O4 0.766636 0.027684 0.572449
O O5 0.217088 0.869392 0.691804
O O6 0.186323 0.995271 0.763844
O O7 0.013594 0.956477 0.623489
O O8 0.369632 0.237731 0.129007
O O9 0.607187 0.213276 0.033397
O O10 0.385609 0.267685 0.953413
O O11 0.223062 0.734703 0.303837
O O12 0.000000 0.654483 0.250000
O O13 0.239784 0.889022 0.887600
#
# Coordination Sequence:
#
# PCOD8246914 Si02
#       6
#     8   8   8   8   8   8
#     4  11  21  37  59  85 117 152 192 236 292 350
#     4   9  20  34  60  85 108 153 195 236 275 345
#     4  10  21  36  58  84 113 152 190 238 292 338
#     4   8  17  35  57  81 109 153 191 228 281 349
#     4  10  20  38  59  85 115 149 197 235 286 345
#     4  10  20  36  59  84 113 148 195 237 280 341
#
# _framework density 19.436983000000001
#
# number of rings (size 3 to 8) (size 9 to 14) (size 15 to 20)
#    0.000    2.333    1.667    0.500    7.000    0.000 
#    0.000    1.667   11.000    0.000    0.000    0.000 
#    0.000    0.000    0.000    0.000    0.000    0.000 
#
# Total GULP energy -594704.013946 kJ/mol
# GULP energy per Si atom -12389.666957 kJ/mol
# Density = 1.939274 g / cm^3
# Si number density = 19.436983 Si / 1000 Ang^3
#
#
#
# Elastic Constant Matrix: (Units=GPa)
#
#
# Indices 1 2 3 4 5 6 
#
# 1 114.5085 14.0123 62.3592 0.0000 0.0000 0.0000
# 2 14.0123 31.5847 29.6241 0.0000 0.0000 0.0000
# 3 62.3592 29.6241 129.4751 0.0000 0.0000 0.0000
# 4 0.0000 0.0000 0.0000 30.5309 0.0000 0.0000
# 5 0.0000 0.0000 0.0000 0.0000 40.7590 0.0000
# 6 0.0000 0.0000 0.0000 0.0000 0.0000 28.5711
#
#
#
# Elastic Compliance Matrix: (Units=1/GPa)
#
#
# Indices 1 2 3 4 5 6 
#
# 1 0.011838 0.000122 -0.005730 0.000000 0.000000 0.000000
# 2 0.000122 0.040313 -0.009282 0.000000 0.000000 0.000000
# 3 -0.005730 -0.009282 0.012607 0.000000 0.000000 0.000000
# 4 0.000000 0.000000 0.000000 0.032754 0.000000 0.000000
# 5 0.000000 0.000000 0.000000 0.000000 0.024534 0.000000
# 6 0.000000 0.000000 0.000000 0.000000 0.000000 0.035000
#
#
# Mechanical properties :
#
#
# Convention : Reuss Voigt Hill
#
# Bulk Modulus (GPa) = 28.58931 54.17327 41.38129
# Shear Modulus (GPa) = 25.19066 31.27705 28.23385
#
# Velocity S-wave (km/s) = 3.60393 4.01577 3.81541
# Velocity P-wave (km/s) = 5.66201 7.03091 6.38326
#
# Compressibility (1/GPa) = 0.03497811
#
# Stress axis : x y z
#
# Youngs Moduli (GPa) = 84.47166 24.80587 79.32174
#
# Poissons Ratio (x) = -0.00303 0.45448
# Poissons Ratio (y) = -0.01030 0.73630
# Poissons Ratio (z) = 0.48399 0.23026
#
# Static dielectric constant tensor:
#      x y z
#    x 3.662160 0.000000 0.000000 
#    y 0.000000 2.984660 0.000000 
#    z 0.000000 0.000000 4.076470 
# 
# 
# High freq. dielectric constant tensor:
#      x y z
#    x 1.773730 0.000000 0.000000 
#    y 0.000000 1.692830 0.000000 
#    z 0.000000 0.000000 1.781020 
# 
# From -- ./inp_files/15006.got.cif
#   From: 2010.03.12/outbox.cif.g09.slc.cpg/sg60_8_cif.got.tgz:15006.got - 2010.04.10 18:46:24.
