data_PCOD8246507
_publ_section_title
;
Structure prediction by ZEFSAII (Michael W. Deem and Ramdas Pophale) SiO2 
 PCOD8246507
Probable space group: P B C N
;
_chemical_formula_sum "Si O2"
_cell_formula_units_Z 44
_cell_length_a 13.167978
_cell_length_b 9.999577
_cell_length_c 18.042473
_cell_angle_alpha 90.000000
_cell_angle_beta 90.000000
_cell_angle_gamma 90.000000
_cell_volume 2375.728378
_symmetry_space_group_name_H-M "P B C N"
_symmetry_group_IT_number 60
_symmetry_cell_setting 'orthorhombic'
loop_
_space_group_symop_operation_xyz
x,y,z
1/2-x,1/2-y,1/2+z
1/2+x,1/2-y,-z
-x,y,1/2-z
-x,-y,-z
1/2+x,1/2+y,1/2-z
1/2-x,1/2+y,z
x,-y,1/2+z
loop_
_atom_site_type_symbol
_atom_site_label
_atom_site_fract_x
_atom_site_fract_y
_atom_site_fract_z
Si Si1 0.765795 0.763568 0.947552
Si Si2 0.538034 0.217561 0.876891
Si Si3 0.208392 0.980682 0.798062
Si Si4 0.801647 0.515360 0.861713
Si Si5 0.500000 0.584342 0.250000
Si Si6 0.697238 0.217288 0.611764
O O1 0.733144 0.630185 0.901713
O O2 0.888776 0.781654 0.940426
O O3 0.701957 0.884711 0.912802
O O4 0.744505 0.745030 0.033543
O O5 0.582256 0.070346 0.855698
O O6 0.553052 0.318763 0.809037
O O7 0.422802 0.200378 0.901934
O O8 0.221876 0.831839 0.829413
O O9 0.087855 0.008287 0.785807
O O10 0.265734 0.986618 0.720765
O O11 0.253517 0.082261 0.857617
#
# Coordination Sequence:
#
# PCOD8246507 Si02
#       6
#     8   8   8   8   4   8
#     4  10  21  39  61  89 120 159 201 250 296 364
#     4   9  21  38  66  81 125 167 193 237 326 355
#     4  11  21  39  63  88 119 157 205 249 294 367
#     4  10  19  39  62  88 116 160 206 242 295 363
#     4  10  18  40  60  94 112 166 198 248 310 354
#     4  11  23  41  61  89 125 159 199 251 313 355
#
# _framework density 18.520636
#
# number of rings (size 3 to 8) (size 9 to 14) (size 15 to 20)
#    1.091    0.727    1.818    4.364    0.000    0.727 
#    3.273    4.545    0.000    0.000    0.000    0.000 
#    0.000    0.000    0.000    0.000    0.000    0.000 
#
# Total GULP energy -545307.967774 kJ/mol
# GULP energy per Si atom -12393.362904 kJ/mol
# Density = 1.847848 g / cm^3
# Si number density = 18.520636 Si / 1000 Ang^3
#
#
#
# Elastic Constant Matrix: (Units=GPa)
#
#
# Indices 1 2 3 4 5 6 
#
# 1 116.5816 33.9227 49.8123 0.0000 0.0000 0.0000
# 2 33.9227 77.0328 26.1367 0.0000 0.0000 0.0000
# 3 49.8123 26.1367 117.1446 0.0000 0.0000 0.0000
# 4 0.0000 0.0000 0.0000 26.4314 0.0000 0.0000
# 5 0.0000 0.0000 0.0000 0.0000 32.6036 0.0000
# 6 0.0000 0.0000 0.0000 0.0000 0.0000 20.5258
#
#
#
# Elastic Compliance Matrix: (Units=1/GPa)
#
#
# Indices 1 2 3 4 5 6 
#
# 1 0.011352 -0.003636 -0.004016 0.000000 0.000000 0.000000
# 2 -0.003636 0.015210 -0.001847 0.000000 0.000000 0.000000
# 3 -0.004016 -0.001847 0.010656 0.000000 0.000000 0.000000
# 4 0.000000 0.000000 0.000000 0.037834 0.000000 0.000000
# 5 0.000000 0.000000 0.000000 0.000000 0.030671 0.000000
# 6 0.000000 0.000000 0.000000 0.000000 0.000000 0.048719
#
#
# Mechanical properties :
#
#
# Convention : Reuss Voigt Hill
#
# Bulk Modulus (GPa) = 54.88817 58.94471 56.91644
# Shear Modulus (GPa) = 27.85316 29.30467 28.57892
#
# Velocity S-wave (km/s) = 3.88222 3.98209 3.93247
# Velocity P-wave (km/s) = 7.05663 7.28274 7.17058
#
# Compressibility (1/GPa) = 0.01821886
#
# Stress axis : x y z
#
# Youngs Moduli (GPa) = 88.09374 65.74806 93.84297
#
# Poissons Ratio (x) = 0.23909 0.37683
# Poissons Ratio (y) = 0.32034 0.17335
# Poissons Ratio (z) = 0.35375 0.12145
#
# Static dielectric constant tensor:
#      x y z
#    x 3.382910 0.000000 0.000000 
#    y 0.000000 3.419090 0.000000 
#    z 0.000000 0.000000 3.394570 
# 
# 
# High freq. dielectric constant tensor:
#      x y z
#    x 1.710740 0.000000 0.000000 
#    y 0.000000 1.714690 0.000000 
#    z 0.000000 0.000000 1.725840 
# 
# From -- ./inp_files/20436.got.cif
#   From: 2010.03.12/outbox.cif.g09.slc.cpg/sg60_11_cif.got.tgz:20436.got - 2010.04.10 18:46:24.
