data_PCOD8246132
_publ_section_title
;
Structure prediction by ZEFSAII (Michael W. Deem and Ramdas Pophale) SiO2 
 PCOD8246132
Probable space group: P M M N
;
_chemical_formula_sum "Si O2"
_cell_formula_units_Z 48
_cell_length_a 10.223717
_cell_length_b 8.473001
_cell_length_c 29.116781
_cell_angle_alpha 90.000000
_cell_angle_beta 90.000000
_cell_angle_gamma 90.000000
_cell_volume 2522.257587
_symmetry_space_group_name_H-M "P M M N"
_symmetry_group_IT_number 59
_space_group.IT_coordinate_system_code '2'
_symmetry_cell_setting 'orthorhombic'
loop_
_space_group_symop_operation_xyz
x,y,z
1/2-x,1/2-y,z
1/2+x,-y,-z
-x,1/2+y,-z
-x,-y,-z
1/2+x,1/2+y,-z
1/2-x,y,z
x,1/2-y,z
loop_
_atom_site_type_symbol
_atom_site_label
_atom_site_fract_x
_atom_site_fract_y
_atom_site_fract_z
Si Si1 0.903393 0.430593 0.812707
Si Si2 0.250000 0.065692 0.943674
Si Si3 0.513276 0.567590 0.903257
Si Si4 0.395695 0.561785 0.289880
Si Si5 0.250000 0.568545 0.042166
Si Si6 0.896076 0.937798 0.361830
Si Si7 0.895930 0.563571 0.464544
O O1 0.750000 0.446631 0.822452
O O2 0.948615 0.250000 0.818539
O O3 0.935798 0.492446 0.761394
O O4 0.982679 0.537338 0.848605
O O5 0.250000 0.250000 0.931606
O O6 0.126115 0.980785 0.922170
O O7 0.250000 0.044689 0.998311
O O8 0.540590 0.750000 0.913784
O O9 0.622060 0.461886 0.927745
O O10 0.250000 0.499388 0.302177
O O11 0.394796 0.750000 0.291313
O O12 0.499051 0.489781 0.326176
O O13 0.250000 0.750000 0.026103
O O14 0.750000 0.995474 0.348450
O O15 0.901160 0.750000 0.360088
O O16 0.931200 0.996402 0.413228
O O17 0.750000 0.504146 0.477842
O O18 0.899524 0.750000 0.465486
O O19 0.000000 0.500000 0.500000
#
# Coordination Sequence:
#
# PCOD8246132 Si02
#       7
#     8   4   8   8   4   8   8
#     4   9  17  32  54  79 108 141 179 221 267 320
#     4  12  26  44  62  86 118 150 186 232 281 330
#     4  12  24  40  61  87 117 152 189 228 275 330
#     4   8  14  25  44  70  97 128 170 219 262 309
#     4  12  24  42  66  90 116 150 190 230 273 328
#     4   8  14  26  43  66  99 133 168 215 270 320
#     4   9  18  31  47  70 101 137 177 223 270 322
#
# _framework density 19.030570000000001
#
# number of rings (size 3 to 8) (size 9 to 14) (size 15 to 20)
#    0.000    2.333    0.833    5.500    0.000    1.000 
#    1.500    1.667    0.000    1.000    0.000    0.000 
#    0.000    0.000    0.000    0.000    0.000    0.000 
#
# Total GULP energy -595125.355735 kJ/mol
# GULP energy per Si atom -12398.444911 kJ/mol
# Density = 1.898726 g / cm^3
# Si number density = 19.030570 Si / 1000 Ang^3
#
#
#
# Elastic Constant Matrix: (Units=GPa)
#
#
# Indices 1 2 3 4 5 6 
#
# 1 131.7109 14.2390 88.5842 0.0000 0.0000 0.0000
# 2 14.2390 47.0194 14.1390 0.0000 0.0000 0.0000
# 3 88.5842 14.1390 148.6516 0.0000 0.0000 0.0000
# 4 0.0000 0.0000 0.0000 23.9326 0.0000 0.0000
# 5 0.0000 0.0000 0.0000 0.0000 43.1876 0.0000
# 6 0.0000 0.0000 0.0000 0.0000 0.0000 22.1712
#
#
#
# Elastic Compliance Matrix: (Units=1/GPa)
#
#
# Indices 1 2 3 4 5 6 
#
# 1 0.012791 -0.001628 -0.007467 0.000000 0.000000 0.000000
# 2 -0.001628 0.022101 -0.001132 0.000000 0.000000 0.000000
# 3 -0.007467 -0.001132 0.011285 0.000000 0.000000 0.000000
# 4 0.000000 0.000000 0.000000 0.041784 0.000000 0.000000
# 5 0.000000 0.000000 0.000000 0.000000 0.023155 0.000000
# 6 0.000000 0.000000 0.000000 0.000000 0.000000 0.045104
#
#
# Mechanical properties :
#
#
# Convention : Reuss Voigt Hill
#
# Bulk Modulus (GPa) = 38.87728 62.36737 50.62233
# Shear Modulus (GPa) = 26.99091 31.88627 29.43859
#
# Velocity S-wave (km/s) = 3.77011 4.09776 3.93735
# Velocity P-wave (km/s) = 6.27892 7.43184 6.87957
#
# Compressibility (1/GPa) = 0.02572197
#
# Stress axis : x y z
#
# Youngs Moduli (GPa) = 78.18209 45.24636 88.61531
#
# Poissons Ratio (x) = 0.07366 0.66172
# Poissons Ratio (y) = 0.12728 0.10031
# Poissons Ratio (z) = 0.58381 0.05122
#
# Static dielectric constant tensor:
#      x y z
#    x 3.721360 0.000000 0.000000 
#    y 0.000000 3.418850 0.000000 
#    z 0.000000 0.000000 5.232560 
# 
# 
# High freq. dielectric constant tensor:
#      x y z
#    x 1.737730 0.000000 0.000000 
#    y 0.000000 1.705350 0.000000 
#    z 0.000000 0.000000 1.749460 
# 
# From -- ./inp_files/33053.got.cif
#   From: 2010.03.12/outbox.cif.g09.slc.cpg/sg59_17_cif.got.tgz:33053.got - 2010.04.16 16:29:54.
