data_PCOD8246382
_publ_section_title
;
Structure prediction by ZEFSAII (Michael W. Deem and Ramdas Pophale) SiO2 
 PCOD8246382
Probable space group: P B C N
;
_chemical_formula_sum "Si O2"
_cell_formula_units_Z 44
_cell_length_a 12.111346
_cell_length_b 22.659393
_cell_length_c 9.081562
_cell_angle_alpha 90.000000
_cell_angle_beta 90.000000
_cell_angle_gamma 90.000000
_cell_volume 2492.305267
_symmetry_space_group_name_H-M "P B C N"
_symmetry_group_IT_number 60
_symmetry_cell_setting 'orthorhombic'
loop_
_space_group_symop_operation_xyz
x,y,z
1/2-x,1/2-y,1/2+z
1/2+x,1/2-y,-z
-x,y,1/2-z
-x,-y,-z
1/2+x,1/2+y,1/2-z
1/2-x,1/2+y,z
x,-y,1/2+z
loop_
_atom_site_type_symbol
_atom_site_label
_atom_site_fract_x
_atom_site_fract_y
_atom_site_fract_z
Si Si1 0.562827 0.419752 0.010659
Si Si2 0.583122 0.204062 0.453902
Si Si3 0.500000 0.493614 0.750000
Si Si4 0.356052 0.662873 0.546132
Si Si5 0.655453 0.195624 0.130193
Si Si6 0.278954 0.672774 0.872894
O O1 0.575928 0.452510 0.854305
O O2 0.576153 0.466187 0.144444
O O3 0.442391 0.389387 0.021487
O O4 0.660211 0.372829 0.019975
O O5 0.579734 0.275141 0.468820
O O6 0.647907 0.187372 0.304660
O O7 0.459534 0.178166 0.449329
O O8 0.647998 0.173343 0.589202
O O9 0.256943 0.656357 0.428421
O O10 0.300013 0.655879 0.705132
O O11 0.675414 0.263189 0.086340
#
# Coordination Sequence:
#
# PCOD8246382 Si02
#       6
#     8   8   4   8   8   8
#     4  11  20  38  52  80 102 138 164 227 256 306
#     4   9  18  31  47  75 105 141 171 197 243 322
#     4  10  24  34  56  74 102 130 188 210 268 298
#     4  10  18  31  51  71 108 139 163 206 261 299
#     4   9  18  31  47  75 105 141 171 197 243 322
#     4  10  18  31  51  71 108 139 163 206 261 299
#
# _framework density 17.654337000000002
#
# number of rings (size 3 to 8) (size 9 to 14) (size 15 to 20)
#    0.000    2.182    3.636    0.000    2.545    0.727 
#    0.000    0.000    0.000    0.000    0.000    7.636 
#    0.000    0.000    0.000    0.000    0.000    0.000 
#
# Total GULP energy -545487.658726 kJ/mol
# GULP energy per Si atom -12397.446789 kJ/mol
# Density = 1.761416 g / cm^3
# Si number density = 17.654337 Si / 1000 Ang^3
#
#
#
# Elastic Constant Matrix: (Units=GPa)
#
#
# Indices 1 2 3 4 5 6 
#
# 1 70.0525 18.2005 20.4163 0.0000 0.0000 0.0000
# 2 18.2005 56.7129 26.9824 0.0000 0.0000 0.0000
# 3 20.4163 26.9824 65.1841 0.0000 0.0000 0.0000
# 4 0.0000 0.0000 0.0000 23.6286 0.0000 0.0000
# 5 0.0000 0.0000 0.0000 0.0000 26.0598 0.0000
# 6 0.0000 0.0000 0.0000 0.0000 0.0000 12.0050
#
#
#
# Elastic Compliance Matrix: (Units=1/GPa)
#
#
# Indices 1 2 3 4 5 6 
#
# 1 0.016241 -0.003477 -0.003648 0.000000 0.000000 0.000000
# 2 -0.003477 0.022701 -0.008308 0.000000 0.000000 0.000000
# 3 -0.003648 -0.008308 0.019923 0.000000 0.000000 0.000000
# 4 0.000000 0.000000 0.000000 0.042322 0.000000 0.000000
# 5 0.000000 0.000000 0.000000 0.000000 0.038373 0.000000
# 6 0.000000 0.000000 0.000000 0.000000 0.000000 0.083298
#
#
# Mechanical properties :
#
#
# Convention : Reuss Voigt Hill
#
# Bulk Modulus (GPa) = 35.71402 35.90533 35.80967
# Shear Modulus (GPa) = 19.00729 20.76205 19.88467
#
# Velocity S-wave (km/s) = 3.28477 3.43305 3.35973
# Velocity P-wave (km/s) = 5.88726 6.00804 5.94796
#
# Compressibility (1/GPa) = 0.02800021
#
# Stress axis : x y z
#
# Youngs Moduli (GPa) = 61.57096 44.05062 50.19394
#
# Poissons Ratio (x) = 0.15315 0.18310
# Poissons Ratio (y) = 0.21407 0.41701
# Poissons Ratio (z) = 0.22460 0.36597
#
# Static dielectric constant tensor:
#      x y z
#    x 3.261410 0.000000 0.000000 
#    y 0.000000 3.089050 0.000000 
#    z 0.000000 0.000000 3.398590 
# 
# 
# High freq. dielectric constant tensor:
#      x y z
#    x 1.668450 0.000000 0.000000 
#    y 0.000000 1.650050 0.000000 
#    z 0.000000 0.000000 1.690140 
# 
# From -- ./inp_files/5019.got.cif
#   From: 2010.03.12/outbox.cif.g09.slc.cpg/sg60_3_cif.got.tgz:5019.got - 2010.04.10 18:46:24.
