data_PCOD8246699
_publ_section_title
;
Structure prediction by ZEFSAII (Michael W. Deem and Ramdas Pophale) SiO2 
 PCOD8246699
Probable space group: P B C N
;
_chemical_formula_sum "Si O2"
_cell_formula_units_Z 48
_cell_length_a 29.762767
_cell_length_b 9.580158
_cell_length_c 8.749774
_cell_angle_alpha 90.000000
_cell_angle_beta 90.000000
_cell_angle_gamma 90.000000
_cell_volume 2494.840651
_symmetry_space_group_name_H-M "P B C N"
_symmetry_group_IT_number 60
_symmetry_cell_setting 'orthorhombic'
loop_
_space_group_symop_operation_xyz
x,y,z
1/2-x,1/2-y,1/2+z
1/2+x,1/2-y,-z
-x,y,1/2-z
-x,-y,-z
1/2+x,1/2+y,1/2-z
1/2-x,1/2+y,z
x,-y,1/2+z
loop_
_atom_site_type_symbol
_atom_site_label
_atom_site_fract_x
_atom_site_fract_y
_atom_site_fract_z
Si Si1 0.840671 0.169605 0.366047
Si Si2 0.831071 0.618252 0.367281
Si Si3 0.179882 0.104672 0.472870
Si Si4 0.967778 0.548123 0.132375
Si Si5 0.284818 0.105888 0.456064
Si Si6 0.909912 0.396709 0.363474
O O1 0.824282 0.113263 0.206590
O O2 0.805947 0.280291 0.432652
O O3 0.887840 0.246788 0.335913
O O4 0.844460 0.038290 0.478554
O O5 0.843667 0.771079 0.431213
O O6 0.802102 0.547658 0.500996
O O7 0.799952 0.633860 0.217333
O O8 0.876347 0.528803 0.341976
O O9 0.232918 0.106473 0.498420
O O10 0.948684 0.420503 0.237067
O O11 0.000000 0.638897 0.250000
O O12 0.926949 0.619772 0.040566
O O13 0.000000 0.500000 0.000000
#
# Coordination Sequence:
#
# PCOD8246699 Si02
#       6
#     8   8   8   8   8   8
#     4  11  24  35  53  78 112 153 188 238 285 318
#     4  11  22  35  57  78 109 153 188 238 286 317
#     4  12  22  36  51  77 109 153 202 232 271 327
#     4   9  18  33  60  90 109 130 163 216 274 333
#     4  11  21  36  52  76 108 150 200 246 276 307
#     4  10  19  37  55  85 115 133 174 224 277 338
#
# _framework density 19.239706000000002
#
# number of rings (size 3 to 8) (size 9 to 14) (size 15 to 20)
#    0.000    1.333    0.000    9.000    0.000    0.000 
#    0.000    0.000    0.000    0.000    0.000   73.500 
#    0.000    0.000    0.000    0.000    0.000    0.000 
#
# Total GULP energy -594736.876828 kJ/mol
# GULP energy per Si atom -12390.351601 kJ/mol
# Density = 1.919592 g / cm^3
# Si number density = 19.239706 Si / 1000 Ang^3
#
#
#
# Elastic Constant Matrix: (Units=GPa)
#
#
# Indices 1 2 3 4 5 6 
#
# 1 65.4006 31.5330 17.8354 0.0000 0.0000 0.0000
# 2 31.5330 94.2072 19.5538 0.0000 0.0000 0.0000
# 3 17.8354 19.5538 96.5899 0.0000 0.0000 0.0000
# 4 0.0000 0.0000 0.0000 6.7349 0.0000 0.0000
# 5 0.0000 0.0000 0.0000 0.0000 39.6512 0.0000
# 6 0.0000 0.0000 0.0000 0.0000 0.0000 10.0075
#
#
#
# Elastic Compliance Matrix: (Units=1/GPa)
#
#
# Indices 1 2 3 4 5 6 
#
# 1 0.018703 -0.005786 -0.002282 0.000000 0.000000 0.000000
# 2 -0.005786 0.012871 -0.001537 0.000000 0.000000 0.000000
# 3 -0.002282 -0.001537 0.011086 0.000000 0.000000 0.000000
# 4 0.000000 0.000000 0.000000 0.148480 0.000000 0.000000
# 5 0.000000 0.000000 0.000000 0.000000 0.025220 0.000000
# 6 0.000000 0.000000 0.000000 0.000000 0.000000 0.099925
#
#
# Mechanical properties :
#
#
# Convention : Reuss Voigt Hill
#
# Bulk Modulus (GPa) = 42.64789 43.78245 43.21517
# Shear Modulus (GPa) = 14.56405 23.76376 19.16391
#
# Velocity S-wave (km/s) = 2.75431 3.51827 3.15947
# Velocity P-wave (km/s) = 5.68592 6.26977 5.98497
#
# Compressibility (1/GPa) = 0.02344782
#
# Stress axis : x y z
#
# Youngs Moduli (GPa) = 53.46827 77.69536 90.20712
#
# Poissons Ratio (x) = 0.44958 0.20586
# Poissons Ratio (y) = 0.30939 0.13866
# Poissons Ratio (z) = 0.12202 0.11943
#
# Static dielectric constant tensor:
#      x y z
#    x 4.034160 0.000000 0.000000 
#    y 0.000000 3.477610 0.000000 
#    z 0.000000 0.000000 4.095220 
# 
# 
# High freq. dielectric constant tensor:
#      x y z
#    x 1.744310 0.000000 0.000000 
#    y 0.000000 1.719380 0.000000 
#    z 0.000000 0.000000 1.779280 
# 
# From -- ./inp_files/8381.got.cif
#   From: 2010.03.12/outbox.cif.g09.slc.cpg/sg60_5_cif.got.tgz:8381.got - 2010.04.10 18:46:24.
