data_PCOD8246110
_publ_section_title
;
Structure prediction by ZEFSAII (Michael W. Deem and Ramdas Pophale) SiO2 
 PCOD8246110
Probable space group: P M M N
;
_chemical_formula_sum "Si O2"
_cell_formula_units_Z 40
_cell_length_a 8.949399
_cell_length_b 9.547515
_cell_length_c 25.762462
_cell_angle_alpha 90.000000
_cell_angle_beta 90.000000
_cell_angle_gamma 90.000000
_cell_volume 2201.261230
_symmetry_space_group_name_H-M "P M M N"
_symmetry_group_IT_number 59
_space_group.IT_coordinate_system_code '2'
_symmetry_cell_setting 'orthorhombic'
loop_
_space_group_symop_operation_xyz
x,y,z
1/2-x,1/2-y,z
1/2+x,-y,-z
-x,1/2+y,-z
-x,-y,-z
1/2+x,1/2+y,-z
1/2-x,y,z
x,1/2-y,z
loop_
_atom_site_type_symbol
_atom_site_label
_atom_site_fract_x
_atom_site_fract_y
_atom_site_fract_z
Si Si1 0.073068 0.403977 0.250880
Si Si2 0.927780 0.094270 0.658452
Si Si3 0.073271 0.412793 0.953980
Si Si4 0.924455 0.586647 0.865974
Si Si5 0.425326 0.590401 0.456136
O O1 0.250000 0.397650 0.257115
O O2 0.004873 0.250000 0.259280
O O3 0.001632 0.501893 0.295314
O O4 0.034688 0.456374 0.193001
O O5 0.750000 0.097768 0.662726
O O6 0.992146 0.250000 0.665506
O O7 0.972927 0.036080 0.601408
O O8 0.250000 0.423598 0.959361
O O9 0.022102 0.250000 0.955949
O O10 0.022604 0.483304 0.900483
O O11 0.000000 0.500000 0.000000
O O12 0.750000 0.561778 0.877732
O O13 0.963677 0.750000 0.876456
O O14 0.500000 0.500000 0.500000
O O15 0.250000 0.577697 0.463074
O O16 0.477964 0.750000 0.462653
#
# Coordination Sequence:
#
# PCOD8246110 Si02
#       5
#     8   8   8   8   8
#     4   8  14  25  43  69  98 124 153 192 235 280
#     4   8  14  25  41  63  92 123 155 194 239 285
#     4  11  24  39  55  77 103 131 166 205 242 284
#     4   9  18  33  53  78 106 132 160 197 240 287
#     4   9  18  31  46  67  95 125 160 203 247 292
#
# _framework density 18.171399999999998
#
# number of rings (size 3 to 8) (size 9 to 14) (size 15 to 20)
#    0.000    3.000    0.000    3.600    0.000    6.400 
#    0.000    4.000    0.000    1.200    0.000    0.000 
#    0.000    0.000    0.000    0.000    0.000    0.000 
#
# Total GULP energy -495737.211602 kJ/mol
# GULP energy per Si atom -12393.430290 kJ/mol
# Density = 1.813004 g / cm^3
# Si number density = 18.171400 Si / 1000 Ang^3
#
#
#
# Elastic Constant Matrix: (Units=GPa)
#
#
# Indices 1 2 3 4 5 6 
#
# 1 31.7555 35.9458 34.4531 0.0000 0.0000 0.0000
# 2 35.9458 116.8382 96.0732 0.0000 0.0000 0.0000
# 3 34.4531 96.0732 171.7649 0.0000 0.0000 0.0000
# 4 0.0000 0.0000 0.0000 42.7963 0.0000 0.0000
# 5 0.0000 0.0000 0.0000 0.0000 25.3120 0.0000
# 6 0.0000 0.0000 0.0000 0.0000 0.0000 23.7201
#
#
#
# Elastic Compliance Matrix: (Units=1/GPa)
#
#
# Indices 1 2 3 4 5 6 
#
# 1 0.048928 -0.012930 -0.002582 0.000000 0.000000 0.000000
# 2 -0.012930 0.019264 -0.008182 0.000000 0.000000 0.000000
# 3 -0.002582 -0.008182 0.010916 0.000000 0.000000 0.000000
# 4 0.000000 0.000000 0.000000 0.023367 0.000000 0.000000
# 5 0.000000 0.000000 0.000000 0.000000 0.039507 0.000000
# 6 0.000000 0.000000 0.000000 0.000000 0.000000 0.042158
#
#
# Mechanical properties :
#
#
# Convention : Reuss Voigt Hill
#
# Bulk Modulus (GPa) = 31.52444 72.58918 52.05681
# Shear Modulus (GPa) = 20.65257 28.62477 24.63867
#
# Velocity S-wave (km/s) = 3.37492 3.97327 3.68625
# Velocity P-wave (km/s) = 5.70726 7.81555 6.84309
#
# Compressibility (1/GPa) = 0.03172142
#
# Stress axis : x y z
#
# Youngs Moduli (GPa) = 20.43823 51.90975 91.60818
#
# Poissons Ratio (x) = 0.67117 0.23655
# Poissons Ratio (y) = 0.26426 0.74950
# Poissons Ratio (z) = 0.05278 0.42470
#
# Static dielectric constant tensor:
#      x y z
#    x 2.842350 0.000000 0.000000 
#    y 0.000000 3.804050 0.000000 
#    z 0.000000 0.000000 3.601750 
# 
# 
# High freq. dielectric constant tensor:
#      x y z
#    x 1.655860 0.000000 0.000000 
#    y 0.000000 1.703700 0.000000 
#    z 0.000000 0.000000 1.723100 
# 
# From -- ./inp_files/32371.got.cif
#   From: 2010.03.12/outbox.cif.g09.slc.cpg/sg59_17_cif.got.tgz:32371.got - 2010.04.16 16:29:54.
