data_PCOD8246976
_publ_section_title
;
Structure prediction by ZEFSAII (Michael W. Deem and Ramdas Pophale) SiO2 
 PCOD8246976
Probable space group: P B C N
;
_chemical_formula_sum "Si O2"
_cell_formula_units_Z 36
_cell_length_a 13.634838
_cell_length_b 15.253956
_cell_length_c 8.915382
_cell_angle_alpha 90.000000
_cell_angle_beta 90.000000
_cell_angle_gamma 90.000000
_cell_volume 1854.267677
_symmetry_space_group_name_H-M "P B C N"
_symmetry_group_IT_number 60
_symmetry_cell_setting 'orthorhombic'
loop_
_space_group_symop_operation_xyz
x,y,z
1/2-x,1/2-y,1/2+z
1/2+x,1/2-y,-z
-x,y,1/2-z
-x,-y,-z
1/2+x,1/2+y,1/2-z
1/2-x,1/2+y,z
x,-y,1/2+z
loop_
_atom_site_type_symbol
_atom_site_label
_atom_site_fract_x
_atom_site_fract_y
_atom_site_fract_z
Si Si1 0.401533 0.045220 0.334612
Si Si2 0.820207 0.607023 0.460028
Si Si3 0.500000 0.503485 0.750000
Si Si4 0.903394 0.113357 0.493413
Si Si5 0.001519 0.285701 0.923463
O O1 0.500000 0.012510 0.250000
O O2 0.321779 0.074425 0.211729
O O3 0.429819 0.128073 0.440375
O O4 0.355774 0.970370 0.433464
O O5 0.711286 0.635280 0.503068
O O6 0.891707 0.690830 0.479735
O O7 0.427124 0.444136 0.652067
O O8 0.433033 0.563246 0.855565
O O9 0.959715 0.205654 0.477393
O O10 0.000000 0.256643 0.750000
#
# Coordination Sequence:
#
# PCOD8246976 Si02
#       5
#     8   8   4   8   8
#     4   9  18  37  59  86 119 146 186 244 290 334
#     4  10  20  37  62  86 114 156 190 231 296 343
#     4  10  24  40  62  76 124 152 192 244 288 336
#     4  11  21  43  58  86 114 157 195 238 287 347
#     4   9  19  39  58  83 121 147 185 243 287 331
#
# _framework density 19.414673000000001
#
# number of rings (size 3 to 8) (size 9 to 14) (size 15 to 20)
#    0.000    2.667    1.111    4.000    0.000    0.000 
#   22.000    0.000    0.000    0.000    0.000    0.000 
#    0.000    0.000    0.000    0.000    0.000    0.000 
#
# Total GULP energy -446342.507348 kJ/mol
# GULP energy per Si atom -12398.402982 kJ/mol
# Density = 1.937048 g / cm^3
# Si number density = 19.414673 Si / 1000 Ang^3
#
#
#
# Elastic Constant Matrix: (Units=GPa)
#
#
# Indices 1 2 3 4 5 6 
#
# 1 152.4267 83.2773 48.9670 0.0000 0.0000 0.0000
# 2 83.2773 119.5660 45.8751 0.0000 0.0000 0.0000
# 3 48.9670 45.8751 69.8192 0.0000 0.0000 0.0000
# 4 0.0000 0.0000 0.0000 3.0119 0.0000 0.0000
# 5 0.0000 0.0000 0.0000 0.0000 22.4460 0.0000
# 6 0.0000 0.0000 0.0000 0.0000 0.0000 16.3970
#
#
#
# Elastic Compliance Matrix: (Units=1/GPa)
#
#
# Indices 1 2 3 4 5 6 
#
# 1 0.011251 -0.006430 -0.003666 0.000000 0.000000 0.000000
# 2 -0.006430 0.014857 -0.005253 0.000000 0.000000 0.000000
# 3 -0.003666 -0.005253 0.020345 0.000000 0.000000 0.000000
# 4 0.000000 0.000000 0.000000 0.332019 0.000000 0.000000
# 5 0.000000 0.000000 0.000000 0.000000 0.044551 0.000000
# 6 0.000000 0.000000 0.000000 0.000000 0.000000 0.060987
#
#
# Mechanical properties :
#
#
# Convention : Reuss Voigt Hill
#
# Bulk Modulus (GPa) = 63.46578 77.56121 70.51350
# Shear Modulus (GPa) = 9.61612 19.28381 14.44997
#
# Velocity S-wave (km/s) = 2.22795 3.15502 2.73111
# Velocity P-wave (km/s) = 6.27526 7.30128 6.80763
#
# Compressibility (1/GPa) = 0.01575652
#
# Stress axis : x y z
#
# Youngs Moduli (GPa) = 88.87999 67.30757 49.15176
#
# Poissons Ratio (x) = 0.43277 0.18020
# Poissons Ratio (y) = 0.57147 0.25817
# Poissons Ratio (z) = 0.32585 0.35354
#
# Static dielectric constant tensor:
#      x y z
#    x 3.477230 0.000000 0.000000 
#    y 0.000000 3.527830 0.000000 
#    z 0.000000 0.000000 3.519970 
# 
# 
# High freq. dielectric constant tensor:
#      x y z
#    x 1.749510 0.000000 0.000000 
#    y 0.000000 1.753830 0.000000 
#    z 0.000000 0.000000 1.750140 
# 
# From -- ./inp_files/5613.got.cif
#   From: 2010.03.12/outbox.cif.g09.slc.cpg/sg60_3_cif.got.tgz:5613.got - 2010.04.10 18:46:24.
