data_PCOD8246048
_publ_section_title
;
Structure prediction by ZEFSAII (Michael W. Deem and Ramdas Pophale) SiO2 
 PCOD8246048
Probable space group: P M M N
;
_chemical_formula_sum "Si O2"
_cell_formula_units_Z 48
_cell_length_a 8.957632
_cell_length_b 18.565927
_cell_length_c 16.121594
_cell_angle_alpha 90.000000
_cell_angle_beta 90.000000
_cell_angle_gamma 90.000000
_cell_volume 2681.129771
_symmetry_space_group_name_H-M "P M M N"
_symmetry_group_IT_number 59
_space_group.IT_coordinate_system_code '2'
_symmetry_cell_setting 'orthorhombic'
loop_
_space_group_symop_operation_xyz
x,y,z
1/2-x,1/2-y,z
1/2+x,-y,-z
-x,1/2+y,-z
-x,-y,-z
1/2+x,1/2+y,-z
1/2-x,y,z
x,1/2-y,z
loop_
_atom_site_type_symbol
_atom_site_label
_atom_site_fract_x
_atom_site_fract_y
_atom_site_fract_z
Si Si1 0.917695 0.603617 0.826837
Si Si2 0.072925 0.533476 0.580728
Si Si3 0.072377 0.669943 0.161290
Si Si4 0.074240 0.167538 0.344450
Si Si5 0.420920 0.539228 0.267934
Si Si6 0.074437 0.831048 0.977022
O O1 0.750000 0.627816 0.846763
O O2 0.978607 0.651285 0.749656
O O3 0.927243 0.519797 0.804496
O O4 0.012178 0.614240 0.909429
O O5 0.250000 0.535323 0.571680
O O6 0.000000 0.500000 0.500000
O O7 0.013262 0.615058 0.592989
O O8 0.027104 0.482647 0.656938
O O9 0.250000 0.667140 0.158655
O O10 0.017954 0.750000 0.187059
O O11 0.014178 0.613118 0.229246
O O12 0.012025 0.650684 0.069073
O O13 0.250000 0.150380 0.352216
O O14 0.037161 0.250000 0.367580
O O15 0.250000 0.547348 0.299921
O O16 0.250000 0.839142 0.977181
O O17 0.026842 0.750000 0.952751
#
# Coordination Sequence:
#
# PCOD8246048 Si02
#       6
#     8   8   8   8   8   8
#     4   9  17  28  44  69 100 133 164 196 243 300
#     4  11  22  37  57  79 104 133 166 204 249 304
#     4   8  15  30  51  71  93 127 170 212 252 294
#     4   9  18  34  55  78 106 137 167 204 252 301
#     4   9  18  34  53  72  96 127 164 207 256 306
#     4   9  17  28  43  66  96 130 169 210 247 284
#
# _framework density 17.902899999999999
#
# number of rings (size 3 to 8) (size 9 to 14) (size 15 to 20)
#    0.000    2.833    0.000    4.000    0.000    4.667 
#    0.000    1.667    0.000    4.500    0.000    0.000 
#    0.000    0.000    0.000    0.000    0.000    0.000 
#
# Total GULP energy -595045.382627 kJ/mol
# GULP energy per Si atom -12396.778805 kJ/mol
# Density = 1.786215 g / cm^3
# Si number density = 17.902900 Si / 1000 Ang^3
#
#
#
# Elastic Constant Matrix: (Units=GPa)
#
#
# Indices 1 2 3 4 5 6 
#
# 1 62.2098 41.8607 40.2475 0.0000 0.0000 0.0000
# 2 41.8607 124.2776 72.0546 0.0000 0.0000 0.0000
# 3 40.2475 72.0546 95.0046 0.0000 0.0000 0.0000
# 4 0.0000 0.0000 0.0000 27.8738 0.0000 0.0000
# 5 0.0000 0.0000 0.0000 0.0000 28.2765 0.0000
# 6 0.0000 0.0000 0.0000 0.0000 0.0000 22.2181
#
#
#
# Elastic Compliance Matrix: (Units=1/GPa)
#
#
# Indices 1 2 3 4 5 6 
#
# 1 0.023087 -0.003759 -0.006930 0.000000 0.000000 0.000000
# 2 -0.003759 0.014974 -0.009764 0.000000 0.000000 0.000000
# 3 -0.006930 -0.009764 0.020867 0.000000 0.000000 0.000000
# 4 0.000000 0.000000 0.000000 0.035876 0.000000 0.000000
# 5 0.000000 0.000000 0.000000 0.000000 0.035365 0.000000
# 6 0.000000 0.000000 0.000000 0.000000 0.000000 0.045008
#
#
# Mechanical properties :
#
#
# Convention : Reuss Voigt Hill
#
# Bulk Modulus (GPa) = 55.48651 65.53530 60.51090
# Shear Modulus (GPa) = 22.51332 24.16229 23.33781
#
# Velocity S-wave (km/s) = 3.55001 3.67772 3.61443
# Velocity P-wave (km/s) = 6.91836 7.39727 7.16182
#
# Compressibility (1/GPa) = 0.01802240
#
# Stress axis : x y z
#
# Youngs Moduli (GPa) = 43.31397 66.78357 47.92220
#
# Poissons Ratio (x) = 0.25101 0.33210
# Poissons Ratio (y) = 0.16280 0.46793
# Poissons Ratio (z) = 0.30016 0.65209
#
# Static dielectric constant tensor:
#      x y z
#    x 3.203260 0.000000 0.000000 
#    y 0.000000 3.483700 0.000000 
#    z 0.000000 0.000000 3.277660 
# 
# 
# High freq. dielectric constant tensor:
#      x y z
#    x 1.667700 0.000000 0.000000 
#    y 0.000000 1.695100 0.000000 
#    z 0.000000 0.000000 1.683080 
# 
# From -- ./inp_files/20359.got.cif
#   From: 2010.03.12/outbox.cif.g09.slc.cpg/sg59_11_cif.got.tgz:20359.got - 2010.04.16 16:29:54.
