data_PCOD8246855
_publ_section_title
;
Structure prediction by ZEFSAII (Michael W. Deem and Ramdas Pophale) SiO2 
 PCOD8246855
Probable space group: P B C N
;
_chemical_formula_sum "Si O2"
_cell_formula_units_Z 32
_cell_length_a 11.467685
_cell_length_b 30.167467
_cell_length_c 4.933953
_cell_angle_alpha 90.000000
_cell_angle_beta 90.000000
_cell_angle_gamma 90.000000
_cell_volume 1706.906018
_symmetry_space_group_name_H-M "P B C N"
_symmetry_group_IT_number 60
_symmetry_cell_setting 'orthorhombic'
loop_
_space_group_symop_operation_xyz
x,y,z
1/2-x,1/2-y,1/2+z
1/2+x,1/2-y,-z
-x,y,1/2-z
-x,-y,-z
1/2+x,1/2+y,1/2-z
1/2-x,1/2+y,z
x,-y,1/2+z
loop_
_atom_site_type_symbol
_atom_site_label
_atom_site_fract_x
_atom_site_fract_y
_atom_site_fract_z
Si Si1 0.137940 0.975332 0.710037
Si Si2 0.367463 0.211607 0.238033
Si Si3 0.777986 0.807257 0.253531
Si Si4 0.576842 0.386849 0.005392
O O1 0.163444 0.924934 0.611864
O O2 0.000000 0.979330 0.750000
O O3 0.192374 0.010940 0.497961
O O4 0.500000 0.195273 0.250000
O O5 0.278397 0.187315 0.447502
O O6 0.361342 0.264592 0.274968
O O7 0.332292 0.198216 0.938149
O O8 0.853323 0.848684 0.158555
O O9 0.500000 0.408356 0.250000
O O10 0.500000 0.368339 0.750000
#
# Coordination Sequence:
#
# PCOD8246855 Si02
#       4
#     8   8   8   8
#     4   9  16  27  42  63  93 128 156 180 225 283
#     4  10  20  35  51  67  95 127 157 200 243 278
#     4  10  21  33  49  73  94 123 165 196 233 290
#     4  11  20  30  47  70 100 130 157 194 231 276
#
# _framework density 18.747371000000001
#
# number of rings (size 3 to 8) (size 9 to 14) (size 15 to 20)
#    0.000    2.000    0.000    6.750    0.000    4.000 
#    0.000    0.000    0.000    0.000    0.000    0.000 
#    0.000   20.000    0.000    0.000    0.000    0.000 
#
# Total GULP energy -396457.862402 kJ/mol
# GULP energy per Si atom -12389.308200 kJ/mol
# Density = 1.870470 g / cm^3
# Si number density = 18.747371 Si / 1000 Ang^3
#
#
#
# Elastic Constant Matrix: (Units=GPa)
#
#
# Indices 1 2 3 4 5 6 
#
# 1 43.5612 5.4625 1.3221 0.0000 0.0000 0.0000
# 2 5.4625 85.0887 9.9464 0.0000 0.0000 0.0000
# 3 1.3221 9.9464 74.6855 0.0000 0.0000 0.0000
# 4 0.0000 0.0000 0.0000 19.3567 0.0000 0.0000
# 5 0.0000 0.0000 0.0000 0.0000 10.1828 0.0000
# 6 0.0000 0.0000 0.0000 0.0000 0.0000 8.1391
#
#
#
# Elastic Compliance Matrix: (Units=1/GPa)
#
#
# Indices 1 2 3 4 5 6 
#
# 1 0.023146 -0.001461 -0.000215 0.000000 0.000000 0.000000
# 2 -0.001461 0.012030 -0.001576 0.000000 0.000000 0.000000
# 3 -0.000215 -0.001576 0.013603 0.000000 0.000000 0.000000
# 4 0.000000 0.000000 0.000000 0.051662 0.000000 0.000000
# 5 0.000000 0.000000 0.000000 0.000000 0.098205 0.000000
# 6 0.000000 0.000000 0.000000 0.000000 0.000000 0.122864
#
#
# Mechanical properties :
#
#
# Convention : Reuss Voigt Hill
#
# Bulk Modulus (GPa) = 23.65461 26.31083 24.98272
# Shear Modulus (GPa) = 14.61534 19.97601 17.29567
#
# Velocity S-wave (km/s) = 2.79515 3.26780 3.04067
# Velocity P-wave (km/s) = 4.80230 5.32004 5.06779
#
# Compressibility (1/GPa) = 0.04227505
#
# Stress axis : x y z
#
# Youngs Moduli (GPa) = 43.20414 83.12216 73.51201
#
# Poissons Ratio (x) = 0.12142 0.01582
# Poissons Ratio (y) = 0.06311 0.11588
# Poissons Ratio (z) = 0.00930 0.13103
#
# Static dielectric constant tensor:
#      x y z
#    x 2.825980 0.000000 0.000000 
#    y 0.000000 3.445500 0.000000 
#    z 0.000000 0.000000 4.042870 
# 
# 
# High freq. dielectric constant tensor:
#      x y z
#    x 1.657230 0.000000 0.000000 
#    y 0.000000 1.716580 0.000000 
#    z 0.000000 0.000000 1.764240 
# 
# From -- ./inp_files/367.got.cif
#   From: 2010.03.12/outbox.cif.g09.slc.cpg/sg60_1_cif.got.tgz:367.got - 2010.04.10 18:46:24.
