data_PCOD8246413
_publ_section_title
;
Structure prediction by ZEFSAII (Michael W. Deem and Ramdas Pophale) SiO2 
 PCOD8246413
Probable space group: P B C N
;
_chemical_formula_sum "Si O2"
_cell_formula_units_Z 56
_cell_length_a 14.444292
_cell_length_b 12.109618
_cell_length_c 15.011381
_cell_angle_alpha 90.000000
_cell_angle_beta 90.000000
_cell_angle_gamma 90.000000
_cell_volume 2625.713582
_symmetry_space_group_name_H-M "P B C N"
_symmetry_group_IT_number 60
_symmetry_cell_setting 'orthorhombic'
loop_
_space_group_symop_operation_xyz
x,y,z
1/2-x,1/2-y,1/2+z
1/2+x,1/2-y,-z
-x,y,1/2-z
-x,-y,-z
1/2+x,1/2+y,1/2-z
1/2-x,1/2+y,z
x,-y,1/2+z
loop_
_atom_site_type_symbol
_atom_site_label
_atom_site_fract_x
_atom_site_fract_y
_atom_site_fract_z
Si Si1 0.038478 0.498928 0.159964
Si Si2 0.868220 0.293537 0.912623
Si Si3 0.737968 0.365763 0.066355
Si Si4 0.853783 0.435005 0.597717
Si Si5 0.440224 0.272600 0.486651
Si Si6 0.921144 0.749191 0.815458
Si Si7 0.269076 0.223791 0.262384
O O1 0.108175 0.578116 0.107130
O O2 0.089118 0.384057 0.181174
O O3 0.000000 0.557158 0.250000
O O4 0.942012 0.482153 0.105721
O O5 0.831490 0.236495 0.821697
O O6 0.961081 0.226775 0.937985
O O7 0.792811 0.291323 0.992562
O O8 0.770232 0.492107 0.059930
O O9 0.627442 0.368064 0.050017
O O10 0.753642 0.319151 0.166031
O O11 0.883217 0.341343 0.527781
O O12 0.819581 0.379798 0.690534
O O13 0.454079 0.294139 0.589986
O O14 0.827955 0.809039 0.783119
O O15 0.000000 0.788489 0.750000
#
# Coordination Sequence:
#
# PCOD8246413 Si02
#       7
#     8   8   8   8   8   8   8
#     4  10  18  32  61  93 119 156 205 261 311 359
#     4  11  21  39  63  92 130 159 209 268 311 369
#     4  11  22  39  60  90 127 166 205 254 320 378
#     4  10  21  38  59  92 124 159 209 262 310 368
#     4  10  22  37  63  93 124 163 208 261 319 371
#     4  11  21  37  61  94 127 159 206 254 321 372
#     4  11  23  37  62  92 130 164 205 262 317 370
#
# _framework density 21.327535000000001
#
# number of rings (size 3 to 8) (size 9 to 14) (size 15 to 20)
#    0.000    1.429    2.857    4.286    0.000    2.286 
#    0.000    0.000    3.143    4.286    0.000    0.000 
#    0.000    0.000    0.000    0.000    0.000    0.000 
#
# Total GULP energy -694114.643460 kJ/mol
# GULP energy per Si atom -12394.904348 kJ/mol
# Density = 2.127899 g / cm^3
# Si number density = 21.327535 Si / 1000 Ang^3
#
#
#
# Elastic Constant Matrix: (Units=GPa)
#
#
# Indices 1 2 3 4 5 6 
#
# 1 128.0225 12.9423 50.2416 0.0000 0.0000 0.0000
# 2 12.9423 27.5679 5.3832 0.0000 0.0000 0.0000
# 3 50.2416 5.3832 143.8924 0.0000 0.0000 0.0000
# 4 0.0000 0.0000 0.0000 16.0747 0.0000 0.0000
# 5 0.0000 0.0000 0.0000 0.0000 45.9903 0.0000
# 6 0.0000 0.0000 0.0000 0.0000 0.0000 23.9111
#
#
#
# Elastic Compliance Matrix: (Units=1/GPa)
#
#
# Indices 1 2 3 4 5 6 
#
# 1 0.009433 -0.003813 -0.003151 0.000000 0.000000 0.000000
# 2 -0.003813 0.038083 -0.000093 0.000000 0.000000 0.000000
# 3 -0.003151 -0.000093 0.008053 0.000000 0.000000 0.000000
# 4 0.000000 0.000000 0.000000 0.062210 0.000000 0.000000
# 5 0.000000 0.000000 0.000000 0.000000 0.021744 0.000000
# 6 0.000000 0.000000 0.000000 0.000000 0.000000 0.041822
#
#
# Mechanical properties :
#
#
# Convention : Reuss Voigt Hill
#
# Bulk Modulus (GPa) = 24.12318 48.51300 36.31809
# Shear Modulus (GPa) = 23.89173 32.58960 28.24067
#
# Velocity S-wave (km/s) = 3.35061 3.91327 3.64282
# Velocity P-wave (km/s) = 5.12876 6.57376 5.89570
#
# Compressibility (1/GPa) = 0.04145390
#
# Stress axis : x y z
#
# Youngs Moduli (GPa) = 106.00819 26.25873 124.17195
#
# Poissons Ratio (x) = 0.10013 0.39127
# Poissons Ratio (y) = 0.40424 0.01158
# Poissons Ratio (z) = 0.33404 0.00245
#
# Static dielectric constant tensor:
#      x y z
#    x 4.092340 0.000000 0.000000 
#    y 0.000000 3.289180 0.000000 
#    z 0.000000 0.000000 4.135560 
# 
# 
# High freq. dielectric constant tensor:
#      x y z
#    x 1.847850 0.000000 0.000000 
#    y 0.000000 1.776780 0.000000 
#    z 0.000000 0.000000 1.861490 
# 
# From -- ./inp_files/16191.got.cif
#   From: 2010.03.12/outbox.cif.g09.slc.cpg/sg60_9_cif.got.tgz:16191.got - 2010.04.10 18:46:24.
