data_PCOD8246255
_publ_section_title
;
Structure prediction by ZEFSAII (Michael W. Deem and Ramdas Pophale) SiO2 
 PCOD8246255
Probable space group: P M M N
;
_chemical_formula_sum "Si O2"
_cell_formula_units_Z 64
_cell_length_a 9.000000
_cell_length_b 24.000000
_cell_length_c 15.000000
_cell_angle_alpha 90.000000
_cell_angle_beta 90.000000
_cell_angle_gamma 90.000000
_cell_volume 3240.000000
_symmetry_space_group_name_H-M "P M M N"
_symmetry_group_IT_number 59
_space_group.IT_coordinate_system_code '2'
_symmetry_cell_setting 'orthorhombic'
loop_
_space_group_symop_operation_xyz
x,y,z
1/2-x,1/2-y,z
1/2+x,-y,-z
-x,1/2+y,-z
-x,-y,-z
1/2+x,1/2+y,-z
1/2-x,y,z
x,1/2-y,z
loop_
_atom_site_type_symbol
_atom_site_label
_atom_site_fract_x
_atom_site_fract_y
_atom_site_fract_z
Si Si1 0.919232 0.004938 0.092832
Si Si2 0.917953 0.686442 0.966609
Si Si3 0.075548 0.882680 0.821918
Si Si4 0.572872 0.184291 0.350802
Si Si5 0.074872 0.086991 0.442490
Si Si6 0.918148 0.187906 0.851264
Si Si7 0.923625 0.982516 0.383475
Si Si8 0.581607 0.907993 0.222487
O O1 0.750000 0.021167 0.073022
O O2 0.981036 0.053561 0.160300
O O3 0.932959 0.943319 0.132462
O O4 0.000000 0.000000 0.000000
O O5 0.750000 0.663391 0.958753
O O6 0.926047 0.750000 0.934427
O O7 0.030548 0.651580 0.908339
O O8 0.968892 0.680884 0.067815
O O9 0.250000 0.881487 0.809486
O O10 0.010073 0.849698 0.735781
O O11 0.750000 0.182558 0.358047
O O12 0.521104 0.250000 0.351018
O O13 0.501871 0.148208 0.432303
O O14 0.250000 0.094672 0.430452
O O15 0.031444 0.058295 0.535949
O O16 0.010071 0.041281 0.373698
O O17 0.750000 0.174561 0.881498
O O18 0.928043 0.250000 0.811090
O O19 0.972884 0.145024 0.776357
O O20 0.750000 0.997400 0.384660
O O21 0.974138 0.948585 0.298542
O O22 0.750000 0.887722 0.239382
#
# Coordination Sequence:
#
# PCOD8246255 Si02
#       8
#     8   8   8   8   8   8   8   8
#     4  10  21  34  50  75 106 139 173 216 267 314
#     4  10  20  33  50  73 101 135 177 222 264 307
#     4  10  20  35  54  75 102 140 185 226 266 317
#     4  10  21  37  57  80 110 151 192 230 279 339
#     4  10  20  35  58  86 112 140 177 224 275 325
#     4  10  21  36  53  74 102 135 171 214 262 311
#     4   9  19  37  60  84 110 141 178 222 272 327
#     4  10  20  36  57  78 102 135 176 218 261 312
#
# _framework density 19.753086
#
# number of rings (size 3 to 8) (size 9 to 14) (size 15 to 20)
#    0.000    2.125    0.000    3.000    0.000    8.750 
#    0.000    1.875    0.000    3.750    0.000    0.000 
#    0.000    0.000    0.000    0.000    0.000    0.000 
#
# Total GULP energy -793201.787916 kJ/mol
# GULP energy per Si atom -12393.777936 kJ/mol
# Density = 1.970813 g / cm^3
# Si number density = 19.753086 Si / 1000 Ang^3
#
#
#
# Elastic Constant Matrix: (Units=GPa)
#
#
# Indices 1 2 3 4 5 6 
#
# 1 29.7478 42.8490 17.4362 0.0000 0.0000 0.0000
# 2 42.8490 140.8611 31.7861 0.0000 0.0000 0.0000
# 3 17.4362 31.7861 42.2543 0.0000 0.0000 0.0000
# 4 0.0000 0.0000 0.0000 29.2189 0.0000 0.0000
# 5 0.0000 0.0000 0.0000 0.0000 25.4265 0.0000
# 6 0.0000 0.0000 0.0000 0.0000 0.0000 37.6111
#
#
#
# Elastic Compliance Matrix: (Units=1/GPa)
#
#
# Indices 1 2 3 4 5 6 
#
# 1 0.066694 -0.016956 -0.014766 0.000000 0.000000 0.000000
# 2 -0.016956 0.012861 -0.002678 0.000000 0.000000 0.000000
# 3 -0.014766 -0.002678 0.031774 0.000000 0.000000 0.000000
# 4 0.000000 0.000000 0.000000 0.034224 0.000000 0.000000
# 5 0.000000 0.000000 0.000000 0.000000 0.039329 0.000000
# 6 0.000000 0.000000 0.000000 0.000000 0.000000 0.026588
#
#
# Mechanical properties :
#
#
# Convention : Reuss Voigt Hill
#
# Bulk Modulus (GPa) = 23.51317 44.11175 33.81246
# Shear Modulus (GPa) = 16.98091 26.50409 21.74250
#
# Velocity S-wave (km/s) = 2.93517 3.66699 3.32130
# Velocity P-wave (km/s) = 4.83905 6.34895 5.64471
#
# Compressibility (1/GPa) = 0.04252936
#
# Stress axis : x y z
#
# Youngs Moduli (GPa) = 14.99380 77.75184 31.47207
#
# Poissons Ratio (x) = 1.31835 0.46472
# Poissons Ratio (y) = 0.25423 0.08429
# Poissons Ratio (z) = 0.22140 0.20824
#
# Static dielectric constant tensor:
#      x y z
#    x 3.477840 0.000000 0.000000 
#    y 0.000000 4.083720 0.000000 
#    z 0.000000 0.000000 3.447400 
# 
# 
# High freq. dielectric constant tensor:
#      x y z
#    x 1.759260 0.000000 0.000000 
#    y 0.000000 1.788440 0.000000 
#    z 0.000000 0.000000 1.748510 
# 
# From -- ./inp_files/21572.got.cif
#   From: 2010.03.12/outbox.ucp.g09.slc.cvg/sg59_11_cif.got.tgz:21572.got - 2010.05.04 19:30:51.
