data_PCOD8246186
_publ_section_title
;
Structure prediction by ZEFSAII (Michael W. Deem and Ramdas Pophale) SiO2 
 PCOD8246186
Probable space group: P M M N
;
_chemical_formula_sum "Si O2"
_cell_formula_units_Z 64
_cell_length_a 21.517538
_cell_length_b 9.142556
_cell_length_c 21.966353
_cell_angle_alpha 90.000000
_cell_angle_beta 90.000000
_cell_angle_gamma 90.000000
_cell_volume 4321.337299
_symmetry_space_group_name_H-M "P M M N"
_symmetry_group_IT_number 59
_space_group.IT_coordinate_system_code '2'
_symmetry_cell_setting 'orthorhombic'
loop_
_space_group_symop_operation_xyz
x,y,z
1/2-x,1/2-y,z
1/2+x,-y,-z
-x,1/2+y,-z
-x,-y,-z
1/2+x,1/2+y,-z
1/2-x,y,z
x,1/2-y,z
loop_
_atom_site_type_symbol
_atom_site_label
_atom_site_fract_x
_atom_site_fract_y
_atom_site_fract_z
Si Si1 0.417484 0.081477 0.687703
Si Si2 0.011839 0.414839 0.091386
Si Si3 0.178689 0.420090 0.919233
Si Si4 0.402195 0.917421 0.505930
Si Si5 0.075638 0.077330 0.822676
Si Si6 0.595567 0.085352 0.991959
Si Si7 0.000620 0.917538 0.416769
Si Si8 0.180269 0.077314 0.589560
O O1 0.401487 0.250000 0.697648
O O2 0.416917 0.010187 0.754674
O O3 0.485184 0.059790 0.655092
O O4 0.363305 0.015938 0.644110
O O5 0.029589 0.250000 0.110417
O O6 0.984814 0.500816 0.149111
O O7 0.073937 0.495977 0.067681
O O8 0.960515 0.413599 0.039187
O O9 0.250000 0.460970 0.905168
O O10 0.170739 0.250000 0.934863
O O11 0.138202 0.461563 0.859844
O O12 0.155546 0.509254 0.977991
O O13 0.385187 0.750000 0.518353
O O14 0.426560 0.940338 0.435621
O O15 0.459943 0.964662 0.547519
O O16 0.342080 0.012346 0.524315
O O17 0.062827 0.250000 0.822806
O O18 0.613506 0.250000 0.972752
O O19 0.980864 0.750000 0.434438
O O20 0.250000 0.025041 0.602911
O O21 0.175438 0.250000 0.584072
#
# Coordination Sequence:
#
# PCOD8246186 Si02
#       8
#     8   8   8   8   8   8   8   8
#     4   8  14  25  40  56  75 102 136 167 192 224
#     4   9  16  26  40  57  77  99 124 159 202 241
#     4   9  17  27  38  55  80 107 133 161 192 225
#     4   9  15  23  38  57  75  96 125 164 205 240
#     4   9  16  26  40  57  78 105 136 166 192 224
#     4   9  16  26  41  58  74  96 128 163 198 234
#     4   8  14  25  39  55  75  99 127 160 201 243
#     4   9  17  28  40  54  76 107 139 168 198 233
#
# _framework density 14.810230000000001
#
# number of rings (size 3 to 8) (size 9 to 14) (size 15 to 20)
#    0.000    3.250    0.000    1.875    0.000    4.500 
#    0.000    5.000    0.000    0.000    0.000    5.250 
#    0.000    1.000    0.000    9.250    0.000    3.875 
#
# Total GULP energy -792891.236245 kJ/mol
# GULP energy per Si atom -12388.925566 kJ/mol
# Density = 1.477652 g / cm^3
# Si number density = 14.810230 Si / 1000 Ang^3
#
#
#
# Elastic Constant Matrix: (Units=GPa)
#
#
# Indices 1 2 3 4 5 6 
#
# 1 62.6454 31.5311 69.0614 0.0000 0.0000 0.0000
# 2 31.5311 53.0293 33.5576 0.0000 0.0000 0.0000
# 3 69.0614 33.5576 86.9129 0.0000 0.0000 0.0000
# 4 0.0000 0.0000 0.0000 15.7003 0.0000 0.0000
# 5 0.0000 0.0000 0.0000 0.0000 17.1443 0.0000
# 6 0.0000 0.0000 0.0000 0.0000 0.0000 20.0850
#
#
#
# Elastic Compliance Matrix: (Units=1/GPa)
#
#
# Indices 1 2 3 4 5 6 
#
# 1 0.139316 -0.016918 -0.104169 0.000000 0.000000 0.000000
# 2 -0.016918 0.027009 0.003014 0.000000 0.000000 0.000000
# 3 -0.104169 0.003014 0.093115 0.000000 0.000000 0.000000
# 4 0.000000 0.000000 0.000000 0.063693 0.000000 0.000000
# 5 0.000000 0.000000 0.000000 0.000000 0.058329 0.000000
# 6 0.000000 0.000000 0.000000 0.000000 0.000000 0.049789
#
#
# Mechanical properties :
#
#
# Convention : Reuss Voigt Hill
#
# Bulk Modulus (GPa) = 42.92652 52.32086 47.62369
# Shear Modulus (GPa) = 7.40566 15.14841 11.27703
#
# Velocity S-wave (km/s) = 2.23858 3.20165 2.76241
# Velocity P-wave (km/s) = 5.97737 7.00511 6.51155
#
# Compressibility (1/GPa) = 0.02329562
#
# Stress axis : x y z
#
# Youngs Moduli (GPa) = 7.17795 37.02455 10.73939
#
# Poissons Ratio (x) = 0.62636 1.11871
# Poissons Ratio (y) = 0.12143 -0.03237
# Poissons Ratio (z) = 0.74772 -0.11161
#
# Static dielectric constant tensor:
#      x y z
#    x 2.831710 0.000000 0.000000 
#    y 0.000000 2.877370 0.000000 
#    z 0.000000 0.000000 2.939250 
# 
# 
# High freq. dielectric constant tensor:
#      x y z
#    x 1.538070 0.000000 0.000000 
#    y 0.000000 1.564250 0.000000 
#    z 0.000000 0.000000 1.541020 
# 
# From -- ./inp_files/31074.got.cif
#   From: 2010.03.12/outbox.cif.g09.slc.cpg/sg59_16_cif.got.tgz:31074.got - 2010.04.16 16:29:54.
