data_PCOD8246732
_publ_section_title
;
Structure prediction by ZEFSAII (Michael W. Deem and Ramdas Pophale) SiO2 
 PCOD8246732
Probable space group: P B C N
;
_chemical_formula_sum "Si O2"
_cell_formula_units_Z 64
_cell_length_a 9.871974
_cell_length_b 14.049133
_cell_length_c 20.420079
_cell_angle_alpha 90.000000
_cell_angle_beta 90.000000
_cell_angle_gamma 90.000000
_cell_volume 2832.115394
_symmetry_space_group_name_H-M "P B C N"
_symmetry_group_IT_number 60
_symmetry_cell_setting 'orthorhombic'
loop_
_space_group_symop_operation_xyz
x,y,z
1/2-x,1/2-y,1/2+z
1/2+x,1/2-y,-z
-x,y,1/2-z
-x,-y,-z
1/2+x,1/2+y,1/2-z
1/2-x,1/2+y,z
x,-y,1/2+z
loop_
_atom_site_type_symbol
_atom_site_label
_atom_site_fract_x
_atom_site_fract_y
_atom_site_fract_z
Si Si1 0.782774 0.170772 0.380353
Si Si2 0.964555 0.749400 0.319241
Si Si3 0.597744 0.932534 0.067893
Si Si4 0.801275 0.793747 0.028110
Si Si5 0.679254 0.874249 0.625809
Si Si6 0.690165 0.981677 0.433274
Si Si7 0.964435 0.907369 0.674682
Si Si8 0.019072 0.086013 0.583193
O O1 0.693633 0.228885 0.328354
O O2 0.768948 0.221086 0.451460
O O3 0.932796 0.173636 0.350547
O O4 0.728371 0.061606 0.379871
O O5 0.010429 0.826045 0.370686
O O6 0.000000 0.795179 0.250000
O O7 0.054574 0.654718 0.328127
O O8 0.663548 0.014288 0.112047
O O9 0.676119 0.831904 0.073278
O O10 0.438843 0.916029 0.087706
O O11 0.626978 0.961169 0.993302
O O12 0.833262 0.689580 0.058798
O O13 0.916485 0.880117 0.025273
O O14 0.816143 0.861364 0.667726
O O15 0.827559 0.920539 0.445644
O O16 0.000000 0.936906 0.750000
O O17 0.974206 0.993468 0.622704
#
# Coordination Sequence:
#
# PCOD8246732 Si02
#       8
#     8   8   8   8   8   8   8   8
#     4  10  22  38  59  91 123 158 212 260 311 391
#     4  11  23  41  60  87 123 168 216 260 309 381
#     4  10  19  38  58  89 129 156 195 256 324 383
#     4  10  23  38  61  98 125 159 211 260 336 378
#     4  11  23  38  64  88 124 168 201 263 325 378
#     4   9  20  35  59  87 121 157 198 254 318 381
#     4  11  23  41  63  90 123 173 216 259 317 377
#     4  10  22  39  64  90 122 164 214 265 318 379
#
# _framework density 22.597947999999999
#
# number of rings (size 3 to 8) (size 9 to 14) (size 15 to 20)
#    0.000    1.750    2.500    1.125    3.500    3.500 
#    0.000    0.000    0.000    0.750    0.000    0.000 
#    0.000    0.000    0.000    0.000    0.000    0.000 
#
# Total GULP energy -792957.040036 kJ/mol
# GULP energy per Si atom -12389.953751 kJ/mol
# Density = 2.254651 g / cm^3
# Si number density = 22.597948 Si / 1000 Ang^3
#
#
#
# Elastic Constant Matrix: (Units=GPa)
#
#
# Indices 1 2 3 4 5 6 
#
# 1 135.3853 0.0439 19.3695 0.0000 0.0000 0.0000
# 2 0.0439 25.2992 1.3857 0.0000 0.0000 0.0000
# 3 19.3695 1.3857 61.7846 0.0000 0.0000 0.0000
# 4 0.0000 0.0000 0.0000 -19.9040 0.0000 0.0000
# 5 0.0000 0.0000 0.0000 0.0000 29.4773 0.0000
# 6 0.0000 0.0000 0.0000 0.0000 0.0000 17.3944
#
#
#
# Elastic Compliance Matrix: (Units=1/GPa)
#
#
# Indices 1 2 3 4 5 6 
#
# 1 0.007734 0.000120 -0.002427 0.000000 0.000000 0.000000
# 2 0.000120 0.039577 -0.000925 0.000000 0.000000 0.000000
# 3 -0.002427 -0.000925 0.016967 0.000000 0.000000 0.000000
# 4 0.000000 0.000000 0.000000 -0.050241 0.000000 0.000000
# 5 0.000000 0.000000 0.000000 0.000000 0.033924 0.000000
# 6 0.000000 0.000000 0.000000 0.000000 0.000000 0.057490
#
#
# Mechanical properties :
#
#
# Convention : Reuss Voigt Hill
#
# Bulk Modulus (GPa) = 17.29730 29.34079 23.31905
# Shear Modulus (GPa) = 38.11351 18.83821 28.47586
#
# Velocity S-wave (km/s) = 4.11127 2.89039 3.55365
# Velocity P-wave (km/s) = 5.49615 4.91438 5.21339
#
# Compressibility (1/GPa) = 0.05781248
#
# Stress axis : x y z
#
# Youngs Moduli (GPa) = 129.30688 25.26691 58.93820
#
# Poissons Ratio (x) = -0.00302 0.14305
# Poissons Ratio (y) = -0.01546 0.05452
# Poissons Ratio (z) = 0.31385 0.02337
#
# Static dielectric constant tensor:
#      x y z
#    x 4.757730 0.000000 0.000000 
#    y 0.000000 3.999310 0.000000 
#    z 0.000000 0.000000 2.477330 
# 
# 
# High freq. dielectric constant tensor:
#      x y z
#    x 1.912390 0.000000 0.000000 
#    y 0.000000 1.879960 0.000000 
#    z 0.000000 0.000000 1.855230 
# 
# From -- ./inp_files/24080.got.cif
#   From: 2010.03.12/outbox.cif.g09.slc.cpg/sg60_13_cif.got.tgz:24080.got - 2010.04.10 18:46:24.
