data_PCOD8246501
_publ_section_title
;
Structure prediction by ZEFSAII (Michael W. Deem and Ramdas Pophale) SiO2 
 PCOD8246501
Probable space group: P B C N
;
_chemical_formula_sum "Si O2"
_cell_formula_units_Z 44
_cell_length_a 11.623688
_cell_length_b 11.424147
_cell_length_c 17.361211
_cell_angle_alpha 90.000000
_cell_angle_beta 90.000000
_cell_angle_gamma 90.000000
_cell_volume 2305.407716
_symmetry_space_group_name_H-M "P B C N"
_symmetry_group_IT_number 60
_symmetry_cell_setting 'orthorhombic'
loop_
_space_group_symop_operation_xyz
x,y,z
1/2-x,1/2-y,1/2+z
1/2+x,1/2-y,-z
-x,y,1/2-z
-x,-y,-z
1/2+x,1/2+y,1/2-z
1/2-x,1/2+y,z
x,-y,1/2+z
loop_
_atom_site_type_symbol
_atom_site_label
_atom_site_fract_x
_atom_site_fract_y
_atom_site_fract_z
Si Si1 0.329858 0.761523 0.353677
Si Si2 0.000000 0.880892 0.750000
Si Si3 0.469546 0.556246 0.619424
Si Si4 0.907752 0.494341 0.067998
Si Si5 0.832471 0.062557 0.026981
Si Si6 0.570569 0.213787 0.177164
O O1 0.402553 0.698416 0.287542
O O2 0.397153 0.881644 0.375197
O O3 0.327160 0.689343 0.433320
O O4 0.200805 0.768551 0.316595
O O5 0.060674 0.963027 0.686011
O O6 0.582655 0.520934 0.573246
O O7 0.363133 0.570108 0.562307
O O8 0.486212 0.683425 0.653012
O O9 0.787733 0.497998 0.024679
O O10 0.927703 0.608362 0.118162
O O11 0.000000 0.500000 0.000000
O O12 0.500000 0.163125 0.250000
#
# Coordination Sequence:
#
# PCOD8246501 Si02
#       6
#     8   4   8   8   8   8
#     4  10  22  42  58  85 127 159 200 251 313 356
#     4  10  22  38  64  88 118 162 194 252 302 368
#     4  10  18  39  63  87 112 152 216 239 293 360
#     4  11  23  40  60  90 128 160 199 255 314 358
#     4   9  20  37  64  83 113 163 197 253 290 362
#     4  11  23  38  63  87 122 163 199 255 309 363
#
# _framework density 19.085560999999998
#
# number of rings (size 3 to 8) (size 9 to 14) (size 15 to 20)
#    0.000    1.818    2.727    1.091    1.273    1.455 
#    3.273    0.000    0.000    0.000    0.000    0.000 
#    0.000    0.000    0.000    0.000    0.000    0.000 
#
# Total GULP energy -545219.660511 kJ/mol
# GULP energy per Si atom -12391.355921 kJ/mol
# Density = 1.904212 g / cm^3
# Si number density = 19.085561 Si / 1000 Ang^3
#
#
#
# Elastic Constant Matrix: (Units=GPa)
#
#
# Indices 1 2 3 4 5 6 
#
# 1 82.6566 40.7165 70.3503 0.0000 0.0000 0.0000
# 2 40.7165 102.8371 39.0272 0.0000 0.0000 0.0000
# 3 70.3503 39.0272 115.7997 0.0000 0.0000 0.0000
# 4 0.0000 0.0000 0.0000 19.6353 0.0000 0.0000
# 5 0.0000 0.0000 0.0000 0.0000 34.0892 0.0000
# 6 0.0000 0.0000 0.0000 0.0000 0.0000 18.8160
#
#
#
# Elastic Compliance Matrix: (Units=1/GPa)
#
#
# Indices 1 2 3 4 5 6 
#
# 1 0.027253 -0.005168 -0.014815 0.000000 0.000000 0.000000
# 2 -0.005168 0.012130 -0.000948 0.000000 0.000000 0.000000
# 3 -0.014815 -0.000948 0.017956 0.000000 0.000000 0.000000
# 4 0.000000 0.000000 0.000000 0.050929 0.000000 0.000000
# 5 0.000000 0.000000 0.000000 0.000000 0.029335 0.000000
# 6 0.000000 0.000000 0.000000 0.000000 0.000000 0.053146
#
#
# Mechanical properties :
#
#
# Convention : Reuss Voigt Hill
#
# Bulk Modulus (GPa) = 64.61626 66.83126 65.72376
# Shear Modulus (GPa) = 21.02860 24.58806 22.80833
#
# Velocity S-wave (km/s) = 3.32295 3.59319 3.46071
# Velocity P-wave (km/s) = 6.97512 7.23239 7.10492
#
# Compressibility (1/GPa) = 0.01547598
#
# Stress axis : x y z
#
# Youngs Moduli (GPa) = 36.69259 82.43831 55.69252
#
# Poissons Ratio (x) = 0.42605 0.82509
# Poissons Ratio (y) = 0.18963 0.05282
# Poissons Ratio (z) = 0.54361 0.07819
#
# Static dielectric constant tensor:
#      x y z
#    x 3.677890 0.000000 0.000000 
#    y 0.000000 3.583610 0.000000 
#    z 0.000000 0.000000 3.902250 
# 
# 
# High freq. dielectric constant tensor:
#      x y z
#    x 1.740520 0.000000 0.000000 
#    y 0.000000 1.752140 0.000000 
#    z 0.000000 0.000000 1.744110 
# 
# From -- ./inp_files/19953.got.cif
#   From: 2010.03.12/outbox.cif.g09.slc.cpg/sg60_10_cif.got.tgz:19953.got - 2010.04.10 18:46:24.
