data_PCOD8246035
_publ_section_title
;
Structure prediction by ZEFSAII (Michael W. Deem and Ramdas Pophale) SiO2 
 PCOD8246035
Probable space group: P M M N
;
_chemical_formula_sum "Si O2"
_cell_formula_units_Z 48
_cell_length_a 8.610336
_cell_length_b 14.606358
_cell_length_c 19.539015
_cell_angle_alpha 90.000000
_cell_angle_beta 90.000000
_cell_angle_gamma 90.000000
_cell_volume 2457.336924
_symmetry_space_group_name_H-M "P M M N"
_symmetry_group_IT_number 59
_space_group.IT_coordinate_system_code '2'
_symmetry_cell_setting 'orthorhombic'
loop_
_space_group_symop_operation_xyz
x,y,z
1/2-x,1/2-y,z
1/2+x,-y,-z
-x,1/2+y,-z
-x,-y,-z
1/2+x,1/2+y,-z
1/2-x,y,z
x,1/2-y,z
loop_
_atom_site_type_symbol
_atom_site_label
_atom_site_fract_x
_atom_site_fract_y
_atom_site_fract_z
Si Si1 0.568929 0.480852 0.174789
Si Si2 0.070063 0.071864 0.316530
Si Si3 0.574145 0.642525 0.935121
Si Si4 0.569837 0.250000 0.376989
Si Si5 0.434462 0.350568 0.912616
Si Si6 0.068605 0.559470 0.439145
Si Si7 0.432259 0.250000 0.526089
O O1 0.750000 0.483707 0.194236
O O2 0.466961 0.462669 0.241149
O O3 0.541615 0.402729 0.118829
O O4 0.508840 0.577074 0.143628
O O5 0.250000 0.099221 0.322377
O O6 0.968297 0.160844 0.332628
O O7 0.028110 0.990043 0.368187
O O8 0.750000 0.605377 0.925129
O O9 0.571218 0.750000 0.921929
O O10 0.509870 0.620257 0.011336
O O11 0.750000 0.250000 0.396590
O O12 0.471522 0.250000 0.446136
O O13 0.250000 0.346514 0.915342
O O14 0.500659 0.250000 0.893127
O O15 0.250000 0.568475 0.451983
O O16 0.000000 0.500000 0.500000
O O17 0.997521 0.660503 0.436516
O O18 0.250000 0.250000 0.534490
#
# Coordination Sequence:
#
# PCOD8246035 Si02
#       7
#     8   8   8   4   8   8   4
#     4  11  22  35  56  85 118 152 193 245 296 350
#     4  11  25  43  62  86 123 162 197 240 299 362
#     4   9  18  34  57  82 111 151 195 239 293 354
#     4  12  24  40  66  94 122 153 196 247 296 352
#     4   8  16  34  58  82 110 148 195 245 297 351
#     4  11  23  41  66  92 122 159 205 254 299 353
#     4  12  24  40  66  96 126 159 198 245 302 362
#
# _framework density 19.533339999999999
#
# number of rings (size 3 to 8) (size 9 to 14) (size 15 to 20)
#    0.000    1.667    1.667    4.500    1.167    2.333 
#    1.500    0.833    0.000    3.500    0.000    0.000 
#    0.000    0.000    0.000    0.000    0.000    0.000 
#
# Total GULP energy -595341.852371 kJ/mol
# GULP energy per Si atom -12402.955258 kJ/mol
# Density = 1.948888 g / cm^3
# Si number density = 19.533340 Si / 1000 Ang^3
#
#
#
# Elastic Constant Matrix: (Units=GPa)
#
#
# Indices 1 2 3 4 5 6 
#
# 1 71.2937 44.4763 24.2397 0.0000 0.0000 0.0000
# 2 44.4763 137.2832 64.6702 0.0000 0.0000 0.0000
# 3 24.2397 64.6702 104.8541 0.0000 0.0000 0.0000
# 4 0.0000 0.0000 0.0000 9.6363 0.0000 0.0000
# 5 0.0000 0.0000 0.0000 0.0000 27.5502 0.0000
# 6 0.0000 0.0000 0.0000 0.0000 0.0000 27.0585
#
#
#
# Elastic Compliance Matrix: (Units=1/GPa)
#
#
# Indices 1 2 3 4 5 6 
#
# 1 0.017625 -0.005343 -0.000779 0.000000 0.000000 0.000000
# 2 -0.005343 0.011887 -0.006096 0.000000 0.000000 0.000000
# 3 -0.000779 -0.006096 0.013477 0.000000 0.000000 0.000000
# 4 0.000000 0.000000 0.000000 0.103774 0.000000 0.000000
# 5 0.000000 0.000000 0.000000 0.000000 0.036297 0.000000
# 6 0.000000 0.000000 0.000000 0.000000 0.000000 0.036957
#
#
# Mechanical properties :
#
#
# Convention : Reuss Voigt Hill
#
# Bulk Modulus (GPa) = 53.90221 64.46704 59.18463
# Shear Modulus (GPa) = 19.94912 24.85198 22.40055
#
# Velocity S-wave (km/s) = 3.19922 3.57078 3.39010
# Velocity P-wave (km/s) = 6.42663 7.07643 6.75934
#
# Compressibility (1/GPa) = 0.01855211
#
# Stress axis : x y z
#
# Youngs Moduli (GPa) = 56.73910 84.12567 74.19982
#
# Poissons Ratio (x) = 0.44948 0.05780
# Poissons Ratio (y) = 0.30315 0.45234
# Poissons Ratio (z) = 0.04420 0.51286
#
# Static dielectric constant tensor:
#      x y z
#    x 3.496340 0.000000 0.000000 
#    y 0.000000 3.938890 0.000000 
#    z 0.000000 0.000000 3.546180 
# 
# 
# High freq. dielectric constant tensor:
#      x y z
#    x 1.753870 0.000000 0.000000 
#    y 0.000000 1.773060 0.000000 
#    z 0.000000 0.000000 1.757710 
# 
# From -- ./inp_files/25593.got.cif
#   From: 2010.03.12/outbox.cif.g09.slc.cpg/sg59_13_cif.got.tgz:25593.got - 2010.04.16 16:29:54.
