data_PCOD8246405
_publ_section_title
;
Structure prediction by ZEFSAII (Michael W. Deem and Ramdas Pophale) SiO2 
 PCOD8246405
Probable space group: P B C N
;
_chemical_formula_sum "Si O2"
_cell_formula_units_Z 60
_cell_length_a 13.348694
_cell_length_b 12.456310
_cell_length_c 19.195282
_cell_angle_alpha 90.000000
_cell_angle_beta 90.000000
_cell_angle_gamma 90.000000
_cell_volume 3191.704547
_symmetry_space_group_name_H-M "P B C N"
_symmetry_group_IT_number 60
_symmetry_cell_setting 'orthorhombic'
loop_
_space_group_symop_operation_xyz
x,y,z
1/2-x,1/2-y,1/2+z
1/2+x,1/2-y,-z
-x,y,1/2-z
-x,-y,-z
1/2+x,1/2+y,1/2-z
1/2-x,1/2+y,z
x,-y,1/2+z
loop_
_atom_site_type_symbol
_atom_site_label
_atom_site_fract_x
_atom_site_fract_y
_atom_site_fract_z
Si Si1 0.598730 0.672221 0.917497
Si Si2 0.424348 0.793374 0.988719
Si Si3 0.416504 0.541361 0.140940
Si Si4 0.623813 0.595170 0.064184
Si Si5 0.325518 0.991272 0.440195
Si Si6 0.256259 0.658965 0.051247
Si Si7 0.500000 0.684808 0.250000
Si Si8 0.568714 0.804727 0.116053
O O1 0.497892 0.738537 0.932541
O O2 0.591088 0.589218 0.852009
O O3 0.691166 0.753029 0.906371
O O4 0.617199 0.587266 0.980721
O O5 0.393152 0.907182 0.957812
O O6 0.328122 0.717902 0.996108
O O7 0.471161 0.807408 0.065917
O O8 0.519396 0.564835 0.099601
O O9 0.318256 0.587966 0.104794
O O10 0.420087 0.602764 0.215080
O O11 0.715744 0.521739 0.089211
O O12 0.646953 0.719951 0.081943
O O13 0.319647 0.917686 0.509223
O O14 0.380676 0.921913 0.380314
O O15 0.545698 0.765589 0.193628
#
# Coordination Sequence:
#
# PCOD8246405 Si02
#       8
#     8   8   8   8   8   8   4   8
#     4  11  20  32  53  89 116 143 184 244 295 341
#     4  11  20  34  55  89 122 146 182 251 305 344
#     4  11  21  38  57  78 112 157 196 231 284 333
#     4  10  18  32  55  83 112 143 184 240 288 342
#     4  12  20  32  59  92 120 146 182 248 319 338
#     4  12  19  32  57  89 119 144 187 243 296 354
#     4  10  22  42  62  72 114 172 202 224 264 364
#     4  10  21  37  56  81 117 154 197 228 284 353
#
# _framework density 18.798732000000001
#
# number of rings (size 3 to 8) (size 9 to 14) (size 15 to 20)
#    0.000    1.067    9.333    1.600    0.000    0.000 
#    0.000    2.667    0.000    0.800    0.000    0.000 
#    0.000    0.000    0.000    0.000    0.000    0.000 
#
# Total GULP energy -743683.999273 kJ/mol
# GULP energy per Si atom -12394.733321 kJ/mol
# Density = 1.875595 g / cm^3
# Si number density = 18.798732 Si / 1000 Ang^3
#
#
#
# Elastic Constant Matrix: (Units=GPa)
#
#
# Indices 1 2 3 4 5 6 
#
# 1 87.5227 61.4123 24.2499 0.0000 0.0000 0.0000
# 2 61.4123 135.8985 35.9684 0.0000 0.0000 0.0000
# 3 24.2499 35.9684 65.3571 0.0000 0.0000 0.0000
# 4 0.0000 0.0000 0.0000 27.3278 0.0000 0.0000
# 5 0.0000 0.0000 0.0000 0.0000 10.8877 0.0000
# 6 0.0000 0.0000 0.0000 0.0000 0.0000 43.4447
#
#
#
# Elastic Compliance Matrix: (Units=1/GPa)
#
#
# Indices 1 2 3 4 5 6 
#
# 1 0.017057 -0.007062 -0.002443 0.000000 0.000000 0.000000
# 2 -0.007062 0.011537 -0.003729 0.000000 0.000000 0.000000
# 3 -0.002443 -0.003729 0.018259 0.000000 0.000000 0.000000
# 4 0.000000 0.000000 0.000000 0.036593 0.000000 0.000000
# 5 0.000000 0.000000 0.000000 0.000000 0.091847 0.000000
# 6 0.000000 0.000000 0.000000 0.000000 0.000000 0.023018
#
#
# Mechanical properties :
#
#
# Convention : Reuss Voigt Hill
#
# Bulk Modulus (GPa) = 49.05180 59.11550 54.08365
# Shear Modulus (GPa) = 21.59157 27.47523 24.53340
#
# Velocity S-wave (km/s) = 3.39273 3.82717 3.61648
# Velocity P-wave (km/s) = 6.44183 7.14454 6.80227
#
# Compressibility (1/GPa) = 0.02038661
#
# Stress axis : x y z
#
# Youngs Moduli (GPa) = 58.62557 86.68119 54.76768
#
# Poissons Ratio (x) = 0.61212 0.13377
# Poissons Ratio (y) = 0.41400 0.20422
# Poissons Ratio (z) = 0.14320 0.32322
#
# Static dielectric constant tensor:
#      x y z
#    x 3.469240 0.000000 0.000000 
#    y 0.000000 3.838390 0.000000 
#    z 0.000000 0.000000 3.131890 
# 
# 
# High freq. dielectric constant tensor:
#      x y z
#    x 1.732850 0.000000 0.000000 
#    y 0.000000 1.754720 0.000000 
#    z 0.000000 0.000000 1.670480 
# 
# From -- ./inp_files/20621.got.cif
#   From: 2010.03.12/outbox.cif.g09.slc.cpg/sg60_11_cif.got.tgz:20621.got - 2010.04.10 18:46:24.
