data_PCOD8246779
_publ_section_title
;
Structure prediction by ZEFSAII (Michael W. Deem and Ramdas Pophale) SiO2 
 PCOD8246779
Probable space group: P B C N
;
_chemical_formula_sum "Si O2"
_cell_formula_units_Z 40
_cell_length_a 11.095620
_cell_length_b 13.258718
_cell_length_c 13.991107
_cell_angle_alpha 90.000000
_cell_angle_beta 90.000000
_cell_angle_gamma 90.000000
_cell_volume 2058.283471
_symmetry_space_group_name_H-M "P B C N"
_symmetry_group_IT_number 60
_symmetry_cell_setting 'orthorhombic'
loop_
_space_group_symop_operation_xyz
x,y,z
1/2-x,1/2-y,1/2+z
1/2+x,1/2-y,-z
-x,y,1/2-z
-x,-y,-z
1/2+x,1/2+y,1/2-z
1/2-x,1/2+y,z
x,-y,1/2+z
loop_
_atom_site_type_symbol
_atom_site_label
_atom_site_fract_x
_atom_site_fract_y
_atom_site_fract_z
Si Si1 0.467170 0.696406 0.145370
Si Si2 0.859170 0.767990 0.259157
Si Si3 0.806649 0.624080 0.893941
Si Si4 0.714539 0.255865 0.564034
Si Si5 0.276584 0.106403 0.097642
O O1 0.500000 0.658878 0.250000
O O2 0.417560 0.811985 0.150233
O O3 0.587474 0.691100 0.083634
O O4 0.368790 0.618279 0.103201
O O5 0.809096 0.857086 0.326569
O O6 0.791541 0.770470 0.157667
O O7 0.835288 0.661839 0.311383
O O8 0.000000 0.787236 0.250000
O O9 0.829250 0.505612 0.898784
O O10 0.789180 0.664741 0.001249
O O11 0.685308 0.154787 0.503596
#
# Coordination Sequence:
#
# PCOD8246779 Si02
#       5
#     8   8   8   8   8
#     4  10  19  42  62  80 123 158 190 240 296 352
#     4  10  22  42  60  84 125 156 191 243 298 346
#     4  10  24  38  60  92 115 151 203 241 290 349
#     4  10  21  41  62  82 121 162 188 241 301 344
#     4  10  24  38  60  92 115 151 203 241 290 349
#
# _framework density 19.433669999999999
#
# number of rings (size 3 to 8) (size 9 to 14) (size 15 to 20)
#    0.000    2.400    4.000    0.000   11.200    4.800 
#    0.000    0.000    0.000    0.000    0.000    0.000 
#    0.000    0.000    0.000    0.000    0.000    0.000 
#
# Total GULP energy -495839.871472 kJ/mol
# GULP energy per Si atom -12395.996787 kJ/mol
# Density = 1.938944 g / cm^3
# Si number density = 19.433670 Si / 1000 Ang^3
#
#
#
# Elastic Constant Matrix: (Units=GPa)
#
#
# Indices 1 2 3 4 5 6 
#
# 1 61.1502 -43.9990 3.9227 0.0000 0.0000 0.0000
# 2 -43.9990 78.2395 6.0313 0.0000 0.0000 0.0000
# 3 3.9227 6.0313 106.2446 0.0000 0.0000 0.0000
# 4 0.0000 0.0000 0.0000 5.7572 0.0000 0.0000
# 5 0.0000 0.0000 0.0000 0.0000 32.2032 0.0000
# 6 0.0000 0.0000 0.0000 0.0000 0.0000 11.1192
#
#
#
# Elastic Compliance Matrix: (Units=1/GPa)
#
#
# Indices 1 2 3 4 5 6 
#
# 1 0.027854 0.015813 -0.001926 0.000000 0.000000 0.000000
# 2 0.015813 0.021814 -0.001822 0.000000 0.000000 0.000000
# 3 -0.001926 -0.001822 0.009587 0.000000 0.000000 0.000000
# 4 0.000000 0.000000 0.000000 0.173697 0.000000 0.000000
# 5 0.000000 0.000000 0.000000 0.000000 0.031053 0.000000
# 6 0.000000 0.000000 0.000000 0.000000 0.000000 0.089934
#
#
# Mechanical properties :
#
#
# Convention : Reuss Voigt Hill
#
# Bulk Modulus (GPa) = 11.99265 19.72714 15.85989
# Shear Modulus (GPa) = 13.98189 28.46121 21.22155
#
# Velocity S-wave (km/s) = 2.68520 3.83107 3.30813
# Velocity P-wave (km/s) = 3.97469 5.45367 4.77183
#
# Compressibility (1/GPa) = 0.08338442
#
# Stress axis : x y z
#
# Youngs Moduli (GPa) = 35.90099 45.84159 104.31010
#
# Poissons Ratio (x) = -0.72488 0.20091
# Poissons Ratio (y) = -0.56769 0.19007
# Poissons Ratio (z) = 0.06915 0.08353
#
# Static dielectric constant tensor:
#      x y z
#    x 3.599220 0.000000 0.000000 
#    y 0.000000 3.234750 0.000000 
#    z 0.000000 0.000000 3.679570 
# 
# 
# High freq. dielectric constant tensor:
#      x y z
#    x 1.760320 0.000000 0.000000 
#    y 0.000000 1.727240 0.000000 
#    z 0.000000 0.000000 1.773090 
# 
# From -- ./inp_files/15925.got.cif
#   From: 2010.03.12/outbox.cif.g09.slc.cpg/sg60_8_cif.got.tgz:15925.got - 2010.04.10 18:46:24.
