data_PCOD8246191
_publ_section_title
;
Structure prediction by ZEFSAII (Michael W. Deem and Ramdas Pophale) SiO2 
 PCOD8246191
Probable space group: P M M N
;
_chemical_formula_sum "Si O2"
_cell_formula_units_Z 64
_cell_length_a 19.080270
_cell_length_b 9.774167
_cell_length_c 21.044449
_cell_angle_alpha 90.000000
_cell_angle_beta 90.000000
_cell_angle_gamma 90.000000
_cell_volume 3924.658114
_symmetry_space_group_name_H-M "P M M N"
_symmetry_group_IT_number 59
_space_group.IT_coordinate_system_code '2'
_symmetry_cell_setting 'orthorhombic'
loop_
_space_group_symop_operation_xyz
x,y,z
1/2-x,1/2-y,z
1/2+x,-y,-z
-x,1/2+y,-z
-x,-y,-z
1/2+x,1/2+y,-z
1/2-x,y,z
x,1/2-y,z
loop_
_atom_site_type_symbol
_atom_site_label
_atom_site_fract_x
_atom_site_fract_y
_atom_site_fract_z
Si Si1 0.674421 0.411783 0.607711
Si Si2 0.330606 0.592086 0.905326
Si Si3 0.058470 0.591944 0.800670
Si Si4 0.330506 0.092836 0.023438
Si Si5 0.866690 0.098540 0.741438
Si Si6 0.476633 0.400145 0.693409
Si Si7 0.970962 0.411655 0.556988
Si Si8 0.904193 0.592530 0.847485
O O1 0.750000 0.453060 0.577193
O O2 0.665042 0.250000 0.612717
O O3 0.673185 0.465348 0.680479
O O4 0.609226 0.465531 0.566394
O O5 0.250000 0.564982 0.886779
O O6 0.343824 0.750000 0.923274
O O7 0.377636 0.548037 0.845676
O O8 0.353552 0.501791 0.965150
O O9 0.062710 0.750000 0.781476
O O10 0.067315 0.508483 0.734833
O O11 0.986331 0.560040 0.837984
O O12 0.250000 0.064441 0.043314
O O13 0.340389 0.250000 0.002748
O O14 0.381954 0.054859 0.081168
O O15 0.838258 0.250000 0.759736
O O16 0.947303 0.109648 0.723279
O O17 0.856251 0.997536 0.800584
O O18 0.440764 0.250000 0.697425
O O19 0.483117 0.445064 0.619688
O O20 0.973627 0.250000 0.541213
O O21 0.000000 0.500000 0.500000
O O22 0.887315 0.750000 0.832493
#
# Coordination Sequence:
#
# PCOD8246191 Si02
#       8
#     8   8   8   8   8   8   8   8
#     4   8  14  26  44  65  89 117 150 185 215 248
#     4   9  18  32  47  62  81 105 137 181 227 262
#     4   9  17  29  46  66  85 107 137 175 217 256
#     4   9  18  31  43  56  80 114 145 171 206 257
#     4   8  14  25  41  61  84 110 140 172 206 246
#     4   8  15  28  44  64  89 112 136 169 208 249
#     4   9  17  29  47  70  94 121 151 181 215 256
#     4   9  17  28  41  60  87 114 139 170 209 253
#
# _framework density 16.307153
#
# number of rings (size 3 to 8) (size 9 to 14) (size 15 to 20)
#    0.000    3.375    0.000    1.500    0.000    2.500 
#    0.000    1.875    0.000    1.875    0.000    5.250 
#    0.000    0.000    0.000    0.000    0.000    0.000 
#
# Total GULP energy -793177.272185 kJ/mol
# GULP energy per Si atom -12393.394878 kJ/mol
# Density = 1.627004 g / cm^3
# Si number density = 16.307153 Si / 1000 Ang^3
#
#
#
# Elastic Constant Matrix: (Units=GPa)
#
#
# Indices 1 2 3 4 5 6 
#
# 1 71.0635 37.8820 59.2949 0.0000 0.0000 0.0000
# 2 37.8820 68.6409 70.5633 0.0000 0.0000 0.0000
# 3 59.2949 70.5633 131.6422 0.0000 0.0000 0.0000
# 4 0.0000 0.0000 0.0000 33.8847 0.0000 0.0000
# 5 0.0000 0.0000 0.0000 0.0000 17.7741 0.0000
# 6 0.0000 0.0000 0.0000 0.0000 0.0000 14.9861
#
#
#
# Elastic Compliance Matrix: (Units=1/GPa)
#
#
# Indices 1 2 3 4 5 6 
#
# 1 0.023176 -0.004586 -0.007981 0.000000 0.000000 0.000000
# 2 -0.004586 0.033357 -0.015814 0.000000 0.000000 0.000000
# 3 -0.007981 -0.015814 0.019668 0.000000 0.000000 0.000000
# 4 0.000000 0.000000 0.000000 0.029512 0.000000 0.000000
# 5 0.000000 0.000000 0.000000 0.000000 0.056262 0.000000
# 6 0.000000 0.000000 0.000000 0.000000 0.000000 0.066728
#
#
# Mechanical properties :
#
#
# Convention : Reuss Voigt Hill
#
# Bulk Modulus (GPa) = 51.44532 67.42523 59.43528
# Shear Modulus (GPa) = 17.12658 20.23609 18.68134
#
# Velocity S-wave (km/s) = 3.24427 3.52651 3.38833
# Velocity P-wave (km/s) = 6.75647 7.61699 7.19960
#
# Compressibility (1/GPa) = 0.01943811
#
# Stress axis : x y z
#
# Youngs Moduli (GPa) = 43.14879 29.97878 50.84449
#
# Poissons Ratio (x) = 0.13749 0.40577
# Poissons Ratio (y) = 0.19789 0.80407
# Poissons Ratio (z) = 0.34435 0.47409
#
# Static dielectric constant tensor:
#      x y z
#    x 3.027710 0.000000 0.000000 
#    y 0.000000 3.219130 0.000000 
#    z 0.000000 0.000000 3.035070 
# 
# 
# High freq. dielectric constant tensor:
#      x y z
#    x 1.609970 0.000000 0.000000 
#    y 0.000000 1.616830 0.000000 
#    z 0.000000 0.000000 1.614750 
# 
# From -- ./inp_files/30994.got.cif
#   From: 2010.03.12/outbox.cif.g09.slc.cpg/sg59_16_cif.got.tgz:30994.got - 2010.04.16 16:29:54.
