data_PCOD8246229
_publ_section_title
;
Structure prediction by ZEFSAII (Michael W. Deem and Ramdas Pophale) SiO2 
 PCOD8246229
Probable space group: P M M N
;
_chemical_formula_sum "Si O2"
_cell_formula_units_Z 56
_cell_length_a 9.589769
_cell_length_b 19.764147
_cell_length_c 17.443469
_cell_angle_alpha 90.000000
_cell_angle_beta 90.000000
_cell_angle_gamma 90.000000
_cell_volume 3306.123550
_symmetry_space_group_name_H-M "P M M N"
_symmetry_group_IT_number 59
_space_group.IT_coordinate_system_code '2'
_symmetry_cell_setting 'orthorhombic'
loop_
_space_group_symop_operation_xyz
x,y,z
1/2-x,1/2-y,z
1/2+x,-y,-z
-x,1/2+y,-z
-x,-y,-z
1/2+x,1/2+y,-z
1/2-x,y,z
x,1/2-y,z
loop_
_atom_site_type_symbol
_atom_site_label
_atom_site_fract_x
_atom_site_fract_y
_atom_site_fract_z
Si Si1 0.912167 0.827250 0.612211
Si Si2 0.416167 0.674618 0.178697
Si Si3 0.084787 0.441432 0.271804
Si Si4 0.409000 0.594019 0.034894
Si Si5 0.584047 0.087010 0.681522
Si Si6 0.409483 0.055293 0.099610
Si Si7 0.411956 0.672170 0.462929
O O1 0.750000 0.839408 0.593337
O O2 0.939678 0.750000 0.637986
O O3 0.963774 0.875960 0.680514
O O4 0.999639 0.846089 0.537519
O O5 0.250000 0.672293 0.181916
O O6 0.473662 0.750000 0.191012
O O7 0.465563 0.648789 0.095557
O O8 0.477860 0.627781 0.246010
O O9 0.250000 0.446449 0.266794
O O10 0.028902 0.509750 0.313278
O O11 0.027798 0.435420 0.185048
O O12 0.250000 0.607933 0.010848
O O13 0.423411 0.522439 0.076683
O O14 0.501147 0.600702 0.958602
O O15 0.750000 0.089844 0.683654
O O16 0.531836 0.122937 0.603865
O O17 0.250000 0.079981 0.095215
O O18 0.250000 0.659025 0.481380
O O19 0.435471 0.750000 0.437563
#
# Coordination Sequence:
#
# PCOD8246229 Si02
#       7
#     8   8   8   8   8   8   8
#     4   9  18  32  48  64  85 117 153 185 220 262
#     4   9  15  24  41  66  94 119 145 180 220 263
#     4   9  16  28  46  66  88 115 150 188 220 256
#     4   9  16  27  44  66  89 114 145 178 216 261
#     4   9  15  25  43  68  92 114 145 183 221 260
#     4   9  16  28  46  65  86 114 147 182 218 256
#     4   9  17  29  46  68  92 116 143 178 221 267
#
# _framework density 16.938265999999999
#
# number of rings (size 3 to 8) (size 9 to 14) (size 15 to 20)
#    0.000    3.000    1.429    0.429    0.000    2.286 
#    0.000    1.429    0.000    3.000    0.000    0.000 
#    0.000    0.000    0.000    0.000    0.000    0.000 
#
# Total GULP energy -694231.032204 kJ/mol
# GULP energy per Si atom -12396.982718 kJ/mol
# Density = 1.689971 g / cm^3
# Si number density = 16.938266 Si / 1000 Ang^3
#
#
#
# Elastic Constant Matrix: (Units=GPa)
#
#
# Indices 1 2 3 4 5 6 
#
# 1 32.5121 22.7710 41.0066 0.0000 0.0000 0.0000
# 2 22.7710 101.3088 77.1687 0.0000 0.0000 0.0000
# 3 41.0066 77.1687 157.2037 0.0000 0.0000 0.0000
# 4 0.0000 0.0000 0.0000 30.9291 0.0000 0.0000
# 5 0.0000 0.0000 0.0000 0.0000 25.7526 0.0000
# 6 0.0000 0.0000 0.0000 0.0000 0.0000 12.0724
#
#
#
# Elastic Compliance Matrix: (Units=1/GPa)
#
#
# Indices 1 2 3 4 5 6 
#
# 1 0.046071 -0.001919 -0.011076 0.000000 0.000000 0.000000
# 2 -0.001919 0.015846 -0.007278 0.000000 0.000000 0.000000
# 3 -0.011076 -0.007278 0.012823 0.000000 0.000000 0.000000
# 4 0.000000 0.000000 0.000000 0.032332 0.000000 0.000000
# 5 0.000000 0.000000 0.000000 0.000000 0.038831 0.000000
# 6 0.000000 0.000000 0.000000 0.000000 0.000000 0.082834
#
#
# Mechanical properties :
#
#
# Convention : Reuss Voigt Hill
#
# Bulk Modulus (GPa) = 29.24399 63.65746 46.45072
# Shear Modulus (GPa) = 17.81388 23.75605 20.78496
#
# Velocity S-wave (km/s) = 3.24650 3.74907 3.50680
# Velocity P-wave (km/s) = 5.59960 7.51028 6.62419
#
# Compressibility (1/GPa) = 0.03419506
#
# Stress axis : x y z
#
# Youngs Moduli (GPa) = 21.70549 63.10811 77.98522
#
# Poissons Ratio (x) = 0.12108 0.86375
# Poissons Ratio (y) = 0.04165 0.56757
# Poissons Ratio (z) = 0.24041 0.45930
#
# Static dielectric constant tensor:
#      x y z
#    x 2.792510 0.000000 0.000000 
#    y 0.000000 3.248710 0.000000 
#    z 0.000000 0.000000 3.304760 
# 
# 
# High freq. dielectric constant tensor:
#      x y z
#    x 1.601780 0.000000 0.000000 
#    y 0.000000 1.648470 0.000000 
#    z 0.000000 0.000000 1.660760 
# 
# From -- ./inp_files/16007.got.cif
#   From: 2010.03.12/outbox.cif.g09.slc.cpg/sg59_9_cif.got.tgz:16007.got - 2010.04.16 16:29:54.
