data_PCOD8246519
_publ_section_title
;
Structure prediction by ZEFSAII (Michael W. Deem and Ramdas Pophale) SiO2 
 PCOD8246519
Probable space group: P B C N
;
_chemical_formula_sum "Si O2"
_cell_formula_units_Z 48
_cell_length_a 5.000897
_cell_length_b 24.539044
_cell_length_c 21.784201
_cell_angle_alpha 90.000000
_cell_angle_beta 90.000000
_cell_angle_gamma 90.000000
_cell_volume 2673.296838
_symmetry_space_group_name_H-M "P B C N"
_symmetry_group_IT_number 60
_symmetry_cell_setting 'orthorhombic'
loop_
_space_group_symop_operation_xyz
x,y,z
1/2-x,1/2-y,1/2+z
1/2+x,1/2-y,-z
-x,y,1/2-z
-x,-y,-z
1/2+x,1/2+y,1/2-z
1/2-x,1/2+y,z
x,-y,1/2+z
loop_
_atom_site_type_symbol
_atom_site_label
_atom_site_fract_x
_atom_site_fract_y
_atom_site_fract_z
Si Si1 0.509640 0.833598 0.320557
Si Si2 0.073663 0.247723 0.081039
Si Si3 0.263917 0.928063 0.996301
Si Si4 0.922573 0.312653 0.541774
Si Si5 0.488954 0.596637 0.821126
Si Si6 0.266788 0.458571 0.432886
O O1 0.500000 0.817381 0.250000
O O2 0.602574 0.779388 0.355317
O O3 0.211952 0.853551 0.336901
O O4 0.714231 0.882668 0.337008
O O5 0.291130 0.200004 0.071912
O O6 0.787438 0.219642 0.082869
O O7 0.096667 0.292996 0.028213
O O8 0.471803 0.935676 0.052779
O O9 0.969811 0.922652 0.025435
O O10 0.352204 0.876329 0.956346
O O11 0.245767 0.977902 0.948843
O O12 0.500000 0.577820 0.750000
O O13 0.376338 0.546897 0.862920
#
# Coordination Sequence:
#
# PCOD8246519 Si02
#       6
#     8   8   8   8   8   8
#     4  10  20  33  50  73  99 128 161 200 246 294
#     4  10  19  30  47  69  95 127 157 196 240 282
#     4  10  20  32  49  72  99 130 162 199 244 295
#     4  10  19  30  46  70  97 125 159 195 238 285
#     4  10  19  31  50  74  98 125 159 201 248 295
#     4  10  19  32  50  72  99 129 159 199 248 295
#
# _framework density 17.955355999999998
#
# number of rings (size 3 to 8) (size 9 to 14) (size 15 to 20)
#    0.000    2.000    0.000    5.000    0.000    2.667 
#    0.000    0.000    0.000    1.000    0.000    7.000 
#    0.000    0.000    0.000    0.000    0.000    0.000 
#
# Total GULP energy -594985.565661 kJ/mol
# GULP energy per Si atom -12395.532618 kJ/mol
# Density = 1.791449 g / cm^3
# Si number density = 17.955356 Si / 1000 Ang^3
#
#
#
# Elastic Constant Matrix: (Units=GPa)
#
#
# Indices 1 2 3 4 5 6 
#
# 1 77.6240 13.8606 28.3600 0.0000 0.0000 0.0000
# 2 13.8606 74.0648 46.6957 0.0000 0.0000 0.0000
# 3 28.3600 46.6957 91.5105 0.0000 0.0000 0.0000
# 4 0.0000 0.0000 0.0000 24.9450 0.0000 0.0000
# 5 0.0000 0.0000 0.0000 0.0000 22.1934 0.0000
# 6 0.0000 0.0000 0.0000 0.0000 0.0000 19.3461
#
#
#
# Elastic Compliance Matrix: (Units=1/GPa)
#
#
# Indices 1 2 3 4 5 6 
#
# 1 0.014529 0.000177 -0.004593 0.000000 0.000000 0.000000
# 2 0.000177 0.019908 -0.010213 0.000000 0.000000 0.000000
# 3 -0.004593 -0.010213 0.017563 0.000000 0.000000 0.000000
# 4 0.000000 0.000000 0.000000 0.040088 0.000000 0.000000
# 5 0.000000 0.000000 0.000000 0.000000 0.045059 0.000000
# 6 0.000000 0.000000 0.000000 0.000000 0.000000 0.051690
#
#
# Mechanical properties :
#
#
# Convention : Reuss Voigt Hill
#
# Bulk Modulus (GPa) = 43.97408 46.78133 45.37771
# Shear Modulus (GPa) = 22.15572 23.58242 22.86907
#
# Velocity S-wave (km/s) = 3.51655 3.62801 3.57271
# Velocity P-wave (km/s) = 6.40563 6.60763 6.50741
#
# Compressibility (1/GPa) = 0.02274067
#
# Stress axis : x y z
#
# Youngs Moduli (GPa) = 68.82754 50.23165 56.93901
#
# Poissons Ratio (x) = -0.00887 0.26151
# Poissons Ratio (y) = -0.01216 0.58153
# Poissons Ratio (z) = 0.31611 0.51303
#
# Static dielectric constant tensor:
#      x y z
#    x 3.679060 0.000000 0.000000 
#    y 0.000000 3.086070 0.000000 
#    z 0.000000 0.000000 3.179810 
# 
# 
# High freq. dielectric constant tensor:
#      x y z
#    x 1.722640 0.000000 0.000000 
#    y 0.000000 1.671560 0.000000 
#    z 0.000000 0.000000 1.671640 
# 
# From -- ./inp_files/21596.got.cif
#   From: 2010.03.12/outbox.cif.g09.slc.cpg/sg60_11_cif.got.tgz:21596.got - 2010.04.10 18:46:24.
