data_PCOD8246149
_publ_section_title
;
Structure prediction by ZEFSAII (Michael W. Deem and Ramdas Pophale) SiO2 
 PCOD8246149
Probable space group: P M M N
;
_chemical_formula_sum "Si O2"
_cell_formula_units_Z 56
_cell_length_a 25.427876
_cell_length_b 9.309153
_cell_length_c 15.275341
_cell_angle_alpha 90.000000
_cell_angle_beta 90.000000
_cell_angle_gamma 90.000000
_cell_volume 3615.856338
_symmetry_space_group_name_H-M "P M M N"
_symmetry_group_IT_number 59
_space_group.IT_coordinate_system_code '2'
_symmetry_cell_setting 'orthorhombic'
loop_
_space_group_symop_operation_xyz
x,y,z
1/2-x,1/2-y,z
1/2+x,-y,-z
-x,1/2+y,-z
-x,-y,-z
1/2+x,1/2+y,-z
1/2-x,y,z
x,1/2-y,z
loop_
_atom_site_type_symbol
_atom_site_label
_atom_site_fract_x
_atom_site_fract_y
_atom_site_fract_z
Si Si1 0.689954 0.416133 0.760011
Si Si2 0.312654 0.411174 0.408047
Si Si3 0.687613 0.409628 0.430021
Si Si4 0.493535 0.082356 0.090158
Si Si5 0.395372 0.581434 0.098126
Si Si6 0.109133 0.583951 0.900500
Si Si7 0.691194 0.078259 0.236897
O O1 0.750000 0.457261 0.782486
O O2 0.685150 0.250000 0.733907
O O3 0.667876 0.506053 0.678310
O O4 0.656020 0.453110 0.845405
O O5 0.250000 0.412400 0.411179
O O6 0.334934 0.250000 0.404916
O O7 0.335866 0.487599 0.494713
O O8 0.750000 0.400202 0.438510
O O9 0.663712 0.250000 0.442844
O O10 0.673386 0.472860 0.334000
O O11 0.481004 0.250000 0.075127
O O12 0.549986 0.063443 0.138474
O O13 0.444977 0.005501 0.140163
O O14 0.500000 0.000000 0.000000
O O15 0.409438 0.750000 0.097863
O O16 0.385166 0.522806 0.999398
O O17 0.123843 0.750000 0.906244
O O18 0.150931 0.510898 0.834342
O O19 0.750000 0.022629 0.214710
O O20 0.690658 0.250000 0.237040
#
# Coordination Sequence:
#
# PCOD8246149 Si02
#       7
#     8   8   8   8   8   8   8
#     4   9  17  28  41  59  84 111 137 166 202 245
#     4   9  16  25  38  56  78 105 135 166 199 235
#     4   8  13  22  37  56  77 102 131 161 194 233
#     4   9  16  27  43  60  79 105 139 178 212 239
#     4   9  17  28  42  61  84 109 138 171 205 242
#     4   8  14  24  38  58  82 106 134 166 197 232
#     4   8  13  21  36  60  86 108 131 161 197 238
#
# _framework density 15.487341000000001
#
# number of rings (size 3 to 8) (size 9 to 14) (size 15 to 20)
#    0.000    3.429    0.000    2.571    0.000    2.857 
#    0.000    2.857    0.000    4.286    0.000    1.000 
#    0.000    0.000    0.000    0.000    0.000    0.000 
#
# Total GULP energy -693855.181411 kJ/mol
# GULP energy per Si atom -12390.271097 kJ/mol
# Density = 1.545209 g / cm^3
# Si number density = 15.487341 Si / 1000 Ang^3
#
#
#
# Elastic Constant Matrix: (Units=GPa)
#
#
# Indices 1 2 3 4 5 6 
#
# 1 79.7122 34.4267 57.2635 0.0000 0.0000 0.0000
# 2 34.4267 59.7044 40.1874 0.0000 0.0000 0.0000
# 3 57.2635 40.1874 107.6381 0.0000 0.0000 0.0000
# 4 0.0000 0.0000 0.0000 11.4203 0.0000 0.0000
# 5 0.0000 0.0000 0.0000 0.0000 3.7867 0.0000
# 6 0.0000 0.0000 0.0000 0.0000 0.0000 17.1634
#
#
#
# Elastic Compliance Matrix: (Units=1/GPa)
#
#
# Indices 1 2 3 4 5 6 
#
# 1 0.022007 -0.006423 -0.009310 0.000000 0.000000 0.000000
# 2 -0.006423 0.024246 -0.005635 0.000000 0.000000 0.000000
# 3 -0.009310 -0.005635 0.016347 0.000000 0.000000 0.000000
# 4 0.000000 0.000000 0.000000 0.087563 0.000000 0.000000
# 5 0.000000 0.000000 0.000000 0.000000 0.264081 0.000000
# 6 0.000000 0.000000 0.000000 0.000000 0.000000 0.058263
#
#
# Mechanical properties :
#
#
# Convention : Reuss Voigt Hill
#
# Bulk Modulus (GPa) = 50.34253 56.75667 53.54960
# Shear Modulus (GPa) = 9.58101 14.15255 11.86678
#
# Velocity S-wave (km/s) = 2.48994 3.02622 2.77108
# Velocity P-wave (km/s) = 6.39082 6.99552 6.70000
#
# Compressibility (1/GPa) = 0.01986392
#
# Stress axis : x y z
#
# Youngs Moduli (GPa) = 45.43984 41.24368 61.17317
#
# Poissons Ratio (x) = 0.26492 0.56950
# Poissons Ratio (y) = 0.29188 0.34472
# Poissons Ratio (z) = 0.42303 0.23242
#
# Static dielectric constant tensor:
#      x y z
#    x 3.104160 0.000000 0.000000 
#    y 0.000000 2.946760 0.000000 
#    z 0.000000 0.000000 3.087060 
# 
# 
# High freq. dielectric constant tensor:
#      x y z
#    x 1.563090 0.000000 0.000000 
#    y 0.000000 1.573120 0.000000 
#    z 0.000000 0.000000 1.582960 
# 
# From -- ./inp_files/21747.got.cif
#   From: 2010.03.12/outbox.cif.g09.slc.cpg/sg59_11_cif.got.tgz:21747.got - 2010.04.16 16:29:54.
