data_PCOD8246069
_publ_section_title
;
Structure prediction by ZEFSAII (Michael W. Deem and Ramdas Pophale) SiO2 
 PCOD8246069
Probable space group: P M M N
;
_chemical_formula_sum "Si O2"
_cell_formula_units_Z 32
_cell_length_a 11.928529
_cell_length_b 13.664716
_cell_length_c 10.076722
_cell_angle_alpha 90.000000
_cell_angle_beta 90.000000
_cell_angle_gamma 90.000000
_cell_volume 1642.505294
_symmetry_space_group_name_H-M "P M M N"
_symmetry_group_IT_number 59
_space_group.IT_coordinate_system_code '2'
_symmetry_cell_setting 'orthorhombic'
loop_
_space_group_symop_operation_xyz
x,y,z
1/2-x,1/2-y,z
1/2+x,-y,-z
-x,1/2+y,-z
-x,-y,-z
1/2+x,1/2+y,-z
1/2-x,y,z
x,1/2-y,z
loop_
_atom_site_type_symbol
_atom_site_label
_atom_site_fract_x
_atom_site_fract_y
_atom_site_fract_z
Si Si1 0.384104 0.750000 0.215973
Si Si2 0.250000 0.366307 0.779446
Si Si3 0.117639 0.750000 0.524639
Si Si4 0.019525 0.427038 0.382920
Si Si5 0.250000 0.361935 0.483491
Si Si6 0.984635 0.940417 0.133808
O O1 0.250000 0.750000 0.203227
O O2 0.423129 0.750000 0.370768
O O3 0.432113 0.652733 0.145471
O O4 0.250000 0.250000 0.778484
O O5 0.250000 0.412520 0.629687
O O6 0.142140 0.403446 0.858053
O O7 0.250000 0.750000 0.531078
O O8 0.072674 0.842908 0.604120
O O9 0.144260 0.386129 0.393662
O O10 0.000000 0.500000 0.500000
O O11 0.010558 0.480594 0.244921
O O12 0.250000 0.250000 0.520250
O O13 0.000000 0.000000 0.000000
#
# Coordination Sequence:
#
# PCOD8246069 Si02
#       6
#     4   4   4   8   4   8
#     4  11  24  46  68  97 138 179 223 278 342 402
#     4  11  22  45  73  94 129 181 232 278 333 400
#     4  11  24  42  68 103 136 171 227 290 334 390
#     4  12  24  41  68 101 131 173 227 277 335 389
#     4  11  22  41  71 100 135 171 230 290 327 388
#     4  12  28  45  69 101 139 183 224 272 340 409
#
# _framework density 19.482433
#
# number of rings (size 3 to 8) (size 9 to 14) (size 15 to 20)
#    0.000    0.500    7.500    0.000    7.000    1.000 
#    0.000    2.500    0.000    0.000    0.000    0.000 
#    0.000    0.000    0.000    0.000    0.000    0.000 
#
# Total GULP energy -396856.679126 kJ/mol
# GULP energy per Si atom -12401.771223 kJ/mol
# Density = 1.943809 g / cm^3
# Si number density = 19.482433 Si / 1000 Ang^3
#
#
#
# Elastic Constant Matrix: (Units=GPa)
#
#
# Indices 1 2 3 4 5 6 
#
# 1 147.6648 57.3126 50.8009 0.0000 0.0000 0.0000
# 2 57.3126 149.6117 79.7350 0.0000 0.0000 0.0000
# 3 50.8009 79.7350 149.9599 0.0000 0.0000 0.0000
# 4 0.0000 0.0000 0.0000 38.0348 0.0000 0.0000
# 5 0.0000 0.0000 0.0000 0.0000 26.6158 0.0000
# 6 0.0000 0.0000 0.0000 0.0000 0.0000 39.2983
#
#
#
# Elastic Compliance Matrix: (Units=1/GPa)
#
#
# Indices 1 2 3 4 5 6 
#
# 1 0.008204 -0.002319 -0.001546 0.000000 0.000000 0.000000
# 2 -0.002319 0.009982 -0.004522 0.000000 0.000000 0.000000
# 3 -0.001546 -0.004522 0.009597 0.000000 0.000000 0.000000
# 4 0.000000 0.000000 0.000000 0.026292 0.000000 0.000000
# 5 0.000000 0.000000 0.000000 0.000000 0.037572 0.000000
# 6 0.000000 0.000000 0.000000 0.000000 0.000000 0.025446
#
#
# Mechanical properties :
#
#
# Convention : Reuss Voigt Hill
#
# Bulk Modulus (GPa) = 90.83745 91.43705 91.13725
# Shear Modulus (GPa) = 36.35391 38.08232 37.21811
#
# Velocity S-wave (km/s) = 4.32439 4.42600 4.37549
# Velocity P-wave (km/s) = 8.46524 8.55302 8.50925
#
# Compressibility (1/GPa) = 0.01100867
#
# Stress axis : x y z
#
# Youngs Moduli (GPa) = 121.89162 100.17771 104.20138
#
# Poissons Ratio (x) = 0.23227 0.16114
# Poissons Ratio (y) = 0.28262 0.47122
# Poissons Ratio (z) = 0.18849 0.45302
#
# Static dielectric constant tensor:
#      x y z
#    x 3.642020 0.000000 0.000000 
#    y 0.000000 3.769860 0.000000 
#    z 0.000000 0.000000 3.312720 
# 
# 
# High freq. dielectric constant tensor:
#      x y z
#    x 1.778900 0.000000 0.000000 
#    y 0.000000 1.776360 0.000000 
#    z 0.000000 0.000000 1.743010 
# 
# From -- ./inp_files/6874.got.cif
#   From: 2010.03.12/outbox.cif.g09.slc.cpg/sg59_4_cif.got.tgz:6874.got - 2010.04.16 16:29:54.
