data_PCOD8246645
_publ_section_title
;
Structure prediction by ZEFSAII (Michael W. Deem and Ramdas Pophale) SiO2 
 PCOD8246645
Probable space group: P B C N
;
_chemical_formula_sum "Si O2"
_cell_formula_units_Z 48
_cell_length_a 15.474930
_cell_length_b 18.920679
_cell_length_c 8.598946
_cell_angle_alpha 90.000000
_cell_angle_beta 90.000000
_cell_angle_gamma 90.000000
_cell_volume 2517.738567
_symmetry_space_group_name_H-M "P B C N"
_symmetry_group_IT_number 60
_symmetry_cell_setting 'orthorhombic'
loop_
_space_group_symop_operation_xyz
x,y,z
1/2-x,1/2-y,1/2+z
1/2+x,1/2-y,-z
-x,y,1/2-z
-x,-y,-z
1/2+x,1/2+y,1/2-z
1/2-x,1/2+y,z
x,-y,1/2+z
loop_
_atom_site_type_symbol
_atom_site_label
_atom_site_fract_x
_atom_site_fract_y
_atom_site_fract_z
Si Si1 0.406627 0.082679 0.303351
Si Si2 0.258634 0.836804 0.133926
Si Si3 0.000000 0.972540 0.750000
Si Si4 0.408433 0.065544 0.669792
Si Si5 0.500000 0.298580 0.250000
Si Si6 0.835492 0.275791 0.660935
Si Si7 0.911021 0.087809 0.953847
O O1 0.500000 0.108098 0.250000
O O2 0.415348 0.067831 0.485597
O O3 0.337583 0.144912 0.264454
O O4 0.376288 0.012239 0.216783
O O5 0.334347 0.879628 0.222469
O O6 0.219007 0.783908 0.256696
O O7 0.190944 0.892859 0.056811
O O8 0.298053 0.783169 0.009940
O O9 0.942513 0.925141 0.631595
O O10 0.067926 0.019421 0.651738
O O11 0.500000 0.084394 0.750000
O O12 0.566350 0.250167 0.156124
O O13 0.540027 0.344761 0.387298
#
# Coordination Sequence:
#
# PCOD8246645 Si02
#       7
#     8   8   4   8   4   8   8
#     4  10  19  35  58  80 108 151 190 233 287 346
#     4  10  23  38  55  87 117 151 193 246 286 342
#     4   9  18  36  60  86 112 151 186 228 292 357
#     4  10  21  36  55  85 116 146 195 239 294 347
#     4   9  18  38  56  74 112 153 182 238 282 347
#     4  10  21  38  57  81 115 149 194 231 296 343
#     4   9  19  35  58  84 115 146 191 235 287 343
#
# _framework density 19.064729
#
# number of rings (size 3 to 8) (size 9 to 14) (size 15 to 20)
#    0.000    2.333    0.833    2.000    0.000    6.667 
#    3.000    3.333    0.000    0.000    0.000    0.000 
#    0.000    0.000    0.000    0.000    0.000    0.000 
#
# Total GULP energy -594855.860074 kJ/mol
# GULP energy per Si atom -12392.830418 kJ/mol
# Density = 1.902134 g / cm^3
# Si number density = 19.064729 Si / 1000 Ang^3
#
#
#
# Elastic Constant Matrix: (Units=GPa)
#
#
# Indices 1 2 3 4 5 6 
#
# 1 92.3177 43.8751 11.9327 0.0000 0.0000 0.0000
# 2 43.8751 97.5373 22.1019 0.0000 0.0000 0.0000
# 3 11.9327 22.1019 49.2780 0.0000 0.0000 0.0000
# 4 0.0000 0.0000 0.0000 31.9349 0.0000 0.0000
# 5 0.0000 0.0000 0.0000 0.0000 24.0189 0.0000
# 6 0.0000 0.0000 0.0000 0.0000 0.0000 28.5359
#
#
#
# Elastic Compliance Matrix: (Units=1/GPa)
#
#
# Indices 1 2 3 4 5 6 
#
# 1 0.013795 -0.006065 -0.000620 0.000000 0.000000 0.000000
# 2 -0.006065 0.014079 -0.004846 0.000000 0.000000 0.000000
# 3 -0.000620 -0.004846 0.022617 0.000000 0.000000 0.000000
# 4 0.000000 0.000000 0.000000 0.031314 0.000000 0.000000
# 5 0.000000 0.000000 0.000000 0.000000 0.041634 0.000000
# 6 0.000000 0.000000 0.000000 0.000000 0.000000 0.035044
#
#
# Mechanical properties :
#
#
# Convention : Reuss Voigt Hill
#
# Bulk Modulus (GPa) = 36.45879 43.88359 40.17119
# Shear Modulus (GPa) = 26.22118 27.64617 26.93368
#
# Velocity S-wave (km/s) = 3.71263 3.81218 3.76273
# Velocity P-wave (km/s) = 6.12726 6.51499 6.32410
#
# Compressibility (1/GPa) = 0.02742823
#
# Stress axis : x y z
#
# Youngs Moduli (GPa) = 72.49193 71.02964 44.21516
#
# Poissons Ratio (x) = 0.43077 0.02743
# Poissons Ratio (y) = 0.43964 0.21426
# Poissons Ratio (z) = 0.04497 0.34420
#
# Static dielectric constant tensor:
#      x y z
#    x 3.751410 0.000000 0.000000 
#    y 0.000000 3.757510 0.000000 
#    z 0.000000 0.000000 2.456680 
# 
# 
# High freq. dielectric constant tensor:
#      x y z
#    x 1.742000 0.000000 0.000000 
#    y 0.000000 1.754730 0.000000 
#    z 0.000000 0.000000 1.731900 
# 
# From -- ./inp_files/5971.got.cif
#   From: 2010.03.12/outbox.cif.g09.slc.cpg/sg60_3_cif.got.tgz:5971.got - 2010.04.10 18:46:24.
