data_PCOD8246843
_publ_section_title
;
Structure prediction by ZEFSAII (Michael W. Deem and Ramdas Pophale) SiO2 
 PCOD8246843
Probable space group: P B C N
;
_chemical_formula_sum "Si O2"
_cell_formula_units_Z 48
_cell_length_a 9.187811
_cell_length_b 12.541772
_cell_length_c 21.611975
_cell_angle_alpha 90.000000
_cell_angle_beta 90.000000
_cell_angle_gamma 90.000000
_cell_volume 2490.378800
_symmetry_space_group_name_H-M "P B C N"
_symmetry_group_IT_number 60
_symmetry_cell_setting 'orthorhombic'
loop_
_space_group_symop_operation_xyz
x,y,z
1/2-x,1/2-y,1/2+z
1/2+x,1/2-y,-z
-x,y,1/2-z
-x,-y,-z
1/2+x,1/2+y,1/2-z
1/2-x,1/2+y,z
x,-y,1/2+z
loop_
_atom_site_type_symbol
_atom_site_label
_atom_site_fract_x
_atom_site_fract_y
_atom_site_fract_z
Si Si1 0.478619 0.781694 0.029706
Si Si2 0.232251 0.599699 0.608200
Si Si3 0.012183 0.259431 0.612069
Si Si4 0.724840 0.876107 0.100336
Si Si5 0.490445 0.987546 0.822535
Si Si6 0.142582 0.942686 0.520349
O O1 0.361992 0.871166 0.047452
O O2 0.612195 0.784795 0.078222
O O3 0.390460 0.675515 0.040777
O O4 0.531434 0.793496 0.959314
O O5 0.345457 0.690307 0.631284
O O6 0.126456 0.564889 0.663275
O O7 0.309474 0.493956 0.584467
O O8 0.870717 0.184098 0.623388
O O9 0.002034 0.368265 0.650223
O O10 0.657273 0.953507 0.153297
O O11 0.749316 0.947515 0.038620
O O12 0.500000 0.973606 0.750000
O O13 0.000000 0.000000 0.500000
#
# Coordination Sequence:
#
# PCOD8246843 Si02
#       6
#     8   8   8   8   8   8
#     4  10  20  34  58  96 127 150 179 231 306 367
#     4  11  21  38  60  89 123 155 190 238 297 355
#     4  11  21  37  64  89 118 153 193 239 301 357
#     4  10  22  37  61  90 123 152 192 238 298 354
#     4  11  26  43  58  80 116 162 212 250 279 327
#     4  11  20  32  61  93 124 144 176 234 300 370
#
# _framework density 19.274177000000002
#
# number of rings (size 3 to 8) (size 9 to 14) (size 15 to 20)
#    0.000    1.333    3.333    5.000    2.333    4.000 
#    0.000    0.000    0.000    0.000    0.000    0.000 
#    0.000    0.000    0.000    0.000    0.000    0.000 
#
# Total GULP energy -594827.490787 kJ/mol
# GULP energy per Si atom -12392.239391 kJ/mol
# Density = 1.923031 g / cm^3
# Si number density = 19.274177 Si / 1000 Ang^3
#
#
#
# Elastic Constant Matrix: (Units=GPa)
#
#
# Indices 1 2 3 4 5 6 
#
# 1 109.2813 43.8044 38.5809 0.0000 0.0000 0.0000
# 2 43.8044 103.3107 62.7373 0.0000 0.0000 0.0000
# 3 38.5809 62.7373 77.0056 0.0000 0.0000 0.0000
# 4 0.0000 0.0000 0.0000 17.5903 0.0000 0.0000
# 5 0.0000 0.0000 0.0000 0.0000 15.1199 0.0000
# 6 0.0000 0.0000 0.0000 0.0000 0.0000 26.6992
#
#
#
# Elastic Compliance Matrix: (Units=1/GPa)
#
#
# Indices 1 2 3 4 5 6 
#
# 1 0.011492 -0.002724 -0.003538 0.000000 0.000000 0.000000
# 2 -0.002724 0.019803 -0.014769 0.000000 0.000000 0.000000
# 3 -0.003538 -0.014769 0.026792 0.000000 0.000000 0.000000
# 4 0.000000 0.000000 0.000000 0.056849 0.000000 0.000000
# 5 0.000000 0.000000 0.000000 0.000000 0.066138 0.000000
# 6 0.000000 0.000000 0.000000 0.000000 0.000000 0.037454
#
#
# Mechanical properties :
#
#
# Convention : Reuss Voigt Hill
#
# Bulk Modulus (GPa) = 62.40802 64.42697 63.41750
# Shear Modulus (GPa) = 18.80172 21.51354 20.15763
#
# Velocity S-wave (km/s) = 3.12667 3.34456 3.23745
# Velocity P-wave (km/s) = 6.74419 6.95801 6.85194
#
# Compressibility (1/GPa) = 0.01602358
#
# Stress axis : x y z
#
# Youngs Moduli (GPa) = 87.01923 50.49615 37.32499
#
# Poissons Ratio (x) = 0.13754 0.13207
# Poissons Ratio (y) = 0.23702 0.55127
# Poissons Ratio (z) = 0.30791 0.74580
#
# Static dielectric constant tensor:
#      x y z
#    x 3.875410 0.000000 0.000000 
#    y 0.000000 3.578260 0.000000 
#    z 0.000000 0.000000 3.198050 
# 
# 
# High freq. dielectric constant tensor:
#      x y z
#    x 1.770300 0.000000 0.000000 
#    y 0.000000 1.762740 0.000000 
#    z 0.000000 0.000000 1.708980 
# 
# From -- ./inp_files/23932.got.cif
#   From: 2010.03.12/outbox.cif.g09.slc.cpg/sg60_12_cif.got.tgz:23932.got - 2010.04.10 18:46:24.
