data_PCOD8246616
_publ_section_title
;
Structure prediction by ZEFSAII (Michael W. Deem and Ramdas Pophale) SiO2 
 PCOD8246616
Probable space group: P B C N
;
_chemical_formula_sum "Si O2"
_cell_formula_units_Z 64
_cell_length_a 10.690610
_cell_length_b 33.029925
_cell_length_c 9.502833
_cell_angle_alpha 90.000000
_cell_angle_beta 90.000000
_cell_angle_gamma 90.000000
_cell_volume 3355.545803
_symmetry_space_group_name_H-M "P B C N"
_symmetry_group_IT_number 60
_symmetry_cell_setting 'orthorhombic'
loop_
_space_group_symop_operation_xyz
x,y,z
1/2-x,1/2-y,1/2+z
1/2+x,1/2-y,-z
-x,y,1/2-z
-x,-y,-z
1/2+x,1/2+y,1/2-z
1/2-x,1/2+y,z
x,-y,1/2+z
loop_
_atom_site_type_symbol
_atom_site_label
_atom_site_fract_x
_atom_site_fract_y
_atom_site_fract_z
Si Si1 0.208292 0.879657 0.556748
Si Si2 0.852843 0.040542 0.094891
Si Si3 0.918827 0.318013 0.461120
Si Si4 0.585611 0.262446 0.116105
Si Si5 0.765808 0.373391 0.630531
Si Si6 0.859355 0.033657 0.417981
Si Si7 0.477359 0.325668 0.903757
Si Si8 0.184958 0.319221 0.343632
O O1 0.283917 0.870485 0.701117
O O2 0.216722 0.927357 0.529748
O O3 0.260623 0.859216 0.416697
O O4 0.066512 0.864910 0.582731
O O5 0.774251 0.081916 0.077127
O O6 0.842779 0.025441 0.253823
O O7 0.996729 0.044515 0.047003
O O8 0.798948 0.004797 0.997057
O O9 0.868918 0.278007 0.538341
O O10 0.894524 0.357856 0.558381
O O11 0.848597 0.328072 0.316472
O O12 0.064039 0.308268 0.435696
O O13 0.500000 0.251844 0.250000
O O14 0.716029 0.283086 0.156658
O O15 0.504336 0.291635 0.017875
O O16 0.662913 0.341213 0.576814
O O17 0.500000 0.305904 0.750000
#
# Coordination Sequence:
#
# PCOD8246616 Si02
#       8
#     8   8   8   8   8   8   8   8
#     4   9  18  35  58  81 115 155 198 238 287 346
#     4   9  17  29  51  83 124 150 195 234 298 346
#     4  11  26  40  58  80 115 149 190 245 298 346
#     4  11  25  39  62  84 110 146 197 242 289 359
#     4  10  19  34  58  83 116 157 195 238 287 361
#     4   9  16  30  51  85 119 157 188 244 289 347
#     4   9  18  34  56  83 112 153 191 239 296 341
#     4  10  25  43  56  82 115 150 187 243 295 346
#
# _framework density 19.072903
#
# number of rings (size 3 to 8) (size 9 to 14) (size 15 to 20)
#    0.000    2.250    1.250    0.750    7.000    2.000 
#    0.000    0.000    0.000    0.750    0.000    0.000 
#    0.000    0.000    0.000    0.000    0.000    0.000 
#
# Total GULP energy -793382.243388 kJ/mol
# GULP energy per Si atom -12396.597553 kJ/mol
# Density = 1.902949 g / cm^3
# Si number density = 19.072903 Si / 1000 Ang^3
#
#
#
# Elastic Constant Matrix: (Units=GPa)
#
#
# Indices 1 2 3 4 5 6 
#
# 1 65.1144 26.2545 34.4333 0.0000 0.0000 0.0000
# 2 26.2545 112.8113 54.4972 0.0000 0.0000 0.0000
# 3 34.4333 54.4972 92.7055 0.0000 0.0000 0.0000
# 4 0.0000 0.0000 0.0000 32.8473 0.0000 0.0000
# 5 0.0000 0.0000 0.0000 0.0000 25.5035 0.0000
# 6 0.0000 0.0000 0.0000 0.0000 0.0000 13.9092
#
#
#
# Elastic Compliance Matrix: (Units=1/GPa)
#
#
# Indices 1 2 3 4 5 6 
#
# 1 0.019276 -0.001435 -0.006316 0.000000 0.000000 0.000000
# 2 -0.001435 0.012487 -0.006808 0.000000 0.000000 0.000000
# 3 -0.006316 -0.006808 0.017135 0.000000 0.000000 0.000000
# 4 0.000000 0.000000 0.000000 0.030444 0.000000 0.000000
# 5 0.000000 0.000000 0.000000 0.000000 0.039210 0.000000
# 6 0.000000 0.000000 0.000000 0.000000 0.000000 0.071895
#
#
# Mechanical properties :
#
#
# Convention : Reuss Voigt Hill
#
# Bulk Modulus (GPa) = 50.55460 55.66680 53.11070
# Shear Modulus (GPa) = 22.10848 24.81508 23.46178
#
# Velocity S-wave (km/s) = 3.40833 3.61094 3.51110
# Velocity P-wave (km/s) = 6.48479 6.82897 6.65911
#
# Compressibility (1/GPa) = 0.01978060
#
# Stress axis : x y z
#
# Youngs Moduli (GPa) = 51.87737 80.08395 58.36124
#
# Poissons Ratio (x) = 0.11491 0.36862
# Poissons Ratio (y) = 0.07444 0.39729
# Poissons Ratio (z) = 0.32767 0.54517
#
# Static dielectric constant tensor:
#      x y z
#    x 3.314710 0.000000 0.000000 
#    y 0.000000 3.467490 0.000000 
#    z 0.000000 0.000000 3.548760 
# 
# 
# High freq. dielectric constant tensor:
#      x y z
#    x 1.716620 0.000000 0.000000 
#    y 0.000000 1.738380 0.000000 
#    z 0.000000 0.000000 1.748000 
# 
# From -- ./inp_files/5333.got.cif
#   From: 2010.03.12/outbox.cif.g09.slc.cpg/sg60_3_cif.got.tgz:5333.got - 2010.04.10 18:46:24.
