data_PCOD8246282
_publ_section_title
;
Structure prediction by ZEFSAII (Michael W. Deem and Ramdas Pophale) SiO2 
 PCOD8246282
Probable space group: P B C N
;
_chemical_formula_sum "Si O2"
_cell_formula_units_Z 64
_cell_length_a 8.548295
_cell_length_b 18.402503
_cell_length_c 20.708025
_cell_angle_alpha 90.000000
_cell_angle_beta 90.000000
_cell_angle_gamma 90.000000
_cell_volume 3257.579918
_symmetry_space_group_name_H-M "P B C N"
_symmetry_group_IT_number 60
_symmetry_cell_setting 'orthorhombic'
loop_
_space_group_symop_operation_xyz
x,y,z
1/2-x,1/2-y,1/2+z
1/2+x,1/2-y,-z
-x,y,1/2-z
-x,-y,-z
1/2+x,1/2+y,1/2-z
1/2-x,1/2+y,z
x,-y,1/2+z
loop_
_atom_site_type_symbol
_atom_site_label
_atom_site_fract_x
_atom_site_fract_y
_atom_site_fract_z
Si Si1 0.265922 0.378220 0.136727
Si Si2 0.396930 0.492494 0.563641
Si Si3 0.602058 0.670262 0.633453
Si Si4 0.539984 0.197224 0.951399
Si Si5 0.178970 0.944111 0.266192
Si Si6 0.724599 0.914630 0.030671
Si Si7 0.741368 0.298027 0.574302
Si Si8 0.793250 0.039921 0.121446
O O1 0.302744 0.434441 0.079302
O O2 0.417807 0.327695 0.148825
O O3 0.125196 0.325664 0.115430
O O4 0.224260 0.425077 0.201092
O O5 0.500000 0.500000 0.500000
O O6 0.271848 0.430006 0.544270
O O7 0.516947 0.471786 0.620473
O O8 0.693690 0.627059 0.688912
O O9 0.635417 0.629759 0.565421
O O10 0.671054 0.750979 0.629060
O O11 0.433618 0.130061 0.972632
O O12 0.435508 0.269038 0.938132
O O13 0.667686 0.210423 0.006674
O O14 0.000000 0.961601 0.250000
O O15 0.252391 0.013269 0.305650
O O16 0.701183 0.990715 0.069091
O O17 0.744509 0.377454 0.605107
#
# Coordination Sequence:
#
# PCOD8246282 Si02
#       8
#     8   8   8   8   8   8   8   8
#     4  11  19  35  64  85 109 153 211 241 289 360
#     4  10  16  29  59  87 109 144 186 251 303 344
#     4   9  18  37  57  80 113 159 194 236 295 364
#     4  11  24  37  57  89 123 161 197 241 301 379
#     4   9  17  37  63  84 103 154 212 246 281 362
#     4   9  19  34  57  83 116 150 197 238 293 359
#     4  11  24  36  57  87 127 158 191 246 318 360
#     4  10  19  35  59  86 117 152 193 254 306 344
#
# _framework density 19.646485999999999
#
# number of rings (size 3 to 8) (size 9 to 14) (size 15 to 20)
#    0.000    2.000    5.000    2.250    3.500    2.000 
#    0.000    6.875    0.000    4.500    0.000    0.000 
#    0.000    0.000    0.000    0.000    0.000    0.000 
#
# Total GULP energy -793103.258265 kJ/mol
# GULP energy per Si atom -12392.238410 kJ/mol
# Density = 1.960177 g / cm^3
# Si number density = 19.646486 Si / 1000 Ang^3
#
#
#
# Elastic Constant Matrix: (Units=GPa)
#
#
# Indices 1 2 3 4 5 6 
#
# 1 63.9465 25.4865 25.5363 0.0000 0.0000 0.0000
# 2 25.4865 121.5338 33.9342 0.0000 0.0000 0.0000
# 3 25.5363 33.9342 95.7712 0.0000 0.0000 0.0000
# 4 0.0000 0.0000 0.0000 30.2296 0.0000 0.0000
# 5 0.0000 0.0000 0.0000 0.0000 21.2742 0.0000
# 6 0.0000 0.0000 0.0000 0.0000 0.0000 35.2288
#
#
#
# Elastic Compliance Matrix: (Units=1/GPa)
#
#
# Indices 1 2 3 4 5 6 
#
# 1 0.018292 -0.002746 -0.003904 0.000000 0.000000 0.000000
# 2 -0.002746 0.009544 -0.002649 0.000000 0.000000 0.000000
# 3 -0.003904 -0.002649 0.012421 0.000000 0.000000 0.000000
# 4 0.000000 0.000000 0.000000 0.033080 0.000000 0.000000
# 5 0.000000 0.000000 0.000000 0.000000 0.047005 0.000000
# 6 0.000000 0.000000 0.000000 0.000000 0.000000 0.028386
#
#
# Mechanical properties :
#
#
# Convention : Reuss Voigt Hill
#
# Bulk Modulus (GPa) = 46.17320 50.12950 48.15135
# Shear Modulus (GPa) = 28.64567 30.43280 29.53924
#
# Velocity S-wave (km/s) = 3.82259 3.94003 3.88175
# Velocity P-wave (km/s) = 6.56018 6.80218 6.68227
#
# Compressibility (1/GPa) = 0.02165758
#
# Stress axis : x y z
#
# Youngs Moduli (GPa) = 54.66997 104.78073 80.50628
#
# Poissons Ratio (x) = 0.28770 0.31433
# Poissons Ratio (y) = 0.15011 0.21330
# Poissons Ratio (z) = 0.21345 0.27761
#
# Static dielectric constant tensor:
#      x y z
#    x 3.687480 0.000000 0.000000 
#    y 0.000000 3.702040 0.000000 
#    z 0.000000 0.000000 3.802620 
# 
# 
# High freq. dielectric constant tensor:
#      x y z
#    x 1.748100 0.000000 0.000000 
#    y 0.000000 1.756420 0.000000 
#    z 0.000000 0.000000 1.751100 
# 
# From -- ./inp_files/24141.got.cif
#   From: 2010.03.12/outbox.cif.g09.slc.cpg/sg60_13_cif.got.tgz:24141.got - 2010.04.10 18:46:24.
