data_PCOD8246638
_publ_section_title
;
Structure prediction by ZEFSAII (Michael W. Deem and Ramdas Pophale) SiO2 
 PCOD8246638
Probable space group: P B C N
;
_chemical_formula_sum "Si O2"
_cell_formula_units_Z 60
_cell_length_a 6.344519
_cell_length_b 22.184777
_cell_length_c 23.344161
_cell_angle_alpha 90.000000
_cell_angle_beta 90.000000
_cell_angle_gamma 90.000000
_cell_volume 3285.731261
_symmetry_space_group_name_H-M "P B C N"
_symmetry_group_IT_number 60
_symmetry_cell_setting 'orthorhombic'
loop_
_space_group_symop_operation_xyz
x,y,z
1/2-x,1/2-y,1/2+z
1/2+x,1/2-y,-z
-x,y,1/2-z
-x,-y,-z
1/2+x,1/2+y,1/2-z
1/2-x,1/2+y,z
x,-y,1/2+z
loop_
_atom_site_type_symbol
_atom_site_label
_atom_site_fract_x
_atom_site_fract_y
_atom_site_fract_z
Si Si1 0.500464 0.814060 0.491477
Si Si2 0.349197 0.730107 0.911631
Si Si3 0.260476 0.066191 0.992585
Si Si4 0.116565 0.567902 0.192143
Si Si5 0.123045 0.314749 0.805340
Si Si6 0.895124 0.480342 0.410849
Si Si7 0.118859 0.876242 0.062912
Si Si8 0.500000 0.381922 0.750000
O O1 0.382877 0.782493 0.437553
O O2 0.510146 0.768039 0.544039
O O3 0.372631 0.872318 0.512431
O O4 0.736104 0.833215 0.475620
O O5 0.333550 0.763237 0.851294
O O6 0.465337 0.666189 0.899725
O O7 0.018910 0.080415 0.977996
O O8 0.378853 0.036518 0.937969
O O9 0.260922 0.021107 0.045735
O O10 0.073112 0.514688 0.148156
O O11 0.364583 0.576650 0.206153
O O12 0.000000 0.548605 0.250000
O O13 0.017704 0.630679 0.168663
O O14 0.349780 0.339796 0.787531
O O15 0.000000 0.287767 0.750000
O O16 0.764715 0.419075 0.397808
#
# Coordination Sequence:
#
# PCOD8246638 Si02
#       8
#     8   8   8   8   8   8   8   4
#     4  10  20  33  52  81 110 147 180 223 277 326
#     4  11  20  35  54  79 114 145 184 231 274 333
#     4   9  20  34  53  82 111 139 184 218 271 331
#     4   9  19  35  57  85 110 136 183 229 276 326
#     4   9  20  36  57  81 110 141 185 234 276 328
#     4  10  19  35  56  79 111 145 174 228 271 328
#     4  10  21  34  51  79 113 145 183 218 275 333
#     4   8  18  36  52  88 102 136 184 226 280 324
#
# _framework density 18.260776
#
# number of rings (size 3 to 8) (size 9 to 14) (size 15 to 20)
#    0.000    2.667    1.333    1.200    0.000    5.333 
#    0.000    0.000   10.267    0.000    0.000    0.000 
#    0.000    0.000    0.000    0.000    0.000    0.000 
#
# Total GULP energy -743852.794743 kJ/mol
# GULP energy per Si atom -12397.546579 kJ/mol
# Density = 1.821921 g / cm^3
# Si number density = 18.260776 Si / 1000 Ang^3
#
#
#
# Elastic Constant Matrix: (Units=GPa)
#
#
# Indices 1 2 3 4 5 6 
#
# 1 95.4497 28.2668 35.1017 0.0000 0.0000 0.0000
# 2 28.2668 90.3681 52.9709 0.0000 0.0000 0.0000
# 3 35.1017 52.9709 94.1617 0.0000 0.0000 0.0000
# 4 0.0000 0.0000 0.0000 38.2635 0.0000 0.0000
# 5 0.0000 0.0000 0.0000 0.0000 12.1396 0.0000
# 6 0.0000 0.0000 0.0000 0.0000 0.0000 30.6972
#
#
#
# Elastic Compliance Matrix: (Units=1/GPa)
#
#
# Indices 1 2 3 4 5 6 
#
# 1 0.012320 -0.001733 -0.003618 0.000000 0.000000 0.000000
# 2 -0.001733 0.016754 -0.008779 0.000000 0.000000 0.000000
# 3 -0.003618 -0.008779 0.016907 0.000000 0.000000 0.000000
# 4 0.000000 0.000000 0.000000 0.026135 0.000000 0.000000
# 5 0.000000 0.000000 0.000000 0.000000 0.082375 0.000000
# 6 0.000000 0.000000 0.000000 0.000000 0.000000 0.032576
#
#
# Mechanical properties :
#
#
# Convention : Reuss Voigt Hill
#
# Bulk Modulus (GPa) = 56.42732 56.96202 56.69467
# Shear Modulus (GPa) = 22.60050 27.12942 24.86496
#
# Velocity S-wave (km/s) = 3.52185 3.85862 3.69407
# Velocity P-wave (km/s) = 6.89244 7.14935 7.02207
#
# Compressibility (1/GPa) = 0.01772191
#
# Stress axis : x y z
#
# Youngs Moduli (GPa) = 81.16594 59.68784 59.14622
#
# Poissons Ratio (x) = 0.10345 0.21398
# Poissons Ratio (y) = 0.14067 0.51924
# Poissons Ratio (z) = 0.29365 0.52399
#
# Static dielectric constant tensor:
#      x y z
#    x 3.500320 0.000000 0.000000 
#    y 0.000000 3.499060 0.000000 
#    z 0.000000 0.000000 2.988620 
# 
# 
# High freq. dielectric constant tensor:
#      x y z
#    x 1.720520 0.000000 0.000000 
#    y 0.000000 1.713880 0.000000 
#    z 0.000000 0.000000 1.671770 
# 
# From -- ./inp_files/23710.got.cif
#   From: 2010.03.12/outbox.cif.g09.slc.cpg/sg60_12_cif.got.tgz:23710.got - 2010.04.10 18:46:24.
