data_PCOD8246466
_publ_section_title
;
Structure prediction by ZEFSAII (Michael W. Deem and Ramdas Pophale) SiO2 
 PCOD8246466
Probable space group: P B C N
;
_chemical_formula_sum "Si O2"
_cell_formula_units_Z 64
_cell_length_a 16.350720
_cell_length_b 11.075089
_cell_length_c 17.523502
_cell_angle_alpha 90.000000
_cell_angle_beta 90.000000
_cell_angle_gamma 90.000000
_cell_volume 3173.255262
_symmetry_space_group_name_H-M "P B C N"
_symmetry_group_IT_number 60
_symmetry_cell_setting 'orthorhombic'
loop_
_space_group_symop_operation_xyz
x,y,z
1/2-x,1/2-y,1/2+z
1/2+x,1/2-y,-z
-x,y,1/2-z
-x,-y,-z
1/2+x,1/2+y,1/2-z
1/2-x,1/2+y,z
x,-y,1/2+z
loop_
_atom_site_type_symbol
_atom_site_label
_atom_site_fract_x
_atom_site_fract_y
_atom_site_fract_z
Si Si1 0.918909 0.367490 0.947674
Si Si2 0.802543 0.490190 0.357126
Si Si3 0.085500 0.416692 0.276384
Si Si4 0.711712 0.807633 0.493201
Si Si5 0.144910 0.908578 0.590107
Si Si6 0.015297 0.160158 0.331859
Si Si7 0.404157 0.045005 0.421739
Si Si8 0.392033 0.377476 0.982134
O O1 0.853888 0.388038 0.878698
O O2 0.000557 0.429305 0.918733
O O3 0.884239 0.435561 0.021485
O O4 0.937158 0.228995 0.970557
O O5 0.842668 0.417972 0.286525
O O6 0.808778 0.395144 0.424278
O O7 0.706399 0.527933 0.348013
O O8 0.059496 0.285662 0.310234
O O9 0.125744 0.499991 0.340110
O O10 0.000000 0.476685 0.250000
O O11 0.702376 0.670809 0.465213
O O12 0.645504 0.833843 0.558903
O O13 0.799796 0.832046 0.528994
O O14 0.076050 0.827458 0.632025
O O15 0.100131 0.004712 0.534925
O O16 0.070291 0.096374 0.397484
O O17 0.000000 0.089906 0.250000
#
# Coordination Sequence:
#
# PCOD8246466 Si02
#       8
#     8   8   8   8   8   8   8   8
#     4  10  18  36  58  88 118 156 208 263 307 365
#     4  10  21  37  64  92 128 159 210 269 320 385
#     4  11  20  36  61  95 122 162 206 262 329 379
#     4  10  21  37  61  94 119 162 210 267 320 375
#     4  11  23  41  64  92 125 172 219 264 326 390
#     4  11  24  39  62  90 129 169 213 263 328 400
#     4  10  20  32  61  87 120 154 207 265 314 376
#     4  11  22  39  65  86 122 168 214 265 312 388
#
# _framework density 20.168562999999999
#
# number of rings (size 3 to 8) (size 9 to 14) (size 15 to 20)
#    0.000    1.500    3.750    2.625    1.750    1.000 
#    0.000    0.000    5.500    0.000    0.000    0.000 
#    0.000    0.000    0.000    0.000    0.000    0.000 
#
# Total GULP energy -792883.821134 kJ/mol
# GULP energy per Si atom -12388.809705 kJ/mol
# Density = 2.012266 g / cm^3
# Si number density = 20.168563 Si / 1000 Ang^3
#
#
#
# Elastic Constant Matrix: (Units=GPa)
#
#
# Indices 1 2 3 4 5 6 
#
# 1 101.6159 20.4572 64.0052 0.0000 0.0000 0.0000
# 2 20.4572 74.9128 30.1631 0.0000 0.0000 0.0000
# 3 64.0052 30.1631 104.0982 0.0000 0.0000 0.0000
# 4 0.0000 0.0000 0.0000 21.1253 0.0000 0.0000
# 5 0.0000 0.0000 0.0000 0.0000 38.3346 0.0000
# 6 0.0000 0.0000 0.0000 0.0000 0.0000 29.4255
#
#
#
# Elastic Compliance Matrix: (Units=1/GPa)
#
#
# Indices 1 2 3 4 5 6 
#
# 1 0.016075 -0.000464 -0.009749 0.000000 0.000000 0.000000
# 2 -0.000464 0.015125 -0.004097 0.000000 0.000000 0.000000
# 3 -0.009749 -0.004097 0.016788 0.000000 0.000000 0.000000
# 4 0.000000 0.000000 0.000000 0.047337 0.000000 0.000000
# 5 0.000000 0.000000 0.000000 0.000000 0.026086 0.000000
# 6 0.000000 0.000000 0.000000 0.000000 0.000000 0.033984
#
#
# Mechanical properties :
#
#
# Convention : Reuss Voigt Hill
#
# Bulk Modulus (GPa) = 51.63475 56.65311 54.14393
# Shear Modulus (GPa) = 26.25041 28.84383 27.54712
#
# Velocity S-wave (km/s) = 3.61161 3.78582 3.69974
# Velocity P-wave (km/s) = 6.56116 6.87464 6.71973
#
# Compressibility (1/GPa) = 0.01936680
#
# Stress axis : x y z
#
# Youngs Moduli (GPa) = 62.20686 66.11415 59.56630
#
# Poissons Ratio (x) = 0.03070 0.58074
# Poissons Ratio (y) = 0.02888 0.24405
# Poissons Ratio (z) = 0.60649 0.27088
#
# Static dielectric constant tensor:
#      x y z
#    x 3.773840 0.000000 0.000000 
#    y 0.000000 3.583040 0.000000 
#    z 0.000000 0.000000 3.795280 
# 
# 
# High freq. dielectric constant tensor:
#      x y z
#    x 1.796110 0.000000 0.000000 
#    y 0.000000 1.766790 0.000000 
#    z 0.000000 0.000000 1.774020 
# 
# From -- ./inp_files/20657.got.cif
#   From: 2010.03.12/outbox.cif.g09.slc.cpg/sg60_11_cif.got.tgz:20657.got - 2010.04.10 18:46:24.
