data_PCOD8246306
_publ_section_title
;
Structure prediction by ZEFSAII (Michael W. Deem and Ramdas Pophale) SiO2 
 PCOD8246306
Probable space group: P B C N
;
_chemical_formula_sum "Si O2"
_cell_formula_units_Z 40
_cell_length_a 7.568025
_cell_length_b 23.271540
_cell_length_c 9.017719
_cell_angle_alpha 90.000000
_cell_angle_beta 90.000000
_cell_angle_gamma 90.000000
_cell_volume 1588.197032
_symmetry_space_group_name_H-M "P B C N"
_symmetry_group_IT_number 60
_symmetry_cell_setting 'orthorhombic'
loop_
_space_group_symop_operation_xyz
x,y,z
1/2-x,1/2-y,1/2+z
1/2+x,1/2-y,-z
-x,y,1/2-z
-x,-y,-z
1/2+x,1/2+y,1/2-z
1/2-x,1/2+y,z
x,-y,1/2+z
loop_
_atom_site_type_symbol
_atom_site_label
_atom_site_fract_x
_atom_site_fract_y
_atom_site_fract_z
Si Si1 0.740210 0.697301 0.130368
Si Si2 0.821624 0.076435 0.022567
Si Si3 0.597312 0.929917 0.017033
Si Si4 0.146711 0.693645 0.053332
Si Si5 0.778849 0.004676 0.767621
O O1 0.635203 0.643184 0.056379
O O2 0.715682 0.700093 0.308949
O O3 0.946938 0.691711 0.106821
O O4 0.666041 0.755283 0.062393
O O5 0.610593 0.068723 0.011077
O O6 0.895293 0.035339 0.155111
O O7 0.896336 0.051263 0.865323
O O8 0.683021 0.866518 0.027992
O O9 0.682883 0.961148 0.877616
O O10 0.637077 0.959899 0.172265
#
# Coordination Sequence:
#
# PCOD8246306 Si02
#       5
#     8   8   8   8   8
#     4  10  22  38  55  80 112 145 184 227 267 318
#     4  10  17  28  46  74 107 137 170 215 270 325
#     4  10  17  28  46  74 107 137 170 215 270 325
#     4  10  22  38  55  80 112 145 184 227 267 318
#     4  10  17  26  46  74 107 138 165 212 279 328
#
# _framework density 25.185790000000001
#
# number of rings (size 3 to 8) (size 9 to 14) (size 15 to 20)
#    0.000    2.000    2.000    4.800    2.800    0.800 
#    0.000    0.000    0.000    0.000    0.000    8.400 
#    0.000    0.000    0.000    0.000    0.000    0.000 
#
# Total GULP energy -495717.302092 kJ/mol
# GULP energy per Si atom -12392.932552 kJ/mol
# Density = 2.512847 g / cm^3
# Si number density = 25.185790 Si / 1000 Ang^3
#
#
#
# Elastic Constant Matrix: (Units=GPa)
#
#
# Indices 1 2 3 4 5 6 
#
# 1 16.9634 8.1662 8.9725 0.0000 0.0000 0.0000
# 2 8.1662 244.9763 86.1721 0.0000 0.0000 0.0000
# 3 8.9725 86.1721 140.3216 0.0000 0.0000 0.0000
# 4 0.0000 0.0000 0.0000 38.2336 0.0000 0.0000
# 5 0.0000 0.0000 0.0000 0.0000 21.4613 0.0000
# 6 0.0000 0.0000 0.0000 0.0000 0.0000 29.9007
#
#
#
# Elastic Compliance Matrix: (Units=1/GPa)
#
#
# Indices 1 2 3 4 5 6 
#
# 1 0.061151 -0.000846 -0.003391 0.000000 0.000000 0.000000
# 2 -0.000846 0.005218 -0.003151 0.000000 0.000000 0.000000
# 3 -0.003391 -0.003151 0.009278 0.000000 0.000000 0.000000
# 4 0.000000 0.000000 0.000000 0.026155 0.000000 0.000000
# 5 0.000000 0.000000 0.000000 0.000000 0.046596 0.000000
# 6 0.000000 0.000000 0.000000 0.000000 0.000000 0.033444
#
#
# Mechanical properties :
#
#
# Convention : Reuss Voigt Hill
#
# Bulk Modulus (GPa) = 16.42751 67.65363 42.04057
# Shear Modulus (GPa) = 23.05128 37.84915 30.45021
#
# Velocity S-wave (km/s) = 3.02859 3.88080 3.48087
# Velocity P-wave (km/s) = 4.33203 6.85572 5.73443
#
# Compressibility (1/GPa) = 0.06087350
#
# Stress axis : x y z
#
# Youngs Moduli (GPa) = 16.35292 191.62718 107.78064
#
# Poissons Ratio (x) = 0.16206 0.36546
# Poissons Ratio (y) = 0.01383 0.33957
# Poissons Ratio (z) = 0.05545 0.60374
#
# Static dielectric constant tensor:
#      x y z
#    x 4.192830 0.000000 0.000000 
#    y 0.000000 5.342590 0.000000 
#    z 0.000000 0.000000 5.906280 
# 
# 
# High freq. dielectric constant tensor:
#      x y z
#    x 1.990170 0.000000 0.000000 
#    y 0.000000 2.017430 0.000000 
#    z 0.000000 0.000000 2.019920 
# 
# From -- ./inp_files/3825.got.cif
#   From: 2010.03.12/outbox.cif.g09.slc.cpg/sg60_2_cif.got.tgz:3825.got - 2010.04.10 18:46:24.
