data_PCOD8246619
_publ_section_title
;
Structure prediction by ZEFSAII (Michael W. Deem and Ramdas Pophale) SiO2 
 PCOD8246619
Probable space group: P B C N
;
_chemical_formula_sum "Si O2"
_cell_formula_units_Z 52
_cell_length_a 19.186441
_cell_length_b 8.974098
_cell_length_c 14.204212
_cell_angle_alpha 90.000000
_cell_angle_beta 90.000000
_cell_angle_gamma 90.000000
_cell_volume 2445.695452
_symmetry_space_group_name_H-M "P B C N"
_symmetry_group_IT_number 60
_symmetry_cell_setting 'orthorhombic'
loop_
_space_group_symop_operation_xyz
x,y,z
1/2-x,1/2-y,1/2+z
1/2+x,1/2-y,-z
-x,y,1/2-z
-x,-y,-z
1/2+x,1/2+y,1/2-z
1/2-x,1/2+y,z
x,-y,1/2+z
loop_
_atom_site_type_symbol
_atom_site_label
_atom_site_fract_x
_atom_site_fract_y
_atom_site_fract_z
Si Si1 0.711590 0.816486 0.318707
Si Si2 0.400734 0.587329 0.133067
Si Si3 0.632054 0.684703 0.757249
Si Si4 0.338952 0.418523 0.438565
Si Si5 0.000000 0.710961 0.750000
Si Si6 0.210718 0.394676 0.974677
Si Si7 0.618679 0.001232 0.686372
O O1 0.671792 0.657689 0.327945
O O2 0.790778 0.780657 0.294665
O O3 0.700609 0.913175 0.413789
O O4 0.682657 0.919676 0.237073
O O5 0.408682 0.415362 0.166242
O O6 0.398882 0.584741 0.019184
O O7 0.463832 0.688110 0.170461
O O8 0.626097 0.582590 0.663614
O O9 0.597455 0.845147 0.737003
O O10 0.288185 0.277480 0.446915
O O11 0.288498 0.559164 0.446421
O O12 0.052036 0.608254 0.810431
O O13 0.146318 0.474452 0.920163
#
# Coordination Sequence:
#
# PCOD8246619 Si02
#       7
#     8   8   8   8   4   8   8
#     4  10  19  34  58  92 124 154 194 256 326 366
#     4  10  22  39  59  87 124 166 203 255 301 370
#     4  11  20  34  61  92 124 150 206 263 317 360
#     4  10  21  34  56  93 127 150 197 251 316 370
#     4  10  24  46  62  78 128 178 222 240 302 374
#     4  10  20  33  55  89 126 152 193 253 315 367
#     4  10  22  38  59  88 121 171 204 253 301 374
#
# _framework density 21.261845999999998
#
# number of rings (size 3 to 8) (size 9 to 14) (size 15 to 20)
#    0.000    1.846    3.077    0.923    4.308    0.615 
#    0.000   13.077    0.000    0.000    0.000    0.000 
#    0.000    0.000    0.000    0.000    0.000    0.000 
#
# Total GULP energy -644685.225964 kJ/mol
# GULP energy per Si atom -12397.792807 kJ/mol
# Density = 2.121345 g / cm^3
# Si number density = 21.261846 Si / 1000 Ang^3
#
#
#
# Elastic Constant Matrix: (Units=GPa)
#
#
# Indices 1 2 3 4 5 6 
#
# 1 54.5131 12.1600 7.5930 0.0000 0.0000 0.0000
# 2 12.1600 57.3649 -2.9949 0.0000 0.0000 0.0000
# 3 7.5930 -2.9949 83.5195 0.0000 0.0000 0.0000
# 4 0.0000 0.0000 0.0000 28.6990 0.0000 0.0000
# 5 0.0000 0.0000 0.0000 0.0000 24.1417 0.0000
# 6 0.0000 0.0000 0.0000 0.0000 0.0000 24.6367
#
#
#
# Elastic Compliance Matrix: (Units=1/GPa)
#
#
# Indices 1 2 3 4 5 6 
#
# 1 0.019561 -0.004247 -0.001931 0.000000 0.000000 0.000000
# 2 -0.004247 0.018387 0.001045 0.000000 0.000000 0.000000
# 3 -0.001931 0.001045 0.012186 0.000000 0.000000 0.000000
# 4 0.000000 0.000000 0.000000 0.034844 0.000000 0.000000
# 5 0.000000 0.000000 0.000000 0.000000 0.041422 0.000000
# 6 0.000000 0.000000 0.000000 0.000000 0.000000 0.040590
#
#
# Mechanical properties :
#
#
# Convention : Reuss Voigt Hill
#
# Bulk Modulus (GPa) = 25.08197 25.43488 25.25842
# Shear Modulus (GPa) = 26.24058 27.40479 26.82268
#
# Velocity S-wave (km/s) = 3.51688 3.59405 3.55567
# Velocity P-wave (km/s) = 5.32105 5.40477 5.36307
#
# Compressibility (1/GPa) = 0.03986928
#
# Stress axis : x y z
#
# Youngs Moduli (GPa) = 51.12335 54.38586 82.05967
#
# Poissons Ratio (x) = 0.23099 0.15843
# Poissons Ratio (y) = 0.21713 -0.08579
# Poissons Ratio (z) = 0.09870 -0.05686
#
# Static dielectric constant tensor:
#      x y z
#    x 3.428300 0.000000 0.000000 
#    y 0.000000 3.911890 0.000000 
#    z 0.000000 0.000000 4.121620 
# 
# 
# High freq. dielectric constant tensor:
#      x y z
#    x 1.796110 0.000000 0.000000 
#    y 0.000000 1.843470 0.000000 
#    z 0.000000 0.000000 1.839780 
# 
# From -- ./inp_files/17663.got.cif
#   From: 2010.03.12/outbox.cif.g09.slc.cpg/sg60_9_cif.got.tgz:17663.got - 2010.04.10 18:46:24.
