data_PCOD8246483
_publ_section_title
;
Structure prediction by ZEFSAII (Michael W. Deem and Ramdas Pophale) SiO2 
 PCOD8246483
Probable space group: P B C N
;
_chemical_formula_sum "Si O2"
_cell_formula_units_Z 48
_cell_length_a 9.751144
_cell_length_b 15.544427
_cell_length_c 12.846547
_cell_angle_alpha 90.000000
_cell_angle_beta 90.000000
_cell_angle_gamma 90.000000
_cell_volume 1947.227515
_symmetry_space_group_name_H-M "P B C N"
_symmetry_group_IT_number 60
_symmetry_cell_setting 'orthorhombic'
loop_
_space_group_symop_operation_xyz
x,y,z
1/2-x,1/2-y,1/2+z
1/2+x,1/2-y,-z
-x,y,1/2-z
-x,-y,-z
1/2+x,1/2+y,1/2-z
1/2-x,1/2+y,z
x,-y,1/2+z
loop_
_atom_site_type_symbol
_atom_site_label
_atom_site_fract_x
_atom_site_fract_y
_atom_site_fract_z
Si Si1 0.650120 0.384158 0.970185
Si Si2 0.335085 0.209116 0.860756
Si Si3 0.500000 0.518794 0.750000
Si Si4 0.000000 0.519807 0.250000
Si Si5 0.226385 0.114811 0.263639
Si Si6 0.374078 0.418261 0.046199
Si Si7 0.613591 0.134915 0.860249
O O1 0.732925 0.331680 0.055861
O O2 0.484755 0.367884 0.974955
O O3 0.704199 0.356600 0.856481
O O4 0.666053 0.486227 0.991995
O O5 0.297057 0.307811 0.843280
O O6 0.494666 0.200356 0.897811
O O7 0.322526 0.158714 0.751804
O O8 0.379650 0.459088 0.796270
O O9 0.557634 0.578725 0.839867
O O10 0.121863 0.581481 0.286400
O O11 0.050669 0.461309 0.152647
O O12 0.233792 0.363237 0.053557
#
# Coordination Sequence:
#
# PCOD8246483 Si02
#       7
#     8   8   4   4   8   8   8
#     4  10  22  40  65 103 133 171 238 277 346 408
#     4  10  23  41  67  92 144 179 223 278 355 407
#     4  10  18  37  67  90 132 172 230 268 362 399
#     4  10  20  41  65  94 134 184 228 274 338 415
#     4  11  23  43  64  97 140 186 226 284 346 424
#     4  10  20  38  69 101 129 167 227 298 332 411
#     4  10  21  43  66  99 132 179 227 283 343 404
#
# _framework density 24.650431000000001
#
# number of rings (size 3 to 8) (size 9 to 14) (size 15 to 20)
#    0.000    2.000    3.333    2.000    2.333    2.000 
#    0.000   15.000    0.000    0.000    0.000    0.000 
#    0.000    0.000    0.000    0.000    0.000    0.000 
#
# Total GULP energy -595113.138104 kJ/mol
# GULP energy per Si atom -12398.190377 kJ/mol
# Density = 2.459433 g / cm^3
# Si number density = 24.650431 Si / 1000 Ang^3
#
#
#
# Elastic Constant Matrix: (Units=GPa)
#
#
# Indices 1 2 3 4 5 6 
#
# 1 172.4079 41.5428 26.7032 0.0000 0.0000 0.0000
# 2 41.5428 66.1688 22.0328 0.0000 0.0000 0.0000
# 3 26.7032 22.0328 74.8031 0.0000 0.0000 0.0000
# 4 0.0000 0.0000 0.0000 33.8954 0.0000 0.0000
# 5 0.0000 0.0000 0.0000 0.0000 34.5224 0.0000
# 6 0.0000 0.0000 0.0000 0.0000 0.0000 7.3070
#
#
#
# Elastic Compliance Matrix: (Units=1/GPa)
#
#
# Indices 1 2 3 4 5 6 
#
# 1 0.006951 -0.003922 -0.001326 0.000000 0.000000 0.000000
# 2 -0.003922 0.018970 -0.004187 0.000000 0.000000 0.000000
# 3 -0.001326 -0.004187 0.015075 0.000000 0.000000 0.000000
# 4 0.000000 0.000000 0.000000 0.029502 0.000000 0.000000
# 5 0.000000 0.000000 0.000000 0.000000 0.028967 0.000000
# 6 0.000000 0.000000 0.000000 0.000000 0.000000 0.136855
#
#
# Mechanical properties :
#
#
# Convention : Reuss Voigt Hill
#
# Bulk Modulus (GPa) = 45.19887 54.88193 50.04040
# Shear Modulus (GPa) = 19.04287 30.01838 24.53063
#
# Velocity S-wave (km/s) = 2.78243 3.49343 3.15801
# Velocity P-wave (km/s) = 5.35708 6.21164 5.80012
#
# Compressibility (1/GPa) = 0.02212445
#
# Stress axis : x y z
#
# Youngs Moduli (GPa) = 143.87085 52.71578 66.33461
#
# Poissons Ratio (x) = 0.20677 0.08796
# Poissons Ratio (y) = 0.56431 0.27776
# Poissons Ratio (z) = 0.19077 0.22073
#
# Static dielectric constant tensor:
#      x y z
#    x 4.746370 0.000000 0.000000 
#    y 0.000000 4.267000 0.000000 
#    z 0.000000 0.000000 6.499280 
# 
# 
# High freq. dielectric constant tensor:
#      x y z
#    x 1.992660 0.000000 0.000000 
#    y 0.000000 1.968360 0.000000 
#    z 0.000000 0.000000 1.972830 
# 
# From -- ./inp_files/15061.got.cif
#   From: 2010.03.12/outbox.cif.g09.slc.cpg/sg60_8_cif.got.tgz:15061.got - 2010.04.10 18:46:24.
