data_PCOD8246273
_publ_section_title
;
Structure prediction by ZEFSAII (Michael W. Deem and Ramdas Pophale) SiO2 
 PCOD8246273
Probable space group: P B C N
;
_chemical_formula_sum "Si O2"
_cell_formula_units_Z 40
_cell_length_a 9.450763
_cell_length_b 26.983049
_cell_length_c 8.813253
_cell_angle_alpha 90.000000
_cell_angle_beta 90.000000
_cell_angle_gamma 90.000000
_cell_volume 2247.471183
_symmetry_space_group_name_H-M "P B C N"
_symmetry_group_IT_number 60
_symmetry_cell_setting 'orthorhombic'
loop_
_space_group_symop_operation_xyz
x,y,z
1/2-x,1/2-y,1/2+z
1/2+x,1/2-y,-z
-x,y,1/2-z
-x,-y,-z
1/2+x,1/2+y,1/2-z
1/2-x,1/2+y,z
x,-y,1/2+z
loop_
_atom_site_type_symbol
_atom_site_label
_atom_site_fract_x
_atom_site_fract_y
_atom_site_fract_z
Si Si1 0.671003 0.936509 0.254498
Si Si2 0.500000 0.266525 0.250000
Si Si3 0.991449 0.685037 0.496942
Si Si4 0.357222 0.975574 0.937074
Si Si5 0.000000 0.395863 0.750000
Si Si6 0.780675 0.671934 0.751827
O O1 0.500000 0.929475 0.250000
O O2 0.725261 0.951868 0.421989
O O3 0.745493 0.885384 0.208181
O O4 0.726614 0.979154 0.140911
O O5 0.522523 0.233471 0.101456
O O6 0.365466 0.300744 0.223541
O O7 0.132408 0.672709 0.591010
O O8 0.947753 0.638632 0.389385
O O9 0.864532 0.697236 0.612688
O O10 0.378006 0.932425 0.811300
O O11 0.500000 0.000000 0.000000
#
# Coordination Sequence:
#
# PCOD8246273 Si02
#       6
#     8   4   8   8   4   8
#     4  10  17  28  49  76 106 136 164 217 259 304
#     4  11  24  36  54  78 104 142 176 217 260 310
#     4  10  21  35  56  78 103 136 175 220 261 307
#     4  10  16  24  44  80 109 127 165 215 265 296
#     4  11  16  28  50  84 108 126 172 223 266 302
#     4  11  20  37  55  76 108 137 176 214 263 308
#
# _framework density 17.797781000000001
#
# number of rings (size 3 to 8) (size 9 to 14) (size 15 to 20)
#    0.000    1.600    7.000    2.400    0.000    0.000 
#    0.000    0.000    0.000    1.200    0.000    0.000 
#    0.000    0.000    0.000    0.000    0.000    0.000 
#
# Total GULP energy -495782.648979 kJ/mol
# GULP energy per Si atom -12394.566224 kJ/mol
# Density = 1.775727 g / cm^3
# Si number density = 17.797781 Si / 1000 Ang^3
#
#
#
# Elastic Constant Matrix: (Units=GPa)
#
#
# Indices 1 2 3 4 5 6 
#
# 1 48.7869 31.4988 25.3112 0.0000 0.0000 0.0000
# 2 31.4988 121.3101 48.2434 0.0000 0.0000 0.0000
# 3 25.3112 48.2434 114.0764 0.0000 0.0000 0.0000
# 4 0.0000 0.0000 0.0000 32.8448 0.0000 0.0000
# 5 0.0000 0.0000 0.0000 0.0000 8.5848 0.0000
# 6 0.0000 0.0000 0.0000 0.0000 0.0000 -8.3936
#
#
#
# Elastic Compliance Matrix: (Units=1/GPa)
#
#
# Indices 1 2 3 4 5 6 
#
# 1 0.025716 -0.005300 -0.003465 0.000000 0.000000 0.000000
# 2 -0.005300 0.011002 -0.003477 0.000000 0.000000 0.000000
# 3 -0.003465 -0.003477 0.011005 0.000000 0.000000 0.000000
# 4 0.000000 0.000000 0.000000 0.030446 0.000000 0.000000
# 5 0.000000 0.000000 0.000000 0.000000 0.116484 0.000000
# 6 0.000000 0.000000 0.000000 0.000000 0.000000 -0.119139
#
#
# Mechanical properties :
#
#
# Convention : Reuss Voigt Hill
#
# Bulk Modulus (GPa) = 43.02689 54.92002 48.97345
# Shear Modulus (GPa) = 46.40577 18.54856 32.47716
#
# Velocity S-wave (km/s) = 5.11180 3.23179 4.27639
# Velocity P-wave (km/s) = 7.68561 6.69707 7.20830
#
# Compressibility (1/GPa) = 0.02324128
#
# Stress axis : x y z
#
# Youngs Moduli (GPa) = 38.88560 90.89146 90.86575
#
# Poissons Ratio (x) = 0.48168 0.31483
# Poissons Ratio (y) = 0.20607 0.31594
# Poissons Ratio (z) = 0.13473 0.31603
#
# Static dielectric constant tensor:
#      x y z
#    x 2.632440 0.000000 0.000000 
#    y 0.000000 3.602580 0.000000 
#    z 0.000000 0.000000 3.769030 
# 
# 
# High freq. dielectric constant tensor:
#      x y z
#    x 1.601640 0.000000 0.000000 
#    y 0.000000 1.710440 0.000000 
#    z 0.000000 0.000000 1.714020 
# 
# From -- ./inp_files/4037.got.cif
#   From: 2010.03.12/outbox.cif.g09.slc.cpg/sg60_3_cif.got.tgz:4037.got - 2010.04.10 18:46:24.
