data_PCOD8246749
_publ_section_title
;
Structure prediction by ZEFSAII (Michael W. Deem and Ramdas Pophale) SiO2 
 PCOD8246749
Probable space group: P B C N
;
_chemical_formula_sum "Si O2"
_cell_formula_units_Z 44
_cell_length_a 10.207209
_cell_length_b 14.890450
_cell_length_c 14.706581
_cell_angle_alpha 90.000000
_cell_angle_beta 90.000000
_cell_angle_gamma 90.000000
_cell_volume 2235.252294
_symmetry_space_group_name_H-M "P B C N"
_symmetry_group_IT_number 60
_symmetry_cell_setting 'orthorhombic'
loop_
_space_group_symop_operation_xyz
x,y,z
1/2-x,1/2-y,1/2+z
1/2+x,1/2-y,-z
-x,y,1/2-z
-x,-y,-z
1/2+x,1/2+y,1/2-z
1/2-x,1/2+y,z
x,-y,1/2+z
loop_
_atom_site_type_symbol
_atom_site_label
_atom_site_fract_x
_atom_site_fract_y
_atom_site_fract_z
Si Si1 0.547669 0.771307 0.153056
Si Si2 0.164723 0.743043 0.393015
Si Si3 0.148673 0.935461 0.090995
Si Si4 0.500000 0.651370 0.750000
Si Si5 0.931404 0.594510 0.979466
Si Si6 0.072207 0.869274 0.538528
O O1 0.500000 0.808271 0.250000
O O2 0.694340 0.732964 0.152957
O O3 0.536437 0.849955 0.078771
O O4 0.454409 0.688114 0.128360
O O5 0.072167 0.781752 0.316396
O O6 0.106712 0.647346 0.427610
O O7 0.173479 0.814162 0.475917
O O8 0.099333 0.912188 0.192875
O O9 0.300820 0.912269 0.081702
O O10 0.137811 0.040386 0.071648
O O11 0.063930 0.882309 0.016166
O O12 0.000000 0.500000 0.000000
#
# Coordination Sequence:
#
# PCOD8246749 Si02
#       6
#     8   8   8   4   8   8
#     4  11  22  39  61  92 122 159 204 256 309 360
#     4  10  21  42  60  87 124 161 206 250 310 373
#     4  10  19  39  60  91 120 155 210 247 304 373
#     4  10  22  38  66  92 122 158 204 264 306 358
#     4  11  23  41  64  89 125 169 205 250 312 374
#     4   9  20  36  63  83 118 166 196 249 307 363
#
# _framework density 19.684577999999998
#
# number of rings (size 3 to 8) (size 9 to 14) (size 15 to 20)
#    0.000    1.818    1.818    2.182    1.273    0.000 
#    4.909    0.000    0.000    0.000    0.000    0.000 
#    0.000    0.000    0.000    0.000    0.000    0.000 
#
# Total GULP energy -545584.232771 kJ/mol
# GULP energy per Si atom -12399.641654 kJ/mol
# Density = 1.963978 g / cm^3
# Si number density = 19.684578 Si / 1000 Ang^3
#
#
#
# Elastic Constant Matrix: (Units=GPa)
#
#
# Indices 1 2 3 4 5 6 
#
# 1 82.2009 26.2065 38.5537 0.0000 0.0000 0.0000
# 2 26.2065 116.0874 41.8989 0.0000 0.0000 0.0000
# 3 38.5537 41.8989 91.2395 0.0000 0.0000 0.0000
# 4 0.0000 0.0000 0.0000 17.4776 0.0000 0.0000
# 5 0.0000 0.0000 0.0000 0.0000 28.5443 0.0000
# 6 0.0000 0.0000 0.0000 0.0000 0.0000 17.0853
#
#
#
# Elastic Compliance Matrix: (Units=1/GPa)
#
#
# Indices 1 2 3 4 5 6 
#
# 1 0.015346 -0.001347 -0.005866 0.000000 0.000000 0.000000
# 2 -0.001347 0.010444 -0.004227 0.000000 0.000000 0.000000
# 3 -0.005866 -0.004227 0.015380 0.000000 0.000000 0.000000
# 4 0.000000 0.000000 0.000000 0.057216 0.000000 0.000000
# 5 0.000000 0.000000 0.000000 0.000000 0.035033 0.000000
# 6 0.000000 0.000000 0.000000 0.000000 0.000000 0.058530
#
#
# Mechanical properties :
#
#
# Convention : Reuss Voigt Hill
#
# Bulk Modulus (GPa) = 54.67451 55.87177 55.27314
# Shear Modulus (GPa) = 22.63208 24.81269 23.72238
#
# Velocity S-wave (km/s) = 3.39446 3.55422 3.47526
# Velocity P-wave (km/s) = 6.57257 6.72967 6.65159
#
# Compressibility (1/GPa) = 0.01829006
#
# Stress axis : x y z
#
# Youngs Moduli (GPa) = 65.16353 95.74992 65.02022
#
# Poissons Ratio (x) = 0.12899 0.38140
# Poissons Ratio (y) = 0.08779 0.27482
# Poissons Ratio (z) = 0.38224 0.40471
#
# Static dielectric constant tensor:
#      x y z
#    x 3.582930 0.000000 0.000000 
#    y 0.000000 3.601190 0.000000 
#    z 0.000000 0.000000 3.636600 
# 
# 
# High freq. dielectric constant tensor:
#      x y z
#    x 1.769440 0.000000 0.000000 
#    y 0.000000 1.770190 0.000000 
#    z 0.000000 0.000000 1.762140 
# 
# From -- ./inp_files/19215.got.cif
#   From: 2010.03.12/outbox.cif.g09.slc.cpg/sg60_10_cif.got.tgz:19215.got - 2010.04.10 18:46:24.
