data_PCOD8246545
_publ_section_title
;
Structure prediction by ZEFSAII (Michael W. Deem and Ramdas Pophale) SiO2 
 PCOD8246545
Probable space group: P B C N
;
_chemical_formula_sum "Si O2"
_cell_formula_units_Z 56
_cell_length_a 14.745256
_cell_length_b 14.037845
_cell_length_c 13.806744
_cell_angle_alpha 90.000000
_cell_angle_beta 90.000000
_cell_angle_gamma 90.000000
_cell_volume 2857.880283
_symmetry_space_group_name_H-M "P B C N"
_symmetry_group_IT_number 60
_symmetry_cell_setting 'orthorhombic'
loop_
_space_group_symop_operation_xyz
x,y,z
1/2-x,1/2-y,1/2+z
1/2+x,1/2-y,-z
-x,y,1/2-z
-x,-y,-z
1/2+x,1/2+y,1/2-z
1/2-x,1/2+y,z
x,-y,1/2+z
loop_
_atom_site_type_symbol
_atom_site_label
_atom_site_fract_x
_atom_site_fract_y
_atom_site_fract_z
Si Si1 0.743672 0.398249 0.809980
Si Si2 0.194084 0.758736 0.536235
Si Si3 0.313170 0.745668 0.347009
Si Si4 0.785938 0.395636 0.316369
Si Si5 0.018961 0.714977 0.965277
Si Si6 0.555882 0.162324 0.334142
Si Si7 0.477727 0.042507 0.644576
O O1 0.712952 0.362305 0.916561
O O2 0.692735 0.345443 0.722501
O O3 0.721262 0.511775 0.800934
O O4 0.848459 0.371318 0.793603
O O5 0.233796 0.749813 0.428324
O O6 0.247478 0.683008 0.605752
O O7 0.084917 0.748245 0.540702
O O8 0.304621 0.843889 0.286102
O O9 0.412975 0.730622 0.393238
O O10 0.871219 0.443273 0.369142
O O11 0.029098 0.602763 0.937759
O O12 0.059787 0.730053 0.072563
O O13 0.500000 0.217140 0.250000
O O14 0.495672 0.068531 0.362487
O O15 0.500000 0.085760 0.750000
#
# Coordination Sequence:
#
# PCOD8246545 Si02
#       7
#     8   8   8   8   8   8   8
#     4  10  21  37  55  85 117 154 190 233 290 351
#     4  10  22  37  58  86 118 151 196 238 293 347
#     4  11  21  37  60  86 115 153 195 239 291 347
#     4   9  20  35  57  81 118 152 183 240 287 342
#     4  11  20  34  56  84 114 148 190 241 290 348
#     4  10  19  32  52  81 118 145 177 229 299 361
#     4   9  16  29  50  84 113 138 175 225 295 358
#
# _framework density 19.594942
#
# number of rings (size 3 to 8) (size 9 to 14) (size 15 to 20)
#    0.000    2.000    2.857    1.286    0.000    1.143 
#    2.571    0.000    0.000    5.143    0.000    0.000 
#    0.000    0.000    0.000    0.000    0.000    0.000 
#
# Total GULP energy -693812.138705 kJ/mol
# GULP energy per Si atom -12389.502477 kJ/mol
# Density = 1.955034 g / cm^3
# Si number density = 19.594942 Si / 1000 Ang^3
#
#
#
# Elastic Constant Matrix: (Units=GPa)
#
#
# Indices 1 2 3 4 5 6 
#
# 1 66.0590 18.3286 14.8670 0.0000 0.0000 0.0000
# 2 18.3286 86.7279 29.8721 0.0000 0.0000 0.0000
# 3 14.8670 29.8721 109.6510 0.0000 0.0000 0.0000
# 4 0.0000 0.0000 0.0000 16.7099 0.0000 0.0000
# 5 0.0000 0.0000 0.0000 0.0000 32.9456 0.0000
# 6 0.0000 0.0000 0.0000 0.0000 0.0000 21.5666
#
#
#
# Elastic Compliance Matrix: (Units=1/GPa)
#
#
# Indices 1 2 3 4 5 6 
#
# 1 0.016274 -0.002957 -0.001401 0.000000 0.000000 0.000000
# 2 -0.002957 0.013261 -0.003212 0.000000 0.000000 0.000000
# 3 -0.001401 -0.003212 0.010185 0.000000 0.000000 0.000000
# 4 0.000000 0.000000 0.000000 0.059845 0.000000 0.000000
# 5 0.000000 0.000000 0.000000 0.000000 0.030353 0.000000
# 6 0.000000 0.000000 0.000000 0.000000 0.000000 0.046368
#
#
# Mechanical properties :
#
#
# Convention : Reuss Voigt Hill
#
# Bulk Modulus (GPa) = 40.68215 43.17481 41.92848
# Shear Modulus (GPa) = 25.04780 27.53576 26.29178
#
# Velocity S-wave (km/s) = 3.57918 3.75273 3.66698
# Velocity P-wave (km/s) = 6.15527 6.39209 6.27480
#
# Compressibility (1/GPa) = 0.02458081
#
# Stress axis : x y z
#
# Youngs Moduli (GPa) = 61.44910 75.40654 98.18536
#
# Poissons Ratio (x) = 0.22295 0.13756
# Poissons Ratio (y) = 0.18168 0.31536
# Poissons Ratio (z) = 0.08609 0.24220
#
# Static dielectric constant tensor:
#      x y z
#    x 3.407350 0.000000 0.000000 
#    y 0.000000 3.660510 0.000000 
#    z 0.000000 0.000000 3.720810 
# 
# 
# High freq. dielectric constant tensor:
#      x y z
#    x 1.743890 0.000000 0.000000 
#    y 0.000000 1.735360 0.000000 
#    z 0.000000 0.000000 1.777070 
# 
# From -- ./inp_files/16950.got.cif
#   From: 2010.03.12/outbox.cif.g09.slc.cpg/sg60_9_cif.got.tgz:16950.got - 2010.04.10 18:46:24.
