data_PCOD8246121
_publ_section_title
;
Structure prediction by ZEFSAII (Michael W. Deem and Ramdas Pophale) SiO2 
 PCOD8246121
Probable space group: P M M N
;
_chemical_formula_sum "Si O2"
_cell_formula_units_Z 32
_cell_length_a 13.921856
_cell_length_b 7.687454
_cell_length_c 14.056561
_cell_angle_alpha 90.000000
_cell_angle_beta 90.000000
_cell_angle_gamma 90.000000
_cell_volume 1504.384150
_symmetry_space_group_name_H-M "P M M N"
_symmetry_group_IT_number 59
_space_group.IT_coordinate_system_code '2'
_symmetry_cell_setting 'orthorhombic'
loop_
_space_group_symop_operation_xyz
x,y,z
1/2-x,1/2-y,z
1/2+x,-y,-z
-x,1/2+y,-z
-x,-y,-z
1/2+x,1/2+y,-z
1/2-x,y,z
x,1/2-y,z
loop_
_atom_site_type_symbol
_atom_site_label
_atom_site_fract_x
_atom_site_fract_y
_atom_site_fract_z
Si Si1 0.518621 0.453256 0.108105
Si Si2 0.363951 0.941602 0.459365
Si Si3 0.135081 0.250000 0.587600
Si Si4 0.857071 0.546176 0.744711
Si Si5 0.136884 0.250000 0.802601
O O1 0.545909 0.250000 0.120822
O O2 0.423016 0.503627 0.166179
O O3 0.604401 0.573745 0.145280
O O4 0.500000 0.500000 0.000000
O O5 0.250000 0.968627 0.456764
O O6 0.392673 0.750000 0.495940
O O7 0.408145 0.080868 0.533373
O O8 0.401511 0.965090 0.351597
O O9 0.250000 0.250000 0.585462
O O10 0.097135 0.250000 0.694974
O O11 0.750000 0.473166 0.765912
O O12 0.852788 0.750000 0.728159
O O13 0.250000 0.250000 0.804751
#
# Coordination Sequence:
#
# PCOD8246121 Si02
#       5
#     8   8   4   8   4
#     4  11  24  44  68  94 131 165 210 275 328 378
#     4   9  16  28  54  89 123 162 207 254 309 371
#     4   9  18  36  57  84 126 169 209 254 307 372
#     4   9  18  35  62  94 128 164 205 261 328 385
#     4  11  26  46  68  92 128 177 218 256 314 386
#
# _framework density 21.271162
#
# number of rings (size 3 to 8) (size 9 to 14) (size 15 to 20)
#    0.000    2.250    2.500    0.000    1.750    2.500 
#    0.000    3.750    0.000    0.000    0.000    0.000 
#    0.000    0.000    0.000    0.000    0.000    0.000 
#
# Total GULP energy -396819.278270 kJ/mol
# GULP energy per Si atom -12400.602446 kJ/mol
# Density = 2.122275 g / cm^3
# Si number density = 21.271162 Si / 1000 Ang^3
#
#
#
# Elastic Constant Matrix: (Units=GPa)
#
#
# Indices 1 2 3 4 5 6 
#
# 1 57.9992 37.8886 46.6805 0.0000 0.0000 0.0000
# 2 37.8886 142.1323 83.7411 0.0000 0.0000 0.0000
# 3 46.6805 83.7411 188.7564 0.0000 0.0000 0.0000
# 4 0.0000 0.0000 0.0000 33.6678 0.0000 0.0000
# 5 0.0000 0.0000 0.0000 0.0000 27.6727 0.0000
# 6 0.0000 0.0000 0.0000 0.0000 0.0000 30.0341
#
#
#
# Elastic Compliance Matrix: (Units=1/GPa)
#
#
# Indices 1 2 3 4 5 6 
#
# 1 0.022913 -0.003749 -0.004003 0.000000 0.000000 0.000000
# 2 -0.003749 0.010139 -0.003571 0.000000 0.000000 0.000000
# 3 -0.004003 -0.003571 0.007872 0.000000 0.000000 0.000000
# 4 0.000000 0.000000 0.000000 0.029702 0.000000 0.000000
# 5 0.000000 0.000000 0.000000 0.000000 0.036137 0.000000
# 6 0.000000 0.000000 0.000000 0.000000 0.000000 0.033296
#
#
# Mechanical properties :
#
#
# Convention : Reuss Voigt Hill
#
# Bulk Modulus (GPa) = 54.71307 80.61204 67.66256
# Shear Modulus (GPa) = 29.62133 32.98010 31.30071
#
# Velocity S-wave (km/s) = 3.73575 3.94186 3.84019
# Velocity P-wave (km/s) = 6.66223 7.66142 7.17923
#
# Compressibility (1/GPa) = 0.01827717
#
# Stress axis : x y z
#
# Youngs Moduli (GPa) = 43.64367 98.62809 127.03194
#
# Poissons Ratio (x) = 0.36980 0.50852
# Poissons Ratio (y) = 0.16364 0.45362
# Poissons Ratio (z) = 0.17471 0.35219
#
# Static dielectric constant tensor:
#      x y z
#    x 3.693840 0.000000 0.000000 
#    y 0.000000 4.113720 0.000000 
#    z 0.000000 0.000000 3.924040 
# 
# 
# High freq. dielectric constant tensor:
#      x y z
#    x 1.823210 0.000000 0.000000 
#    y 0.000000 1.845200 0.000000 
#    z 0.000000 0.000000 1.835830 
# 
# From -- ./inp_files/16472.got.cif
#   From: 2010.03.12/outbox.cif.g09.slc.cpg/sg59_9_cif.got.tgz:16472.got - 2010.04.16 16:29:54.
