data_PCOD8246899
_publ_section_title
;
Structure prediction by ZEFSAII (Michael W. Deem and Ramdas Pophale) SiO2 
 PCOD8246899
Probable space group: P B C N
;
_chemical_formula_sum "Si O2"
_cell_formula_units_Z 60
_cell_length_a 28.544151
_cell_length_b 8.621698
_cell_length_c 12.372628
_cell_angle_alpha 90.000000
_cell_angle_beta 90.000000
_cell_angle_gamma 90.000000
_cell_volume 3044.891992
_symmetry_space_group_name_H-M "P B C N"
_symmetry_group_IT_number 60
_symmetry_cell_setting 'orthorhombic'
loop_
_space_group_symop_operation_xyz
x,y,z
1/2-x,1/2-y,1/2+z
1/2+x,1/2-y,-z
-x,y,1/2-z
-x,-y,-z
1/2+x,1/2+y,1/2-z
1/2-x,1/2+y,z
x,-y,1/2+z
loop_
_atom_site_type_symbol
_atom_site_label
_atom_site_fract_x
_atom_site_fract_y
_atom_site_fract_z
Si Si1 0.407576 0.434031 0.822275
Si Si2 0.907165 0.739063 0.476961
Si Si3 0.532282 0.029688 0.599635
Si Si4 0.195236 0.195892 0.293571
Si Si5 0.757557 0.540031 0.830627
Si Si6 0.500000 0.719357 0.250000
Si Si7 0.301635 0.224532 0.040174
Si Si8 0.949494 0.230926 0.747394
O O1 0.358129 0.365162 0.779659
O O2 0.450963 0.375690 0.748120
O O3 0.409962 0.621459 0.807814
O O4 0.413310 0.395319 0.949989
O O5 0.917995 0.595555 0.557332
O O6 0.855800 0.719386 0.431682
O O7 0.940079 0.735591 0.372921
O O8 0.501618 0.168534 0.648058
O O9 0.500000 0.000000 0.500000
O O10 0.544542 0.890656 0.680852
O O11 0.202382 0.350675 0.221764
O O12 0.207760 0.241053 0.415367
O O13 0.232488 0.064885 0.259908
O O14 0.780144 0.439599 0.926120
O O15 0.717707 0.640016 0.885825
O O16 0.000000 0.145590 0.750000
#
# Coordination Sequence:
#
# PCOD8246899 Si02
#       8
#     8   8   8   8   8   4   8   8
#     4  10  23  39  60  89 122 162 205 251 309 363
#     4  10  23  39  58  86 123 157 203 254 301 371
#     4  11  21  37  56  83 116 156 204 244 294 353
#     4  10  21  40  61  92 125 160 205 258 309 376
#     4  10  21  38  65  88 121 163 203 257 316 369
#     4  10  20  36  56  80 118 160 192 244 292 358
#     4  10  21  39  60  90 122 157 204 254 310 370
#     4  12  22  39  62  87 119 164 206 254 301 359
#
# _framework density 19.705131999999999
#
# number of rings (size 3 to 8) (size 9 to 14) (size 15 to 20)
#    0.000    1.600    2.667    1.600    0.000    5.867 
#    0.000    6.667    0.000    0.000    0.000    0.000 
#    0.000    0.000    0.000    0.000    0.000    0.000 
#
# Total GULP energy -743553.846094 kJ/mol
# GULP energy per Si atom -12392.564102 kJ/mol
# Density = 1.966028 g / cm^3
# Si number density = 19.705132 Si / 1000 Ang^3
#
#
#
# Elastic Constant Matrix: (Units=GPa)
#
#
# Indices 1 2 3 4 5 6 
#
# 1 124.1776 44.2757 51.4664 0.0000 0.0000 0.0000
# 2 44.2757 98.1993 41.5665 0.0000 0.0000 0.0000
# 3 51.4664 41.5665 106.4987 0.0000 0.0000 0.0000
# 4 0.0000 0.0000 0.0000 26.3384 0.0000 0.0000
# 5 0.0000 0.0000 0.0000 0.0000 35.5212 0.0000
# 6 0.0000 0.0000 0.0000 0.0000 0.0000 18.4393
#
#
#
# Elastic Compliance Matrix: (Units=1/GPa)
#
#
# Indices 1 2 3 4 5 6 
#
# 1 0.010850 -0.003201 -0.003994 0.000000 0.000000 0.000000
# 2 -0.003201 0.013143 -0.003583 0.000000 0.000000 0.000000
# 3 -0.003994 -0.003583 0.012718 0.000000 0.000000 0.000000
# 4 0.000000 0.000000 0.000000 0.037967 0.000000 0.000000
# 5 0.000000 0.000000 0.000000 0.000000 0.028152 0.000000
# 6 0.000000 0.000000 0.000000 0.000000 0.000000 0.054232
#
#
# Mechanical properties :
#
#
# Convention : Reuss Voigt Hill
#
# Bulk Modulus (GPa) = 65.98276 67.05473 66.51875
# Shear Modulus (GPa) = 27.22271 28.83091 28.02681
#
# Velocity S-wave (km/s) = 3.72089 3.82922 3.77544
# Velocity P-wave (km/s) = 7.21234 7.32486 7.26881
#
# Compressibility (1/GPa) = 0.01515547
#
# Stress axis : x y z
#
# Youngs Moduli (GPa) = 92.16890 76.08423 78.62799
#
# Poissons Ratio (x) = 0.24357 0.31402
# Poissons Ratio (y) = 0.29507 0.28170
# Poissons Ratio (z) = 0.36809 0.27259
#
# Static dielectric constant tensor:
#      x y z
#    x 3.667890 0.000000 0.000000 
#    y 0.000000 3.610610 0.000000 
#    z 0.000000 0.000000 3.695710 
# 
# 
# High freq. dielectric constant tensor:
#      x y z
#    x 1.770410 0.000000 0.000000 
#    y 0.000000 1.773840 0.000000 
#    z 0.000000 0.000000 1.774660 
# 
# From -- ./inp_files/13295.got.cif
#   From: 2010.03.12/outbox.cif.g09.slc.cpg/sg60_7_cif.got.tgz:13295.got - 2010.04.10 18:46:24.
