data_PCOD8246621
_publ_section_title
;
Structure prediction by ZEFSAII (Michael W. Deem and Ramdas Pophale) SiO2 
 PCOD8246621
Probable space group: P B C N
;
_chemical_formula_sum "Si O2"
_cell_formula_units_Z 44
_cell_length_a 12.100724
_cell_length_b 18.991848
_cell_length_c 10.289708
_cell_angle_alpha 90.000000
_cell_angle_beta 90.000000
_cell_angle_gamma 90.000000
_cell_volume 2364.730385
_symmetry_space_group_name_H-M "P B C N"
_symmetry_group_IT_number 60
_symmetry_cell_setting 'orthorhombic'
loop_
_space_group_symop_operation_xyz
x,y,z
1/2-x,1/2-y,1/2+z
1/2+x,1/2-y,-z
-x,y,1/2-z
-x,-y,-z
1/2+x,1/2+y,1/2-z
1/2-x,1/2+y,z
x,-y,1/2+z
loop_
_atom_site_type_symbol
_atom_site_label
_atom_site_fract_x
_atom_site_fract_y
_atom_site_fract_z
Si Si1 0.288287 0.926334 0.507246
Si Si2 0.374584 0.561159 0.238831
Si Si3 0.674851 0.597718 0.754287
Si Si4 0.783073 0.413853 0.518388
Si Si5 0.996360 0.348636 0.891431
Si Si6 0.500000 0.286848 0.250000
O O1 0.185842 0.912195 0.606613
O O2 0.263246 0.908061 0.359316
O O3 0.392408 0.877896 0.533243
O O4 0.323817 0.007670 0.515939
O O5 0.500000 0.591939 0.250000
O O6 0.388063 0.476780 0.234970
O O7 0.302399 0.587086 0.361255
O O8 0.600127 0.662861 0.713911
O O9 0.725849 0.618651 0.892261
O O10 0.888337 0.364779 0.539805
O O11 0.000000 0.386059 0.750000
O O12 0.980862 0.263992 0.875209
#
# Coordination Sequence:
#
# PCOD8246621 Si02
#       6
#     8   8   8   8   8   4
#     4  10  21  37  61  88 112 145 187 241 287 330
#     4  10  19  34  59  90 118 144 183 233 293 337
#     4  10  22  34  57  90 114 148 190 233 278 331
#     4  10  21  37  61  88 112 145 187 241 287 330
#     4  10  21  40  57  78 115 156 185 223 288 338
#     4  10  22  38  56  80 120 160 178 232 276 338
#
# _framework density 18.606771999999999
#
# number of rings (size 3 to 8) (size 9 to 14) (size 15 to 20)
#    0.545    1.455    2.727    0.545    2.545    4.364 
#    0.000    0.000    0.000    0.000    0.000    0.000 
#    0.000    0.000    0.000    0.000    0.000    0.000 
#
# Total GULP energy -545339.998136 kJ/mol
# GULP energy per Si atom -12394.090867 kJ/mol
# Density = 1.856442 g / cm^3
# Si number density = 18.606772 Si / 1000 Ang^3
#
#
#
# Elastic Constant Matrix: (Units=GPa)
#
#
# Indices 1 2 3 4 5 6 
#
# 1 105.0023 26.8828 23.0325 0.0000 0.0000 0.0000
# 2 26.8828 63.5908 5.8422 0.0000 0.0000 0.0000
# 3 23.0325 5.8422 96.3395 0.0000 0.0000 0.0000
# 4 0.0000 0.0000 0.0000 2.3633 0.0000 0.0000
# 5 0.0000 0.0000 0.0000 0.0000 21.0032 0.0000
# 6 0.0000 0.0000 0.0000 0.0000 0.0000 -298.8421
#
#
#
# Elastic Compliance Matrix: (Units=1/GPa)
#
#
# Indices 1 2 3 4 5 6 
#
# 1 0.011208 -0.004517 -0.002406 0.000000 0.000000 0.000000
# 2 -0.004517 0.017634 0.000011 0.000000 0.000000 0.000000
# 3 -0.002406 0.000011 0.010954 0.000000 0.000000 0.000000
# 4 0.000000 0.000000 0.000000 0.423138 0.000000 0.000000
# 5 0.000000 0.000000 0.000000 0.000000 0.047612 0.000000
# 6 0.000000 0.000000 0.000000 0.000000 0.000000 -0.003346
#
#
# Mechanical properties :
#
#
# Convention : Reuss Voigt Hill
#
# Bulk Modulus (GPa) = 38.50275 41.82752 40.16513
# Shear Modulus (GPa) = 9.43964 -41.15012 -15.85524
#
# Velocity S-wave (km/s) = 2.25483 -4.70783 -2.92228
# Velocity P-wave (km/s) = 5.24564 2.65010 3.20107
#
# Compressibility (1/GPa) = 0.02597217
#
# Stress axis : x y z
#
# Youngs Moduli (GPa) = 89.22414 56.70817 91.28723
#
# Poissons Ratio (x) = 0.25615 0.21960
# Poissons Ratio (y) = 0.40303 -0.00096
# Poissons Ratio (z) = 0.21464 -0.00060
#
# Static dielectric constant tensor:
#      x y z
#    x 3.269620 0.000000 0.000000 
#    y 0.000000 3.195990 0.000000 
#    z 0.000000 0.000000 3.504710 
# 
# 
# High freq. dielectric constant tensor:
#      x y z
#    x 1.721660 0.000000 0.000000 
#    y 0.000000 1.698820 0.000000 
#    z 0.000000 0.000000 1.727280 
# 
# From -- ./inp_files/11095.got.cif
#   From: 2010.03.12/outbox.cif.g09.slc.cpg/sg60_6_cif.got.tgz:11095.got - 2010.04.10 18:46:24.
