data_PCOD8246426
_publ_section_title
;
Structure prediction by ZEFSAII (Michael W. Deem and Ramdas Pophale) SiO2 
 PCOD8246426
Probable space group: P B C N
;
_chemical_formula_sum "Si O2"
_cell_formula_units_Z 64
_cell_length_a 11.413873
_cell_length_b 14.910396
_cell_length_c 18.937583
_cell_angle_alpha 90.000000
_cell_angle_beta 90.000000
_cell_angle_gamma 90.000000
_cell_volume 3222.899500
_symmetry_space_group_name_H-M "P B C N"
_symmetry_group_IT_number 60
_symmetry_cell_setting 'orthorhombic'
loop_
_space_group_symop_operation_xyz
x,y,z
1/2-x,1/2-y,1/2+z
1/2+x,1/2-y,-z
-x,y,1/2-z
-x,-y,-z
1/2+x,1/2+y,1/2-z
1/2-x,1/2+y,z
x,-y,1/2+z
loop_
_atom_site_type_symbol
_atom_site_label
_atom_site_fract_x
_atom_site_fract_y
_atom_site_fract_z
Si Si1 0.250873 0.819359 0.702284
Si Si2 0.116147 0.059368 0.010875
Si Si3 0.497032 0.107814 0.836065
Si Si4 0.242970 0.941927 0.364061
Si Si5 0.441739 0.289478 0.600513
Si Si6 0.765420 0.490010 0.356159
Si Si7 0.907863 0.095997 0.196292
Si Si8 0.133215 0.148633 0.742525
O O1 0.185312 0.776806 0.635261
O O2 0.292799 0.920479 0.688748
O O3 0.154922 0.819703 0.765430
O O4 0.356960 0.752304 0.718503
O O5 0.081177 0.165511 0.023564
O O6 0.196278 0.015807 0.072625
O O7 0.199660 0.062643 0.943574
O O8 0.000000 0.000000 0.000000
O O9 0.500000 0.125293 0.750000
O O10 0.383054 0.051579 0.857750
O O11 0.489352 0.197311 0.885758
O O12 0.607588 0.053957 0.866731
O O13 0.197521 0.857464 0.318415
O O14 0.192603 0.029657 0.327197
O O15 0.516672 0.371710 0.631107
O O16 0.687608 0.420019 0.313238
O O17 0.000000 0.048521 0.250000
O O18 0.000000 0.122625 0.750000
#
# Coordination Sequence:
#
# PCOD8246426 Si02
#       8
#     8   8   8   8   8   8   8   8
#     4  10  20  37  63  97 125 163 216 269 338 392
#     4  11  24  44  63  94 136 177 227 280 333 407
#     4  12  22  43  69  99 134 170 225 282 335 414
#     4  12  23  39  64  99 130 171 228 273 336 403
#     4  10  20  38  65  86 128 174 212 266 329 407
#     4  11  24  43  68  94 134 183 215 274 355 397
#     4  10  18  33  64  95 125 166 225 272 327 386
#     4  12  23  39  66  99 130 165 228 290 328 385
#
# _framework density 19.857894000000002
#
# number of rings (size 3 to 8) (size 9 to 14) (size 15 to 20)
#    0.000    1.000    5.000    3.000    1.750    2.000 
#    2.250    1.250    0.000    0.000    0.000    0.000 
#    0.000    0.000    0.000    0.000    0.000    0.000 
#
# Total GULP energy -792904.278294 kJ/mol
# GULP energy per Si atom -12389.129348 kJ/mol
# Density = 1.981270 g / cm^3
# Si number density = 19.857894 Si / 1000 Ang^3
#
#
#
# Elastic Constant Matrix: (Units=GPa)
#
#
# Indices 1 2 3 4 5 6 
#
# 1 152.7558 51.4277 48.7331 0.0000 0.0000 0.0000
# 2 51.4277 111.8505 38.8605 0.0000 0.0000 0.0000
# 3 48.7331 38.8605 113.9144 0.0000 0.0000 0.0000
# 4 0.0000 0.0000 0.0000 -21.6917 0.0000 0.0000
# 5 0.0000 0.0000 0.0000 0.0000 29.3800 0.0000
# 6 0.0000 0.0000 0.0000 0.0000 0.0000 22.0740
#
#
#
# Elastic Compliance Matrix: (Units=1/GPa)
#
#
# Indices 1 2 3 4 5 6 
#
# 1 0.008360 -0.002951 -0.002570 0.000000 0.000000 0.000000
# 2 -0.002951 0.011184 -0.002553 0.000000 0.000000 0.000000
# 3 -0.002570 -0.002553 0.010749 0.000000 0.000000 0.000000
# 4 0.000000 0.000000 0.000000 -0.046101 0.000000 0.000000
# 5 0.000000 0.000000 0.000000 0.000000 0.034037 0.000000
# 6 0.000000 0.000000 0.000000 0.000000 0.000000 0.045302
#
#
# Mechanical properties :
#
#
# Convention : Reuss Voigt Hill
#
# Bulk Modulus (GPa) = 70.69308 72.95147 71.82227
# Shear Modulus (GPa) = 59.24651 21.91910 40.58280
#
# Velocity S-wave (km/s) = 5.46809 3.32595 4.52559
# Velocity P-wave (km/s) = 8.69157 7.18093 7.97211
#
# Compressibility (1/GPa) = 0.01414566
#
# Stress axis : x y z
#
# Youngs Moduli (GPa) = 119.62230 89.41116 93.03427
#
# Poissons Ratio (x) = 0.26384 0.23906
# Poissons Ratio (y) = 0.35299 0.23751
# Poissons Ratio (z) = 0.30738 0.22826
#
# Static dielectric constant tensor:
#      x y z
#    x 3.727970 0.000000 0.000000 
#    y 0.000000 3.649820 0.000000 
#    z 0.000000 0.000000 3.402740 
# 
# 
# High freq. dielectric constant tensor:
#      x y z
#    x 1.780130 0.000000 0.000000 
#    y 0.000000 1.774720 0.000000 
#    z 0.000000 0.000000 1.757190 
# 
# From -- ./inp_files/20208.got.cif
#   From: 2010.03.12/outbox.cif.g09.slc.cpg/sg60_11_cif.got.tgz:20208.got - 2010.04.10 18:46:24.
