data_PCOD8246862
_publ_section_title
;
Structure prediction by ZEFSAII (Michael W. Deem and Ramdas Pophale) SiO2 
 PCOD8246862
Probable space group: P B C N
;
_chemical_formula_sum "Si O2"
_cell_formula_units_Z 48
_cell_length_a 11.488842
_cell_length_b 22.362805
_cell_length_c 10.249007
_cell_angle_alpha 90.000000
_cell_angle_beta 90.000000
_cell_angle_gamma 90.000000
_cell_volume 2633.202892
_symmetry_space_group_name_H-M "P B C N"
_symmetry_group_IT_number 60
_symmetry_cell_setting 'orthorhombic'
loop_
_space_group_symop_operation_xyz
x,y,z
1/2-x,1/2-y,1/2+z
1/2+x,1/2-y,-z
-x,y,1/2-z
-x,-y,-z
1/2+x,1/2+y,1/2-z
1/2-x,1/2+y,z
x,-y,1/2+z
loop_
_atom_site_type_symbol
_atom_site_label
_atom_site_fract_x
_atom_site_fract_y
_atom_site_fract_z
Si Si1 0.626046 0.031055 0.506547
Si Si2 0.075160 0.778324 0.877385
Si Si3 0.687865 0.180388 0.223477
Si Si4 0.812636 0.663783 0.528346
Si Si5 0.071408 0.200736 0.870949
Si Si6 0.366454 0.046674 0.271186
O O1 0.621513 0.100806 0.544679
O O2 0.694416 0.030404 0.367493
O O3 0.500000 0.000000 0.500000
O O4 0.695005 0.993417 0.616747
O O5 0.191855 0.815991 0.854709
O O6 0.103647 0.708884 0.896269
O O7 0.000000 0.786258 0.750000
O O8 0.009058 0.803598 0.002470
O O9 0.704384 0.186556 0.379422
O O10 0.601329 0.230629 0.167424
O O11 0.636097 0.115845 0.189007
O O12 0.687488 0.662584 0.600363
O O13 0.000000 0.171931 0.750000
O O14 0.500000 0.028206 0.250000
#
# Coordination Sequence:
#
# PCOD8246862 Si02
#       6
#     8   8   8   8   8   8
#     4   9  19  34  54  80 109 140 178 230 281 332
#     4  11  22  35  54  83 112 144 188 233 278 341
#     4  10  20  35  56  80 111 152 188 224 288 345
#     4  10  21  36  56  84 116 148 190 232 285 350
#     4  11  21  36  57  80 115 152 190 231 287 340
#     4   9  18  34  55  77 106 144 178 225 277 335
#
# _framework density 18.228750999999999
#
# number of rings (size 3 to 8) (size 9 to 14) (size 15 to 20)
#    0.000    2.000    3.333    0.500    4.667    2.000 
#    3.000    0.000    0.000    2.000    0.000    0.000 
#    0.000    0.000    0.000    0.000    0.000    0.000 
#
# Total GULP energy -594847.022021 kJ/mol
# GULP energy per Si atom -12392.646292 kJ/mol
# Density = 1.818726 g / cm^3
# Si number density = 18.228751 Si / 1000 Ang^3
#
#
#
# Elastic Constant Matrix: (Units=GPa)
#
#
# Indices 1 2 3 4 5 6 
#
# 1 59.8360 6.3556 23.6325 0.0000 0.0000 0.0000
# 2 6.3556 73.9971 34.1177 0.0000 0.0000 0.0000
# 3 23.6325 34.1177 118.4553 0.0000 0.0000 0.0000
# 4 0.0000 0.0000 0.0000 34.6296 0.0000 0.0000
# 5 0.0000 0.0000 0.0000 0.0000 24.3758 0.0000
# 6 0.0000 0.0000 0.0000 0.0000 0.0000 -18.9303
#
#
#
# Elastic Compliance Matrix: (Units=1/GPa)
#
#
# Indices 1 2 3 4 5 6 
#
# 1 0.018143 0.000128 -0.003656 0.000000 0.000000 0.000000
# 2 0.000128 0.015584 -0.004514 0.000000 0.000000 0.000000
# 3 -0.003656 -0.004514 0.010472 0.000000 0.000000 0.000000
# 4 0.000000 0.000000 0.000000 0.028877 0.000000 0.000000
# 5 0.000000 0.000000 0.000000 0.000000 0.041024 0.000000
# 6 0.000000 0.000000 0.000000 0.000000 0.000000 -0.052825
#
#
# Mechanical properties :
#
#
# Convention : Reuss Voigt Hill
#
# Bulk Modulus (GPa) = 35.57058 42.27777 38.92417
# Shear Modulus (GPa) = 57.64912 20.56053 39.10483
#
# Velocity S-wave (km/s) = 5.62975 3.36209 4.63669
# Velocity P-wave (km/s) = 7.86222 6.18990 7.07564
#
# Compressibility (1/GPa) = 0.02811312
#
# Stress axis : x y z
#
# Youngs Moduli (GPa) = 55.11797 64.16681 95.49626
#
# Poissons Ratio (x) = -0.00818 0.34917
# Poissons Ratio (y) = -0.00703 0.43108
# Poissons Ratio (z) = 0.20153 0.28965
#
# Static dielectric constant tensor:
#      x y z
#    x 3.210230 0.000000 0.000000 
#    y 0.000000 3.209290 0.000000 
#    z 0.000000 0.000000 4.584760 
# 
# 
# High freq. dielectric constant tensor:
#      x y z
#    x 1.680600 0.000000 0.000000 
#    y 0.000000 1.686600 0.000000 
#    z 0.000000 0.000000 1.730160 
# 
# From -- ./inp_files/11119.got.cif
#   From: 2010.03.12/outbox.cif.g09.slc.cpg/sg60_6_cif.got.tgz:11119.got - 2010.04.10 18:46:24.
