data_PCOD8246484
_publ_section_title
;
Structure prediction by ZEFSAII (Michael W. Deem and Ramdas Pophale) SiO2 
 PCOD8246484
Probable space group: P B C N
;
_chemical_formula_sum "Si O2"
_cell_formula_units_Z 32
_cell_length_a 17.741549
_cell_length_b 13.966071
_cell_length_c 4.982440
_cell_angle_alpha 90.000000
_cell_angle_beta 90.000000
_cell_angle_gamma 90.000000
_cell_volume 1234.547653
_symmetry_space_group_name_H-M "P B C N"
_symmetry_group_IT_number 60
_symmetry_cell_setting 'orthorhombic'
loop_
_space_group_symop_operation_xyz
x,y,z
1/2-x,1/2-y,1/2+z
1/2+x,1/2-y,-z
-x,y,1/2-z
-x,-y,-z
1/2+x,1/2+y,1/2-z
1/2-x,1/2+y,z
x,-y,1/2+z
loop_
_atom_site_type_symbol
_atom_site_label
_atom_site_fract_x
_atom_site_fract_y
_atom_site_fract_z
Si Si1 0.823965 0.565341 0.891373
Si Si2 0.930508 0.713145 0.089221
Si Si3 0.573235 0.408570 0.870887
Si Si4 0.339704 0.636466 0.640929
O O1 0.828916 0.521961 0.188146
O O2 0.895019 0.637637 0.879186
O O3 0.749268 0.626220 0.829164
O O4 0.863058 0.754626 0.283583
O O5 0.000000 0.664642 0.250000
O O6 0.964439 0.805032 0.936139
O O7 0.500000 0.468418 0.750000
O O8 0.639261 0.392171 0.657926
O O9 0.615239 0.440476 0.154989
#
# Coordination Sequence:
#
# PCOD8246484 Si02
#       4
#     8   8   8   8
#     4  12  29  44  64 102 154 193 223 284 371 437
#     4  10  24  42  75 103 134 182 250 297 342 412
#     4  10  18  37  70 104 125 161 235 307 345 384
#     4  10  22  40  70  97 134 182 243 296 337 419
#
# _framework density 25.920421999999999
#
# number of rings (size 3 to 8) (size 9 to 14) (size 15 to 20)
#    1.500    0.000    2.500    2.250    7.000    1.000 
#    0.000    0.000    0.000   25.500    0.000    0.000 
#    0.000    0.000    0.000    0.000    0.000    0.000 
#
# Total GULP energy -396468.744885 kJ/mol
# GULP energy per Si atom -12389.648278 kJ/mol
# Density = 2.586143 g / cm^3
# Si number density = 25.920422 Si / 1000 Ang^3
#
#
#
# Elastic Constant Matrix: (Units=GPa)
#
#
# Indices 1 2 3 4 5 6 
#
# 1 119.4790 29.8302 13.8191 0.0000 0.0000 0.0000
# 2 29.8302 61.2709 -14.0139 0.0000 0.0000 0.0000
# 3 13.8191 -14.0139 95.0861 0.0000 0.0000 0.0000
# 4 0.0000 0.0000 0.0000 29.6080 0.0000 0.0000
# 5 0.0000 0.0000 0.0000 0.0000 49.5906 0.0000
# 6 0.0000 0.0000 0.0000 0.0000 0.0000 -20.0116
#
#
#
# Elastic Compliance Matrix: (Units=1/GPa)
#
#
# Indices 1 2 3 4 5 6 
#
# 1 0.009968 -0.005365 -0.002239 0.000000 0.000000 0.000000
# 2 -0.005365 0.019778 0.003695 0.000000 0.000000 0.000000
# 3 -0.002239 0.003695 0.011387 0.000000 0.000000 0.000000
# 4 0.000000 0.000000 0.000000 0.033775 0.000000 0.000000
# 5 0.000000 0.000000 0.000000 0.000000 0.020165 0.000000
# 6 0.000000 0.000000 0.000000 0.000000 0.000000 -0.049971
#
#
# Mechanical properties :
#
#
# Convention : Reuss Voigt Hill
#
# Bulk Modulus (GPa) = 30.01836 37.23411 33.62624
# Shear Modulus (GPa) = 78.09291 28.25080 53.17185
#
# Velocity S-wave (km/s) = 5.49485 3.30495 4.53410
# Velocity P-wave (km/s) = 7.20166 5.38141 6.35702
#
# Compressibility (1/GPa) = 0.03331295
#
# Stress axis : x y z
#
# Youngs Moduli (GPa) = 100.31859 50.56085 87.82123
#
# Poissons Ratio (x) = 0.27128 0.19667
# Poissons Ratio (y) = 0.53824 -0.32447
# Poissons Ratio (z) = 0.22466 -0.18681
#
# Static dielectric constant tensor:
#      x y z
#    x 4.335360 0.000000 0.000000 
#    y 0.000000 4.564460 0.000000 
#    z 0.000000 0.000000 4.750760 
# 
# 
# High freq. dielectric constant tensor:
#      x y z
#    x 2.033600 0.000000 0.000000 
#    y 0.000000 2.023970 0.000000 
#    z 0.000000 0.000000 2.047430 
# 
# From -- ./inp_files/1038.got.cif
#   From: 2010.03.12/outbox.cif.g09.slc.cpg/sg60_1_cif.got.tgz:1038.got - 2010.04.10 18:46:24.
