data_PCOD8246729
_publ_section_title
;
Structure prediction by ZEFSAII (Michael W. Deem and Ramdas Pophale) SiO2 
 PCOD8246729
Probable space group: P B C N
;
_chemical_formula_sum "Si O2"
_cell_formula_units_Z 56
_cell_length_a 8.781761
_cell_length_b 19.893506
_cell_length_c 14.283706
_cell_angle_alpha 90.000000
_cell_angle_beta 90.000000
_cell_angle_gamma 90.000000
_cell_volume 2495.363655
_symmetry_space_group_name_H-M "P B C N"
_symmetry_group_IT_number 60
_symmetry_cell_setting 'orthorhombic'
loop_
_space_group_symop_operation_xyz
x,y,z
1/2-x,1/2-y,1/2+z
1/2+x,1/2-y,-z
-x,y,1/2-z
-x,-y,-z
1/2+x,1/2+y,1/2-z
1/2-x,1/2+y,z
x,-y,1/2+z
loop_
_atom_site_type_symbol
_atom_site_label
_atom_site_fract_x
_atom_site_fract_y
_atom_site_fract_z
Si Si1 0.654983 0.537184 0.711753
Si Si2 0.155193 0.593359 0.621062
Si Si3 0.375040 0.106237 0.996613
Si Si4 0.650057 0.678826 0.626832
Si Si5 0.157535 0.263863 0.209058
Si Si6 0.324293 0.513278 0.483353
Si Si7 0.561451 0.202543 0.352279
O O1 0.500000 0.503085 0.750000
O O2 0.788184 0.550008 0.788590
O O3 0.594997 0.607161 0.666595
O O4 0.715383 0.489037 0.627917
O O5 0.135068 0.671107 0.644930
O O6 0.273882 0.582338 0.534539
O O7 0.985001 0.575105 0.584739
O O8 0.474634 0.139986 0.079128
O O9 0.262471 0.164909 0.959395
O O10 0.274721 0.044573 0.035469
O O11 0.738551 0.719612 0.703976
O O12 0.506440 0.727365 0.604491
O O13 0.253316 0.208985 0.150718
O O14 0.000000 0.234541 0.250000
O O15 0.500000 0.500000 0.500000
O O16 0.500000 0.184092 0.250000
#
# Coordination Sequence:
#
# PCOD8246729 Si02
#       7
#     8   8   8   8   8   8   8
#     4  10  19  38  67  93 121 172 220 280 336 390
#     4  11  22  41  66  99 133 166 233 283 322 405
#     4  11  24  40  63  98 131 177 221 273 346 403
#     4   9  19  35  61  89 121 162 216 265 321 388
#     4  10  19  37  67  96 122 169 222 271 319 383
#     4  11  24  42  63  95 134 173 228 283 344 409
#     4  10  23  42  61  93 139 174 213 272 340 407
#
# _framework density 22.44162
#
# number of rings (size 3 to 8) (size 9 to 14) (size 15 to 20)
#    0.000    1.714    2.857    2.571    4.000    0.000 
#    2.571    2.857    0.000    0.000    0.000    0.000 
#    0.000    0.000    0.000    0.000    0.000    0.000 
#
# Total GULP energy -693863.913791 kJ/mol
# GULP energy per Si atom -12390.427032 kJ/mol
# Density = 2.239054 g / cm^3
# Si number density = 22.441620 Si / 1000 Ang^3
#
#
#
# Elastic Constant Matrix: (Units=GPa)
#
#
# Indices 1 2 3 4 5 6 
#
# 1 133.2890 28.3466 38.6585 0.0000 0.0000 0.0000
# 2 28.3466 34.1887 30.1626 0.0000 0.0000 0.0000
# 3 38.6585 30.1626 117.7618 0.0000 0.0000 0.0000
# 4 0.0000 0.0000 0.0000 31.2166 0.0000 0.0000
# 5 0.0000 0.0000 0.0000 0.0000 39.4581 0.0000
# 6 0.0000 0.0000 0.0000 0.0000 0.0000 25.6888
#
#
#
# Elastic Compliance Matrix: (Units=1/GPa)
#
#
# Indices 1 2 3 4 5 6 
#
# 1 0.009281 -0.006469 -0.001390 0.000000 0.000000 0.000000
# 2 -0.006469 0.042298 -0.008710 0.000000 0.000000 0.000000
# 3 -0.001390 -0.008710 0.011179 0.000000 0.000000 0.000000
# 4 0.000000 0.000000 0.000000 0.032034 0.000000 0.000000
# 5 0.000000 0.000000 0.000000 0.000000 0.025343 0.000000
# 6 0.000000 0.000000 0.000000 0.000000 0.000000 0.038928
#
#
# Mechanical properties :
#
#
# Convention : Reuss Voigt Hill
#
# Bulk Modulus (GPa) = 33.76147 53.28612 43.52380
# Shear Modulus (GPa) = 24.74332 31.81082 28.27707
#
# Velocity S-wave (km/s) = 3.32409 3.76904 3.55354
# Velocity P-wave (km/s) = 5.45981 6.53734 6.02272
#
# Compressibility (1/GPa) = 0.02961956
#
# Stress axis : x y z
#
# Youngs Moduli (GPa) = 107.74205 23.64197 89.45399
#
# Poissons Ratio (x) = 0.15295 0.12433
# Poissons Ratio (y) = 0.69701 0.77915
# Poissons Ratio (z) = 0.14975 0.20592
#
# Static dielectric constant tensor:
#      x y z
#    x 4.036870 0.000000 0.000000 
#    y 0.000000 3.673100 0.000000 
#    z 0.000000 0.000000 4.285100 
# 
# 
# High freq. dielectric constant tensor:
#      x y z
#    x 1.896090 0.000000 0.000000 
#    y 0.000000 1.837480 0.000000 
#    z 0.000000 0.000000 1.884800 
# 
# From -- ./inp_files/15276.got.cif
#   From: 2010.03.12/outbox.cif.g09.slc.cpg/sg60_8_cif.got.tgz:15276.got - 2010.04.10 18:46:24.
