data_PCOD8246485
_publ_section_title
;
Structure prediction by ZEFSAII (Michael W. Deem and Ramdas Pophale) SiO2 
 PCOD8246485
Probable space group: P B C N
;
_chemical_formula_sum "Si O2"
_cell_formula_units_Z 32
_cell_length_a 7.284971
_cell_length_b 31.396798
_cell_length_c 5.599182
_cell_angle_alpha 90.000000
_cell_angle_beta 90.000000
_cell_angle_gamma 90.000000
_cell_volume 1280.671576
_symmetry_space_group_name_H-M "P B C N"
_symmetry_group_IT_number 60
_symmetry_cell_setting 'orthorhombic'
loop_
_space_group_symop_operation_xyz
x,y,z
1/2-x,1/2-y,1/2+z
1/2+x,1/2-y,-z
-x,y,1/2-z
-x,-y,-z
1/2+x,1/2+y,1/2-z
1/2-x,1/2+y,z
x,-y,1/2+z
loop_
_atom_site_type_symbol
_atom_site_label
_atom_site_fract_x
_atom_site_fract_y
_atom_site_fract_z
Si Si1 0.500000 0.260601 0.750000
Si Si2 0.700143 0.114135 0.639003
Si Si3 0.000000 0.653344 0.250000
Si Si4 0.273602 0.305482 0.102514
Si Si5 0.718055 0.020492 0.732562
O O1 0.311032 0.233727 0.752309
O O2 0.533954 0.291650 0.521205
O O3 0.500000 0.115776 0.750000
O O4 0.659979 0.122747 0.359239
O O5 0.822423 0.152493 0.744073
O O6 0.791722 0.068577 0.692581
O O7 0.103019 0.684570 0.428816
O O8 0.500000 0.017992 0.750000
O O9 0.791862 0.995732 0.492839
#
# Coordination Sequence:
#
# PCOD8246485 Si02
#       5
#     4   8   4   8   8
#     4  12  24  42  64  87 126 164 221 264 328 382
#     4   9  19  33  54  81 121 163 205 255 329 375
#     4  10  18  38  58  83 120 168 203 260 324 378
#     4  11  23  40  58  90 119 167 205 268 318 389
#     4   9  18  28  48  83 120 161 204 258 315 388
#
# _framework density 24.986889999999999
#
# number of rings (size 3 to 8) (size 9 to 14) (size 15 to 20)
#    0.000    2.000    3.750    1.500   12.250    0.000 
#    0.000    0.000    0.000    0.000    0.000    1.750 
#    0.000    0.000    0.000    0.000    0.000    0.000 
#
# Total GULP energy -396428.891787 kJ/mol
# GULP energy per Si atom -12388.402868 kJ/mol
# Density = 2.493002 g / cm^3
# Si number density = 24.986890 Si / 1000 Ang^3
#
#
#
# Elastic Constant Matrix: (Units=GPa)
#
#
# Indices 1 2 3 4 5 6 
#
# 1 52.5770 26.4988 2.8689 0.0000 0.0000 0.0000
# 2 26.4988 205.3055 71.8960 0.0000 0.0000 0.0000
# 3 2.8689 71.8960 129.1986 0.0000 0.0000 0.0000
# 4 0.0000 0.0000 0.0000 18.2719 0.0000 0.0000
# 5 0.0000 0.0000 0.0000 0.0000 26.6461 0.0000
# 6 0.0000 0.0000 0.0000 0.0000 0.0000 -5.3187
#
#
#
# Elastic Compliance Matrix: (Units=1/GPa)
#
#
# Indices 1 2 3 4 5 6 
#
# 1 0.020508 -0.003090 0.001264 0.000000 0.000000 0.000000
# 2 -0.003090 0.006515 -0.003557 0.000000 0.000000 0.000000
# 3 0.001264 -0.003557 0.009691 0.000000 0.000000 0.000000
# 4 0.000000 0.000000 0.000000 0.054729 0.000000 0.000000
# 5 0.000000 0.000000 0.000000 0.000000 0.037529 0.000000
# 6 0.000000 0.000000 0.000000 0.000000 0.000000 -0.188015
#
#
# Mechanical properties :
#
#
# Convention : Reuss Voigt Hill
#
# Bulk Modulus (GPa) = 38.53691 65.51207 52.02449
# Shear Modulus (GPa) = -126.17304 26.97435 -49.59934
#
# Velocity S-wave (km/s) = -7.11374 3.28920 -4.46018
# Velocity P-wave (km/s) = 7.21231 6.37970 2.37874
#
# Compressibility (1/GPa) = 0.02594915
#
# Stress axis : x y z
#
# Youngs Moduli (GPa) = 48.76170 153.48808 103.18531
#
# Poissons Ratio (x) = 0.47421 -0.13041
# Poissons Ratio (y) = 0.15065 0.36702
# Poissons Ratio (z) = -0.06163 0.54595
#
# Static dielectric constant tensor:
#      x y z
#    x 4.221060 0.000000 0.000000 
#    y 0.000000 4.924640 0.000000 
#    z 0.000000 0.000000 7.811060 
# 
# 
# High freq. dielectric constant tensor:
#      x y z
#    x 1.953740 0.000000 0.000000 
#    y 0.000000 2.001580 0.000000 
#    z 0.000000 0.000000 2.003710 
# 
# From -- ./inp_files/387.got.cif
#   From: 2010.03.12/outbox.cif.g09.slc.cpg/sg60_1_cif.got.tgz:387.got - 2010.04.10 18:46:24.
