data_PCOD8246334
_publ_section_title
;
Structure prediction by ZEFSAII (Michael W. Deem and Ramdas Pophale) SiO2 
 PCOD8246334
Probable space group: P B C N
;
_chemical_formula_sum "Si O2"
_cell_formula_units_Z 44
_cell_length_a 10.709587
_cell_length_b 18.735601
_cell_length_c 11.680890
_cell_angle_alpha 90.000000
_cell_angle_beta 90.000000
_cell_angle_gamma 90.000000
_cell_volume 2343.776990
_symmetry_space_group_name_H-M "P B C N"
_symmetry_group_IT_number 60
_symmetry_cell_setting 'orthorhombic'
loop_
_space_group_symop_operation_xyz
x,y,z
1/2-x,1/2-y,1/2+z
1/2+x,1/2-y,-z
-x,y,1/2-z
-x,-y,-z
1/2+x,1/2+y,1/2-z
1/2-x,1/2+y,z
x,-y,1/2+z
loop_
_atom_site_type_symbol
_atom_site_label
_atom_site_fract_x
_atom_site_fract_y
_atom_site_fract_z
Si Si1 0.144333 0.344287 0.104165
Si Si2 0.206293 0.210526 0.398967
Si Si3 0.132733 0.636803 0.969598
Si Si4 0.353634 0.964660 0.272078
Si Si5 0.000000 0.765733 0.750000
Si Si6 0.145157 0.620151 0.230162
O O1 0.197115 0.413312 0.171185
O O2 0.110199 0.283011 0.195983
O O3 0.018388 0.358308 0.030998
O O4 0.258642 0.323469 0.020901
O O5 0.201054 0.295698 0.412671
O O6 0.068380 0.187206 0.349135
O O7 0.304748 0.186200 0.303520
O O8 0.175034 0.567641 0.897290
O O9 0.180690 0.630480 0.098219
O O10 0.500000 0.968841 0.250000
O O11 0.294712 0.043938 0.268218
O O12 0.000000 0.617867 0.250000
#
# Coordination Sequence:
#
# PCOD8246334 Si02
#       6
#     8   8   8   8   4   8
#     4  10  17  34  55  80 112 152 182 237 300 339
#     4  11  21  34  58  81 115 153 192 227 291 343
#     4  10  20  35  51  81 122 144 185 241 287 351
#     4   9  19  33  54  81 119 147 178 239 311 339
#     4  10  20  38  54  86 116 156 190 238 292 346
#     4  11  22  33  57  91 113 143 194 238 293 358
#
# _framework density 18.773116999999999
#
# number of rings (size 3 to 8) (size 9 to 14) (size 15 to 20)
#    0.000    1.818    6.364    1.091    2.545    2.182 
#    0.000    0.000    0.000    1.091    7.091    0.000 
#    0.000    0.000    0.000    0.000    0.000    0.000 
#
# Total GULP energy -545162.803483 kJ/mol
# GULP energy per Si atom -12390.063716 kJ/mol
# Density = 1.873039 g / cm^3
# Si number density = 18.773117 Si / 1000 Ang^3
#
#
#
# Elastic Constant Matrix: (Units=GPa)
#
#
# Indices 1 2 3 4 5 6 
#
# 1 46.1813 40.7988 36.4671 0.0000 0.0000 0.0000
# 2 40.7988 91.2740 53.5295 0.0000 0.0000 0.0000
# 3 36.4671 53.5295 142.0505 0.0000 0.0000 0.0000
# 4 0.0000 0.0000 0.0000 10.3098 0.0000 0.0000
# 5 0.0000 0.0000 0.0000 0.0000 41.4401 0.0000
# 6 0.0000 0.0000 0.0000 0.0000 0.0000 12.9637
#
#
#
# Elastic Compliance Matrix: (Units=1/GPa)
#
#
# Indices 1 2 3 4 5 6 
#
# 1 0.037702 -0.014347 -0.004272 0.000000 0.000000 0.000000
# 2 -0.014347 0.019524 -0.003674 0.000000 0.000000 0.000000
# 3 -0.004272 -0.003674 0.009521 0.000000 0.000000 0.000000
# 4 0.000000 0.000000 0.000000 0.096995 0.000000 0.000000
# 5 0.000000 0.000000 0.000000 0.000000 0.024131 0.000000
# 6 0.000000 0.000000 0.000000 0.000000 0.000000 0.077139
#
#
# Mechanical properties :
#
#
# Convention : Reuss Voigt Hill
#
# Bulk Modulus (GPa) = 45.12612 60.12186 52.62399
# Shear Modulus (GPa) = 15.77356 22.85673 19.31515
#
# Velocity S-wave (km/s) = 2.90180 3.49309 3.21108
# Velocity P-wave (km/s) = 5.94282 6.95442 6.46842
#
# Compressibility (1/GPa) = 0.02216011
#
# Stress axis : x y z
#
# Youngs Moduli (GPa) = 26.52354 51.21962 105.02993
#
# Poissons Ratio (x) = 0.73485 0.44874
# Poissons Ratio (y) = 0.38053 0.38589
# Poissons Ratio (z) = 0.11332 0.18818
#
# Static dielectric constant tensor:
#      x y z
#    x 3.126020 0.000000 0.000000 
#    y 0.000000 3.817260 0.000000 
#    z 0.000000 0.000000 3.696890 
# 
# 
# High freq. dielectric constant tensor:
#      x y z
#    x 1.670110 0.000000 0.000000 
#    y 0.000000 1.721110 0.000000 
#    z 0.000000 0.000000 1.753830 
# 
# From -- ./inp_files/10932.got.cif
#   From: 2010.03.12/outbox.cif.g09.slc.cpg/sg60_6_cif.got.tgz:10932.got - 2010.04.10 18:46:24.
