data_PCOD8246913
_publ_section_title
;
Structure prediction by ZEFSAII (Michael W. Deem and Ramdas Pophale) SiO2 
 PCOD8246913
Probable space group: P B C N
;
_chemical_formula_sum "Si O2"
_cell_formula_units_Z 48
_cell_length_a 7.638737
_cell_length_b 26.272315
_cell_length_c 12.582636
_cell_angle_alpha 90.000000
_cell_angle_beta 90.000000
_cell_angle_gamma 90.000000
_cell_volume 2525.175304
_symmetry_space_group_name_H-M "P B C N"
_symmetry_group_IT_number 60
_symmetry_cell_setting 'orthorhombic'
loop_
_space_group_symop_operation_xyz
x,y,z
1/2-x,1/2-y,1/2+z
1/2+x,1/2-y,-z
-x,y,1/2-z
-x,-y,-z
1/2+x,1/2+y,1/2-z
1/2-x,1/2+y,z
x,-y,1/2+z
loop_
_atom_site_type_symbol
_atom_site_label
_atom_site_fract_x
_atom_site_fract_y
_atom_site_fract_z
Si Si1 0.462173 0.689514 0.988516
Si Si2 0.741658 0.185839 0.827387
Si Si3 0.112956 0.075622 0.977071
Si Si4 0.122328 0.000022 0.654331
Si Si5 0.193164 0.416031 0.267782
Si Si6 0.611893 0.776437 0.112572
O O1 0.588491 0.705172 0.890383
O O2 0.470617 0.629269 0.011714
O O3 0.260865 0.705805 0.970316
O O4 0.542304 0.719434 0.089074
O O5 0.802243 0.129746 0.786041
O O6 0.559506 0.186159 0.896116
O O7 0.700980 0.223179 0.728548
O O8 0.270061 0.082371 0.893575
O O9 0.966674 0.041428 0.921542
O O10 0.185171 0.047633 0.083570
O O11 0.281554 0.029504 0.711016
O O12 0.000000 0.980214 0.750000
O O13 0.000000 0.397157 0.250000
#
# Coordination Sequence:
#
# PCOD8246913 Si02
#       6
#     8   8   8   8   8   8
#     4  12  21  38  60  83 119 156 189 249 301 347
#     4  11  21  38  57  87 115 147 201 243 289 351
#     4  10  20  36  59  83 111 153 196 235 297 350
#     4   9  20  36  56  86 112 149 197 239 286 359
#     4  11  19  34  62  86 113 150 195 246 293 350
#     4  11  23  35  57  89 116 147 197 242 290 356
#
# _framework density 19.008581
#
# number of rings (size 3 to 8) (size 9 to 14) (size 15 to 20)
#    0.000    1.333    6.667    0.500    0.000    0.667 
#    3.000    0.000    0.000    0.000    0.000    0.000 
#    0.000    0.000    0.000    0.000    0.000    0.000 
#
# Total GULP energy -594806.709988 kJ/mol
# GULP energy per Si atom -12391.806458 kJ/mol
# Density = 1.896532 g / cm^3
# Si number density = 19.008581 Si / 1000 Ang^3
#
#
#
# Elastic Constant Matrix: (Units=GPa)
#
#
# Indices 1 2 3 4 5 6 
#
# 1 73.5056 31.9694 24.0069 0.0000 0.0000 0.0000
# 2 31.9694 119.3628 67.3656 0.0000 0.0000 0.0000
# 3 24.0069 67.3656 86.5099 0.0000 0.0000 0.0000
# 4 0.0000 0.0000 0.0000 46.1977 0.0000 0.0000
# 5 0.0000 0.0000 0.0000 0.0000 28.1706 0.0000
# 6 0.0000 0.0000 0.0000 0.0000 0.0000 11.1984
#
#
#
# Elastic Compliance Matrix: (Units=1/GPa)
#
#
# Indices 1 2 3 4 5 6 
#
# 1 0.015574 -0.003090 -0.001916 0.000000 0.000000 0.000000
# 2 -0.003090 0.015560 -0.011259 0.000000 0.000000 0.000000
# 3 -0.001916 -0.011259 0.020858 0.000000 0.000000 0.000000
# 4 0.000000 0.000000 0.000000 0.021646 0.000000 0.000000
# 5 0.000000 0.000000 0.000000 0.000000 0.035498 0.000000
# 6 0.000000 0.000000 0.000000 0.000000 0.000000 0.089299
#
#
# Mechanical properties :
#
#
# Convention : Reuss Voigt Hill
#
# Bulk Modulus (GPa) = 51.37997 58.45136 54.91566
# Shear Modulus (GPa) = 21.05691 27.51576 24.28633
#
# Velocity S-wave (km/s) = 3.33191 3.80879 3.57830
# Velocity P-wave (km/s) = 6.47231 7.08232 6.78417
#
# Compressibility (1/GPa) = 0.01946284
#
# Stress axis : x y z
#
# Youngs Moduli (GPa) = 64.20957 64.26844 47.94254
#
# Poissons Ratio (x) = 0.19860 0.09184
# Poissons Ratio (y) = 0.19842 0.53978
# Poissons Ratio (z) = 0.12300 0.72359
#
# Static dielectric constant tensor:
#      x y z
#    x 3.466640 0.000000 0.000000 
#    y 0.000000 3.541830 0.000000 
#    z 0.000000 0.000000 3.669000 
# 
# 
# High freq. dielectric constant tensor:
#      x y z
#    x 1.733170 0.000000 0.000000 
#    y 0.000000 1.729920 0.000000 
#    z 0.000000 0.000000 1.726850 
# 
# From -- ./inp_files/10215.got.cif
#   From: 2010.03.12/outbox.cif.g09.slc.cpg/sg60_6_cif.got.tgz:10215.got - 2010.04.10 18:46:24.
