data_PCOD8246670
_publ_section_title
;
Structure prediction by ZEFSAII (Michael W. Deem and Ramdas Pophale) SiO2 
 PCOD8246670
Probable space group: P B C N
;
_chemical_formula_sum "Si O2"
_cell_formula_units_Z 48
_cell_length_a 12.176352
_cell_length_b 8.469145
_cell_length_c 24.072083
_cell_angle_alpha 90.000000
_cell_angle_beta 90.000000
_cell_angle_gamma 90.000000
_cell_volume 2482.392412
_symmetry_space_group_name_H-M "P B C N"
_symmetry_group_IT_number 60
_symmetry_cell_setting 'orthorhombic'
loop_
_space_group_symop_operation_xyz
x,y,z
1/2-x,1/2-y,1/2+z
1/2+x,1/2-y,-z
-x,y,1/2-z
-x,-y,-z
1/2+x,1/2+y,1/2-z
1/2-x,1/2+y,z
x,-y,1/2+z
loop_
_atom_site_type_symbol
_atom_site_label
_atom_site_fract_x
_atom_site_fract_y
_atom_site_fract_z
Si Si1 0.858226 0.865331 0.872517
Si Si2 0.095183 0.546932 0.040974
Si Si3 0.624216 0.530394 0.253098
Si Si4 0.703274 0.348710 0.437174
Si Si5 0.029803 0.570863 0.656866
Si Si6 0.342147 0.883452 0.267656
O O1 0.834410 0.954106 0.815585
O O2 0.752565 0.756682 0.886708
O O3 0.964268 0.751122 0.867717
O O4 0.873758 0.006239 0.917146
O O5 0.194184 0.424008 0.029479
O O6 0.131764 0.726839 0.026037
O O7 0.056840 0.545757 0.105827
O O8 0.000000 0.500000 0.000000
O O9 0.500000 0.460872 0.250000
O O10 0.629029 0.700131 0.223880
O O11 0.712179 0.413791 0.223847
O O12 0.118079 0.555417 0.707142
O O13 0.909840 0.532473 0.682302
#
# Coordination Sequence:
#
# PCOD8246670 Si02
#       6
#     8   8   8   8   8   8
#     4   9  15  31  54  78 105 139 185 228 265 317
#     4  10  20  37  60  84 109 143 190 231 286 329
#     4  11  19  33  53  80 115 151 186 227 274 331
#     4   9  18  33  59  82 103 139 191 231 264 332
#     4   9  18  36  56  78 112 147 179 237 280 322
#     4  10  19  36  54  79 117 145 187 227 278 333
#
# _framework density 19.336185
#
# number of rings (size 3 to 8) (size 9 to 14) (size 15 to 20)
#    0.000    2.333    3.333    4.000    0.000    0.000 
#    6.000    9.167    0.000    0.000    0.000    0.000 
#    0.000    0.000    0.000    0.000    0.000    0.000 
#
# Total GULP energy -594641.089310 kJ/mol
# GULP energy per Si atom -12388.356027 kJ/mol
# Density = 1.929217 g / cm^3
# Si number density = 19.336185 Si / 1000 Ang^3
#
#
#
# Elastic Constant Matrix: (Units=GPa)
#
#
# Indices 1 2 3 4 5 6 
#
# 1 128.6905 37.2094 22.0438 0.0000 0.0000 0.0000
# 2 37.2094 77.0500 20.1385 0.0000 0.0000 0.0000
# 3 22.0438 20.1385 45.8200 0.0000 0.0000 0.0000
# 4 0.0000 0.0000 0.0000 15.6322 0.0000 0.0000
# 5 0.0000 0.0000 0.0000 0.0000 25.9193 0.0000
# 6 0.0000 0.0000 0.0000 0.0000 0.0000 21.8067
#
#
#
# Elastic Compliance Matrix: (Units=1/GPa)
#
#
# Indices 1 2 3 4 5 6 
#
# 1 0.009348 -0.003772 -0.002839 0.000000 0.000000 0.000000
# 2 -0.003772 0.016185 -0.005299 0.000000 0.000000 0.000000
# 3 -0.002839 -0.005299 0.025519 0.000000 0.000000 0.000000
# 4 0.000000 0.000000 0.000000 0.063971 0.000000 0.000000
# 5 0.000000 0.000000 0.000000 0.000000 0.038581 0.000000
# 6 0.000000 0.000000 0.000000 0.000000 0.000000 0.045857
#
#
# Mechanical properties :
#
#
# Convention : Reuss Voigt Hill
#
# Bulk Modulus (GPa) = 36.72171 45.59377 41.15774
# Shear Modulus (GPa) = 21.51841 24.14955 22.83398
#
# Velocity S-wave (km/s) = 3.33957 3.53785 3.44014
# Velocity P-wave (km/s) = 5.82260 6.34974 6.09188
#
# Compressibility (1/GPa) = 0.02723185
#
# Stress axis : x y z
#
# Youngs Moduli (GPa) = 106.97951 61.78487 39.18589
#
# Poissons Ratio (x) = 0.23306 0.11126
# Poissons Ratio (y) = 0.40354 0.20764
# Poissons Ratio (z) = 0.30374 0.32739
#
# Static dielectric constant tensor:
#      x y z
#    x 3.607490 0.000000 0.000000 
#    y 0.000000 3.635770 0.000000 
#    z 0.000000 0.000000 3.209800 
# 
# 
# High freq. dielectric constant tensor:
#      x y z
#    x 1.739610 0.000000 0.000000 
#    y 0.000000 1.749330 0.000000 
#    z 0.000000 0.000000 1.709340 
# 
# From -- ./inp_files/24221.got.cif
#   From: 2010.03.12/outbox.cif.g09.slc.cpg/sg60_13_cif.got.tgz:24221.got - 2010.04.10 18:46:24.
