data_PCOD8246491
_publ_section_title
;
Structure prediction by ZEFSAII (Michael W. Deem and Ramdas Pophale) SiO2 
 PCOD8246491
Probable space group: P B C N
;
_chemical_formula_sum "Si O2"
_cell_formula_units_Z 36
_cell_length_a 12.905270
_cell_length_b 13.128465
_cell_length_c 10.226478
_cell_angle_alpha 90.000000
_cell_angle_beta 90.000000
_cell_angle_gamma 90.000000
_cell_volume 1732.635204
_symmetry_space_group_name_H-M "P B C N"
_symmetry_group_IT_number 60
_symmetry_cell_setting 'orthorhombic'
loop_
_space_group_symop_operation_xyz
x,y,z
1/2-x,1/2-y,1/2+z
1/2+x,1/2-y,-z
-x,y,1/2-z
-x,-y,-z
1/2+x,1/2+y,1/2-z
1/2-x,1/2+y,z
x,-y,1/2+z
loop_
_atom_site_type_symbol
_atom_site_label
_atom_site_fract_x
_atom_site_fract_y
_atom_site_fract_z
Si Si1 0.787731 0.912494 0.623025
Si Si2 0.000000 0.126022 0.750000
Si Si3 0.066717 0.317905 0.864117
Si Si4 0.873594 0.966745 0.893804
Si Si5 0.518956 0.725226 0.107019
O O1 0.671836 0.874386 0.603286
O O2 0.807115 0.004066 0.520691
O O3 0.865191 0.818856 0.596187
O O4 0.799435 0.957658 0.767991
O O5 0.912395 0.201523 0.688190
O O6 0.956867 0.056491 0.866948
O O7 0.000000 0.375675 0.750000
O O8 0.998140 0.311416 0.997112
O O9 0.934681 0.863140 0.914749
O O10 0.500000 0.774256 0.250000
#
# Coordination Sequence:
#
# PCOD8246491 Si02
#       5
#     8   4   8   8   8
#     4  11  21  38  61  92 118 165 203 257 313 364
#     4  10  18  38  64  86 124 154 200 268 292 354
#     4  10  23  38  57  87 133 156 196 256 319 363
#     4  11  20  35  65  93 117 156 216 255 297 366
#     4  10  20  34  61  92 119 150 208 259 299 367
#
# _framework density 20.7776
#
# number of rings (size 3 to 8) (size 9 to 14) (size 15 to 20)
#    0.667    0.889    5.556    2.000    0.000    7.111 
#    0.000    3.333    0.000    0.000    0.000    0.000 
#    0.000    0.000    0.000    0.000    0.000    0.000 
#
# Total GULP energy -446183.096387 kJ/mol
# GULP energy per Si atom -12393.974900 kJ/mol
# Density = 2.073031 g / cm^3
# Si number density = 20.777600 Si / 1000 Ang^3
#
#
#
# Elastic Constant Matrix: (Units=GPa)
#
#
# Indices 1 2 3 4 5 6 
#
# 1 111.4948 19.1194 50.4969 0.0000 0.0000 0.0000
# 2 19.1194 22.1112 6.8190 0.0000 0.0000 0.0000
# 3 50.4969 6.8190 143.7047 0.0000 0.0000 0.0000
# 4 0.0000 0.0000 0.0000 10.6964 0.0000 0.0000
# 5 0.0000 0.0000 0.0000 0.0000 26.1322 0.0000
# 6 0.0000 0.0000 0.0000 0.0000 0.0000 18.3801
#
#
#
# Elastic Compliance Matrix: (Units=1/GPa)
#
#
# Indices 1 2 3 4 5 6 
#
# 1 0.012359 -0.009486 -0.003893 0.000000 0.000000 0.000000
# 2 -0.009486 0.053179 0.000810 0.000000 0.000000 0.000000
# 3 -0.003893 0.000810 0.008288 0.000000 0.000000 0.000000
# 4 0.000000 0.000000 0.000000 0.093489 0.000000 0.000000
# 5 0.000000 0.000000 0.000000 0.000000 0.038267 0.000000
# 6 0.000000 0.000000 0.000000 0.000000 0.000000 0.054407
#
#
# Mechanical properties :
#
#
# Convention : Reuss Voigt Hill
#
# Bulk Modulus (GPa) = 20.53896 47.79794 34.16845
# Shear Modulus (GPa) = 16.59171 24.43343 20.51257
#
# Velocity S-wave (km/s) = 2.82891 3.43293 3.14545
# Velocity P-wave (km/s) = 4.53618 6.22639 5.44724
#
# Compressibility (1/GPa) = 0.04868795
#
# Stress axis : x y z
#
# Youngs Moduli (GPa) = 80.91455 18.80456 120.65444
#
# Poissons Ratio (x) = 0.17838 0.46966
# Poissons Ratio (y) = 0.76756 -0.09772
# Poissons Ratio (z) = 0.31497 -0.01523
#
# Static dielectric constant tensor:
#      x y z
#    x 3.395020 0.000000 0.000000 
#    y 0.000000 3.309140 0.000000 
#    z 0.000000 0.000000 4.255070 
# 
# 
# High freq. dielectric constant tensor:
#      x y z
#    x 1.779270 0.000000 0.000000 
#    y 0.000000 1.765810 0.000000 
#    z 0.000000 0.000000 1.848520 
# 
# From -- ./inp_files/10650.got.cif
#   From: 2010.03.12/outbox.cif.g09.slc.cpg/sg60_6_cif.got.tgz:10650.got - 2010.04.10 18:46:24.
