data_PCOD8246678
_publ_section_title
;
Structure prediction by ZEFSAII (Michael W. Deem and Ramdas Pophale) SiO2 
 PCOD8246678
Probable space group: P B C N
;
_chemical_formula_sum "Si O2"
_cell_formula_units_Z 64
_cell_length_a 22.195409
_cell_length_b 17.115671
_cell_length_c 8.590007
_cell_angle_alpha 90.000000
_cell_angle_beta 90.000000
_cell_angle_gamma 90.000000
_cell_volume 3263.251902
_symmetry_space_group_name_H-M "P B C N"
_symmetry_group_IT_number 60
_symmetry_cell_setting 'orthorhombic'
loop_
_space_group_symop_operation_xyz
x,y,z
1/2-x,1/2-y,1/2+z
1/2+x,1/2-y,-z
-x,y,1/2-z
-x,-y,-z
1/2+x,1/2+y,1/2-z
1/2-x,1/2+y,z
x,-y,1/2+z
loop_
_atom_site_type_symbol
_atom_site_label
_atom_site_fract_x
_atom_site_fract_y
_atom_site_fract_z
Si Si1 0.301453 0.572300 0.277329
Si Si2 0.827071 0.466175 0.633585
Si Si3 0.831068 0.916875 0.367259
Si Si4 0.064418 0.359032 0.808351
Si Si5 0.198865 0.391878 0.195051
Si Si6 0.527517 0.235500 0.907929
Si Si7 0.642295 0.271690 0.753853
Si Si8 0.411627 0.279712 0.075627
O O1 0.229946 0.560326 0.260888
O O2 0.323133 0.573632 0.451674
O O3 0.341045 0.503886 0.198424
O O4 0.314752 0.656419 0.201663
O O5 0.888132 0.429060 0.700481
O O6 0.817051 0.443646 0.455851
O O7 0.829063 0.560558 0.657335
O O8 0.770916 0.880743 0.288088
O O9 0.888523 0.859294 0.339356
O O10 0.089534 0.288526 0.702865
O O11 0.000000 0.390774 0.750000
O O12 0.055875 0.332482 0.986638
O O13 0.170668 0.307025 0.179145
O O14 0.500000 0.196456 0.750000
O O15 0.580657 0.291249 0.845896
O O16 0.479704 0.286904 0.007587
O O17 0.632978 0.261030 0.568176
#
# Coordination Sequence:
#
# PCOD8246678 Si02
#       8
#     8   8   8   8   8   8   8   8
#     4   9  20  36  56  81 118 148 192 235 292 347
#     4  10  21  38  53  80 115 150 189 242 285 348
#     4   9  19  38  53  84 116 152 188 240 292 349
#     4  10  20  36  55  83 113 145 195 238 286 345
#     4  10  21  36  57  80 118 150 194 237 292 345
#     4   9  18  36  58  82 112 150 192 243 283 340
#     4  10  19  36  58  84 110 153 196 233 294 354
#     4   9  20  34  58  82 116 148 190 239 293 344
#
# _framework density 19.612338000000001
#
# number of rings (size 3 to 8) (size 9 to 14) (size 15 to 20)
#    0.000    2.500    1.250    0.000    3.500    1.000 
#    0.000    3.125    0.000    5.250    0.000    0.000 
#    0.000    0.000    0.000    0.000    0.000    0.000 
#
# Total GULP energy -793177.284229 kJ/mol
# GULP energy per Si atom -12393.395066 kJ/mol
# Density = 1.956770 g / cm^3
# Si number density = 19.612338 Si / 1000 Ang^3
#
#
#
# Elastic Constant Matrix: (Units=GPa)
#
#
# Indices 1 2 3 4 5 6 
#
# 1 85.4500 51.6363 15.8066 0.0000 0.0000 0.0000
# 2 51.6363 109.7462 20.0547 0.0000 0.0000 0.0000
# 3 15.8066 20.0547 52.8290 0.0000 0.0000 0.0000
# 4 0.0000 0.0000 0.0000 25.2046 0.0000 0.0000
# 5 0.0000 0.0000 0.0000 0.0000 20.9256 0.0000
# 6 0.0000 0.0000 0.0000 0.0000 0.0000 33.2980
#
#
#
# Elastic Compliance Matrix: (Units=1/GPa)
#
#
# Indices 1 2 3 4 5 6 
#
# 1 0.016576 -0.007406 -0.002148 0.000000 0.000000 0.000000
# 2 -0.007406 0.013101 -0.002757 0.000000 0.000000 0.000000
# 3 -0.002148 -0.002757 0.020618 0.000000 0.000000 0.000000
# 4 0.000000 0.000000 0.000000 0.039675 0.000000 0.000000
# 5 0.000000 0.000000 0.000000 0.000000 0.047788 0.000000
# 6 0.000000 0.000000 0.000000 0.000000 0.000000 0.030032
#
#
# Mechanical properties :
#
#
# Convention : Reuss Voigt Hill
#
# Bulk Modulus (GPa) = 38.95361 47.00227 42.97794
# Shear Modulus (GPa) = 24.87930 26.58748 25.73339
#
# Velocity S-wave (km/s) = 3.56554 3.68591 3.62622
# Velocity P-wave (km/s) = 6.07089 6.49094 6.28442
#
# Compressibility (1/GPa) = 0.02567156
#
# Stress axis : x y z
#
# Youngs Moduli (GPa) = 60.32924 76.33267 48.50059
#
# Poissons Ratio (x) = 0.56536 0.10417
# Poissons Ratio (y) = 0.44683 0.13372
# Poissons Ratio (z) = 0.12958 0.21046
#
# Static dielectric constant tensor:
#      x y z
#    x 3.812510 0.000000 0.000000 
#    y 0.000000 3.578770 0.000000 
#    z 0.000000 0.000000 3.611090 
# 
# 
# High freq. dielectric constant tensor:
#      x y z
#    x 1.763600 0.000000 0.000000 
#    y 0.000000 1.742200 0.000000 
#    z 0.000000 0.000000 1.767940 
# 
# From -- ./inp_files/7984.got.cif
#   From: 2010.03.12/outbox.cif.g09.slc.cpg/sg60_4_cif.got.tgz:7984.got - 2010.04.10 18:46:24.
