data_PCOD8246816
_publ_section_title
;
Structure prediction by ZEFSAII (Michael W. Deem and Ramdas Pophale) SiO2 
 PCOD8246816
Probable space group: P B C N
;
_chemical_formula_sum "Si O2"
_cell_formula_units_Z 48
_cell_length_a 12.143722
_cell_length_b 16.734131
_cell_length_c 11.296467
_cell_angle_alpha 90.000000
_cell_angle_beta 90.000000
_cell_angle_gamma 90.000000
_cell_volume 2295.607416
_symmetry_space_group_name_H-M "P B C N"
_symmetry_group_IT_number 60
_symmetry_cell_setting 'orthorhombic'
loop_
_space_group_symop_operation_xyz
x,y,z
1/2-x,1/2-y,1/2+z
1/2+x,1/2-y,-z
-x,y,1/2-z
-x,-y,-z
1/2+x,1/2+y,1/2-z
1/2-x,1/2+y,z
x,-y,1/2+z
loop_
_atom_site_type_symbol
_atom_site_label
_atom_site_fract_x
_atom_site_fract_y
_atom_site_fract_z
Si Si1 0.553084 0.283252 0.133062
Si Si2 0.748802 0.840214 0.691245
Si Si3 0.700652 0.627162 0.462910
Si Si4 0.317733 0.979103 0.971600
Si Si5 0.991291 0.415070 0.377697
Si Si6 0.894287 0.271012 0.052980
O O1 0.500000 0.325415 0.250000
O O2 0.645505 0.219437 0.174742
O O3 0.588727 0.346552 0.030822
O O4 0.449072 0.238958 0.075156
O O5 0.790880 0.847901 0.825875
O O6 0.716412 0.928262 0.643419
O O7 0.855005 0.810072 0.617137
O O8 0.715399 0.531282 0.479217
O O9 0.788724 0.673911 0.539619
O O10 0.418466 0.040311 0.956261
O O11 0.366060 0.919849 0.072391
O O12 0.018870 0.320699 0.367432
O O13 0.000000 0.455801 0.250000
#
# Coordination Sequence:
#
# PCOD8246816 Si02
#       6
#     8   8   8   8   8   8
#     4  11  22  42  66  89 132 171 208 268 330 381
#     4  11  22  39  66  92 133 165 216 277 318 392
#     4  10  23  40  62  95 125 171 222 257 326 390
#     4  10  21  39  57  92 127 169 209 267 329 379
#     4  10  20  33  60  90 124 158 212 267 324 384
#     4  10  22  37  60  96 120 164 215 264 324 380
#
# _framework density 20.909497999999999
#
# number of rings (size 3 to 8) (size 9 to 14) (size 15 to 20)
#    0.000    1.667    3.333    1.000    2.333    0.667 
#    6.000    0.833    0.000    0.000    0.000    0.000 
#    0.000    0.000    0.000    0.000    0.000    0.000 
#
# Total GULP energy -594639.613705 kJ/mol
# GULP energy per Si atom -12388.325286 kJ/mol
# Density = 2.086191 g / cm^3
# Si number density = 20.909498 Si / 1000 Ang^3
#
#
#
# Elastic Constant Matrix: (Units=GPa)
#
#
# Indices 1 2 3 4 5 6 
#
# 1 55.6643 30.6664 30.5134 0.0000 0.0000 0.0000
# 2 30.6664 79.7145 30.0853 0.0000 0.0000 0.0000
# 3 30.5134 30.0853 131.2031 0.0000 0.0000 0.0000
# 4 0.0000 0.0000 0.0000 31.6049 0.0000 0.0000
# 5 0.0000 0.0000 0.0000 0.0000 40.1506 0.0000
# 6 0.0000 0.0000 0.0000 0.0000 0.0000 16.7495
#
#
#
# Elastic Compliance Matrix: (Units=1/GPa)
#
#
# Indices 1 2 3 4 5 6 
#
# 1 0.024466 -0.007953 -0.003866 0.000000 0.000000 0.000000
# 2 -0.007953 0.016318 -0.001892 0.000000 0.000000 0.000000
# 3 -0.003866 -0.001892 0.008955 0.000000 0.000000 0.000000
# 4 0.000000 0.000000 0.000000 0.031641 0.000000 0.000000
# 5 0.000000 0.000000 0.000000 0.000000 0.024906 0.000000
# 6 0.000000 0.000000 0.000000 0.000000 0.000000 0.059703
#
#
# Mechanical properties :
#
#
# Convention : Reuss Voigt Hill
#
# Bulk Modulus (GPa) = 44.81074 49.90133 47.35604
# Shear Modulus (GPa) = 24.89415 29.38878 27.14146
#
# Velocity S-wave (km/s) = 3.45420 3.75310 3.60675
# Velocity P-wave (km/s) = 6.11441 6.53438 6.32788
#
# Compressibility (1/GPa) = 0.02231608
#
# Stress axis : x y z
#
# Youngs Moduli (GPa) = 40.87388 61.28052 111.67137
#
# Poissons Ratio (x) = 0.48735 0.43175
# Poissons Ratio (y) = 0.32506 0.21132
# Poissons Ratio (z) = 0.15803 0.11596
#
# Static dielectric constant tensor:
#      x y z
#    x 3.857900 0.000000 0.000000 
#    y 0.000000 3.861840 0.000000 
#    z 0.000000 0.000000 3.684570 
# 
# 
# High freq. dielectric constant tensor:
#      x y z
#    x 1.804340 0.000000 0.000000 
#    y 0.000000 1.799860 0.000000 
#    z 0.000000 0.000000 1.823710 
# 
# From -- ./inp_files/11004.got.cif
#   From: 2010.03.12/outbox.cif.g09.slc.cpg/sg60_6_cif.got.tgz:11004.got - 2010.04.10 18:46:24.
