data_PCOD8246848
_publ_section_title
;
Structure prediction by ZEFSAII (Michael W. Deem and Ramdas Pophale) SiO2 
 PCOD8246848
Probable space group: P B C N
;
_chemical_formula_sum "Si O2"
_cell_formula_units_Z 48
_cell_length_a 18.797604
_cell_length_b 25.399109
_cell_length_c 5.138728
_cell_angle_alpha 90.000000
_cell_angle_beta 90.000000
_cell_angle_gamma 90.000000
_cell_volume 2453.446593
_symmetry_space_group_name_H-M "P B C N"
_symmetry_group_IT_number 60
_symmetry_cell_setting 'orthorhombic'
loop_
_space_group_symop_operation_xyz
x,y,z
1/2-x,1/2-y,1/2+z
1/2+x,1/2-y,-z
-x,y,1/2-z
-x,-y,-z
1/2+x,1/2+y,1/2-z
1/2-x,1/2+y,z
x,-y,1/2+z
loop_
_atom_site_type_symbol
_atom_site_label
_atom_site_fract_x
_atom_site_fract_y
_atom_site_fract_z
Si Si1 0.636719 0.241146 0.750371
Si Si2 0.777726 0.531788 0.659662
Si Si3 0.000000 0.876941 0.250000
Si Si4 0.749394 0.687810 0.032660
Si Si5 0.303462 0.856984 0.452739
Si Si6 0.611284 0.533727 0.648512
Si Si7 0.000000 0.194138 0.250000
O O1 0.687049 0.231693 0.004466
O O2 0.675106 0.283195 0.565063
O O3 0.631229 0.184522 0.595672
O O4 0.562325 0.265600 0.831174
O O5 0.796908 0.512757 0.948446
O O6 0.826372 0.582481 0.588928
O O7 0.694699 0.547284 0.643352
O O8 0.068424 0.912125 0.319429
O O9 0.981270 0.841207 0.500325
O O10 0.743340 0.654461 0.767450
O O11 0.767793 0.648507 0.266669
O O12 0.589711 0.505985 0.379078
#
# Coordination Sequence:
#
# PCOD8246848 Si02
#       7
#     8   8   4   8   8   8   4
#     4  10  23  40  56  90 112 164 188 258 277 367
#     4  10  21  35  55  91 112 139 192 259 292 341
#     4  12  26  39  54  82 112 173 194 252 282 350
#     4  10  20  34  63  78 112 152 206 221 295 354
#     4  10  20  35  62  80 111 156 183 237 297 362
#     4  10  21  38  58  73 112 154 206 244 288 343
#     4  12  30  35  60  88 134 139 214 250 298 334
#
# _framework density 19.564312000000001
#
# number of rings (size 3 to 8) (size 9 to 14) (size 15 to 20)
#    1.000    0.667    1.667    2.500    7.000    0.000 
#    0.000    0.000    0.000    0.000    0.000    1.167 
#    0.000    0.000    0.000    0.000    0.000    0.000 
#
# Total GULP energy -594827.238211 kJ/mol
# GULP energy per Si atom -12392.234129 kJ/mol
# Density = 1.951978 g / cm^3
# Si number density = 19.564312 Si / 1000 Ang^3
#
#
#
# Elastic Constant Matrix: (Units=GPa)
#
#
# Indices 1 2 3 4 5 6 
#
# 1 48.6033 18.0499 0.3099 0.0000 0.0000 0.0000
# 2 18.0499 79.7597 -3.0587 0.0000 0.0000 0.0000
# 3 0.3099 -3.0587 89.7758 0.0000 0.0000 0.0000
# 4 0.0000 0.0000 0.0000 32.2409 0.0000 0.0000
# 5 0.0000 0.0000 0.0000 0.0000 14.5019 0.0000
# 6 0.0000 0.0000 0.0000 0.0000 0.0000 21.1526
#
#
#
# Elastic Compliance Matrix: (Units=1/GPa)
#
#
# Indices 1 2 3 4 5 6 
#
# 1 0.022468 -0.005094 -0.000251 0.000000 0.000000 0.000000
# 2 -0.005094 0.013709 0.000485 0.000000 0.000000 0.000000
# 3 -0.000251 0.000485 0.011156 0.000000 0.000000 0.000000
# 4 0.000000 0.000000 0.000000 0.031017 0.000000 0.000000
# 5 0.000000 0.000000 0.000000 0.000000 0.068956 0.000000
# 6 0.000000 0.000000 0.000000 0.000000 0.000000 0.047276
#
#
# Mechanical properties :
#
#
# Convention : Reuss Voigt Hill
#
# Bulk Modulus (GPa) = 26.58721 27.63790 27.11255
# Shear Modulus (GPa) = 23.05840 27.10159 25.08000
#
# Velocity S-wave (km/s) = 3.43679 3.72594 3.58428
# Velocity P-wave (km/s) = 5.41921 5.71555 5.56935
#
# Compressibility (1/GPa) = 0.03761207
#
# Stress axis : x y z
#
# Youngs Moduli (GPa) = 44.50737 72.94421 89.63597
#
# Poissons Ratio (x) = 0.37160 0.02251
# Poissons Ratio (y) = 0.22673 -0.04344
# Poissons Ratio (z) = 0.01118 -0.03535
#
# Static dielectric constant tensor:
#      x y z
#    x 3.056290 0.000000 0.000000 
#    y 0.000000 3.592400 0.000000 
#    z 0.000000 0.000000 3.664790 
# 
# 
# High freq. dielectric constant tensor:
#      x y z
#    x 1.697030 0.000000 0.000000 
#    y 0.000000 1.770380 0.000000 
#    z 0.000000 0.000000 1.779360 
# 
# From -- ./inp_files/1799.got.cif
#   From: 2010.03.12/outbox.cif.g09.slc.cpg/sg60_1_cif.got.tgz:1799.got - 2010.04.10 18:46:24.
