data_PCOD8246059
_publ_section_title
;
Structure prediction by ZEFSAII (Michael W. Deem and Ramdas Pophale) SiO2 
 PCOD8246059
Probable space group: P M M N
;
_chemical_formula_sum "Si O2"
_cell_formula_units_Z 48
_cell_length_a 28.686125
_cell_length_b 8.753560
_cell_length_c 9.836064
_cell_angle_alpha 90.000000
_cell_angle_beta 90.000000
_cell_angle_gamma 90.000000
_cell_volume 2469.891897
_symmetry_space_group_name_H-M "P M M N"
_symmetry_group_IT_number 59
_space_group.IT_coordinate_system_code '2'
_symmetry_cell_setting 'orthorhombic'
loop_
_space_group_symop_operation_xyz
x,y,z
1/2-x,1/2-y,z
1/2+x,-y,-z
-x,1/2+y,-z
-x,-y,-z
1/2+x,1/2+y,-z
1/2-x,y,z
x,1/2-y,z
loop_
_atom_site_type_symbol
_atom_site_label
_atom_site_fract_x
_atom_site_fract_y
_atom_site_fract_z
Si Si1 0.198200 0.931676 0.516586
Si Si2 0.476551 0.424593 0.628658
Si Si3 0.880415 0.068740 0.279107
Si Si4 0.873041 0.571502 0.985052
Si Si5 0.465056 0.575519 0.104069
Si Si6 0.695349 0.077266 0.788171
O O1 0.250000 0.994518 0.554008
O O2 0.199647 0.750000 0.519845
O O3 0.160334 0.996160 0.622635
O O4 0.184155 0.982957 0.364000
O O5 0.500000 0.500000 0.500000
O O6 0.463518 0.250000 0.597567
O O7 0.429955 0.512002 0.668888
O O8 0.514543 0.436361 0.746302
O O9 0.880700 0.250000 0.280652
O O10 0.870041 0.012284 0.128541
O O11 0.877512 0.750000 0.013224
O O12 0.916819 0.514714 0.897832
O O13 0.827452 0.535087 0.897439
O O14 0.456647 0.750000 0.059930
O O15 0.500000 0.500000 0.000000
O O16 0.750000 0.074543 0.815020
O O17 0.676088 0.250000 0.807441
#
# Coordination Sequence:
#
# PCOD8246059 Si02
#       6
#     8   8   8   8   8   8
#     4   8  17  36  62  90 117 148 192 244 295 349
#     4  11  25  42  61  88 122 157 198 246 299 360
#     4  11  22  38  62  90 120 157 202 250 299 353
#     4  12  25  39  58  88 124 161 199 245 301 360
#     4  11  23  41  64  87 117 158 202 246 295 352
#     4   9  19  39  65  90 117 152 197 248 299 355
#
# _framework density 19.434048000000001
#
# number of rings (size 3 to 8) (size 9 to 14) (size 15 to 20)
#    0.000    1.667    1.667    4.000    2.333    3.000 
#    0.000    2.500    0.000    3.500    0.000    0.000 
#    0.000    0.000    0.000    0.000    0.000    0.000 
#
# Total GULP energy -595321.765980 kJ/mol
# GULP energy per Si atom -12402.536791 kJ/mol
# Density = 1.938982 g / cm^3
# Si number density = 19.434048 Si / 1000 Ang^3
#
#
#
# Elastic Constant Matrix: (Units=GPa)
#
#
# Indices 1 2 3 4 5 6 
#
# 1 101.9868 33.5838 67.3957 0.0000 0.0000 0.0000
# 2 33.5838 91.5362 44.0395 0.0000 0.0000 0.0000
# 3 67.3957 44.0395 127.1559 0.0000 0.0000 0.0000
# 4 0.0000 0.0000 0.0000 25.3709 0.0000 0.0000
# 5 0.0000 0.0000 0.0000 0.0000 38.9151 0.0000
# 6 0.0000 0.0000 0.0000 0.0000 0.0000 29.8618
#
#
#
# Elastic Compliance Matrix: (Units=1/GPa)
#
#
# Indices 1 2 3 4 5 6 
#
# 1 0.015411 -0.002069 -0.007451 0.000000 0.000000 0.000000
# 2 -0.002069 0.013387 -0.003540 0.000000 0.000000 0.000000
# 3 -0.007451 -0.003540 0.013040 0.000000 0.000000 0.000000
# 4 0.000000 0.000000 0.000000 0.039415 0.000000 0.000000
# 5 0.000000 0.000000 0.000000 0.000000 0.025697 0.000000
# 6 0.000000 0.000000 0.000000 0.000000 0.000000 0.033488
#
#
# Mechanical properties :
#
#
# Convention : Reuss Voigt Hill
#
# Bulk Modulus (GPa) = 63.62644 67.85745 65.74194
# Shear Modulus (GPa) = 29.10423 30.54022 29.82223
#
# Velocity S-wave (km/s) = 3.87407 3.96849 3.92156
# Velocity P-wave (km/s) = 7.26787 7.48272 7.37608
#
# Compressibility (1/GPa) = 0.01571674
#
# Stress axis : x y z
#
# Youngs Moduli (GPa) = 64.89033 74.70049 76.68849
#
# Poissons Ratio (x) = 0.15456 0.57144
# Poissons Ratio (y) = 0.13426 0.27146
# Poissons Ratio (z) = 0.48352 0.26442
#
# Static dielectric constant tensor:
#      x y z
#    x 3.622390 0.000000 0.000000 
#    y 0.000000 3.657010 0.000000 
#    z 0.000000 0.000000 -2.041450 
# 
# 
# High freq. dielectric constant tensor:
#      x y z
#    x 1.766660 0.000000 0.000000 
#    y 0.000000 1.747420 0.000000 
#    z 0.000000 0.000000 1.767070 
# 
# From -- ./inp_files/12920.got.cif
#   From: 2010.03.12/outbox.cif.g09.slc.cpg/sg59_7_cif.got.tgz:12920.got - 2010.04.16 16:29:54.
