data_PCOD8246459
_publ_section_title
;
Structure prediction by ZEFSAII (Michael W. Deem and Ramdas Pophale) SiO2 
 PCOD8246459
Probable space group: P B C N
;
_chemical_formula_sum "Si O2"
_cell_formula_units_Z 64
_cell_length_a 12.112172
_cell_length_b 17.549887
_cell_length_c 15.376950
_cell_angle_alpha 90.000000
_cell_angle_beta 90.000000
_cell_angle_gamma 90.000000
_cell_volume 3268.635974
_symmetry_space_group_name_H-M "P B C N"
_symmetry_group_IT_number 60
_symmetry_cell_setting 'orthorhombic'
loop_
_space_group_symop_operation_xyz
x,y,z
1/2-x,1/2-y,1/2+z
1/2+x,1/2-y,-z
-x,y,1/2-z
-x,-y,-z
1/2+x,1/2+y,1/2-z
1/2-x,1/2+y,z
x,-y,1/2+z
loop_
_atom_site_type_symbol
_atom_site_label
_atom_site_fract_x
_atom_site_fract_y
_atom_site_fract_z
Si Si1 0.264291 0.036715 0.600104
Si Si2 0.010908 0.707828 0.148545
Si Si3 0.489353 0.963198 0.647130
Si Si4 0.875101 0.784346 0.751256
Si Si5 0.124486 0.965273 0.750035
Si Si6 0.275448 0.785009 0.904823
Si Si7 0.226872 0.465296 0.905923
Si Si8 0.230943 0.785293 0.100646
O O1 0.231121 0.012859 0.501924
O O2 0.249957 0.125927 0.614814
O O3 0.391897 0.018021 0.616649
O O4 0.184552 0.990287 0.662496
O O5 0.899176 0.745152 0.111117
O O6 0.000000 0.698937 0.250000
O O7 0.034099 0.622615 0.111712
O O8 0.107099 0.766035 0.126742
O O9 0.500000 0.963862 0.750000
O O10 0.603128 0.997072 0.608161
O O11 0.875994 0.874843 0.747396
O O12 0.809124 0.751098 0.667338
O O13 0.817977 0.759966 0.840769
O O14 0.000000 0.752203 0.750000
O O15 0.188893 0.999160 0.834067
O O16 0.000000 0.997674 0.750000
O O17 0.277765 0.875191 0.893751
O O18 0.242067 0.758997 0.000872
#
# Coordination Sequence:
#
# PCOD8246459 Si02
#       8
#     8   8   8   8   8   8   8   8
#     4  11  22  36  57  87 123 144 180 244 299 335
#     4  10  19  37  64  83 108 156 205 231 266 346
#     4  10  18  35  66  86 107 151 198 235 278 341
#     4  10  21  40  61  81 113 155 197 233 277 346
#     4  10  21  40  62  79 110 161 201 224 268 351
#     4   9  20  37  58  86 114 150 193 234 284 339
#     4   9  19  37  59  86 114 147 188 238 286 331
#     4  11  23  36  57  88 121 148 180 244 301 331
#
# _framework density 19.580033
#
# number of rings (size 3 to 8) (size 9 to 14) (size 15 to 20)
#    0.000    2.000    2.500    1.125    1.750    1.500 
#    0.000    2.500    0.000    0.000    0.000    0.000 
#    0.000    0.000    0.000    0.000    0.000    0.000 
#
# Total GULP energy -793607.104193 kJ/mol
# GULP energy per Si atom -12400.111003 kJ/mol
# Density = 1.953547 g / cm^3
# Si number density = 19.580033 Si / 1000 Ang^3
#
#
#
# Elastic Constant Matrix: (Units=GPa)
#
#
# Indices 1 2 3 4 5 6 
#
# 1 189.4163 39.0337 73.3645 0.0000 0.0000 0.0000
# 2 39.0337 35.9298 19.4421 0.0000 0.0000 0.0000
# 3 73.3645 19.4421 126.3926 0.0000 0.0000 0.0000
# 4 0.0000 0.0000 0.0000 25.7450 0.0000 0.0000
# 5 0.0000 0.0000 0.0000 0.0000 25.0616 0.0000
# 6 0.0000 0.0000 0.0000 0.0000 0.0000 -3.5014
#
#
#
# Elastic Compliance Matrix: (Units=1/GPa)
#
#
# Indices 1 2 3 4 5 6 
#
# 1 0.008100 -0.006824 -0.003652 0.000000 0.000000 0.000000
# 2 -0.006824 0.036107 -0.001593 0.000000 0.000000 0.000000
# 3 -0.003652 -0.001593 0.010277 0.000000 0.000000 0.000000
# 4 0.000000 0.000000 0.000000 0.038842 0.000000 0.000000
# 5 0.000000 0.000000 0.000000 0.000000 0.039902 0.000000
# 6 0.000000 0.000000 0.000000 0.000000 0.000000 -0.285602
#
#
# Mechanical properties :
#
#
# Convention : Reuss Voigt Hill
#
# Bulk Modulus (GPa) = 32.95316 68.37992 50.66654
# Shear Modulus (GPa) = -42.32986 24.12095 -9.10445
#
# Velocity S-wave (km/s) = -4.65466 3.51367 -2.15869
# Velocity P-wave (km/s) = 3.46717 7.17358 4.44067
#
# Compressibility (1/GPa) = 0.03034611
#
# Stress axis : x y z
#
# Youngs Moduli (GPa) = 123.45605 27.69519 97.30680
#
# Poissons Ratio (x) = 0.18898 0.35537
# Poissons Ratio (y) = 0.84242 0.15505
# Poissons Ratio (z) = 0.45087 0.04413
#
# Static dielectric constant tensor:
#      x y z
#    x 3.859270 0.000000 0.000000 
#    y 0.000000 3.246090 0.000000 
#    z 0.000000 0.000000 3.747160 
# 
# 
# High freq. dielectric constant tensor:
#      x y z
#    x 1.775730 0.000000 0.000000 
#    y 0.000000 1.727340 0.000000 
#    z 0.000000 0.000000 1.775100 
# 
# From -- ./inp_files/16383.got.cif
#   From: 2010.03.12/outbox.cif.g09.slc.cpg/sg60_9_cif.got.tgz:16383.got - 2010.04.10 18:46:24.
