data_PCOD8246878
_publ_section_title
;
Structure prediction by ZEFSAII (Michael W. Deem and Ramdas Pophale) SiO2 
 PCOD8246878
Probable space group: P B C N
;
_chemical_formula_sum "Si O2"
_cell_formula_units_Z 56
_cell_length_a 19.085530
_cell_length_b 8.280783
_cell_length_c 18.745954
_cell_angle_alpha 90.000000
_cell_angle_beta 90.000000
_cell_angle_gamma 90.000000
_cell_volume 2962.669289
_symmetry_space_group_name_H-M "P B C N"
_symmetry_group_IT_number 60
_symmetry_cell_setting 'orthorhombic'
loop_
_space_group_symop_operation_xyz
x,y,z
1/2-x,1/2-y,1/2+z
1/2+x,1/2-y,-z
-x,y,1/2-z
-x,-y,-z
1/2+x,1/2+y,1/2-z
1/2-x,1/2+y,z
x,-y,1/2+z
loop_
_atom_site_type_symbol
_atom_site_label
_atom_site_fract_x
_atom_site_fract_y
_atom_site_fract_z
Si Si1 0.664578 0.933362 0.192679
Si Si2 0.426424 0.577354 0.735594
Si Si3 0.444190 0.104687 0.690345
Si Si4 0.185987 0.927449 0.830907
Si Si5 0.549496 0.847662 0.651244
Si Si6 0.553779 0.418366 0.902035
Si Si7 0.413458 0.439811 0.442130
O O1 0.631299 0.926238 0.272293
O O2 0.680732 0.762165 0.157328
O O3 0.735875 0.033683 0.192980
O O4 0.610007 0.020516 0.140186
O O5 0.500000 0.482978 0.750000
O O6 0.362581 0.475570 0.764901
O O7 0.433497 0.752776 0.773547
O O8 0.422177 0.569699 0.648997
O O9 0.500000 0.161002 0.750000
O O10 0.432437 0.244751 0.632951
O O11 0.474324 0.939046 0.654460
O O12 0.159628 0.019643 0.902293
O O13 0.553109 0.729101 0.584272
O O14 0.471497 0.425568 0.922493
O O15 0.600552 0.431724 0.973584
#
# Coordination Sequence:
#
# PCOD8246878 Si02
#       7
#     8   8   8   8   8   8   8
#     4  11  22  35  62  86 107 153 191 252 289 349
#     4  11  18  34  60  85 112 151 184 249 281 341
#     4  10  20  35  59  92 117 147 194 252 286 341
#     4  11  21  37  58  82 115 145 206 233 296 347
#     4  10  21  34  60  88 119 146 198 239 298 337
#     4  11  20  35  58  88 123 151 192 232 307 336
#     4  10  22  35  57  88 120 161 187 240 291 364
#
# _framework density 18.901872999999998
#
# number of rings (size 3 to 8) (size 9 to 14) (size 15 to 20)
#    0.000    1.429    4.286    5.143    0.000    0.571 
#    0.000    0.000    6.286    0.000    0.000    0.000 
#    0.000    0.000    0.000    0.000    0.000    0.000 
#
# Total GULP energy -693884.578017 kJ/mol
# GULP energy per Si atom -12390.796036 kJ/mol
# Density = 1.885885 g / cm^3
# Si number density = 18.901873 Si / 1000 Ang^3
#
#
#
# Elastic Constant Matrix: (Units=GPa)
#
#
# Indices 1 2 3 4 5 6 
#
# 1 100.0258 20.7709 32.5855 0.0000 0.0000 0.0000
# 2 20.7709 88.6444 31.6215 0.0000 0.0000 0.0000
# 3 32.5855 31.6215 134.7035 0.0000 0.0000 0.0000
# 4 0.0000 0.0000 0.0000 21.4537 0.0000 0.0000
# 5 0.0000 0.0000 0.0000 0.0000 17.7213 0.0000
# 6 0.0000 0.0000 0.0000 0.0000 0.0000 24.8290
#
#
#
# Elastic Compliance Matrix: (Units=1/GPa)
#
#
# Indices 1 2 3 4 5 6 
#
# 1 0.011108 -0.001795 -0.002266 0.000000 0.000000 0.000000
# 2 -0.001795 0.012602 -0.002524 0.000000 0.000000 0.000000
# 3 -0.002266 -0.002524 0.008564 0.000000 0.000000 0.000000
# 4 0.000000 0.000000 0.000000 0.046612 0.000000 0.000000
# 5 0.000000 0.000000 0.000000 0.000000 0.056429 0.000000
# 6 0.000000 0.000000 0.000000 0.000000 0.000000 0.040276
#
#
# Mechanical properties :
#
#
# Convention : Reuss Voigt Hill
#
# Bulk Modulus (GPa) = 52.34135 54.81438 53.57787
# Shear Modulus (GPa) = 25.62407 28.69385 27.15896
#
# Velocity S-wave (km/s) = 3.68589 3.90043 3.79468
# Velocity P-wave (km/s) = 6.77242 7.02474 6.89973
#
# Compressibility (1/GPa) = 0.01910535
#
# Stress axis : x y z
#
# Youngs Moduli (GPa) = 90.02336 79.35278 116.76258
#
# Poissons Ratio (x) = 0.14240 0.26457
# Poissons Ratio (y) = 0.16155 0.29473
# Poissons Ratio (z) = 0.20398 0.20030
#
# Static dielectric constant tensor:
#      x y z
#    x 3.413990 0.000000 0.000000 
#    y 0.000000 3.588270 0.000000 
#    z 0.000000 0.000000 3.395320 
# 
# 
# High freq. dielectric constant tensor:
#      x y z
#    x 1.713990 0.000000 0.000000 
#    y 0.000000 1.747810 0.000000 
#    z 0.000000 0.000000 1.707990 
# 
# From -- ./inp_files/23059.got.cif
#   From: 2010.03.12/outbox.cif.g09.slc.cpg/sg60_12_cif.got.tgz:23059.got - 2010.04.10 18:46:24.
