data_PCOD8246981
_publ_section_title
;
Structure prediction by ZEFSAII (Michael W. Deem and Ramdas Pophale) SiO2 
 PCOD8246981
Probable space group: P B C N
;
_chemical_formula_sum "Si O2"
_cell_formula_units_Z 40
_cell_length_a 8.715140
_cell_length_b 24.024911
_cell_length_c 8.972101
_cell_angle_alpha 90.000000
_cell_angle_beta 90.000000
_cell_angle_gamma 90.000000
_cell_volume 1878.582660
_symmetry_space_group_name_H-M "P B C N"
_symmetry_group_IT_number 60
_symmetry_cell_setting 'orthorhombic'
loop_
_space_group_symop_operation_xyz
x,y,z
1/2-x,1/2-y,1/2+z
1/2+x,1/2-y,-z
-x,y,1/2-z
-x,-y,-z
1/2+x,1/2+y,1/2-z
1/2-x,1/2+y,z
x,-y,1/2+z
loop_
_atom_site_type_symbol
_atom_site_label
_atom_site_fract_x
_atom_site_fract_y
_atom_site_fract_z
Si Si1 0.649121 0.935352 0.543840
Si Si2 0.307185 0.678676 0.535142
Si Si3 0.307225 0.046378 0.108552
Si Si4 0.820376 0.728090 0.250727
Si Si5 0.101155 0.142810 0.104507
O O1 0.710719 0.877446 0.480014
O O2 0.697119 0.946650 0.713375
O O3 0.465770 0.933973 0.533301
O O4 0.721508 0.982595 0.437330
O O5 0.284333 0.709100 0.693355
O O6 0.252398 0.723139 0.411925
O O7 0.489765 0.667942 0.521186
O O8 0.171505 0.084869 0.043831
O O9 0.741550 0.683656 0.360462
O O10 0.000000 0.713651 0.250000
O O11 0.000000 0.130755 0.250000
#
# Coordination Sequence:
#
# PCOD8246981 Si02
#       5
#     8   8   8   8   8
#     4  10  21  40  66  88 123 162 208 252 312 372
#     4  11  23  41  63  95 125 165 210 257 309 370
#     4  10  20  40  65  88 122 165 202 255 312 373
#     4  11  22  41  65  87 126 169 205 255 309 368
#     4  10  20  37  62  90 121 160 203 249 313 360
#
# _framework density 21.292649000000001
#
# number of rings (size 3 to 8) (size 9 to 14) (size 15 to 20)
#    0.000    1.600    4.000    2.400    0.000    0.800 
#    7.200    2.000   13.200    0.000    0.000    0.000 
#    0.000    0.000    0.000    0.000    0.000    0.000 
#
# Total GULP energy -496015.726254 kJ/mol
# GULP energy per Si atom -12400.393156 kJ/mol
# Density = 2.124419 g / cm^3
# Si number density = 21.292649 Si / 1000 Ang^3
#
#
#
# Elastic Constant Matrix: (Units=GPa)
#
#
# Indices 1 2 3 4 5 6 
#
# 1 118.1139 75.9990 32.6582 0.0000 0.0000 0.0000
# 2 75.9990 169.8703 63.2679 0.0000 0.0000 0.0000
# 3 32.6582 63.2679 37.7135 0.0000 0.0000 0.0000
# 4 0.0000 0.0000 0.0000 30.1420 0.0000 0.0000
# 5 0.0000 0.0000 0.0000 0.0000 15.3997 0.0000
# 6 0.0000 0.0000 0.0000 0.0000 0.0000 25.6725
#
#
#
# Elastic Compliance Matrix: (Units=1/GPa)
#
#
# Indices 1 2 3 4 5 6 
#
# 1 0.012081 -0.004021 -0.003716 0.000000 0.000000 0.000000
# 2 -0.004021 0.017029 -0.025085 0.000000 0.000000 0.000000
# 3 -0.003716 -0.025085 0.071817 0.000000 0.000000 0.000000
# 4 0.000000 0.000000 0.000000 0.033176 0.000000 0.000000
# 5 0.000000 0.000000 0.000000 0.000000 0.064937 0.000000
# 6 0.000000 0.000000 0.000000 0.000000 0.000000 0.038952
#
#
# Mechanical properties :
#
#
# Convention : Reuss Voigt Hill
#
# Bulk Modulus (GPa) = 28.34339 74.39421 51.36880
# Shear Modulus (GPa) = 15.85301 24.49434 20.17368
#
# Velocity S-wave (km/s) = 2.73157 3.39538 3.08140
# Velocity P-wave (km/s) = 4.82585 7.09833 6.06940
#
# Compressibility (1/GPa) = 0.03528160
#
# Stress axis : x y z
#
# Youngs Moduli (GPa) = 82.77350 58.72405 13.92432
#
# Poissons Ratio (x) = 0.23613 0.05175
# Poissons Ratio (y) = 0.33283 0.34930
# Poissons Ratio (z) = 0.30761 1.47312
#
# Static dielectric constant tensor:
#      x y z
#    x 4.112750 0.000000 0.000000 
#    y 0.000000 3.944770 0.000000 
#    z 0.000000 0.000000 3.642230 
# 
# 
# High freq. dielectric constant tensor:
#      x y z
#    x 1.843790 0.000000 0.000000 
#    y 0.000000 1.842100 0.000000 
#    z 0.000000 0.000000 1.809790 
# 
# From -- ./inp_files/3862.got.cif
#   From: 2010.03.12/outbox.cif.g09.slc.cpg/sg60_2_cif.got.tgz:3862.got - 2010.04.10 18:46:24.
