data_PCOD8246842
_publ_section_title
;
Structure prediction by ZEFSAII (Michael W. Deem and Ramdas Pophale) SiO2 
 PCOD8246842
Probable space group: P B C N
;
_chemical_formula_sum "Si O2"
_cell_formula_units_Z 48
_cell_length_a 17.814591
_cell_length_b 10.170004
_cell_length_c 13.262842
_cell_angle_alpha 90.000000
_cell_angle_beta 90.000000
_cell_angle_gamma 90.000000
_cell_volume 2402.888260
_symmetry_space_group_name_H-M "P B C N"
_symmetry_group_IT_number 60
_symmetry_cell_setting 'orthorhombic'
loop_
_space_group_symop_operation_xyz
x,y,z
1/2-x,1/2-y,1/2+z
1/2+x,1/2-y,-z
-x,y,1/2-z
-x,-y,-z
1/2+x,1/2+y,1/2-z
1/2-x,1/2+y,z
x,-y,1/2+z
loop_
_atom_site_type_symbol
_atom_site_label
_atom_site_fract_x
_atom_site_fract_y
_atom_site_fract_z
Si Si1 0.124958 0.471263 0.512816
Si Si2 0.363234 0.302029 0.086208
Si Si3 0.490819 0.033512 0.860403
Si Si4 0.317855 0.647933 0.815083
Si Si5 0.523053 0.276551 0.142021
Si Si6 0.259703 0.608734 0.412538
O O1 0.158195 0.352930 0.579484
O O2 0.079590 0.402933 0.419186
O O3 0.187286 0.570599 0.476548
O O4 0.067346 0.559322 0.578567
O O5 0.333309 0.345642 0.195595
O O6 0.453742 0.321209 0.070648
O O7 0.325525 0.377543 0.994163
O O8 0.500000 0.096856 0.750000
O O9 0.470487 0.880096 0.854428
O O10 0.394466 0.664623 0.881487
O O11 0.257736 0.758677 0.849991
O O12 0.282044 0.505942 0.835258
O O13 0.500000 0.331946 0.250000
#
# Coordination Sequence:
#
# PCOD8246842 Si02
#       6
#     8   8   8   8   8   8
#     4  10  20  34  58  91 123 155 202 255 302 360
#     4  10  23  41  63  88 124 161 207 256 304 370
#     4   9  17  32  60  88 121 158 207 252 297 357
#     4  11  24  40  65  87 124 163 205 249 315 366
#     4   8  16  36  60  85 112 165 201 239 300 366
#     4  12  24  39  59  96 121 161 202 256 311 372
#
# _framework density 19.975959
#
# number of rings (size 3 to 8) (size 9 to 14) (size 15 to 20)
#    0.000    2.000    3.333    1.000    2.333    0.667 
#    0.000    0.000    0.000    1.000    0.000    0.000 
#    0.000    0.000    0.000    0.000    0.000    0.000 
#
# Total GULP energy -594822.140436 kJ/mol
# GULP energy per Si atom -12392.127926 kJ/mol
# Density = 1.993049 g / cm^3
# Si number density = 19.975959 Si / 1000 Ang^3
#
#
#
# Elastic Constant Matrix: (Units=GPa)
#
#
# Indices 1 2 3 4 5 6 
#
# 1 86.1920 33.5160 36.6026 0.0000 0.0000 0.0000
# 2 33.5160 72.1810 28.3505 0.0000 0.0000 0.0000
# 3 36.6026 28.3505 97.6347 0.0000 0.0000 0.0000
# 4 0.0000 0.0000 0.0000 18.6143 0.0000 0.0000
# 5 0.0000 0.0000 0.0000 0.0000 27.9256 0.0000
# 6 0.0000 0.0000 0.0000 0.0000 0.0000 12.8078
#
#
#
# Elastic Compliance Matrix: (Units=1/GPa)
#
#
# Indices 1 2 3 4 5 6 
#
# 1 0.015557 -0.005568 -0.004216 0.000000 0.000000 0.000000
# 2 -0.005568 0.017630 -0.003032 0.000000 0.000000 0.000000
# 3 -0.004216 -0.003032 0.012703 0.000000 0.000000 0.000000
# 4 0.000000 0.000000 0.000000 0.053722 0.000000 0.000000
# 5 0.000000 0.000000 0.000000 0.000000 0.035809 0.000000
# 6 0.000000 0.000000 0.000000 0.000000 0.000000 0.078077
#
#
# Mechanical properties :
#
#
# Convention : Reuss Voigt Hill
#
# Bulk Modulus (GPa) = 49.35921 50.32734 49.84327
# Shear Modulus (GPa) = 20.33480 22.37211 21.35346
#
# Velocity S-wave (km/s) = 3.19402 3.35020 3.27304
# Velocity P-wave (km/s) = 6.19397 6.34143 6.26813
#
# Compressibility (1/GPa) = 0.02025964
#
# Stress axis : x y z
#
# Youngs Moduli (GPa) = 64.27834 56.72041 78.72128
#
# Poissons Ratio (x) = 0.31582 0.33185
# Poissons Ratio (y) = 0.35790 0.23868
# Poissons Ratio (z) = 0.27097 0.17197
#
# Static dielectric constant tensor:
#      x y z
#    x 3.908160 0.000000 0.000000 
#    y 0.000000 3.210110 0.000000 
#    z 0.000000 0.000000 3.790630 
# 
# 
# High freq. dielectric constant tensor:
#      x y z
#    x 1.791830 0.000000 0.000000 
#    y 0.000000 1.738260 0.000000 
#    z 0.000000 0.000000 1.777180 
# 
# From -- ./inp_files/16756.got.cif
#   From: 2010.03.12/outbox.cif.g09.slc.cpg/sg60_9_cif.got.tgz:16756.got - 2010.04.10 18:46:24.
