data_PCOD8246267
_publ_section_title
;
Structure prediction by ZEFSAII (Michael W. Deem and Ramdas Pophale) SiO2 
 PCOD8246267
Probable space group: P B C N
;
_chemical_formula_sum "Si O2"
_cell_formula_units_Z 60
_cell_length_a 12.533659
_cell_length_b 19.135801
_cell_length_c 15.006681
_cell_angle_alpha 90.000000
_cell_angle_beta 90.000000
_cell_angle_gamma 90.000000
_cell_volume 3599.226448
_symmetry_space_group_name_H-M "P B C N"
_symmetry_group_IT_number 60
_symmetry_cell_setting 'orthorhombic'
loop_
_space_group_symop_operation_xyz
x,y,z
1/2-x,1/2-y,1/2+z
1/2+x,1/2-y,-z
-x,y,1/2-z
-x,-y,-z
1/2+x,1/2+y,1/2-z
1/2-x,1/2+y,z
x,-y,1/2+z
loop_
_atom_site_type_symbol
_atom_site_label
_atom_site_fract_x
_atom_site_fract_y
_atom_site_fract_z
Si Si1 0.612973 0.738229 0.397254
Si Si2 0.000000 0.450374 0.250000
Si Si3 0.838376 0.669390 0.731231
Si Si4 0.841313 0.683762 0.072193
Si Si5 0.117445 0.763856 0.929836
Si Si6 0.334042 0.186420 0.105361
Si Si7 0.500548 0.916203 0.849067
Si Si8 0.615149 0.719225 0.730538
O O1 0.616897 0.774649 0.301413
O O2 0.630645 0.799014 0.470273
O O3 0.497899 0.701138 0.410221
O O4 0.705732 0.679459 0.406535
O O5 0.107489 0.405151 0.251688
O O6 0.998263 0.499376 0.339201
O O7 0.868565 0.696528 0.633396
O O8 0.709499 0.661401 0.737727
O O9 0.712514 0.680024 0.085839
O O10 0.894920 0.609831 0.098268
O O11 0.888577 0.746105 0.132798
O O12 0.117712 0.736770 0.030486
O O13 0.392181 0.111005 0.100925
O O14 0.359458 0.219840 0.200143
O O15 0.500000 0.882490 0.750000
O O16 0.500000 0.683830 0.750000
#
# Coordination Sequence:
#
# PCOD8246267 Si02
#       8
#     8   4   8   8   8   8   8   8
#     4  10  18  28  47  68 104 117 142 198 234 299
#     4  10  20  34  48  64  94 138 162 196 214 268
#     4  10  20  31  41  66  96 127 157 183 245 260
#     4  10  17  28  47  75  89 122 154 182 250 276
#     4  10  18  28  47  68 104 117 142 198 234 299
#     4  10  17  28  47  75  89 122 154 182 250 276
#     4  10  18  31  52  62  95 124 160 198 210 277
#     4  10  15  28  50  67  93 113 152 206 229 290
#
# _framework density 16.670248999999998
#
# number of rings (size 3 to 8) (size 9 to 14) (size 15 to 20)
#    0.400    1.600    5.333    0.000    0.000    0.000 
#    0.000    2.667    0.000    1.600    0.000    0.000 
#    0.000   12.800    0.000    0.000    0.000    0.000 
#
# Total GULP energy -743476.091457 kJ/mol
# GULP energy per Si atom -12391.268191 kJ/mol
# Density = 1.663231 g / cm^3
# Si number density = 16.670249 Si / 1000 Ang^3
#
#
#
# Elastic Constant Matrix: (Units=GPa)
#
#
# Indices 1 2 3 4 5 6 
#
# 1 159.4176 38.4063 -0.8668 0.0000 0.0000 0.0000
# 2 38.4063 60.0960 0.7168 0.0000 0.0000 0.0000
# 3 -0.8668 0.7168 49.1079 0.0000 0.0000 0.0000
# 4 0.0000 0.0000 0.0000 12.0254 0.0000 0.0000
# 5 0.0000 0.0000 0.0000 0.0000 23.0687 0.0000
# 6 0.0000 0.0000 0.0000 0.0000 0.0000 23.8754
#
#
#
# Elastic Compliance Matrix: (Units=1/GPa)
#
#
# Indices 1 2 3 4 5 6 
#
# 1 0.007416 -0.004742 0.000200 0.000000 0.000000 0.000000
# 2 -0.004742 0.019675 -0.000371 0.000000 0.000000 0.000000
# 3 0.000200 -0.000371 0.020372 0.000000 0.000000 0.000000
# 4 0.000000 0.000000 0.000000 0.083157 0.000000 0.000000
# 5 0.000000 0.000000 0.000000 0.000000 0.043349 0.000000
# 6 0.000000 0.000000 0.000000 0.000000 0.000000 0.041884
#
#
# Mechanical properties :
#
#
# Convention : Reuss Voigt Hill
#
# Bulk Modulus (GPa) = 26.56889 38.34825 32.45857
# Shear Modulus (GPa) = 20.98854 27.15159 24.07007
#
# Velocity S-wave (km/s) = 3.55215 4.04015 3.80398
# Velocity P-wave (km/s) = 5.72679 6.69460 6.22952
#
# Compressibility (1/GPa) = 0.03763800
#
# Stress axis : x y z
#
# Youngs Moduli (GPa) = 134.83704 50.82588 49.08636
#
# Poissons Ratio (x) = 0.24102 -0.00982
# Poissons Ratio (y) = 0.63940 0.01821
# Poissons Ratio (z) = -0.02698 0.01885
#
# Static dielectric constant tensor:
#      x y z
#    x 3.681020 0.000000 0.000000 
#    y 0.000000 2.544750 0.000000 
#    z 0.000000 0.000000 3.257480 
# 
# 
# High freq. dielectric constant tensor:
#      x y z
#    x 1.663810 0.000000 0.000000 
#    y 0.000000 1.562580 0.000000 
#    z 0.000000 0.000000 1.659030 
# 
# From -- ./inp_files/16448.got.cif
#   From: 2010.03.12/outbox.cif.g09.slc.cpg/sg60_9_cif.got.tgz:16448.got - 2010.04.10 18:46:24.
