data_PCOD8246794
_publ_section_title
;
Structure prediction by ZEFSAII (Michael W. Deem and Ramdas Pophale) SiO2 
 PCOD8246794
Probable space group: P B C N
;
_chemical_formula_sum "Si O2"
_cell_formula_units_Z 40
_cell_length_a 16.223844
_cell_length_b 32.137954
_cell_length_c 4.982987
_cell_angle_alpha 90.000000
_cell_angle_beta 90.000000
_cell_angle_gamma 90.000000
_cell_volume 2598.135163
_symmetry_space_group_name_H-M "P B C N"
_symmetry_group_IT_number 60
_symmetry_cell_setting 'orthorhombic'
loop_
_space_group_symop_operation_xyz
x,y,z
1/2-x,1/2-y,1/2+z
1/2+x,1/2-y,-z
-x,y,1/2-z
-x,-y,-z
1/2+x,1/2+y,1/2-z
1/2-x,1/2+y,z
x,-y,1/2+z
loop_
_atom_site_type_symbol
_atom_site_label
_atom_site_fract_x
_atom_site_fract_y
_atom_site_fract_z
Si Si1 0.275841 0.724947 0.641424
Si Si2 0.446709 0.749065 0.488664
Si Si3 0.401955 0.975244 0.757435
Si Si4 0.643962 0.167598 0.665157
Si Si5 0.595393 0.118267 0.174371
O O1 0.226928 0.740981 0.379456
O O2 0.371876 0.718163 0.567054
O O3 0.235203 0.681711 0.739022
O O4 0.500000 0.759289 0.750000
O O5 0.411792 0.791591 0.363777
O O6 0.500000 0.727846 0.250000
O O7 0.500000 0.974943 0.750000
O O8 0.370487 0.928779 0.817525
O O9 0.367602 0.992512 0.477618
O O10 0.650707 0.144847 0.379684
O O11 0.604040 0.135942 0.875869
O O12 0.500000 0.120849 0.250000
#
# Coordination Sequence:
#
# PCOD8246794 Si02
#       5
#     8   8   8   8   8
#     4  10  20  32  44  59  83 113 139 172 220 262
#     4  11  20  31  46  62  81 109 147 182 212 247
#     4   9  17  29  41  55  78 106 136 169 202 241
#     4  11  20  30  42  61  85 106 137 180 218 243
#     4  11  20  28  43  63  81 107 143 178 210 240
#
# _framework density 15.395659
#
# number of rings (size 3 to 8) (size 9 to 14) (size 15 to 20)
#    0.000    1.600    0.000    9.600    0.000    3.200 
#    0.000    0.000    0.000    0.000    0.000    0.000 
#    0.000    0.000    0.000    0.000    0.000   70.000 
#
# Total GULP energy -495989.004854 kJ/mol
# GULP energy per Si atom -12399.725121 kJ/mol
# Density = 1.536062 g / cm^3
# Si number density = 15.395659 Si / 1000 Ang^3
#
#
#
# Elastic Constant Matrix: (Units=GPa)
#
#
# Indices 1 2 3 4 5 6 
#
# 1 67.3295 28.5059 25.0066 0.0000 0.0000 0.0000
# 2 28.5059 59.2692 10.2135 0.0000 0.0000 0.0000
# 3 25.0066 10.2135 84.6085 0.0000 0.0000 0.0000
# 4 0.0000 0.0000 0.0000 20.1658 0.0000 0.0000
# 5 0.0000 0.0000 0.0000 0.0000 26.4479 0.0000
# 6 0.0000 0.0000 0.0000 0.0000 0.0000 10.7337
#
#
#
# Elastic Compliance Matrix: (Units=1/GPa)
#
#
# Indices 1 2 3 4 5 6 
#
# 1 0.020515 -0.009009 -0.004976 0.000000 0.000000 0.000000
# 2 -0.009009 0.021187 0.000105 0.000000 0.000000 0.000000
# 3 -0.004976 0.000105 0.013277 0.000000 0.000000 0.000000
# 4 0.000000 0.000000 0.000000 0.049589 0.000000 0.000000
# 5 0.000000 0.000000 0.000000 0.000000 0.037810 0.000000
# 6 0.000000 0.000000 0.000000 0.000000 0.000000 0.093164
#
#
# Mechanical properties :
#
#
# Convention : Reuss Voigt Hill
#
# Bulk Modulus (GPa) = 36.73872 37.62880 37.18376
# Shear Modulus (GPa) = 18.35705 21.30155 19.82930
#
# Velocity S-wave (km/s) = 3.45679 3.72372 3.59274
# Velocity P-wave (km/s) = 6.31248 6.55610 6.43544
#
# Compressibility (1/GPa) = 0.02721924
#
# Stress axis : x y z
#
# Youngs Moduli (GPa) = 48.74559 47.19852 75.31787
#
# Poissons Ratio (x) = 0.42522 0.37476
# Poissons Ratio (y) = 0.43916 -0.00792
# Poissons Ratio (z) = 0.24254 -0.00496
#
# Static dielectric constant tensor:
#      x y z
#    x 2.792220 0.000000 0.000000 
#    y 0.000000 2.881230 0.000000 
#    z 0.000000 0.000000 3.327070 
# 
# 
# High freq. dielectric constant tensor:
#      x y z
#    x 1.544870 0.000000 0.000000 
#    y 0.000000 1.560870 0.000000 
#    z 0.000000 0.000000 1.623420 
# 
# From -- ./inp_files/1382.got.cif
#   From: 2010.03.12/outbox.cif.g09.slc.cpg/sg60_1_cif.got.tgz:1382.got - 2010.04.10 18:46:24.
