data_PCOD8246569
_publ_section_title
;
Structure prediction by ZEFSAII (Michael W. Deem and Ramdas Pophale) SiO2 
 PCOD8246569
Probable space group: P B C N
;
_chemical_formula_sum "Si O2"
_cell_formula_units_Z 64
_cell_length_a 13.104130
_cell_length_b 26.845775
_cell_length_c 9.703947
_cell_angle_alpha 90.000000
_cell_angle_beta 90.000000
_cell_angle_gamma 90.000000
_cell_volume 3413.756615
_symmetry_space_group_name_H-M "P B C N"
_symmetry_group_IT_number 60
_symmetry_cell_setting 'orthorhombic'
loop_
_space_group_symop_operation_xyz
x,y,z
1/2-x,1/2-y,1/2+z
1/2+x,1/2-y,-z
-x,y,1/2-z
-x,-y,-z
1/2+x,1/2+y,1/2-z
1/2-x,1/2+y,z
x,-y,1/2+z
loop_
_atom_site_type_symbol
_atom_site_label
_atom_site_fract_x
_atom_site_fract_y
_atom_site_fract_z
Si Si1 0.306085 0.770027 0.379695
Si Si2 0.617166 0.123681 0.595928
Si Si3 0.797254 0.949274 0.089201
Si Si4 0.347155 0.227232 0.573583
Si Si5 0.520870 0.697941 0.103509
Si Si6 0.790775 0.048560 0.914694
Si Si7 0.391799 0.881512 0.077997
Si Si8 0.503434 0.606994 0.909691
O O1 0.360404 0.819003 0.443188
O O2 0.200803 0.763442 0.460027
O O3 0.283180 0.775504 0.216732
O O4 0.364961 0.718492 0.412203
O O5 0.707494 0.088139 0.541898
O O6 0.611241 0.121593 0.758906
O O7 0.508362 0.105805 0.531163
O O8 0.788336 0.962128 0.251194
O O9 0.906545 0.926285 0.050807
O O10 0.788023 0.997975 0.998101
O O11 0.455819 0.251274 0.605524
O O12 0.361185 0.171764 0.513738
O O13 0.500000 0.670543 0.250000
O O14 0.495408 0.659754 0.983919
O O15 0.690673 0.077772 0.969438
O O16 0.892723 0.079108 0.953003
O O17 0.500000 0.619898 0.750000
#
# Coordination Sequence:
#
# PCOD8246569 Si02
#       8
#     8   8   8   8   8   8   8   8
#     4  10  19  33  53  78 108 142 179 217 259 315
#     4   9  17  33  55  76 103 142 182 215 257 322
#     4  10  21  36  56  79 104 138 180 226 273 321
#     4  10  19  33  53  78 108 142 179 217 259 315
#     4  10  20  33  53  82 110 139 177 218 263 312
#     4  10  21  36  56  79 104 138 180 226 273 321
#     4   9  17  33  55  76 103 142 182 215 257 322
#     4  10  21  37  55  80 110 141 179 220 272 332
#
# _framework density 18.747675000000001
#
# number of rings (size 3 to 8) (size 9 to 14) (size 15 to 20)
#    0.000    2.250    1.250    1.875    0.000    4.500 
#    0.000    1.250    0.000    1.500    0.000    0.000 
#    0.000    0.000    0.000    0.000    0.000    0.000 
#
# Total GULP energy -793414.943286 kJ/mol
# GULP energy per Si atom -12397.108489 kJ/mol
# Density = 1.870500 g / cm^3
# Si number density = 18.747675 Si / 1000 Ang^3
#
#
#
# Elastic Constant Matrix: (Units=GPa)
#
#
# Indices 1 2 3 4 5 6 
#
# 1 123.1927 52.1911 29.1463 0.0000 0.0000 0.0000
# 2 52.1911 127.2309 44.8212 0.0000 0.0000 0.0000
# 3 29.1463 44.8212 43.0486 0.0000 0.0000 0.0000
# 4 0.0000 0.0000 0.0000 29.7711 0.0000 0.0000
# 5 0.0000 0.0000 0.0000 0.0000 15.9300 0.0000
# 6 0.0000 0.0000 0.0000 0.0000 0.0000 24.5240
#
#
#
# Elastic Compliance Matrix: (Units=1/GPa)
#
#
# Indices 1 2 3 4 5 6 
#
# 1 0.010253 -0.002780 -0.004047 0.000000 0.000000 0.000000
# 2 -0.002780 0.013166 -0.011826 0.000000 0.000000 0.000000
# 3 -0.004047 -0.011826 0.038283 0.000000 0.000000 0.000000
# 4 0.000000 0.000000 0.000000 0.033590 0.000000 0.000000
# 5 0.000000 0.000000 0.000000 0.000000 0.062775 0.000000
# 6 0.000000 0.000000 0.000000 0.000000 0.000000 0.040776
#
#
# Mechanical properties :
#
#
# Convention : Reuss Voigt Hill
#
# Bulk Modulus (GPa) = 40.99188 60.64328 50.81758
# Shear Modulus (GPa) = 20.46825 25.19926 22.83375
#
# Velocity S-wave (km/s) = 3.30779 3.67021 3.49370
# Velocity P-wave (km/s) = 6.04162 7.09774 6.59087
#
# Compressibility (1/GPa) = 0.02439508
#
# Stress axis : x y z
#
# Youngs Moduli (GPa) = 97.53594 75.95189 26.12137
#
# Poissons Ratio (x) = 0.21114 0.10572
# Poissons Ratio (y) = 0.27115 0.30892
# Poissons Ratio (z) = 0.39475 0.89822
#
# Static dielectric constant tensor:
#      x y z
#    x 3.923840 0.000000 0.000000 
#    y 0.000000 3.331600 0.000000 
#    z 0.000000 0.000000 3.158470 
# 
# 
# High freq. dielectric constant tensor:
#      x y z
#    x 1.741680 0.000000 0.000000 
#    y 0.000000 1.727330 0.000000 
#    z 0.000000 0.000000 1.695840 
# 
# From -- ./inp_files/6326.got.cif
#   From: 2010.03.12/outbox.cif.g09.slc.cpg/sg60_4_cif.got.tgz:6326.got - 2010.04.10 18:46:24.
