data_PCOD8246583
_publ_section_title
;
Structure prediction by ZEFSAII (Michael W. Deem and Ramdas Pophale) SiO2 
 PCOD8246583
Probable space group: P B C N
;
_chemical_formula_sum "Si O2"
_cell_formula_units_Z 60
_cell_length_a 4.990883
_cell_length_b 21.264141
_cell_length_c 28.346682
_cell_angle_alpha 90.000000
_cell_angle_beta 90.000000
_cell_angle_gamma 90.000000
_cell_volume 3008.343780
_symmetry_space_group_name_H-M "P B C N"
_symmetry_group_IT_number 60
_symmetry_cell_setting 'orthorhombic'
loop_
_space_group_symop_operation_xyz
x,y,z
1/2-x,1/2-y,1/2+z
1/2+x,1/2-y,-z
-x,y,1/2-z
-x,-y,-z
1/2+x,1/2+y,1/2-z
1/2-x,1/2+y,z
x,-y,1/2+z
loop_
_atom_site_type_symbol
_atom_site_label
_atom_site_fract_x
_atom_site_fract_y
_atom_site_fract_z
Si Si1 0.158461 0.302103 0.336304
Si Si2 0.249538 0.570901 0.782236
Si Si3 0.375656 0.894811 0.618714
Si Si4 0.249434 0.311264 0.540747
Si Si5 0.155326 0.722988 0.184306
Si Si6 0.500000 0.646078 0.250000
Si Si7 0.749004 0.730550 0.559880
Si Si8 0.380127 0.555247 0.334192
O O1 0.175254 0.370481 0.314248
O O2 0.361058 0.253498 0.310345
O O3 0.215833 0.307898 0.391934
O O4 0.858459 0.278775 0.328223
O O5 0.500000 0.588993 0.750000
O O6 0.322800 0.514158 0.816577
O O7 0.000000 0.550381 0.750000
O O8 0.315564 0.879829 0.563592
O O9 0.344129 0.826772 0.642316
O O10 0.668327 0.923207 0.626372
O O11 0.168291 0.944507 0.640814
O O12 0.216734 0.317393 0.484116
O O13 0.545914 0.288933 0.555569
O O14 0.047688 0.258428 0.559962
O O15 0.253132 0.688510 0.231940
O O16 0.368834 0.603440 0.290578
#
# Coordination Sequence:
#
# PCOD8246583 Si02
#       8
#     8   8   8   8   8   4   8   8
#     4  12  23  40  57  85 121 153 192 237 283 351
#     4  12  27  45  60  79 113 164 210 235 272 346
#     4  11  20  37  60  90 114 147 184 255 286 349
#     4  10  19  33  58  89 121 150 185 229 302 364
#     4  11  23  35  57  86 118 145 185 237 305 344
#     4  10  24  38  56  86 114 154 182 256 294 348
#     4  10  19  35  56  85 124 157 182 229 293 371
#     4  11  24  40  60  78 114 154 203 237 289 332
#
# _framework density 19.944527999999998
#
# number of rings (size 3 to 8) (size 9 to 14) (size 15 to 20)
#    0.000    1.067    3.333    4.000    4.667    2.133 
#    0.000    0.000    0.000    1.600    0.000    0.000 
#    0.000    0.000    0.000    0.000    0.000    0.000 
#
# Total GULP energy -744202.744941 kJ/mol
# GULP energy per Si atom -12403.379082 kJ/mol
# Density = 1.989913 g / cm^3
# Si number density = 19.944528 Si / 1000 Ang^3
#
#
#
# Elastic Constant Matrix: (Units=GPa)
#
#
# Indices 1 2 3 4 5 6 
#
# 1 73.3342 1.6972 0.5275 0.0000 0.0000 0.0000
# 2 1.6972 77.4454 11.5130 0.0000 0.0000 0.0000
# 3 0.5275 11.5130 25.5081 0.0000 0.0000 0.0000
# 4 0.0000 0.0000 0.0000 -126.2351 0.0000 0.0000
# 5 0.0000 0.0000 0.0000 0.0000 24.9174 0.0000
# 6 0.0000 0.0000 0.0000 0.0000 0.0000 25.3449
#
#
#
# Elastic Compliance Matrix: (Units=1/GPa)
#
#
# Indices 1 2 3 4 5 6 
#
# 1 0.013644 -0.000276 -0.000158 0.000000 0.000000 0.000000
# 2 -0.000276 0.013847 -0.006244 0.000000 0.000000 0.000000
# 3 -0.000158 -0.006244 0.042025 0.000000 0.000000 0.000000
# 4 0.000000 0.000000 0.000000 -0.007922 0.000000 0.000000
# 5 0.000000 0.000000 0.000000 0.000000 0.040133 0.000000
# 6 0.000000 0.000000 0.000000 0.000000 0.000000 0.039456
#
#
# Mechanical properties :
#
#
# Convention : Reuss Voigt Hill
#
# Bulk Modulus (GPa) = 17.80610 22.64033 20.22321
# Shear Modulus (GPa) = 28.85901 -4.35791 12.25055
#
# Velocity S-wave (km/s) = 3.80802 -1.47978 2.48106
# Velocity P-wave (km/s) = 5.31808 2.90803 4.28594
#
# Compressibility (1/GPa) = 0.05616053
#
# Stress axis : x y z
#
# Youngs Moduli (GPa) = 73.29380 72.22008 23.79558
#
# Poissons Ratio (x) = 0.01990 0.00375
# Poissons Ratio (y) = 0.02020 0.14858
# Poissons Ratio (z) = 0.01156 0.45093
#
# Static dielectric constant tensor:
#      x y z
#    x 5.396840 0.000000 0.000000 
#    y 0.000000 3.276000 0.000000 
#    z 0.000000 0.000000 3.900320 
# 
# 
# High freq. dielectric constant tensor:
#      x y z
#    x 1.801560 0.000000 0.000000 
#    y 0.000000 1.739730 0.000000 
#    z 0.000000 0.000000 1.778910 
# 
# From -- ./inp_files/25794.got.cif
#   From: 2010.03.12/outbox.cif.g09.slc.cpg/sg60_13_cif.got.tgz:25794.got - 2010.04.10 18:46:24.
