data_PCOD8246641
_publ_section_title
;
Structure prediction by ZEFSAII (Michael W. Deem and Ramdas Pophale) SiO2 
 PCOD8246641
Probable space group: P B C N
;
_chemical_formula_sum "Si O2"
_cell_formula_units_Z 52
_cell_length_a 17.021623
_cell_length_b 18.418810
_cell_length_c 8.608865
_cell_angle_alpha 90.000000
_cell_angle_beta 90.000000
_cell_angle_gamma 90.000000
_cell_volume 2699.034481
_symmetry_space_group_name_H-M "P B C N"
_symmetry_group_IT_number 60
_symmetry_cell_setting 'orthorhombic'
loop_
_space_group_symop_operation_xyz
x,y,z
1/2-x,1/2-y,1/2+z
1/2+x,1/2-y,-z
-x,y,1/2-z
-x,-y,-z
1/2+x,1/2+y,1/2-z
1/2-x,1/2+y,z
x,-y,1/2+z
loop_
_atom_site_type_symbol
_atom_site_label
_atom_site_fract_x
_atom_site_fract_y
_atom_site_fract_z
Si Si1 0.669505 0.832945 0.224668
Si Si2 0.734630 0.762392 0.526239
Si Si3 0.390039 0.338254 0.330800
Si Si4 0.044678 0.170406 0.505242
Si Si5 0.723842 0.455867 0.273755
Si Si6 0.191399 0.094711 0.394383
Si Si7 0.500000 0.783190 0.250000
O O1 0.725589 0.788258 0.347185
O O2 0.692341 0.793899 0.059992
O O3 0.692991 0.918256 0.225530
O O4 0.578068 0.831697 0.271433
O O5 0.653066 0.725912 0.576466
O O6 0.754740 0.834268 0.626187
O O7 0.405187 0.306063 0.157301
O O8 0.466144 0.365677 0.425888
O O9 0.341559 0.411922 0.321017
O O10 0.098442 0.117108 0.399080
O O11 0.016145 0.237677 0.404022
O O12 0.713092 0.451234 0.455875
O O13 0.714283 0.541533 0.245458
#
# Coordination Sequence:
#
# PCOD8246641 Si02
#       7
#     8   8   8   8   8   8   4
#     4  10  21  35  57  84 113 150 190 247 285 337
#     4  10  19  35  57  81 110 143 197 237 286 341
#     4   9  19  37  55  78 115 146 180 239 295 337
#     4  10  20  34  55  83 112 141 185 235 295 340
#     4   9  21  36  53  78 114 154 190 228 277 344
#     4  10  20  36  54  81 111 149 194 229 278 350
#     4  12  20  34  56  90 116 142 190 248 282 340
#
# _framework density 19.266148000000001
#
# number of rings (size 3 to 8) (size 9 to 14) (size 15 to 20)
#    0.000    2.154    3.077    0.923    0.000    4.308 
#    0.000    1.538    0.000    5.538    0.000    0.000 
#    0.000    0.000    0.000    0.000    0.000    0.000 
#
# Total GULP energy -644234.315759 kJ/mol
# GULP energy per Si atom -12389.121457 kJ/mol
# Density = 1.922230 g / cm^3
# Si number density = 19.266148 Si / 1000 Ang^3
#
#
#
# Elastic Constant Matrix: (Units=GPa)
#
#
# Indices 1 2 3 4 5 6 
#
# 1 119.2531 29.7230 7.4866 0.0000 0.0000 0.0000
# 2 29.7230 59.1311 0.8667 0.0000 0.0000 0.0000
# 3 7.4866 0.8667 19.8388 0.0000 0.0000 0.0000
# 4 0.0000 0.0000 0.0000 24.8303 0.0000 0.0000
# 5 0.0000 0.0000 0.0000 0.0000 20.5669 0.0000
# 6 0.0000 0.0000 0.0000 0.0000 0.0000 20.1090
#
#
#
# Elastic Compliance Matrix: (Units=1/GPa)
#
#
# Indices 1 2 3 4 5 6 
#
# 1 0.009823 -0.004886 -0.003493 0.000000 0.000000 0.000000
# 2 -0.004886 0.019353 0.000998 0.000000 0.000000 0.000000
# 3 -0.003493 0.000998 0.051681 0.000000 0.000000 0.000000
# 4 0.000000 0.000000 0.000000 0.040273 0.000000 0.000000
# 5 0.000000 0.000000 0.000000 0.000000 0.048622 0.000000
# 6 0.000000 0.000000 0.000000 0.000000 0.000000 0.049729
#
#
# Mechanical properties :
#
#
# Convention : Reuss Voigt Hill
#
# Bulk Modulus (GPa) = 15.12987 30.48618 22.80802
# Shear Modulus (GPa) = 19.51030 23.77768 21.64399
#
# Velocity S-wave (km/s) = 3.18570 3.51689 3.35538
# Velocity P-wave (km/s) = 4.62620 5.68765 5.18416
#
# Compressibility (1/GPa) = 0.06609443
#
# Stress axis : x y z
#
# Youngs Moduli (GPa) = 101.80487 51.67134 19.34946
#
# Poissons Ratio (x) = 0.25248 0.06759
# Poissons Ratio (y) = 0.49745 -0.01932
# Poissons Ratio (z) = 0.35564 -0.05159
#
# Static dielectric constant tensor:
#      x y z
#    x 3.841850 0.000000 0.000000 
#    y 0.000000 3.255310 0.000000 
#    z 0.000000 0.000000 3.512810 
# 
# 
# High freq. dielectric constant tensor:
#      x y z
#    x 1.751880 0.000000 0.000000 
#    y 0.000000 1.718010 0.000000 
#    z 0.000000 0.000000 1.750860 
# 
# From -- ./inp_files/6854.got.cif
#   From: 2010.03.12/outbox.cif.g09.slc.cpg/sg60_4_cif.got.tgz:6854.got - 2010.04.10 18:46:24.
