data_PCOD8246021
_publ_section_title
;
Structure prediction by ZEFSAII (Michael W. Deem and Ramdas Pophale) SiO2 
 PCOD8246021
Probable space group: P M M N
;
_chemical_formula_sum "Si O2"
_cell_formula_units_Z 56
_cell_length_a 8.991980
_cell_length_b 18.838525
_cell_length_c 18.134374
_cell_angle_alpha 90.000000
_cell_angle_beta 90.000000
_cell_angle_gamma 90.000000
_cell_volume 3071.883890
_symmetry_space_group_name_H-M "P M M N"
_symmetry_group_IT_number 59
_space_group.IT_coordinate_system_code '2'
_symmetry_cell_setting 'orthorhombic'
loop_
_space_group_symop_operation_xyz
x,y,z
1/2-x,1/2-y,z
1/2+x,-y,-z
-x,1/2+y,-z
-x,-y,-z
1/2+x,1/2+y,-z
1/2-x,y,z
x,1/2-y,z
loop_
_atom_site_type_symbol
_atom_site_label
_atom_site_fract_x
_atom_site_fract_y
_atom_site_fract_z
Si Si1 0.577752 0.558144 0.448536
Si Si2 0.422654 0.827744 0.709018
Si Si3 0.074556 0.582532 0.292101
Si Si4 0.416284 0.537342 0.787971
Si Si5 0.584749 0.961256 0.065178
Si Si6 0.426027 0.167607 0.833911
Si Si7 0.418580 0.170845 0.432120
O O1 0.500000 0.500000 0.500000
O O2 0.750000 0.536979 0.434996
O O3 0.495362 0.574322 0.372573
O O4 0.562205 0.631381 0.491485
O O5 0.250000 0.818555 0.696813
O O6 0.494898 0.750000 0.724705
O O7 0.458249 0.880110 0.776760
O O8 0.486956 0.863311 0.634455
O O9 0.250000 0.595281 0.298755
O O10 0.041338 0.509150 0.251220
O O11 0.003421 0.646692 0.243692
O O12 0.250000 0.521422 0.755280
O O13 0.415721 0.522470 0.873970
O O14 0.750000 0.944546 0.036524
O O15 0.519837 0.886736 0.100323
O O16 0.500000 0.000000 0.000000
O O17 0.250000 0.156820 0.822905
O O18 0.464448 0.250000 0.853518
O O19 0.250000 0.169130 0.404697
O O20 0.476728 0.250000 0.446761
#
# Coordination Sequence:
#
# PCOD8246021 Si02
#       7
#     8   8   8   8   8   8   8
#     4  11  22  35  51  72 100 135 176 221 268 317
#     4   9  17  30  50  73  95 123 162 208 252 293
#     4  11  22  34  51  77 105 133 171 220 270 318
#     4   9  18  34  53  72  99 135 172 206 247 305
#     4   9  18  33  54  80 107 137 170 205 250 304
#     4   9  19  38  61  81 105 141 182 221 265 320
#     4   9  19  34  49  66  91 125 163 201 245 299
#
# _framework density 18.229855000000001
#
# number of rings (size 3 to 8) (size 9 to 14) (size 15 to 20)
#    0.000    2.429    0.000    3.429    0.000    7.143 
#    0.000    2.143    0.000    0.857    0.000    0.000 
#    0.000    0.000    0.000    0.000    0.000    0.000 
#
# Total GULP energy -693855.449384 kJ/mol
# GULP energy per Si atom -12390.275882 kJ/mol
# Density = 1.818836 g / cm^3
# Si number density = 18.229855 Si / 1000 Ang^3
#
#
#
# Elastic Constant Matrix: (Units=GPa)
#
#
# Indices 1 2 3 4 5 6 
#
# 1 75.4925 44.4445 44.0247 0.0000 0.0000 0.0000
# 2 44.4445 103.6011 66.3276 0.0000 0.0000 0.0000
# 3 44.0247 66.3276 104.1109 0.0000 0.0000 0.0000
# 4 0.0000 0.0000 0.0000 23.9267 0.0000 0.0000
# 5 0.0000 0.0000 0.0000 0.0000 31.8597 0.0000
# 6 0.0000 0.0000 0.0000 0.0000 0.0000 23.9100
#
#
#
# Elastic Compliance Matrix: (Units=1/GPa)
#
#
# Indices 1 2 3 4 5 6 
#
# 1 0.019050 -0.005092 -0.004812 0.000000 0.000000 0.000000
# 2 -0.005092 0.017662 -0.009099 0.000000 0.000000 0.000000
# 3 -0.004812 -0.009099 0.017437 0.000000 0.000000 0.000000
# 4 0.000000 0.000000 0.000000 0.041794 0.000000 0.000000
# 5 0.000000 0.000000 0.000000 0.000000 0.031388 0.000000
# 6 0.000000 0.000000 0.000000 0.000000 0.000000 0.041824
#
#
# Mechanical properties :
#
#
# Convention : Reuss Voigt Hill
#
# Bulk Modulus (GPa) = 61.94371 65.86645 63.90508
# Shear Modulus (GPa) = 23.52483 24.49979 24.01231
#
# Velocity S-wave (km/s) = 3.59619 3.66995 3.63326
# Velocity P-wave (km/s) = 7.16216 7.35986 7.26168
#
# Compressibility (1/GPa) = 0.01614369
#
# Stress axis : x y z
#
# Youngs Moduli (GPa) = 52.49330 56.61761 57.34999
#
# Poissons Ratio (x) = 0.28829 0.27594
# Poissons Ratio (y) = 0.26729 0.52184
# Poissons Ratio (z) = 0.25258 0.51518
#
# Static dielectric constant tensor:
#      x y z
#    x 3.372550 0.000000 0.000000 
#    y 0.000000 3.704470 0.000000 
#    z 0.000000 0.000000 3.326140 
# 
# 
# High freq. dielectric constant tensor:
#      x y z
#    x 1.701110 0.000000 0.000000 
#    y 0.000000 1.711650 0.000000 
#    z 0.000000 0.000000 1.693150 
# 
# From -- ./inp_files/21024.got.cif
#   From: 2010.03.12/outbox.cif.g09.slc.cpg/sg59_11_cif.got.tgz:21024.got - 2010.04.16 16:29:54.
