data_PCOD8246812
_publ_section_title
;
Structure prediction by ZEFSAII (Michael W. Deem and Ramdas Pophale) SiO2 
 PCOD8246812
Probable space group: P B C N
;
_chemical_formula_sum "Si O2"
_cell_formula_units_Z 56
_cell_length_a 8.893693
_cell_length_b 14.178727
_cell_length_c 22.534982
_cell_angle_alpha 90.000000
_cell_angle_beta 90.000000
_cell_angle_gamma 90.000000
_cell_volume 2841.689288
_symmetry_space_group_name_H-M "P B C N"
_symmetry_group_IT_number 60
_symmetry_cell_setting 'orthorhombic'
loop_
_space_group_symop_operation_xyz
x,y,z
1/2-x,1/2-y,1/2+z
1/2+x,1/2-y,-z
-x,y,1/2-z
-x,-y,-z
1/2+x,1/2+y,1/2-z
1/2-x,1/2+y,z
x,-y,1/2+z
loop_
_atom_site_type_symbol
_atom_site_label
_atom_site_fract_x
_atom_site_fract_y
_atom_site_fract_z
Si Si1 0.728249 0.511849 0.872788
Si Si2 0.752127 0.687448 0.595509
Si Si3 0.673677 0.529082 0.506397
Si Si4 0.498262 0.648320 0.680627
Si Si5 0.381908 0.866793 0.954535
Si Si6 0.907450 0.317471 0.409935
Si Si7 0.838651 0.325007 0.874333
O O1 0.571821 0.554561 0.849714
O O2 0.842501 0.598493 0.869813
O O3 0.782939 0.417888 0.836637
O O4 0.726575 0.469084 0.938954
O O5 0.693052 0.629226 0.538353
O O6 0.665299 0.654612 0.654575
O O7 0.722722 0.794544 0.579365
O O8 0.924681 0.688900 0.613833
O O9 0.500000 0.500000 0.500000
O O10 0.783430 0.462311 0.545826
O O11 0.500000 0.630735 0.750000
O O12 0.412512 0.746308 0.667532
O O13 0.543018 0.867690 0.922082
O O14 0.416315 0.840884 0.021506
O O15 0.807979 0.222994 0.404275
#
# Coordination Sequence:
#
# PCOD8246812 Si02
#       7
#     8   8   8   8   8   8   8
#     4  10  20  38  59  83 120 157 190 242 299 353
#     4  11  22  35  59  87 117 157 199 240 303 360
#     4  11  21  34  58  93 128 154 196 242 297 375
#     4  10  23  44  60  80 115 155 200 258 304 345
#     4  10  21  33  55  87 125 163 184 234 297 356
#     4  10  20  33  56  88 121 155 191 238 292 359
#     4  10  21  38  58  82 117 156 200 241 294 355
#
# _framework density 19.706589999999998
#
# number of rings (size 3 to 8) (size 9 to 14) (size 15 to 20)
#    0.000    1.714    1.429    3.429    6.000    2.286 
#    0.000    8.571    0.000    0.000    0.000    0.000 
#    0.000    0.000    0.000    0.000    0.000    0.000 
#
# Total GULP energy -693831.335511 kJ/mol
# GULP energy per Si atom -12389.845277 kJ/mol
# Density = 1.966174 g / cm^3
# Si number density = 19.706590 Si / 1000 Ang^3
#
#
#
# Elastic Constant Matrix: (Units=GPa)
#
#
# Indices 1 2 3 4 5 6 
#
# 1 139.1889 34.8703 15.5766 0.0000 0.0000 0.0000
# 2 34.8703 94.6619 12.7765 0.0000 0.0000 0.0000
# 3 15.5766 12.7765 65.5943 0.0000 0.0000 0.0000
# 4 0.0000 0.0000 0.0000 10.8679 0.0000 0.0000
# 5 0.0000 0.0000 0.0000 0.0000 9.7582 0.0000
# 6 0.0000 0.0000 0.0000 0.0000 0.0000 28.9955
#
#
#
# Elastic Compliance Matrix: (Units=1/GPa)
#
#
# Indices 1 2 3 4 5 6 
#
# 1 0.008033 -0.002774 -0.001367 0.000000 0.000000 0.000000
# 2 -0.002774 0.011807 -0.001641 0.000000 0.000000 0.000000
# 3 -0.001367 -0.001641 0.015889 0.000000 0.000000 0.000000
# 4 0.000000 0.000000 0.000000 0.092014 0.000000 0.000000
# 5 0.000000 0.000000 0.000000 0.000000 0.102478 0.000000
# 6 0.000000 0.000000 0.000000 0.000000 0.000000 0.034488
#
#
# Mechanical properties :
#
#
# Convention : Reuss Voigt Hill
#
# Bulk Modulus (GPa) = 41.38316 47.32135 44.35226
# Shear Modulus (GPa) = 17.58527 25.67244 21.62885
#
# Velocity S-wave (km/s) = 2.99047 3.61326 3.31651
# Velocity P-wave (km/s) = 5.74188 6.43992 6.10089
#
# Compressibility (1/GPa) = 0.02416442
#
# Stress axis : x y z
#
# Youngs Moduli (GPa) = 124.49379 84.69270 62.93465
#
# Poissons Ratio (x) = 0.23497 0.08604
# Poissons Ratio (y) = 0.34540 0.10328
# Poissons Ratio (z) = 0.17019 0.13898
#
# Static dielectric constant tensor:
#      x y z
#    x 3.938450 0.000000 0.000000 
#    y 0.000000 3.881290 0.000000 
#    z 0.000000 0.000000 3.120820 
# 
# 
# High freq. dielectric constant tensor:
#      x y z
#    x 1.786680 0.000000 0.000000 
#    y 0.000000 1.787660 0.000000 
#    z 0.000000 0.000000 1.714760 
# 
# From -- ./inp_files/22225.got.cif
#   From: 2010.03.12/outbox.cif.g09.slc.cpg/sg60_12_cif.got.tgz:22225.got - 2010.04.10 18:46:24.
