data_PCOD8246355
_publ_section_title
;
Structure prediction by ZEFSAII (Michael W. Deem and Ramdas Pophale) SiO2 
 PCOD8246355
Probable space group: P B C N
;
_chemical_formula_sum "Si O2"
_cell_formula_units_Z 44
_cell_length_a 8.673454
_cell_length_b 14.423968
_cell_length_c 15.911545
_cell_angle_alpha 90.000000
_cell_angle_beta 90.000000
_cell_angle_gamma 90.000000
_cell_volume 1990.623749
_symmetry_space_group_name_H-M "P B C N"
_symmetry_group_IT_number 60
_symmetry_cell_setting 'orthorhombic'
loop_
_space_group_symop_operation_xyz
x,y,z
1/2-x,1/2-y,1/2+z
1/2+x,1/2-y,-z
-x,y,1/2-z
-x,-y,-z
1/2+x,1/2+y,1/2-z
1/2-x,1/2+y,z
x,-y,1/2+z
loop_
_atom_site_type_symbol
_atom_site_label
_atom_site_fract_x
_atom_site_fract_y
_atom_site_fract_z
Si Si1 0.748824 0.713817 0.640816
Si Si2 0.313582 0.970122 0.667950
Si Si3 0.500000 0.873529 0.250000
Si Si4 0.000000 0.056695 0.250000
Si Si5 0.203441 0.931280 0.494105
Si Si6 0.000000 0.309109 0.750000
Si Si7 0.092541 0.877838 0.922790
O O1 0.874956 0.696742 0.712579
O O2 0.750518 0.616350 0.592242
O O3 0.584231 0.742813 0.681438
O O4 0.799569 0.787877 0.568920
O O5 0.422187 0.058742 0.681310
O O6 0.140204 0.998584 0.701887
O O7 0.325331 0.946429 0.568840
O O8 0.369064 0.875707 0.712107
O O9 0.917924 0.115495 0.178102
O O10 0.071703 0.864788 0.533372
O O11 0.163176 0.034363 0.467618
#
# Coordination Sequence:
#
# PCOD8246355 Si02
#       7
#     8   8   4   4   8   4   8
#     4  12  26  43  71 103 141 182 241 287 347 419
#     4  10  23  46  70  98 139 182 234 288 356 408
#     4  11  27  44  69 107 130 190 238 286 347 431
#     4  10  17  41  77  85 134 182 219 281 345 411
#     4  10  25  41  70  99 136 185 223 290 362 405
#     4  11  26  43  66 102 140 188 233 293 336 424
#     4  10  22  43  64 100 134 179 224 284 344 416
#
# _framework density 22.103625999999998
#
# number of rings (size 3 to 8) (size 9 to 14) (size 15 to 20)
#    0.000    1.455    1.818    1.636    7.636    8.000 
#    0.000    0.000    0.000    0.000    0.000    0.000 
#    0.000    0.000    0.000    0.000    0.000    0.000 
#
# Total GULP energy -545149.476318 kJ/mol
# GULP energy per Si atom -12389.760825 kJ/mol
# Density = 2.205332 g / cm^3
# Si number density = 22.103626 Si / 1000 Ang^3
#
#
#
# Elastic Constant Matrix: (Units=GPa)
#
#
# Indices 1 2 3 4 5 6 
#
# 1 90.4908 31.7994 25.5250 0.0000 0.0000 0.0000
# 2 31.7994 70.0152 17.0219 0.0000 0.0000 0.0000
# 3 25.5250 17.0219 99.3386 0.0000 0.0000 0.0000
# 4 0.0000 0.0000 0.0000 41.1196 0.0000 0.0000
# 5 0.0000 0.0000 0.0000 0.0000 28.3790 0.0000
# 6 0.0000 0.0000 0.0000 0.0000 0.0000 23.4260
#
#
#
# Elastic Compliance Matrix: (Units=1/GPa)
#
#
# Indices 1 2 3 4 5 6 
#
# 1 0.013751 -0.005621 -0.002570 0.000000 0.000000 0.000000
# 2 -0.005621 0.017201 -0.001503 0.000000 0.000000 0.000000
# 3 -0.002570 -0.001503 0.010985 0.000000 0.000000 0.000000
# 4 0.000000 0.000000 0.000000 0.024319 0.000000 0.000000
# 5 0.000000 0.000000 0.000000 0.000000 0.035237 0.000000
# 6 0.000000 0.000000 0.000000 0.000000 0.000000 0.042688
#
#
# Mechanical properties :
#
#
# Convention : Reuss Voigt Hill
#
# Bulk Modulus (GPa) = 44.34899 45.39304 44.87101
# Shear Modulus (GPa) = 29.22530 30.95147 30.08838
#
# Velocity S-wave (km/s) = 3.64014 3.74610 3.69350
# Velocity P-wave (km/s) = 6.14615 6.26834 6.20755
#
# Compressibility (1/GPa) = 0.02254843
#
# Stress axis : x y z
#
# Youngs Moduli (GPa) = 72.72232 58.13683 91.03678
#
# Poissons Ratio (x) = 0.32676 0.23398
# Poissons Ratio (y) = 0.40874 0.13685
# Poissons Ratio (z) = 0.18691 0.08739
#
# Static dielectric constant tensor:
#      x y z
#    x 1.834340 0.000000 0.000000 
#    y 0.000000 3.778020 0.000000 
#    z 0.000000 0.000000 4.003900 
# 
# 
# High freq. dielectric constant tensor:
#      x y z
#    x 1.867670 0.000000 0.000000 
#    y 0.000000 1.864310 0.000000 
#    z 0.000000 0.000000 1.873380 
# 
# From -- ./inp_files/19254.got.cif
#   From: 2010.03.12/outbox.cif.g09.slc.cpg/sg60_10_cif.got.tgz:19254.got - 2010.04.10 18:46:24.
