data_PCOD8246959
_publ_section_title
;
Structure prediction by ZEFSAII (Michael W. Deem and Ramdas Pophale) SiO2 
 PCOD8246959
Probable space group: P B C N
;
_chemical_formula_sum "Si O2"
_cell_formula_units_Z 52
_cell_length_a 10.703511
_cell_length_b 29.237751
_cell_length_c 8.480570
_cell_angle_alpha 90.000000
_cell_angle_beta 90.000000
_cell_angle_gamma 90.000000
_cell_volume 2653.965458
_symmetry_space_group_name_H-M "P B C N"
_symmetry_group_IT_number 60
_symmetry_cell_setting 'orthorhombic'
loop_
_space_group_symop_operation_xyz
x,y,z
1/2-x,1/2-y,1/2+z
1/2+x,1/2-y,-z
-x,y,1/2-z
-x,-y,-z
1/2+x,1/2+y,1/2-z
1/2-x,1/2+y,z
x,-y,1/2+z
loop_
_atom_site_type_symbol
_atom_site_label
_atom_site_fract_x
_atom_site_fract_y
_atom_site_fract_z
Si Si1 0.000000 0.000142 0.250000
Si Si2 0.000000 0.634969 0.750000
Si Si3 0.209301 0.300210 0.160947
Si Si4 0.103751 0.243106 0.880361
Si Si5 0.037798 0.845052 0.078602
Si Si6 0.387159 0.436919 0.984856
Si Si7 0.392609 0.938462 0.039728
Si Si8 0.500000 0.987034 0.750000
O O1 0.104807 0.033759 0.325277
O O2 0.935350 0.968896 0.376918
O O3 0.876721 0.666080 0.734794
O O4 0.983468 0.602666 0.903901
O O5 0.265903 0.263701 0.285709
O O6 0.321560 0.326201 0.075933
O O7 0.123612 0.278392 0.022573
O O8 0.000000 0.259138 0.750000
O O9 0.058612 0.195700 0.964519
O O10 0.031456 0.889910 0.967227
O O11 0.000000 0.863477 0.250000
O O12 0.248574 0.421119 0.030823
O O13 0.400473 0.981392 0.158538
O O14 0.428854 0.953552 0.866201
#
# Coordination Sequence:
#
# PCOD8246959 Si02
#       8
#     4   4   8   8   8   8   8   4
#     4  10  24  32  63  82 118 154 199 244 290 356
#     4  11  22  34  59  90 118 158 197 244 306 365
#     4  10  21  40  60  86 117 159 197 246 303 363
#     4   9  22  41  63  88 118 158 198 246 303 364
#     4   9  19  39  61  81 118 152 190 243 290 355
#     4  11  19  40  54  89 114 155 196 244 294 350
#     4  10  20  37  59  82 121 155 202 247 302 360
#     4   9  20  38  56  84 114 162 200 246 294 363
#
# _framework density 19.593323999999999
#
# number of rings (size 3 to 8) (size 9 to 14) (size 15 to 20)
#    0.000    2.462    2.308    0.923    4.308    0.000 
#    4.154    3.077    0.000    0.000    0.000    0.000 
#    0.000    0.000    0.000    0.000    0.000    0.000 
#
# Total GULP energy -644379.983086 kJ/mol
# GULP energy per Si atom -12391.922752 kJ/mol
# Density = 1.954873 g / cm^3
# Si number density = 19.593324 Si / 1000 Ang^3
#
#
#
# Elastic Constant Matrix: (Units=GPa)
#
#
# Indices 1 2 3 4 5 6 
#
# 1 90.7156 42.4177 39.3711 0.0000 0.0000 0.0000
# 2 42.4177 102.3659 49.3928 0.0000 0.0000 0.0000
# 3 39.3711 49.3928 80.2311 0.0000 0.0000 0.0000
# 4 0.0000 0.0000 0.0000 38.5722 0.0000 0.0000
# 5 0.0000 0.0000 0.0000 0.0000 22.4535 0.0000
# 6 0.0000 0.0000 0.0000 0.0000 0.0000 32.3565
#
#
#
# Elastic Compliance Matrix: (Units=1/GPa)
#
#
# Indices 1 2 3 4 5 6 
#
# 1 0.014970 -0.003782 -0.005018 0.000000 0.000000 0.000000
# 2 -0.003782 0.014852 -0.007288 0.000000 0.000000 0.000000
# 3 -0.005018 -0.007288 0.019413 0.000000 0.000000 0.000000
# 4 0.000000 0.000000 0.000000 0.025925 0.000000 0.000000
# 5 0.000000 0.000000 0.000000 0.000000 0.044537 0.000000
# 6 0.000000 0.000000 0.000000 0.000000 0.000000 0.030906
#
#
# Mechanical properties :
#
#
# Convention : Reuss Voigt Hill
#
# Bulk Modulus (GPa) = 58.61588 59.51953 59.06770
# Shear Modulus (GPa) = 26.53032 28.15185 27.34108
#
# Velocity S-wave (km/s) = 3.68373 3.79464 3.73960
# Velocity P-wave (km/s) = 6.93357 7.04574 6.98988
#
# Compressibility (1/GPa) = 0.01706022
#
# Stress axis : x y z
#
# Youngs Moduli (GPa) = 66.80246 67.32904 51.51236
#
# Poissons Ratio (x) = 0.25463 0.25847
# Poissons Ratio (y) = 0.25264 0.37541
# Poissons Ratio (z) = 0.33519 0.49068
#
# Static dielectric constant tensor:
#      x y z
#    x 3.564570 0.000000 0.000000 
#    y 0.000000 3.642660 0.000000 
#    z 0.000000 0.000000 3.477230 
# 
# 
# High freq. dielectric constant tensor:
#      x y z
#    x 1.758970 0.000000 0.000000 
#    y 0.000000 1.768860 0.000000 
#    z 0.000000 0.000000 1.743850 
# 
# From -- ./inp_files/5291.got.cif
#   From: 2010.03.12/outbox.cif.g09.slc.cpg/sg60_3_cif.got.tgz:5291.got - 2010.04.10 18:46:24.
