data_PCOD8246309
_publ_section_title
;
Structure prediction by ZEFSAII (Michael W. Deem and Ramdas Pophale) SiO2 
 PCOD8246309
Probable space group: P B C N
;
_chemical_formula_sum "Si O2"
_cell_formula_units_Z 56
_cell_length_a 24.666687
_cell_length_b 25.316769
_cell_length_c 5.340116
_cell_angle_alpha 90.000000
_cell_angle_beta 90.000000
_cell_angle_gamma 90.000000
_cell_volume 3334.800001
_symmetry_space_group_name_H-M "P B C N"
_symmetry_group_IT_number 60
_symmetry_cell_setting 'orthorhombic'
loop_
_space_group_symop_operation_xyz
x,y,z
1/2-x,1/2-y,1/2+z
1/2+x,1/2-y,-z
-x,y,1/2-z
-x,-y,-z
1/2+x,1/2+y,1/2-z
1/2-x,1/2+y,z
x,-y,1/2+z
loop_
_atom_site_type_symbol
_atom_site_label
_atom_site_fract_x
_atom_site_fract_y
_atom_site_fract_z
Si Si1 0.657845 0.253271 0.102994
Si Si2 0.374802 0.723349 0.401289
Si Si3 0.819335 0.978094 0.243781
Si Si4 0.059774 0.977651 0.121920
Si Si5 0.713466 0.363479 0.122951
Si Si6 0.533794 0.361511 0.498621
Si Si7 0.755650 0.825685 0.618136
O O1 0.624402 0.238273 0.354743
O O2 0.669741 0.316186 0.121114
O O3 0.714174 0.222552 0.103911
O O4 0.620095 0.242987 0.857848
O O5 0.421959 0.681635 0.433410
O O6 0.315979 0.696960 0.378696
O O7 0.880145 0.998997 0.306395
O O8 0.819028 0.917926 0.148541
O O9 0.791142 0.987566 0.517662
O O10 0.031885 0.986112 0.397879
O O11 0.063532 0.916567 0.052632
O O12 0.752877 0.359803 0.365994
O O13 0.750576 0.360874 0.870744
O O14 0.500000 0.368532 0.750000
O O15 0.500000 0.344581 0.250000
#
# Coordination Sequence:
#
# PCOD8246309 Si02
#       7
#     8   8   8   8   8   8   8
#     4  10  18  30  50  73  90 105 132 171 237 294
#     4  10  19  32  47  62  87 112 130 169 221 272
#     4  10  20  32  45  63  84 114 155 187 226 283
#     4  10  21  35  50  62  76 102 145 206 257 283
#     4  10  17  27  43  63  92 114 131 171 220 269
#     4  12  25  37  48  63  83 113 155 190 232 291
#     4  10  18  29  49  74  90 105 132 171 237 293
#
# _framework density 16.792611000000001
#
# number of rings (size 3 to 8) (size 9 to 14) (size 15 to 20)
#    0.000    1.714    0.000    8.571    0.000    8.571 
#    0.000    0.000    0.000    0.000    0.000    0.000 
#    0.000    0.000    0.000    0.000    0.000    0.000 
#
# Total GULP energy -693761.973014 kJ/mol
# GULP energy per Si atom -12388.606661 kJ/mol
# Density = 1.675439 g / cm^3
# Si number density = 16.792611 Si / 1000 Ang^3
#
#
#
# Elastic Constant Matrix: (Units=GPa)
#
#
# Indices 1 2 3 4 5 6 
#
# 1 29.3671 20.7521 24.3418 0.0000 0.0000 0.0000
# 2 20.7521 31.0869 28.0154 0.0000 0.0000 0.0000
# 3 24.3418 28.0154 199.9855 0.0000 0.0000 0.0000
# 4 0.0000 0.0000 0.0000 22.4307 0.0000 0.0000
# 5 0.0000 0.0000 0.0000 0.0000 19.3308 0.0000
# 6 0.0000 0.0000 0.0000 0.0000 0.0000 18.3364
#
#
#
# Elastic Compliance Matrix: (Units=1/GPa)
#
#
# Indices 1 2 3 4 5 6 
#
# 1 0.065223 -0.041642 -0.002105 0.000000 0.000000 0.000000
# 2 -0.041642 0.063403 -0.003813 0.000000 0.000000 0.000000
# 3 -0.002105 -0.003813 0.005791 0.000000 0.000000 0.000000
# 4 0.000000 0.000000 0.000000 0.044582 0.000000 0.000000
# 5 0.000000 0.000000 0.000000 0.000000 0.051731 0.000000
# 6 0.000000 0.000000 0.000000 0.000000 0.000000 0.054536
#
#
# Mechanical properties :
#
#
# Convention : Reuss Voigt Hill
#
# Bulk Modulus (GPa) = 25.44871 45.18424 35.31647
# Shear Modulus (GPa) = 12.70695 24.50827 18.60761
#
# Velocity S-wave (km/s) = 2.75380 3.82444 3.33240
# Velocity P-wave (km/s) = 5.02979 6.81670 5.99025
#
# Compressibility (1/GPa) = 0.03929472
#
# Stress axis : x y z
#
# Youngs Moduli (GPa) = 15.33203 15.77221 172.68770
#
# Poissons Ratio (x) = 0.65679 0.36355
# Poissons Ratio (y) = 0.63846 0.65850
# Poissons Ratio (z) = 0.03228 0.06014
#
# Static dielectric constant tensor:
#      x y z
#    x 2.794100 0.000000 0.000000 
#    y 0.000000 2.783820 0.000000 
#    z 0.000000 0.000000 5.368040 
# 
# 
# High freq. dielectric constant tensor:
#      x y z
#    x 1.590850 0.000000 0.000000 
#    y 0.000000 1.596180 0.000000 
#    z 0.000000 0.000000 1.709700 
# 
# From -- ./inp_files/2131.got.cif
#   From: 2010.03.12/outbox.cif.g09.slc.cpg/sg60_2_cif.got.tgz:2131.got - 2010.04.10 18:46:24.
