data_PCOD8246472
_publ_section_title
;
Structure prediction by ZEFSAII (Michael W. Deem and Ramdas Pophale) SiO2 
 PCOD8246472
Probable space group: P B C N
;
_chemical_formula_sum "Si O2"
_cell_formula_units_Z 48
_cell_length_a 18.318345
_cell_length_b 8.752022
_cell_length_c 16.319960
_cell_angle_alpha 90.000000
_cell_angle_beta 90.000000
_cell_angle_gamma 90.000000
_cell_volume 2616.457741
_symmetry_space_group_name_H-M "P B C N"
_symmetry_group_IT_number 60
_symmetry_cell_setting 'orthorhombic'
loop_
_space_group_symop_operation_xyz
x,y,z
1/2-x,1/2-y,1/2+z
1/2+x,1/2-y,-z
-x,y,1/2-z
-x,-y,-z
1/2+x,1/2+y,1/2-z
1/2-x,1/2+y,z
x,-y,1/2+z
loop_
_atom_site_type_symbol
_atom_site_label
_atom_site_fract_x
_atom_site_fract_y
_atom_site_fract_z
Si Si1 0.828112 0.802453 0.109063
Si Si2 0.068806 0.622502 0.958639
Si Si3 0.085398 0.292153 0.225608
Si Si4 0.432061 0.912333 0.802761
Si Si5 0.590465 0.170651 0.960689
Si Si6 0.171890 0.159108 0.366095
O O1 0.884918 0.735401 0.175072
O O2 0.751534 0.729816 0.132519
O O3 0.823568 0.982798 0.112982
O O4 0.852838 0.760990 0.017325
O O5 0.045673 0.509928 0.883413
O O6 0.125094 0.753693 0.934971
O O7 0.993756 0.702329 0.988327
O O8 0.104024 0.513168 0.028742
O O9 0.111559 0.464839 0.246968
O O10 0.101705 0.265465 0.130468
O O11 0.134719 0.174588 0.276979
O O12 0.000000 0.271610 0.250000
O O13 0.500000 0.850569 0.750000
#
# Coordination Sequence:
#
# PCOD8246472 Si02
#       6
#     8   8   8   8   8   8
#     4  11  24  37  60  82 122 159 197 242 297 348
#     4   9  18  34  63  86 116 148 192 237 290 348
#     4  10  18  37  65  87 116 152 195 240 295 349
#     4   9  16  34  57  88 113 153 192 231 288 350
#     4  10  18  36  62  92 109 155 191 243 286 356
#     4  11  22  42  56  84 120 158 194 243 300 347
#
# _framework density 18.345414000000002
#
# number of rings (size 3 to 8) (size 9 to 14) (size 15 to 20)
#    0.000    2.000    5.000    3.000    0.000    1.333 
#    0.000    8.333    0.000    0.000    0.000    0.000 
#    0.000    0.000    0.000    0.000    0.000    0.000 
#
# Total GULP energy -594834.789571 kJ/mol
# GULP energy per Si atom -12392.391449 kJ/mol
# Density = 1.830366 g / cm^3
# Si number density = 18.345414 Si / 1000 Ang^3
#
#
#
# Elastic Constant Matrix: (Units=GPa)
#
#
# Indices 1 2 3 4 5 6 
#
# 1 98.0365 50.3211 43.2955 0.0000 0.0000 0.0000
# 2 50.3211 111.8096 30.8198 0.0000 0.0000 0.0000
# 3 43.2955 30.8198 98.0944 0.0000 0.0000 0.0000
# 4 0.0000 0.0000 0.0000 90.8328 0.0000 0.0000
# 5 0.0000 0.0000 0.0000 0.0000 25.8188 0.0000
# 6 0.0000 0.0000 0.0000 0.0000 0.0000 32.8538
#
#
#
# Elastic Compliance Matrix: (Units=1/GPa)
#
#
# Indices 1 2 3 4 5 6 
#
# 1 0.015215 -0.005470 -0.004997 0.000000 0.000000 0.000000
# 2 -0.005470 0.011759 -0.001280 0.000000 0.000000 0.000000
# 3 -0.004997 -0.001280 0.012802 0.000000 0.000000 0.000000
# 4 0.000000 0.000000 0.000000 0.011009 0.000000 0.000000
# 5 0.000000 0.000000 0.000000 0.000000 0.038732 0.000000
# 6 0.000000 0.000000 0.000000 0.000000 0.000000 0.030438
#
#
# Mechanical properties :
#
#
# Convention : Reuss Voigt Hill
#
# Bulk Modulus (GPa) = 61.41992 61.86815 61.64403
# Shear Modulus (GPa) = 33.58534 42.13467 37.86000
#
# Velocity S-wave (km/s) = 4.28333 4.79763 4.54776
# Velocity P-wave (km/s) = 7.61676 8.03038 7.82630
#
# Compressibility (1/GPa) = 0.01628136
#
# Stress axis : x y z
#
# Youngs Moduli (GPa) = 65.72569 85.04447 78.11438
#
# Poissons Ratio (x) = 0.46522 0.39031
# Poissons Ratio (y) = 0.35954 0.09998
# Poissons Ratio (z) = 0.32840 0.10885
#
# Static dielectric constant tensor:
#      x y z
#    x 3.351830 0.000000 0.000000 
#    y 0.000000 3.262100 0.000000 
#    z 0.000000 0.000000 3.603580 
# 
# 
# High freq. dielectric constant tensor:
#      x y z
#    x 1.704340 0.000000 0.000000 
#    y 0.000000 1.694640 0.000000 
#    z 0.000000 0.000000 1.710370 
# 
# From -- ./inp_files/20522.got.cif
#   From: 2010.03.12/outbox.cif.g09.slc.cpg/sg60_11_cif.got.tgz:20522.got - 2010.04.10 18:46:24.
