data_PCOD8246630
_publ_section_title
;
Structure prediction by ZEFSAII (Michael W. Deem and Ramdas Pophale) SiO2 
 PCOD8246630
Probable space group: P B C N
;
_chemical_formula_sum "Si O2"
_cell_formula_units_Z 48
_cell_length_a 13.214822
_cell_length_b 9.903908
_cell_length_c 18.677460
_cell_angle_alpha 90.000000
_cell_angle_beta 90.000000
_cell_angle_gamma 90.000000
_cell_volume 2444.475732
_symmetry_space_group_name_H-M "P B C N"
_symmetry_group_IT_number 60
_symmetry_cell_setting 'orthorhombic'
loop_
_space_group_symop_operation_xyz
x,y,z
1/2-x,1/2-y,1/2+z
1/2+x,1/2-y,-z
-x,y,1/2-z
-x,-y,-z
1/2+x,1/2+y,1/2-z
1/2-x,1/2+y,z
x,-y,1/2+z
loop_
_atom_site_type_symbol
_atom_site_label
_atom_site_fract_x
_atom_site_fract_y
_atom_site_fract_z
Si Si1 0.944186 0.415691 0.580913
Si Si2 0.242060 0.989665 0.480008
Si Si3 0.537159 0.697053 0.830692
Si Si4 0.037278 0.685424 0.575996
Si Si5 0.459828 0.528154 0.421895
Si Si6 0.270158 0.265614 0.078423
O O1 0.828911 0.455426 0.570725
O O2 0.983797 0.349709 0.507208
O O3 0.954773 0.299664 0.638609
O O4 0.005158 0.545147 0.613112
O O5 0.281295 0.863264 0.526190
O O6 0.152726 0.963520 0.423106
O O7 0.198970 0.102238 0.534242
O O8 0.500000 0.689418 0.750000
O O9 0.524865 0.547499 0.862183
O O10 0.652923 0.745616 0.852753
O O11 0.151939 0.721285 0.599721
O O12 0.965900 0.811855 0.596230
O O13 0.500000 0.500000 0.500000
#
# Coordination Sequence:
#
# PCOD8246630 Si02
#       6
#     8   8   8   8   8   8
#     4  10  20  36  56  91 118 151 192 253 305 355
#     4  11  20  32  65  92 116 146 202 258 301 351
#     4  12  25  40  56  82 126 167 201 252 321 373
#     4  10  19  34  65  91 117 144 206 261 290 353
#     4  12  19  38  61  94 120 151 203 262 301 359
#     4  11  19  34  57  90 112 154 198 246 307 360
#
# _framework density 19.636113000000002
#
# number of rings (size 3 to 8) (size 9 to 14) (size 15 to 20)
#    0.000    1.000    5.000    5.000    0.000    0.000 
#    0.000    5.833    0.000    0.000    0.000    0.000 
#    0.000    0.000    0.000    0.000    0.000    0.000 
#
# Total GULP energy -594629.932499 kJ/mol
# GULP energy per Si atom -12388.123594 kJ/mol
# Density = 1.959142 g / cm^3
# Si number density = 19.636113 Si / 1000 Ang^3
#
#
#
# Elastic Constant Matrix: (Units=GPa)
#
#
# Indices 1 2 3 4 5 6 
#
# 1 112.3616 29.1529 44.7985 0.0000 0.0000 0.0000
# 2 29.1529 132.6476 40.9794 0.0000 0.0000 0.0000
# 3 44.7985 40.9794 71.4020 0.0000 0.0000 0.0000
# 4 0.0000 0.0000 0.0000 17.3503 0.0000 0.0000
# 5 0.0000 0.0000 0.0000 0.0000 22.4176 0.0000
# 6 0.0000 0.0000 0.0000 0.0000 0.0000 35.1670
#
#
#
# Elastic Compliance Matrix: (Units=1/GPa)
#
#
# Indices 1 2 3 4 5 6 
#
# 1 0.011884 -0.000375 -0.007241 0.000000 0.000000 0.000000
# 2 -0.000375 0.009175 -0.005031 0.000000 0.000000 0.000000
# 3 -0.007241 -0.005031 0.021436 0.000000 0.000000 0.000000
# 4 0.000000 0.000000 0.000000 0.057636 0.000000 0.000000
# 5 0.000000 0.000000 0.000000 0.000000 0.044608 0.000000
# 6 0.000000 0.000000 0.000000 0.000000 0.000000 0.028436
#
#
# Mechanical properties :
#
#
# Convention : Reuss Voigt Hill
#
# Bulk Modulus (GPa) = 58.13390 60.69696 59.41543
# Shear Modulus (GPa) = 24.48557 28.41901 26.45229
#
# Velocity S-wave (km/s) = 3.53507 3.80844 3.67430
# Velocity P-wave (km/s) = 6.80677 7.09345 6.95159
#
# Compressibility (1/GPa) = 0.01720167
#
# Stress axis : x y z
#
# Youngs Moduli (GPa) = 84.14588 108.98790 46.65118
#
# Poissons Ratio (x) = 0.04085 0.33781
# Poissons Ratio (y) = 0.03154 0.23469
# Poissons Ratio (z) = 0.60931 0.54829
#
# Static dielectric constant tensor:
#      x y z
#    x 4.493780 0.000000 0.000000 
#    y 0.000000 4.633790 0.000000 
#    z 0.000000 0.000000 3.301750 
# 
# 
# High freq. dielectric constant tensor:
#      x y z
#    x 1.782080 0.000000 0.000000 
#    y 0.000000 1.792490 0.000000 
#    z 0.000000 0.000000 1.688720 
# 
# From -- ./inp_files/20517.got.cif
#   From: 2010.03.12/outbox.cif.g09.slc.cpg/sg60_11_cif.got.tgz:20517.got - 2010.04.10 18:46:24.
