data_PCOD8246760
_publ_section_title
;
Structure prediction by ZEFSAII (Michael W. Deem and Ramdas Pophale) SiO2 
 PCOD8246760
Probable space group: P B C N
;
_chemical_formula_sum "Si O2"
_cell_formula_units_Z 48
_cell_length_a 8.619704
_cell_length_b 28.824286
_cell_length_c 9.234828
_cell_angle_alpha 90.000000
_cell_angle_beta 90.000000
_cell_angle_gamma 90.000000
_cell_volume 2294.455937
_symmetry_space_group_name_H-M "P B C N"
_symmetry_group_IT_number 60
_symmetry_cell_setting 'orthorhombic'
loop_
_space_group_symop_operation_xyz
x,y,z
1/2-x,1/2-y,1/2+z
1/2+x,1/2-y,-z
-x,y,1/2-z
-x,-y,-z
1/2+x,1/2+y,1/2-z
1/2-x,1/2+y,z
x,-y,1/2+z
loop_
_atom_site_type_symbol
_atom_site_label
_atom_site_fract_x
_atom_site_fract_y
_atom_site_fract_z
Si Si1 0.072957 0.061959 0.608757
Si Si2 0.175742 0.717807 0.704864
Si Si3 0.322783 0.694240 0.006661
Si Si4 0.637448 0.461865 0.857991
Si Si5 0.675521 0.125228 0.298884
Si Si6 0.666890 0.346619 0.517368
O O1 0.175319 0.099445 0.526995
O O2 0.000000 0.086000 0.750000
O O3 0.921444 0.046913 0.519460
O O4 0.177833 0.016839 0.651642
O O5 0.202299 0.766868 0.628242
O O6 0.213824 0.678780 0.587405
O O7 0.000000 0.710823 0.750000
O O8 0.282792 0.714045 0.847850
O O9 0.208705 0.651622 0.049224
O O10 0.499055 0.676603 0.004559
O O11 0.500000 0.448132 0.750000
O O12 0.782578 0.429180 0.818275
O O13 0.500000 0.128568 0.250000
O O14 0.780139 0.153376 0.183458
#
# Coordination Sequence:
#
# PCOD8246760 Si02
#       6
#     8   8   8   8   8   8
#     4  10  20  36  68  97 124 163 222 263 305 387
#     4  12  26  42  64  98 130 163 212 275 328 378
#     4  12  24  44  68  91 126 173 218 259 321 398
#     4  10  19  39  66  94 125 169 218 262 316 387
#     4  12  24  41  64  93 130 168 215 275 333 377
#     4  12  24  44  67  95 127 177 223 262 321 396
#
# _framework density 20.919992000000001
#
# number of rings (size 3 to 8) (size 9 to 14) (size 15 to 20)
#    0.000    0.667    3.333    6.000    0.000    1.333 
#    0.000    1.667    0.000    0.000    0.000    0.000 
#    0.000    0.000    0.000    0.000    0.000    0.000 
#
# Total GULP energy -595172.129498 kJ/mol
# GULP energy per Si atom -12399.419365 kJ/mol
# Density = 2.087238 g / cm^3
# Si number density = 20.919992 Si / 1000 Ang^3
#
#
#
# Elastic Constant Matrix: (Units=GPa)
#
#
# Indices 1 2 3 4 5 6 
#
# 1 73.0998 32.2271 10.5934 0.0000 0.0000 0.0000
# 2 32.2271 125.9374 33.9992 0.0000 0.0000 0.0000
# 3 10.5934 33.9992 101.1645 0.0000 0.0000 0.0000
# 4 0.0000 0.0000 0.0000 37.8910 0.0000 0.0000
# 5 0.0000 0.0000 0.0000 0.0000 17.4713 0.0000
# 6 0.0000 0.0000 0.0000 0.0000 0.0000 16.5207
#
#
#
# Elastic Compliance Matrix: (Units=1/GPa)
#
#
# Indices 1 2 3 4 5 6 
#
# 1 0.015429 -0.003862 -0.000318 0.000000 0.000000 0.000000
# 2 -0.003862 0.009700 -0.002855 0.000000 0.000000 0.000000
# 3 -0.000318 -0.002855 0.010878 0.000000 0.000000 0.000000
# 4 0.000000 0.000000 0.000000 0.026391 0.000000 0.000000
# 5 0.000000 0.000000 0.000000 0.000000 0.057237 0.000000
# 6 0.000000 0.000000 0.000000 0.000000 0.000000 0.060530
#
#
# Mechanical properties :
#
#
# Convention : Reuss Voigt Hill
#
# Bulk Modulus (GPa) = 45.58828 50.42679 48.00754
# Shear Modulus (GPa) = 24.80807 29.26872 27.03839
#
# Velocity S-wave (km/s) = 3.44736 3.74448 3.59899
# Velocity P-wave (km/s) = 6.13879 6.54613 6.34573
#
# Compressibility (1/GPa) = 0.02193546
#
# Stress axis : x y z
#
# Youngs Moduli (GPa) = 64.81400 103.09570 91.93046
#
# Poissons Ratio (x) = 0.39820 0.02919
# Poissons Ratio (y) = 0.25034 0.26250
# Poissons Ratio (z) = 0.02058 0.29438
#
# Static dielectric constant tensor:
#      x y z
#    x 3.469100 0.000000 0.000000 
#    y 0.000000 4.101300 0.000000 
#    z 0.000000 0.000000 4.191120 
# 
# 
# High freq. dielectric constant tensor:
#      x y z
#    x 1.783370 0.000000 0.000000 
#    y 0.000000 1.836410 0.000000 
#    z 0.000000 0.000000 1.843710 
# 
# From -- ./inp_files/4236.got.cif
#   From: 2010.03.12/outbox.cif.g09.slc.cpg/sg60_3_cif.got.tgz:4236.got - 2010.04.10 18:46:24.
