data_PCOD8247017
_publ_section_title
;
Structure prediction by ZEFSAII (Michael W. Deem and Ramdas Pophale) SiO2 
 PCOD8247017
Probable space group: P B C N
;
_chemical_formula_sum "Si O2"
_cell_formula_units_Z 24
_cell_length_a 4.949754
_cell_length_b 15.759954
_cell_length_c 14.652931
_cell_angle_alpha 90.000000
_cell_angle_beta 90.000000
_cell_angle_gamma 90.000000
_cell_volume 1143.044308
_symmetry_space_group_name_H-M "P B C N"
_symmetry_group_IT_number 60
_symmetry_cell_setting 'orthorhombic'
loop_
_space_group_symop_operation_xyz
x,y,z
1/2-x,1/2-y,1/2+z
1/2+x,1/2-y,-z
-x,y,1/2-z
-x,-y,-z
1/2+x,1/2+y,1/2-z
1/2-x,1/2+y,z
x,-y,1/2+z
loop_
_atom_site_type_symbol
_atom_site_label
_atom_site_fract_x
_atom_site_fract_y
_atom_site_fract_z
Si Si1 0.787779 0.306808 0.501750
Si Si2 0.380633 0.437894 0.845240
Si Si3 0.399442 0.967004 0.095796
O O1 0.546827 0.247025 0.467684
O O2 0.691959 0.359011 0.590555
O O3 0.871750 0.365189 0.414604
O O4 0.500000 0.402677 0.750000
O O5 0.604130 0.496705 0.890126
O O6 0.118439 0.499549 0.829729
O O7 0.500000 0.000000 0.000000
#
# Coordination Sequence:
#
# PCOD8247017 Si02
#       3
#     8   8   8
#     4  11  21  37  61  88 120 157 196 242 300 361
#     4  11  22  39  62  88 118 157 203 251 291 339
#     4  10  20  38  61  84 112 156 204 235 281 362
#
# _framework density 20.996562000000001
#
# number of rings (size 3 to 8) (size 9 to 14) (size 15 to 20)
#    0.000    1.333    0.000   11.000    0.000    0.000 
#    0.000    6.667    0.000    0.000    0.000    0.000 
#    0.000    0.000    0.000    0.000    0.000    0.000 
#
# Total GULP energy -297467.226528 kJ/mol
# GULP energy per Si atom -12394.467772 kJ/mol
# Density = 2.094877 g / cm^3
# Si number density = 20.996562 Si / 1000 Ang^3
#
#
#
# Elastic Constant Matrix: (Units=GPa)
#
#
# Indices 1 2 3 4 5 6 
#
# 1 137.5820 56.7449 3.4971 0.0000 0.0000 0.0000
# 2 56.7449 121.2672 15.1110 0.0000 0.0000 0.0000
# 3 3.4971 15.1110 49.9863 0.0000 0.0000 0.0000
# 4 0.0000 0.0000 0.0000 9.8388 0.0000 0.0000
# 5 0.0000 0.0000 0.0000 0.0000 35.5837 0.0000
# 6 0.0000 0.0000 0.0000 0.0000 0.0000 58.8337
#
#
#
# Elastic Compliance Matrix: (Units=1/GPa)
#
#
# Indices 1 2 3 4 5 6 
#
# 1 0.009028 -0.004308 0.000671 0.000000 0.000000 0.000000
# 2 -0.004308 0.010625 -0.002911 0.000000 0.000000 0.000000
# 3 0.000671 -0.002911 0.020838 0.000000 0.000000 0.000000
# 4 0.000000 0.000000 0.000000 0.101639 0.000000 0.000000
# 5 0.000000 0.000000 0.000000 0.000000 0.028103 0.000000
# 6 0.000000 0.000000 0.000000 0.000000 0.000000 0.016997
#
#
# Mechanical properties :
#
#
# Convention : Reuss Voigt Hill
#
# Bulk Modulus (GPa) = 36.50220 51.06016 43.78118
# Shear Modulus (GPa) = 23.87115 36.41675 30.14395
#
# Velocity S-wave (km/s) = 3.37546 4.16915 3.79312
# Velocity P-wave (km/s) = 5.71089 6.89542 6.33092
#
# Compressibility (1/GPa) = 0.02739561
#
# Stress axis : x y z
#
# Youngs Moduli (GPa) = 110.76364 94.11878 47.98827
#
# Poissons Ratio (x) = 0.40548 -0.03219
# Poissons Ratio (y) = 0.47719 0.13967
# Poissons Ratio (z) = -0.07430 0.27394
#
# Static dielectric constant tensor:
#      x y z
#    x 4.635460 0.000000 0.000000 
#    y 0.000000 4.143860 0.000000 
#    z 0.000000 0.000000 3.623420 
# 
# 
# High freq. dielectric constant tensor:
#      x y z
#    x 1.857350 0.000000 0.000000 
#    y 0.000000 1.817050 0.000000 
#    z 0.000000 0.000000 1.797640 
# 
# From -- ./inp_files/13481.got.cif
#   From: 2010.03.12/outbox.cif.g09.slc.cpg/sg60_7_cif.got.tgz:13481.got - 2010.04.10 18:46:24.
