data_PCOD8247513
_publ_section_title
;
Structure prediction by ZEFSAII (Michael W. Deem and Ramdas Pophale) SiO2 
 PCOD8247513
Probable space group: P B C N
;
_chemical_formula_sum "Si O2"
_cell_formula_units_Z 64
_cell_length_a 8.555767
_cell_length_b 19.011175
_cell_length_c 19.061032
_cell_angle_alpha 90.000000
_cell_angle_beta 90.000000
_cell_angle_gamma 90.000000
_cell_volume 3100.375661
_symmetry_space_group_name_H-M "P B C N"
_symmetry_group_IT_number 60
_symmetry_cell_setting 'orthorhombic'
loop_
_space_group_symop_operation_xyz
x,y,z
1/2-x,1/2-y,1/2+z
1/2+x,1/2-y,-z
-x,y,1/2-z
-x,-y,-z
1/2+x,1/2+y,1/2-z
1/2-x,1/2+y,z
x,-y,1/2+z
loop_
_atom_site_type_symbol
_atom_site_label
_atom_site_fract_x
_atom_site_fract_y
_atom_site_fract_z
Si Si1 0.633440 0.057736 0.105984
Si Si2 0.841205 0.646928 0.790689
Si Si3 0.950244 0.710598 0.070815
Si Si4 0.660772 0.757517 0.716009
Si Si5 0.827192 0.496835 0.840763
Si Si6 0.839540 0.036770 0.978183
Si Si7 0.240949 0.191628 0.559327
Si Si8 0.321355 0.395973 0.764085
O O1 0.535361 0.127872 0.087480
O O2 0.509167 0.002985 0.137177
O O3 0.771886 0.073620 0.160547
O O4 0.710989 0.022558 0.038044
O O5 0.700622 0.681414 0.746904
O O6 0.804129 0.564468 0.791459
O O7 0.840237 0.676795 0.870194
O O8 0.000000 0.664962 0.750000
O O9 0.851089 0.748527 0.132047
O O10 0.120282 0.745222 0.070092
O O11 0.863550 0.720407 0.997223
O O12 0.500000 0.785216 0.750000
O O13 0.796431 0.812251 0.737550
O O14 0.715946 0.498769 0.907979
O O15 0.786445 0.428366 0.796374
O O16 0.851575 0.121390 0.966424
O O17 0.000000 0.000000 0.000000
O O18 0.500000 0.415396 0.750000
#
# Coordination Sequence:
#
# PCOD8247513 Si02
#       8
#     8   8   8   8   8   8   8   8
#     4  10  21  41  65  88 125 169 219 258 322 388
#     4  11  24  41  60  94 133 166 213 270 324 394
#     4  10  22  41  63  92 123 169 213 272 320 385
#     4  11  22  42  65  88 127 170 212 263 328 384
#     4  11  23  41  64  93 131 171 212 264 323 392
#     4  10  22  42  62  93 130 167 218 268 318 387
#     4  10  23  41  62  95 130 164 220 268 326 386
#     4  11  22  38  63  93 121 162 215 265 313 379
#
# _framework density 20.642661
#
# number of rings (size 3 to 8) (size 9 to 14) (size 15 to 20)
#    0.000    1.500    1.250    4.125    1.750    1.500 
#    6.750    0.000    0.000    0.000    0.000    0.000 
#    0.000    0.000    0.000    0.000    0.000    0.000 
#
# Total GULP energy -793836.911580 kJ/mol
# GULP energy per Si atom -12403.701743 kJ/mol
# Density = 2.059568 g / cm^3
# Si number density = 20.642661 Si / 1000 Ang^3
#
#
#
# Elastic Constant Matrix: (Units=GPa)
#
#
# Indices 1 2 3 4 5 6 
#
# 1 94.7237 38.0246 45.4926 0.0000 0.0000 0.0000
# 2 38.0246 72.8153 41.8902 0.0000 0.0000 0.0000
# 3 45.4926 41.8902 123.1812 0.0000 0.0000 0.0000
# 4 0.0000 0.0000 0.0000 24.7534 0.0000 0.0000
# 5 0.0000 0.0000 0.0000 0.0000 36.8949 0.0000
# 6 0.0000 0.0000 0.0000 0.0000 0.0000 34.7752
#
#
#
# Elastic Compliance Matrix: (Units=1/GPa)
#
#
# Indices 1 2 3 4 5 6 
#
# 1 0.014443 -0.005562 -0.003443 0.000000 0.000000 0.000000
# 2 -0.005562 0.019215 -0.004481 0.000000 0.000000 0.000000
# 3 -0.003443 -0.004481 0.010913 0.000000 0.000000 0.000000
# 4 0.000000 0.000000 0.000000 0.040399 0.000000 0.000000
# 5 0.000000 0.000000 0.000000 0.000000 0.027104 0.000000
# 6 0.000000 0.000000 0.000000 0.000000 0.000000 0.028756
#
#
# Mechanical properties :
#
#
# Convention : Reuss Voigt Hill
#
# Bulk Modulus (GPa) = 56.81228 60.17056 58.49142
# Shear Modulus (GPa) = 28.79069 30.30556 29.54812
#
# Velocity S-wave (km/s) = 3.73864 3.83574 3.78750
# Velocity P-wave (km/s) = 6.79839 6.98778 6.89374
#
# Compressibility (1/GPa) = 0.01760183
#
# Stress axis : x y z
#
# Youngs Moduli (GPa) = 69.23762 52.04177 91.63176
#
# Poissons Ratio (x) = 0.28944 0.31546
# Poissons Ratio (y) = 0.38508 0.41056
# Poissons Ratio (z) = 0.23836 0.23318
#
# Static dielectric constant tensor:
#      x y z
#    x 3.522130 0.000000 0.000000 
#    y 0.000000 3.668620 0.000000 
#    z 0.000000 0.000000 3.997980 
# 
# 
# High freq. dielectric constant tensor:
#      x y z
#    x 1.798380 0.000000 0.000000 
#    y 0.000000 1.802740 0.000000 
#    z 0.000000 0.000000 1.828000 
# 
# From -- ./inp_files/19689.got.cif
#   From: 2010.03.12/outbox.cif.g09.slc.cpg/sg60_10_cif.got.tgz:19689.got - 2010.04.10 18:46:24.
