data_PCOD8247290
_publ_section_title
;
Structure prediction by ZEFSAII (Michael W. Deem and Ramdas Pophale) SiO2 
 PCOD8247290
Probable space group: P B C N
;
_chemical_formula_sum "Si O2"
_cell_formula_units_Z 32
_cell_length_a 17.030985
_cell_length_b 17.183466
_cell_length_c 4.926761
_cell_angle_alpha 90.000000
_cell_angle_beta 90.000000
_cell_angle_gamma 90.000000
_cell_volume 1441.823266
_symmetry_space_group_name_H-M "P B C N"
_symmetry_group_IT_number 60
_symmetry_cell_setting 'orthorhombic'
loop_
_space_group_symop_operation_xyz
x,y,z
1/2-x,1/2-y,1/2+z
1/2+x,1/2-y,-z
-x,y,1/2-z
-x,-y,-z
1/2+x,1/2+y,1/2-z
1/2-x,1/2+y,z
x,-y,1/2+z
loop_
_atom_site_type_symbol
_atom_site_label
_atom_site_fract_x
_atom_site_fract_y
_atom_site_fract_z
Si Si1 0.721854 0.293224 0.363384
Si Si2 0.222841 0.455054 0.382166
Si Si3 0.447892 0.260931 0.016412
Si Si4 0.552447 0.914015 0.993981
O O1 0.777806 0.269715 0.616454
O O2 0.753720 0.371187 0.224505
O O3 0.635317 0.305689 0.490785
O O4 0.255717 0.478124 0.677979
O O5 0.128685 0.462495 0.419968
O O6 0.500000 0.299782 0.250000
O O7 0.500000 0.270710 0.750000
O O8 0.424121 0.172739 0.102367
O O9 0.500000 0.897869 0.250000
O O10 0.500000 0.955955 0.750000
#
# Coordination Sequence:
#
# PCOD8247290 Si02
#       4
#     8   8   8   8
#     4  12  24  42  70  95 125 174 223 271 320 383
#     4  12  26  41  61  95 136 174 214 266 326 385
#     4  10  21  38  64  96 123 160 216 277 319 370
#     4  10  21  37  59  89 127 171 209 249 308 390
#
# _framework density 22.194120999999999
#
# number of rings (size 3 to 8) (size 9 to 14) (size 15 to 20)
#    0.000    1.000    2.500    4.500    7.000    3.000 
#    0.000    0.000    0.000    4.500    0.000    0.000 
#    0.000    0.000    0.000    0.000    0.000    0.000 
#
# Total GULP energy -396617.990353 kJ/mol
# GULP energy per Si atom -12394.312199 kJ/mol
# Density = 2.214361 g / cm^3
# Si number density = 22.194121 Si / 1000 Ang^3
#
#
#
# Elastic Constant Matrix: (Units=GPa)
#
#
# Indices 1 2 3 4 5 6 
#
# 1 115.3142 37.6966 54.9055 0.0000 0.0000 0.0000
# 2 37.6966 57.7062 24.2561 0.0000 0.0000 0.0000
# 3 54.9055 24.2561 162.5074 0.0000 0.0000 0.0000
# 4 0.0000 0.0000 0.0000 6.8136 0.0000 0.0000
# 5 0.0000 0.0000 0.0000 0.0000 37.2224 0.0000
# 6 0.0000 0.0000 0.0000 0.0000 0.0000 26.4500
#
#
#
# Elastic Compliance Matrix: (Units=1/GPa)
#
#
# Indices 1 2 3 4 5 6 
#
# 1 0.012396 -0.006761 -0.003179 0.000000 0.000000 0.000000
# 2 -0.006761 0.022177 -0.001026 0.000000 0.000000 0.000000
# 3 -0.003179 -0.001026 0.007381 0.000000 0.000000 0.000000
# 4 0.000000 0.000000 0.000000 0.146765 0.000000 0.000000
# 5 0.000000 0.000000 0.000000 0.000000 0.026866 0.000000
# 6 0.000000 0.000000 0.000000 0.000000 0.000000 0.037807
#
#
# Mechanical properties :
#
#
# Convention : Reuss Voigt Hill
#
# Bulk Modulus (GPa) = 49.94594 63.24938 56.59766
# Shear Modulus (GPa) = 17.73066 28.67519 23.20292
#
# Velocity S-wave (km/s) = 2.82953 3.59836 3.23686
# Velocity P-wave (km/s) = 5.76437 6.76937 6.28699
#
# Compressibility (1/GPa) = 0.02002165
#
# Stress axis : x y z
#
# Youngs Moduli (GPa) = 80.67201 45.09137 135.48818
#
# Poissons Ratio (x) = 0.30488 0.43071
# Poissons Ratio (y) = 0.54545 0.13898
# Poissons Ratio (z) = 0.25645 0.04625
#
# Static dielectric constant tensor:
#      x y z
#    x 3.760100 0.000000 0.000000 
#    y 0.000000 3.866780 0.000000 
#    z 0.000000 0.000000 4.351980 
# 
# 
# High freq. dielectric constant tensor:
#      x y z
#    x 1.853550 0.000000 0.000000 
#    y 0.000000 1.847770 0.000000 
#    z 0.000000 0.000000 1.904390 
# 
# From -- ./inp_files/1036.got.cif
#   From: 2010.03.12/outbox.cif.g09.slc.cpg/sg60_1_cif.got.tgz:1036.got - 2010.04.10 18:46:24.
