data_PCOD8247010
_publ_section_title
;
Structure prediction by ZEFSAII (Michael W. Deem and Ramdas Pophale) SiO2 
 PCOD8247010
Probable space group: P B C N
;
_chemical_formula_sum "Si O2"
_cell_formula_units_Z 40
_cell_length_a 8.096709
_cell_length_b 27.296502
_cell_length_c 8.966926
_cell_angle_alpha 90.000000
_cell_angle_beta 90.000000
_cell_angle_gamma 90.000000
_cell_volume 1981.796755
_symmetry_space_group_name_H-M "P B C N"
_symmetry_group_IT_number 60
_symmetry_cell_setting 'orthorhombic'
loop_
_space_group_symop_operation_xyz
x,y,z
1/2-x,1/2-y,1/2+z
1/2+x,1/2-y,-z
-x,y,1/2-z
-x,-y,-z
1/2+x,1/2+y,1/2-z
1/2-x,1/2+y,z
x,-y,1/2+z
loop_
_atom_site_type_symbol
_atom_site_label
_atom_site_fract_x
_atom_site_fract_y
_atom_site_fract_z
Si Si1 0.326641 0.386430 0.323219
Si Si2 0.309528 0.199177 0.985391
Si Si3 0.366454 0.141963 0.533023
Si Si4 0.686226 0.703023 0.195187
Si Si5 0.449008 0.049182 0.918406
O O1 0.500000 0.401857 0.250000
O O2 0.331300 0.341005 0.439452
O O3 0.244965 0.433860 0.407337
O O4 0.213217 0.364748 0.193620
O O5 0.495057 0.183340 0.946304
O O6 0.303831 0.206651 0.162284
O O7 0.275452 0.249856 0.904137
O O8 0.234675 0.155816 0.405260
O O9 0.452843 0.090782 0.489967
O O10 0.500000 0.697979 0.250000
O O11 0.500000 0.042529 0.750000
O O12 0.500000 0.000000 0.000000
#
# Coordination Sequence:
#
# PCOD8247010 Si02
#       5
#     8   8   8   8   8
#     4  10  20  38  60  84 112 147 191 241 284 333
#     4  11  22  36  56  79 113 156 191 233 287 345
#     4  10  22  40  57  81 115 152 192 234 289 346
#     4  12  23  35  54  83 114 151 195 240 283 338
#     4   9  20  39  62  83 112 150 187 232 290 350
#
# _framework density 20.183706000000001
#
# number of rings (size 3 to 8) (size 9 to 14) (size 15 to 20)
#    0.000    1.600    0.000    7.200    0.000    4.800 
#    0.000    5.000    0.000    0.000    0.000    0.000 
#    0.000    0.000    0.000    0.000    0.000    0.000 
#
# Total GULP energy -495768.071108 kJ/mol
# GULP energy per Si atom -12394.201778 kJ/mol
# Density = 2.013777 g / cm^3
# Si number density = 20.183706 Si / 1000 Ang^3
#
#
#
# Elastic Constant Matrix: (Units=GPa)
#
#
# Indices 1 2 3 4 5 6 
#
# 1 88.9771 51.3074 25.8066 0.0000 0.0000 0.0000
# 2 51.3074 134.3851 57.4602 0.0000 0.0000 0.0000
# 3 25.8066 57.4602 100.9596 0.0000 0.0000 0.0000
# 4 0.0000 0.0000 0.0000 31.5026 0.0000 0.0000
# 5 0.0000 0.0000 0.0000 0.0000 28.7171 0.0000
# 6 0.0000 0.0000 0.0000 0.0000 0.0000 19.1811
#
#
#
# Elastic Compliance Matrix: (Units=1/GPa)
#
#
# Indices 1 2 3 4 5 6 
#
# 1 0.014452 -0.005205 -0.000732 0.000000 0.000000 0.000000
# 2 -0.005205 0.011709 -0.005334 0.000000 0.000000 0.000000
# 3 -0.000732 -0.005334 0.013128 0.000000 0.000000 0.000000
# 4 0.000000 0.000000 0.000000 0.031743 0.000000 0.000000
# 5 0.000000 0.000000 0.000000 0.000000 0.034822 0.000000
# 6 0.000000 0.000000 0.000000 0.000000 0.000000 0.052135
#
#
# Mechanical properties :
#
#
# Convention : Reuss Voigt Hill
#
# Bulk Modulus (GPa) = 59.70791 65.94114 62.82452
# Shear Modulus (GPa) = 26.86535 28.53001 27.69768
#
# Velocity S-wave (km/s) = 3.65230 3.76376 3.70845
# Velocity P-wave (km/s) = 6.88710 7.18535 7.03781
#
# Compressibility (1/GPa) = 0.01674820
#
# Stress axis : x y z
#
# Youngs Moduli (GPa) = 69.19238 85.40399 76.17519
#
# Poissons Ratio (x) = 0.44452 0.05575
# Poissons Ratio (y) = 0.36014 0.40629
# Poissons Ratio (z) = 0.05064 0.45552
#
# Static dielectric constant tensor:
#      x y z
#    x 3.795730 0.000000 0.000000 
#    y 0.000000 3.822620 0.000000 
#    z 0.000000 0.000000 3.900730 
# 
# 
# High freq. dielectric constant tensor:
#      x y z
#    x 1.785170 0.000000 0.000000 
#    y 0.000000 1.774770 0.000000 
#    z 0.000000 0.000000 1.797510 
# 
# From -- ./inp_files/3817.got.cif
#   From: 2010.03.12/outbox.cif.g09.slc.cpg/sg60_2_cif.got.tgz:3817.got - 2010.04.10 18:46:24.
