data_PCOD8247499
_publ_section_title
;
Structure prediction by ZEFSAII (Michael W. Deem and Ramdas Pophale) SiO2 
 PCOD8247499
Probable space group: P B C N
;
_chemical_formula_sum "Si O2"
_cell_formula_units_Z 48
_cell_length_a 15.647623
_cell_length_b 9.720402
_cell_length_c 15.598449
_cell_angle_alpha 90.000000
_cell_angle_beta 90.000000
_cell_angle_gamma 90.000000
_cell_volume 2372.542591
_symmetry_space_group_name_H-M "P B C N"
_symmetry_group_IT_number 60
_symmetry_cell_setting 'orthorhombic'
loop_
_space_group_symop_operation_xyz
x,y,z
1/2-x,1/2-y,1/2+z
1/2+x,1/2-y,-z
-x,y,1/2-z
-x,-y,-z
1/2+x,1/2+y,1/2-z
1/2-x,1/2+y,z
x,-y,1/2+z
loop_
_atom_site_type_symbol
_atom_site_label
_atom_site_fract_x
_atom_site_fract_y
_atom_site_fract_z
Si Si1 0.663113 0.218003 0.148263
Si Si2 0.307992 0.339781 0.168698
Si Si3 0.077198 0.899073 0.016654
Si Si4 0.310503 0.943993 0.609446
Si Si5 0.987792 0.377171 0.935958
Si Si6 0.234837 0.010910 0.929059
O O1 0.655125 0.286371 0.241427
O O2 0.568715 0.179573 0.115793
O O3 0.712899 0.331108 0.091567
O O4 0.717220 0.075305 0.146005
O O5 0.383752 0.412411 0.113386
O O6 0.230679 0.449325 0.177486
O O7 0.268532 0.207102 0.119835
O O8 0.045955 0.744235 0.002779
O O9 0.147322 0.930599 0.945410
O O10 0.000000 0.000000 0.000000
O O11 0.412045 0.925761 0.629028
O O12 0.294987 0.996052 0.512813
O O13 0.000000 0.500000 0.000000
#
# Coordination Sequence:
#
# PCOD8247499 Si02
#       6
#     8   8   8   8   8   8
#     4  12  23  39  63  96 128 165 216 276 332 388
#     4  10  23  38  63  90 128 162 213 263 330 386
#     4  10  21  41  61  89 122 171 216 262 324 397
#     4  10  21  41  61  90 123 172 211 262 330 400
#     4  11  22  37  64  95 124 163 220 269 322 395
#     4  11  22  39  65  89 126 167 220 265 328 412
#
# _framework density 20.231459999999998
#
# number of rings (size 3 to 8) (size 9 to 14) (size 15 to 20)
#    0.000    1.333    3.333    4.000    0.000    2.667 
#    0.000    0.000    0.000    0.000    0.000    0.000 
#    0.000    0.000    0.000    0.000    0.000    0.000 
#
# Total GULP energy -594817.607107 kJ/mol
# GULP energy per Si atom -12392.033481 kJ/mol
# Density = 2.018541 g / cm^3
# Si number density = 20.231460 Si / 1000 Ang^3
#
#
#
# Elastic Constant Matrix: (Units=GPa)
#
#
# Indices 1 2 3 4 5 6 
#
# 1 130.8269 74.6843 25.0684 0.0000 0.0000 0.0000
# 2 74.6843 132.3331 30.1965 0.0000 0.0000 0.0000
# 3 25.0684 30.1965 72.3968 0.0000 0.0000 0.0000
# 4 0.0000 0.0000 0.0000 37.3878 0.0000 0.0000
# 5 0.0000 0.0000 0.0000 0.0000 22.5112 0.0000
# 6 0.0000 0.0000 0.0000 0.0000 0.0000 47.8399
#
#
#
# Elastic Compliance Matrix: (Units=1/GPa)
#
#
# Indices 1 2 3 4 5 6 
#
# 1 0.011403 -0.006117 -0.001397 0.000000 0.000000 0.000000
# 2 -0.006117 0.011633 -0.002734 0.000000 0.000000 0.000000
# 3 -0.001397 -0.002734 0.015437 0.000000 0.000000 0.000000
# 4 0.000000 0.000000 0.000000 0.026747 0.000000 0.000000
# 5 0.000000 0.000000 0.000000 0.000000 0.044422 0.000000
# 6 0.000000 0.000000 0.000000 0.000000 0.000000 0.020903
#
#
# Mechanical properties :
#
#
# Convention : Reuss Voigt Hill
#
# Bulk Modulus (GPa) = 55.62695 66.16167 60.89431
# Shear Modulus (GPa) = 31.84043 35.25496 33.54769
#
# Velocity S-wave (km/s) = 3.97143 4.17895 4.07651
# Velocity P-wave (km/s) = 6.97027 7.48720 7.23335
#
# Compressibility (1/GPa) = 0.01797690
#
# Stress axis : x y z
#
# Youngs Moduli (GPa) = 87.69415 85.96508 64.77992
#
# Poissons Ratio (x) = 0.52583 0.09051
# Poissons Ratio (y) = 0.53641 0.17710
# Poissons Ratio (z) = 0.12253 0.23502
#
# Static dielectric constant tensor:
#      x y z
#    x 3.941030 0.000000 0.000000 
#    y 0.000000 4.008050 0.000000 
#    z 0.000000 0.000000 3.517820 
# 
# 
# High freq. dielectric constant tensor:
#      x y z
#    x 1.794250 0.000000 0.000000 
#    y 0.000000 1.811440 0.000000 
#    z 0.000000 0.000000 1.763320 
# 
# From -- ./inp_files/20518.got.cif
#   From: 2010.03.12/outbox.cif.g09.slc.cpg/sg60_11_cif.got.tgz:20518.got - 2010.04.10 18:46:24.
