data_PCOD8247649
_publ_section_title
;
Structure prediction by ZEFSAII (Michael W. Deem and Ramdas Pophale) SiO2 
 PCOD8247649
Probable space group: P B C N
;
_chemical_formula_sum "Si O2"
_cell_formula_units_Z 48
_cell_length_a 16.059092
_cell_length_b 16.609893
_cell_length_c 9.365140
_cell_angle_alpha 90.000000
_cell_angle_beta 90.000000
_cell_angle_gamma 90.000000
_cell_volume 2498.055569
_symmetry_space_group_name_H-M "P B C N"
_symmetry_group_IT_number 60
_symmetry_cell_setting 'orthorhombic'
loop_
_space_group_symop_operation_xyz
x,y,z
1/2-x,1/2-y,1/2+z
1/2+x,1/2-y,-z
-x,y,1/2-z
-x,-y,-z
1/2+x,1/2+y,1/2-z
1/2-x,1/2+y,z
x,-y,1/2+z
loop_
_atom_site_type_symbol
_atom_site_label
_atom_site_fract_x
_atom_site_fract_y
_atom_site_fract_z
Si Si1 0.638427 0.306305 0.478698
Si Si2 0.843305 0.652108 0.669527
Si Si3 0.562275 0.013759 0.123654
Si Si4 0.842013 0.815589 0.147788
Si Si5 0.175814 0.653107 0.498436
Si Si6 0.508179 0.581719 0.582348
O O1 0.621248 0.226747 0.575274
O O2 0.641885 0.288778 0.310299
O O3 0.723957 0.351914 0.524042
O O4 0.560089 0.363951 0.497431
O O5 0.891068 0.570189 0.641766
O O6 0.747323 0.643661 0.625279
O O7 0.851155 0.663600 0.838196
O O8 0.500000 0.040809 0.250000
O O9 0.500000 0.000000 0.000000
O O10 0.632304 0.079450 0.084227
O O11 0.901813 0.878475 0.069239
O O12 0.857967 0.733826 0.067392
O O13 0.500000 0.566655 0.750000
O O14 0.500000 0.500000 0.500000
#
# Coordination Sequence:
#
# PCOD8247649 Si02
#       6
#     8   8   8   8   8   8
#     4   9  21  40  64  88 120 160 199 251 301 362
#     4  10  22  41  60  88 122 157 204 249 304 363
#     4  12  26  40  59  91 124 163 205 256 309 367
#     4   9  21  40  63  87 119 161 199 250 301 363
#     4  10  22  41  61  89 122 158 204 246 309 363
#     4  10  22  38  59  89 118 152 198 242 296 353
#
# _framework density 19.214945
#
# number of rings (size 3 to 8) (size 9 to 14) (size 15 to 20)
#    0.000    2.000    1.667    0.000    7.000    2.000 
#    0.000    0.000    0.000    0.000    0.000    0.000 
#    0.000    0.000    0.000    0.000    0.000    0.000 
#
# Total GULP energy -594665.087914 kJ/mol
# GULP energy per Si atom -12388.855998 kJ/mol
# Density = 1.917121 g / cm^3
# Si number density = 19.214945 Si / 1000 Ang^3
#
#
#
# Elastic Constant Matrix: (Units=GPa)
#
#
# Indices 1 2 3 4 5 6 
#
# 1 115.4143 85.5637 50.3867 0.0000 0.0000 0.0000
# 2 85.5637 141.5356 61.7487 0.0000 0.0000 0.0000
# 3 50.3867 61.7487 83.1531 0.0000 0.0000 0.0000
# 4 0.0000 0.0000 0.0000 39.1002 0.0000 0.0000
# 5 0.0000 0.0000 0.0000 0.0000 31.1854 0.0000
# 6 0.0000 0.0000 0.0000 0.0000 0.0000 85.6325
#
#
#
# Elastic Compliance Matrix: (Units=1/GPa)
#
#
# Indices 1 2 3 4 5 6 
#
# 1 0.016487 -0.008296 -0.003830 0.000000 0.000000 0.000000
# 2 -0.008296 0.014626 -0.005834 0.000000 0.000000 0.000000
# 3 -0.003830 -0.005834 0.018679 0.000000 0.000000 0.000000
# 4 0.000000 0.000000 0.000000 0.025575 0.000000 0.000000
# 5 0.000000 0.000000 0.000000 0.000000 0.032066 0.000000
# 6 0.000000 0.000000 0.000000 0.000000 0.000000 0.011678
#
#
# Mechanical properties :
#
#
# Convention : Reuss Voigt Hill
#
# Bulk Modulus (GPa) = 72.08713 81.72237 76.90475
# Shear Modulus (GPa) = 31.31765 40.67720 35.99742
#
# Velocity S-wave (km/s) = 4.04153 4.60603 4.33298
# Velocity P-wave (km/s) = 7.70560 8.42083 8.07114
#
# Compressibility (1/GPa) = 0.01387210
#
# Stress axis : x y z
#
# Youngs Moduli (GPa) = 60.65479 68.37157 53.53659
#
# Poissons Ratio (x) = 0.56722 0.20502
# Poissons Ratio (y) = 0.50320 0.31233
# Poissons Ratio (z) = 0.23228 0.39888
#
# Static dielectric constant tensor:
#      x y z
#    x 3.972320 0.000000 0.000000 
#    y 0.000000 3.613780 0.000000 
#    z 0.000000 0.000000 3.607410 
# 
# 
# High freq. dielectric constant tensor:
#      x y z
#    x 1.763680 0.000000 0.000000 
#    y 0.000000 1.746050 0.000000 
#    z 0.000000 0.000000 1.757010 
# 
# From -- ./inp_files/6695.got.cif
#   From: 2010.03.12/outbox.cif.g09.slc.cpg/sg60_4_cif.got.tgz:6695.got - 2010.04.10 18:46:24.
