data_PCOD8247965
_publ_section_title
;
Structure prediction by ZEFSAII (Michael W. Deem and Ramdas Pophale) SiO2 
 PCOD8247965
Probable space group: P B C N
;
_chemical_formula_sum "Si O2"
_cell_formula_units_Z 24
_cell_length_a 7.899067
_cell_length_b 9.832602
_cell_length_c 13.303339
_cell_angle_alpha 90.000000
_cell_angle_beta 90.000000
_cell_angle_gamma 90.000000
_cell_volume 1033.248815
_symmetry_space_group_name_H-M "P B C N"
_symmetry_group_IT_number 60
_symmetry_cell_setting 'orthorhombic'
loop_
_space_group_symop_operation_xyz
x,y,z
1/2-x,1/2-y,1/2+z
1/2+x,1/2-y,-z
-x,y,1/2-z
-x,-y,-z
1/2+x,1/2+y,1/2-z
1/2-x,1/2+y,z
x,-y,1/2+z
loop_
_atom_site_type_symbol
_atom_site_label
_atom_site_fract_x
_atom_site_fract_y
_atom_site_fract_z
Si Si1 0.298429 0.496101 0.256504
Si Si2 0.819932 0.738338 0.363219
Si Si3 0.381667 0.615497 0.953498
O O1 0.500000 0.526002 0.250000
O O2 0.189403 0.626805 0.225138
O O3 0.240755 0.377178 0.180413
O O4 0.256259 0.454930 0.371959
O O5 0.720198 0.690729 0.460758
O O6 0.012983 0.768887 0.393980
O O7 0.500000 0.500000 0.000000
#
# Coordination Sequence:
#
# PCOD8247965 Si02
#       3
#     8   8   8
#     4  10  23  42  65  99 140 173 225 283 332 402
#     4  11  23  44  73  99 137 186 219 287 345 397
#     4  11  24  46  70  99 143 173 230 285 339 403
#
# _framework density 23.227706999999999
#
# number of rings (size 3 to 8) (size 9 to 14) (size 15 to 20)
#    0.000    1.333    6.667    0.000    4.667    1.333 
#    0.000    5.000    0.000    0.000    0.000    0.000 
#    0.000    0.000    0.000    0.000    0.000    0.000 
#
# Total GULP energy -297550.332966 kJ/mol
# GULP energy per Si atom -12397.930540 kJ/mol
# Density = 2.317484 g / cm^3
# Si number density = 23.227707 Si / 1000 Ang^3
#
#
#
# Elastic Constant Matrix: (Units=GPa)
#
#
# Indices 1 2 3 4 5 6 
#
# 1 43.8784 48.8222 46.9351 0.0000 0.0000 0.0000
# 2 48.8222 145.2584 58.3486 0.0000 0.0000 0.0000
# 3 46.9351 58.3486 147.3701 0.0000 0.0000 0.0000
# 4 0.0000 0.0000 0.0000 39.8436 0.0000 0.0000
# 5 0.0000 0.0000 0.0000 0.0000 46.3086 0.0000
# 6 0.0000 0.0000 0.0000 0.0000 0.0000 35.8275
#
#
#
# Elastic Compliance Matrix: (Units=1/GPa)
#
#
# Indices 1 2 3 4 5 6 
#
# 1 0.046631 -0.011543 -0.010281 0.000000 0.000000 0.000000
# 2 -0.011543 0.011044 -0.000696 0.000000 0.000000 0.000000
# 3 -0.010281 -0.000696 0.010336 0.000000 0.000000 0.000000
# 4 0.000000 0.000000 0.000000 0.025098 0.000000 0.000000
# 5 0.000000 0.000000 0.000000 0.000000 0.021594 0.000000
# 6 0.000000 0.000000 0.000000 0.000000 0.000000 0.027911
#
#
# Mechanical properties :
#
#
# Convention : Reuss Voigt Hill
#
# Bulk Modulus (GPa) = 43.53561 71.63540 57.58550
# Shear Modulus (GPa) = 25.60002 36.55602 31.07802
#
# Velocity S-wave (km/s) = 3.32344 3.97143 3.66180
# Velocity P-wave (km/s) = 5.78884 7.20674 6.53635
#
# Compressibility (1/GPa) = 0.02296970
#
# Stress axis : x y z
#
# Youngs Moduli (GPa) = 21.44475 90.54926 96.75262
#
# Poissons Ratio (x) = 1.04524 0.99472
# Poissons Ratio (y) = 0.24754 0.06736
# Poissons Ratio (z) = 0.22047 0.06304
#
# Static dielectric constant tensor:
#      x y z
#    x 6.755360 0.000000 0.000000 
#    y 0.000000 4.501440 0.000000 
#    z 0.000000 0.000000 4.866270 
# 
# 
# High freq. dielectric constant tensor:
#      x y z
#    x 1.872950 0.000000 0.000000 
#    y 0.000000 1.929210 0.000000 
#    z 0.000000 0.000000 1.952120 
# 
# From -- ./inp_files/14181.got.cif
#   From: 2010.03.12/outbox.cif.g09.slc.cpg/sg60_8_cif.got.tgz:14181.got - 2010.04.10 18:46:24.
