data_PCOD8247838
_publ_section_title
;
Structure prediction by ZEFSAII (Michael W. Deem and Ramdas Pophale) SiO2 
 PCOD8247838
Probable space group: P B C N
;
_chemical_formula_sum "Si O2"
_cell_formula_units_Z 52
_cell_length_a 13.425346
_cell_length_b 9.431484
_cell_length_c 18.754239
_cell_angle_alpha 90.000000
_cell_angle_beta 90.000000
_cell_angle_gamma 90.000000
_cell_volume 2374.679296
_symmetry_space_group_name_H-M "P B C N"
_symmetry_group_IT_number 60
_symmetry_cell_setting 'orthorhombic'
loop_
_space_group_symop_operation_xyz
x,y,z
1/2-x,1/2-y,1/2+z
1/2+x,1/2-y,-z
-x,y,1/2-z
-x,-y,-z
1/2+x,1/2+y,1/2-z
1/2-x,1/2+y,z
x,-y,1/2+z
loop_
_atom_site_type_symbol
_atom_site_label
_atom_site_fract_x
_atom_site_fract_y
_atom_site_fract_z
Si Si1 0.631558 0.037621 0.148597
Si Si2 0.759901 0.984430 0.391001
Si Si3 0.655548 0.742625 0.308819
Si Si4 0.313610 0.729073 0.358522
Si Si5 0.588780 0.609019 0.006614
Si Si6 0.000000 0.407494 0.250000
Si Si7 0.450685 0.096473 0.058457
O O1 0.680390 0.893752 0.114909
O O2 0.600387 0.996279 0.229936
O O3 0.700801 0.172337 0.136900
O O4 0.522425 0.084331 0.125214
O O5 0.739155 0.850778 0.339077
O O6 0.813974 0.938595 0.463293
O O7 0.831504 0.094651 0.349580
O O8 0.658891 0.054249 0.417747
O O9 0.659273 0.712510 0.224103
O O10 0.542784 0.809584 0.316670
O O11 0.381642 0.633860 0.410631
O O12 0.500000 0.500000 0.000000
O O13 0.545567 0.747526 0.971076
O O14 0.500000 0.000000 0.000000
#
# Coordination Sequence:
#
# PCOD8247838 Si02
#       7
#     8   8   8   8   8   4   8
#     4  11  24  43  74  99 144 184 241 299 365 435
#     4  12  26  48  74 108 148 195 246 310 375 442
#     4  11  24  46  73 103 147 195 243 301 374 439
#     4  11  26  47  70 110 141 195 241 307 370 442
#     4  12  30  46  73 112 149 192 250 313 369 448
#     4  10  22  42  74 104 140 192 242 292 372 444
#     4  12  25  47  74 102 140 192 244 292 368 437
#
# _framework density 21.897694000000001
#
# number of rings (size 3 to 8) (size 9 to 14) (size 15 to 20)
#    0.000    0.615    4.615    2.769    8.615    0.000 
#    0.000    0.000    0.000    0.000    0.000    0.000 
#    0.000    0.000    0.000    0.000    0.000    0.000 
#
# Total GULP energy -644271.463415 kJ/mol
# GULP energy per Si atom -12389.835835 kJ/mol
# Density = 2.184785 g / cm^3
# Si number density = 21.897694 Si / 1000 Ang^3
#
#
#
# Elastic Constant Matrix: (Units=GPa)
#
#
# Indices 1 2 3 4 5 6 
#
# 1 124.0336 57.5322 37.1343 0.0000 0.0000 0.0000
# 2 57.5322 130.6465 45.1281 0.0000 0.0000 0.0000
# 3 37.1343 45.1281 116.2862 0.0000 0.0000 0.0000
# 4 0.0000 0.0000 0.0000 32.2883 0.0000 0.0000
# 5 0.0000 0.0000 0.0000 0.0000 45.0282 0.0000
# 6 0.0000 0.0000 0.0000 0.0000 0.0000 44.9957
#
#
#
# Elastic Compliance Matrix: (Units=1/GPa)
#
#
# Indices 1 2 3 4 5 6 
#
# 1 0.010445 -0.003981 -0.001790 0.000000 0.000000 0.000000
# 2 -0.003981 0.010357 -0.002748 0.000000 0.000000 0.000000
# 3 -0.001790 -0.002748 0.010238 0.000000 0.000000 0.000000
# 4 0.000000 0.000000 0.000000 0.030971 0.000000 0.000000
# 5 0.000000 0.000000 0.000000 0.000000 0.022208 0.000000
# 6 0.000000 0.000000 0.000000 0.000000 0.000000 0.022224
#
#
# Mechanical properties :
#
#
# Convention : Reuss Voigt Hill
#
# Bulk Modulus (GPa) = 71.42715 72.28395 71.85555
# Shear Modulus (GPa) = 39.01723 39.87388 39.44555
#
# Velocity S-wave (km/s) = 4.22571 4.27185 4.24884
# Velocity P-wave (km/s) = 7.51653 7.57714 7.54690
#
# Compressibility (1/GPa) = 0.01400028
#
# Stress axis : x y z
#
# Youngs Moduli (GPa) = 95.73954 96.55710 97.67912
#
# Poissons Ratio (x) = 0.38441 0.17489
# Poissons Ratio (y) = 0.38115 0.26841
# Poissons Ratio (z) = 0.17142 0.26532
#
# Static dielectric constant tensor:
#      x y z
#    x 3.825960 0.000000 0.000000 
#    y 0.000000 3.986630 0.000000 
#    z 0.000000 0.000000 4.127650 
# 
# 
# High freq. dielectric constant tensor:
#      x y z
#    x 1.870750 0.000000 0.000000 
#    y 0.000000 1.864570 0.000000 
#    z 0.000000 0.000000 1.867950 
# 
# From -- ./inp_files/22845.got.cif
#   From: 2010.03.12/outbox.cif.g09.slc.cpg/sg60_12_cif.got.tgz:22845.got - 2010.04.10 18:46:24.
