data_PCOD8247894
_publ_section_title
;
Structure prediction by ZEFSAII (Michael W. Deem and Ramdas Pophale) SiO2 
 PCOD8247894
Probable space group: P B C N
;
_chemical_formula_sum "Si O2"
_cell_formula_units_Z 36
_cell_length_a 7.512388
_cell_length_b 8.984766
_cell_length_c 21.056937
_cell_angle_alpha 90.000000
_cell_angle_beta 90.000000
_cell_angle_gamma 90.000000
_cell_volume 1421.281093
_symmetry_space_group_name_H-M "P B C N"
_symmetry_group_IT_number 60
_symmetry_cell_setting 'orthorhombic'
loop_
_space_group_symop_operation_xyz
x,y,z
1/2-x,1/2-y,1/2+z
1/2+x,1/2-y,-z
-x,y,1/2-z
-x,-y,-z
1/2+x,1/2+y,1/2-z
1/2-x,1/2+y,z
x,-y,1/2+z
loop_
_atom_site_type_symbol
_atom_site_label
_atom_site_fract_x
_atom_site_fract_y
_atom_site_fract_z
Si Si1 0.581424 0.196394 0.639145
Si Si2 0.622220 0.623537 0.936239
Si Si3 0.279899 0.872547 0.641912
Si Si4 0.000000 0.506646 0.750000
Si Si5 0.241848 0.046992 0.433633
O O1 0.384156 0.259136 0.644868
O O2 0.713708 0.332483 0.623053
O O3 0.623926 0.113797 0.705768
O O4 0.596704 0.063693 0.585687
O O5 0.590614 0.791920 0.909823
O O6 0.724302 0.533231 0.881839
O O7 0.428742 0.557538 0.946438
O O8 0.751931 0.630950 0.998487
O O9 0.373396 0.897284 0.709523
#
# Coordination Sequence:
#
# PCOD8247894 Si02
#       5
#     8   8   8   4   8
#     4  11  26  45  72 108 143 203 243 311 373 452
#     4  10  22  45  70 110 147 189 243 318 377 450
#     4  11  24  46  71 104 145 198 247 304 376 439
#     4  12  28  46  70 104 154 202 256 304 358 466
#     4  10  24  43  73 110 146 187 252 306 389 444
#
# _framework density 25.329262
#
# number of rings (size 3 to 8) (size 9 to 14) (size 15 to 20)
#    0.000    1.333    2.222    1.333    6.222    0.889 
#    0.000    0.000    0.000    0.000    0.000    0.000 
#    0.000    0.000    0.000    0.000    0.000    0.000 
#
# Total GULP energy -446061.144587 kJ/mol
# GULP energy per Si atom -12390.587350 kJ/mol
# Density = 2.527161 g / cm^3
# Si number density = 25.329262 Si / 1000 Ang^3
#
#
#
# Elastic Constant Matrix: (Units=GPa)
#
#
# Indices 1 2 3 4 5 6 
#
# 1 65.4442 40.4868 49.7260 0.0000 0.0000 0.0000
# 2 40.4868 111.9292 33.3823 0.0000 0.0000 0.0000
# 3 49.7260 33.3823 146.1945 0.0000 0.0000 0.0000
# 4 0.0000 0.0000 0.0000 57.3350 0.0000 0.0000
# 5 0.0000 0.0000 0.0000 0.0000 42.6317 0.0000
# 6 0.0000 0.0000 0.0000 0.0000 0.0000 16.6556
#
#
#
# Elastic Compliance Matrix: (Units=1/GPa)
#
#
# Indices 1 2 3 4 5 6 
#
# 1 0.024756 -0.006914 -0.006842 0.000000 0.000000 0.000000
# 2 -0.006914 0.011518 -0.000278 0.000000 0.000000 0.000000
# 3 -0.006842 -0.000278 0.009231 0.000000 0.000000 0.000000
# 4 0.000000 0.000000 0.000000 0.017441 0.000000 0.000000
# 5 0.000000 0.000000 0.000000 0.000000 0.023457 0.000000
# 6 0.000000 0.000000 0.000000 0.000000 0.000000 0.060040
#
#
# Mechanical properties :
#
#
# Convention : Reuss Voigt Hill
#
# Bulk Modulus (GPa) = 57.34996 63.41755 60.38375
# Shear Modulus (GPa) = 27.72791 36.65597 32.19194
#
# Velocity S-wave (km/s) = 3.31221 3.80831 3.56889
# Velocity P-wave (km/s) = 6.10890 6.66553 6.39327
#
# Compressibility (1/GPa) = 0.01743681
#
# Stress axis : x y z
#
# Youngs Moduli (GPa) = 40.39413 86.81889 108.33260
#
# Poissons Ratio (x) = 0.60029 0.74117
# Poissons Ratio (y) = 0.27929 0.03015
# Poissons Ratio (z) = 0.27636 0.02416
#
# Static dielectric constant tensor:
#      x y z
#    x 4.415100 0.000000 0.000000 
#    y 0.000000 4.945880 0.000000 
#    z 0.000000 0.000000 4.683000 
# 
# 
# High freq. dielectric constant tensor:
#      x y z
#    x 1.998500 0.000000 0.000000 
#    y 0.000000 2.040650 0.000000 
#    z 0.000000 0.000000 2.000640 
# 
# From -- ./inp_files/21904.got.cif
#   From: 2010.03.12/outbox.cif.g09.slc.cpg/sg60_11_cif.got.tgz:21904.got - 2010.04.10 18:46:24.
