data_PCOD8247072
_publ_section_title
;
Structure prediction by ZEFSAII (Michael W. Deem and Ramdas Pophale) SiO2 
 PCOD8247072
Probable space group: P B C N
;
_chemical_formula_sum "Si O2"
_cell_formula_units_Z 48
_cell_length_a 15.836278
_cell_length_b 9.439743
_cell_length_c 15.027455
_cell_angle_alpha 90.000000
_cell_angle_beta 90.000000
_cell_angle_gamma 90.000000
_cell_volume 2246.460175
_symmetry_space_group_name_H-M "P B C N"
_symmetry_group_IT_number 60
_symmetry_cell_setting 'orthorhombic'
loop_
_space_group_symop_operation_xyz
x,y,z
1/2-x,1/2-y,1/2+z
1/2+x,1/2-y,-z
-x,y,1/2-z
-x,-y,-z
1/2+x,1/2+y,1/2-z
1/2-x,1/2+y,z
x,-y,1/2+z
loop_
_atom_site_type_symbol
_atom_site_label
_atom_site_fract_x
_atom_site_fract_y
_atom_site_fract_z
Si Si1 0.919521 0.169847 0.495525
Si Si2 0.352952 0.600909 0.814517
Si Si3 0.284653 0.679221 0.366247
Si Si4 0.860502 0.077898 0.880221
Si Si5 0.404819 0.184311 0.993801
Si Si6 0.805486 0.581265 0.966632
O O1 0.913151 0.121407 0.599436
O O2 0.838550 0.257122 0.460544
O O3 0.997442 0.276136 0.483806
O O4 0.923006 0.031327 0.432533
O O5 0.282373 0.722673 0.816682
O O6 0.320386 0.439946 0.801034
O O7 0.397436 0.611238 0.717957
O O8 0.358894 0.782157 0.400574
O O9 0.248761 0.575779 0.443207
O O10 0.862176 0.226564 0.929137
O O11 0.759486 0.037164 0.886694
O O12 0.386413 0.022504 0.023089
#
# Coordination Sequence:
#
# PCOD8247072 Si02
#       6
#     8   8   8   8   8   8
#     4  11  23  41  62  93 126 169 200 259 326 367
#     4  11  23  38  64  91 125 160 213 257 305 371
#     4  10  20  39  62  88 119 163 202 256 309 358
#     4  11  23  38  66  91 122 161 216 255 308 373
#     4  11  21  40  62  91 126 161 204 260 315 377
#     4  10  20  40  63  88 119 162 212 251 304 377
#
# _framework density 21.366948000000001
#
# number of rings (size 3 to 8) (size 9 to 14) (size 15 to 20)
#    0.000    1.333    5.000    3.000    4.667    0.667 
#    0.000    0.000    0.000    0.000    0.000    0.000 
#    0.000    0.000    0.000    0.000    0.000    0.000 
#
# Total GULP energy -594701.020689 kJ/mol
# GULP energy per Si atom -12389.604598 kJ/mol
# Density = 2.131832 g / cm^3
# Si number density = 21.366948 Si / 1000 Ang^3
#
#
#
# Elastic Constant Matrix: (Units=GPa)
#
#
# Indices 1 2 3 4 5 6 
#
# 1 66.4429 -0.8017 26.6307 0.0000 0.0000 0.0000
# 2 -0.8017 82.5296 22.6120 0.0000 0.0000 0.0000
# 3 26.6307 22.6120 99.8471 0.0000 0.0000 0.0000
# 4 0.0000 0.0000 0.0000 15.8154 0.0000 0.0000
# 5 0.0000 0.0000 0.0000 0.0000 14.5559 0.0000
# 6 0.0000 0.0000 0.0000 0.0000 0.0000 35.1997
#
#
#
# Elastic Compliance Matrix: (Units=1/GPa)
#
#
# Indices 1 2 3 4 5 6 
#
# 1 0.017025 0.001503 -0.004881 0.000000 0.000000 0.000000
# 2 0.001503 0.013051 -0.003356 0.000000 0.000000 0.000000
# 3 -0.004881 -0.003356 0.012077 0.000000 0.000000 0.000000
# 4 0.000000 0.000000 0.000000 0.063230 0.000000 0.000000
# 5 0.000000 0.000000 0.000000 0.000000 0.068701 0.000000
# 6 0.000000 0.000000 0.000000 0.000000 0.000000 0.028409
#
#
# Mechanical properties :
#
#
# Convention : Reuss Voigt Hill
#
# Bulk Modulus (GPa) = 34.86295 38.41129 36.63712
# Shear Modulus (GPa) = 22.17060 26.47277 24.32168
#
# Velocity S-wave (km/s) = 3.22469 3.52370 3.37751
# Velocity P-wave (km/s) = 5.49696 5.87974 5.69157
#
# Compressibility (1/GPa) = 0.02868375
#
# Stress axis : x y z
#
# Youngs Moduli (GPa) = 58.73706 76.62204 82.79995
#
# Poissons Ratio (x) = -0.11514 0.40416
# Poissons Ratio (y) = -0.08827 0.27791
# Poissons Ratio (z) = 0.28670 0.25718
#
# Static dielectric constant tensor:
#      x y z
#    x 3.832440 0.000000 0.000000 
#    y 0.000000 3.798710 0.000000 
#    z 0.000000 0.000000 3.696050 
# 
# 
# High freq. dielectric constant tensor:
#      x y z
#    x 1.828440 0.000000 0.000000 
#    y 0.000000 1.852160 0.000000 
#    z 0.000000 0.000000 1.810800 
# 
# From -- ./inp_files/17330.got.cif
#   From: 2010.03.12/outbox.cif.g09.slc.cpg/sg60_9_cif.got.tgz:17330.got - 2010.04.10 18:46:24.
