data_PCOD8247415
_publ_section_title
;
Structure prediction by ZEFSAII (Michael W. Deem and Ramdas Pophale) SiO2 
 PCOD8247415
Probable space group: P B C N
;
_chemical_formula_sum "Si O2"
_cell_formula_units_Z 40
_cell_length_a 11.843763
_cell_length_b 12.412070
_cell_length_c 13.813544
_cell_angle_alpha 90.000000
_cell_angle_beta 90.000000
_cell_angle_gamma 90.000000
_cell_volume 2030.668537
_symmetry_space_group_name_H-M "P B C N"
_symmetry_group_IT_number 60
_symmetry_cell_setting 'orthorhombic'
loop_
_space_group_symop_operation_xyz
x,y,z
1/2-x,1/2-y,1/2+z
1/2+x,1/2-y,-z
-x,y,1/2-z
-x,-y,-z
1/2+x,1/2+y,1/2-z
1/2-x,1/2+y,z
x,-y,1/2+z
loop_
_atom_site_type_symbol
_atom_site_label
_atom_site_fract_x
_atom_site_fract_y
_atom_site_fract_z
Si Si1 0.769196 0.383512 0.165062
Si Si2 0.161897 0.709798 0.452888
Si Si3 0.114448 0.936233 0.495812
Si Si4 0.278591 0.061001 0.613688
Si Si5 0.978457 0.476816 0.641860
O O1 0.745323 0.259840 0.130580
O O2 0.751399 0.395486 0.279582
O O3 0.895849 0.419811 0.138590
O O4 0.683081 0.461526 0.104781
O O5 0.090727 0.808076 0.500804
O O6 0.238766 0.657534 0.536884
O O7 0.072523 0.625820 0.411501
O O8 0.189694 0.967764 0.588739
O O9 0.000000 0.000000 0.500000
O O10 0.403855 0.013723 0.595521
O O11 0.000000 0.437276 0.750000
#
# Coordination Sequence:
#
# PCOD8247415 Si02
#       5
#     8   8   8   8   8
#     4   9  23  41  61  96 125 162 216 263 320 382
#     4  10  21  39  63  95 122 169 209 260 320 386
#     4  10  24  40  60  92 130 167 209 266 319 379
#     4  11  22  41  68  89 133 166 215 265 320 381
#     4  10  21  41  67  94 124 167 213 266 313 386
#
# _framework density 19.697946999999999
#
# number of rings (size 3 to 8) (size 9 to 14) (size 15 to 20)
#    1.200    0.800    2.000    0.600    0.000    8.800 
#    0.000    0.000    0.000    0.000    0.000    0.000 
#    0.000    0.000    0.000    0.000    0.000    0.000 
#
# Total GULP energy -495671.140200 kJ/mol
# GULP energy per Si atom -12391.778505 kJ/mol
# Density = 1.965311 g / cm^3
# Si number density = 19.697947 Si / 1000 Ang^3
#
#
#
# Elastic Constant Matrix: (Units=GPa)
#
#
# Indices 1 2 3 4 5 6 
#
# 1 104.5575 27.8128 55.0178 0.0000 0.0000 0.0000
# 2 27.8128 94.0571 61.8424 0.0000 0.0000 0.0000
# 3 55.0178 61.8424 135.2344 0.0000 0.0000 0.0000
# 4 0.0000 0.0000 0.0000 33.3792 0.0000 0.0000
# 5 0.0000 0.0000 0.0000 0.0000 30.6170 0.0000
# 6 0.0000 0.0000 0.0000 0.0000 0.0000 18.9636
#
#
#
# Elastic Compliance Matrix: (Units=1/GPa)
#
#
# Indices 1 2 3 4 5 6 
#
# 1 0.012185 -0.000492 -0.004733 0.000000 0.000000 0.000000
# 2 -0.000492 0.015223 -0.006761 0.000000 0.000000 0.000000
# 3 -0.004733 -0.006761 0.012412 0.000000 0.000000 0.000000
# 4 0.000000 0.000000 0.000000 0.029959 0.000000 0.000000
# 5 0.000000 0.000000 0.000000 0.000000 0.032662 0.000000
# 6 0.000000 0.000000 0.000000 0.000000 0.000000 0.052733
#
#
# Mechanical properties :
#
#
# Convention : Reuss Voigt Hill
#
# Bulk Modulus (GPa) = 63.09582 69.24389 66.16986
# Shear Modulus (GPa) = 27.11107 29.20369 28.15738
#
# Velocity S-wave (km/s) = 3.71393 3.85460 3.78492
# Velocity P-wave (km/s) = 7.10579 7.41888 7.26402
#
# Compressibility (1/GPa) = 0.01584891
#
# Stress axis : x y z
#
# Youngs Moduli (GPa) = 82.06738 65.69102 80.56796
#
# Poissons Ratio (x) = 0.03229 0.38129
# Poissons Ratio (y) = 0.04034 0.54475
# Poissons Ratio (z) = 0.38839 0.44416
#
# Static dielectric constant tensor:
#      x y z
#    x 3.474100 0.000000 0.000000 
#    y 0.000000 3.529780 0.000000 
#    z 0.000000 0.000000 3.783840 
# 
# 
# High freq. dielectric constant tensor:
#      x y z
#    x 1.758300 0.000000 0.000000 
#    y 0.000000 1.760030 0.000000 
#    z 0.000000 0.000000 1.776700 
# 
# From -- ./inp_files/15849.got.cif
#   From: 2010.03.12/outbox.cif.g09.slc.cpg/sg60_8_cif.got.tgz:15849.got - 2010.04.10 18:46:24.
