data_PCOD8247249
_publ_section_title
;
Structure prediction by ZEFSAII (Michael W. Deem and Ramdas Pophale) SiO2 
 PCOD8247249
Probable space group: P B C N
;
_chemical_formula_sum "Si O2"
_cell_formula_units_Z 32
_cell_length_a 16.674055
_cell_length_b 19.642840
_cell_length_c 4.843734
_cell_angle_alpha 90.000000
_cell_angle_beta 90.000000
_cell_angle_gamma 90.000000
_cell_volume 1586.447827
_symmetry_space_group_name_H-M "P B C N"
_symmetry_group_IT_number 60
_symmetry_cell_setting 'orthorhombic'
loop_
_space_group_symop_operation_xyz
x,y,z
1/2-x,1/2-y,1/2+z
1/2+x,1/2-y,-z
-x,y,1/2-z
-x,-y,-z
1/2+x,1/2+y,1/2-z
1/2-x,1/2+y,z
x,-y,1/2+z
loop_
_atom_site_type_symbol
_atom_site_label
_atom_site_fract_x
_atom_site_fract_y
_atom_site_fract_z
Si Si1 0.653945 0.788643 0.009056
Si Si2 0.500000 0.732612 0.750000
Si Si3 0.500000 0.358388 0.750000
Si Si4 0.358962 0.546537 0.400276
Si Si5 0.739107 0.840996 0.517069
O O1 0.563220 0.781866 0.904131
O O2 0.702773 0.840172 0.819717
O O3 0.689686 0.713146 0.985528
O O4 0.665830 0.823225 0.308670
O O5 0.538649 0.687767 0.497766
O O6 0.565952 0.402313 0.586268
O O7 0.363526 0.479490 0.586642
O O8 0.278383 0.584525 0.502998
#
# Coordination Sequence:
#
# PCOD8247249 Si02
#       5
#     8   4   4   8   8
#     4  10  21  36  60  83 116 149 199 248 309 349
#     4  12  22  37  62  92 120 161 190 252 312 370
#     4  12  24  37  56  88 130 161 204 232 286 372
#     4  12  24  39  58  84 123 170 207 236 283 354
#     4  10  21  38  56  84 114 156 201 249 290 350
#
# _framework density 20.170850000000002
#
# number of rings (size 3 to 8) (size 9 to 14) (size 15 to 20)
#    0.000    1.000    2.500    5.250    7.000    0.000 
#    0.000    0.000    0.000    0.000    0.000   17.500 
#    0.000    0.000    0.000    0.000    0.000    0.000 
#
# Total GULP energy -396591.530709 kJ/mol
# GULP energy per Si atom -12393.485335 kJ/mol
# Density = 2.012494 g / cm^3
# Si number density = 20.170850 Si / 1000 Ang^3
#
#
#
# Elastic Constant Matrix: (Units=GPa)
#
#
# Indices 1 2 3 4 5 6 
#
# 1 79.3266 37.1714 7.2664 0.0000 0.0000 0.0000
# 2 37.1714 62.8007 21.3335 0.0000 0.0000 0.0000
# 3 7.2664 21.3335 81.2481 0.0000 0.0000 0.0000
# 4 0.0000 0.0000 0.0000 45.9975 0.0000 0.0000
# 5 0.0000 0.0000 0.0000 0.0000 5.2047 0.0000
# 6 0.0000 0.0000 0.0000 0.0000 0.0000 19.1829
#
#
#
# Elastic Compliance Matrix: (Units=1/GPa)
#
#
# Indices 1 2 3 4 5 6 
#
# 1 0.017563 -0.010828 0.001272 0.000000 0.000000 0.000000
# 2 -0.010828 0.024158 -0.005375 0.000000 0.000000 0.000000
# 3 0.001272 -0.005375 0.013605 0.000000 0.000000 0.000000
# 4 0.000000 0.000000 0.000000 0.021740 0.000000 0.000000
# 5 0.000000 0.000000 0.000000 0.000000 0.192133 0.000000
# 6 0.000000 0.000000 0.000000 0.000000 0.000000 0.052130
#
#
# Mechanical properties :
#
#
# Convention : Reuss Voigt Hill
#
# Bulk Modulus (GPa) = 39.26776 39.43533 39.35155
# Shear Modulus (GPa) = 13.90125 24.58397 19.24261
#
# Velocity S-wave (km/s) = 2.62806 3.49490 3.09201
# Velocity P-wave (km/s) = 5.35899 5.98990 5.68321
#
# Compressibility (1/GPa) = 0.02546619
#
# Stress axis : x y z
#
# Youngs Moduli (GPa) = 56.93674 41.39381 73.49973
#
# Poissons Ratio (x) = 0.44821 -0.09352
# Poissons Ratio (y) = 0.61650 0.39505
# Poissons Ratio (z) = -0.07244 0.22249
#
# Static dielectric constant tensor:
#      x y z
#    x 3.346500 0.000000 0.000000 
#    y 0.000000 3.402050 0.000000 
#    z 0.000000 0.000000 3.904940 
# 
# 
# High freq. dielectric constant tensor:
#      x y z
#    x 1.764770 0.000000 0.000000 
#    y 0.000000 1.756370 0.000000 
#    z 0.000000 0.000000 1.814090 
# 
# From -- ./inp_files/1050.got.cif
#   From: 2010.03.12/outbox.cif.g09.slc.cpg/sg60_1_cif.got.tgz:1050.got - 2010.04.10 18:46:24.
