data_PCOD8247533
_publ_section_title
;
Structure prediction by ZEFSAII (Michael W. Deem and Ramdas Pophale) SiO2 
 PCOD8247533
Probable space group: P B C N
;
_chemical_formula_sum "Si O2"
_cell_formula_units_Z 56
_cell_length_a 19.908359
_cell_length_b 13.449282
_cell_length_c 9.207792
_cell_angle_alpha 90.000000
_cell_angle_beta 90.000000
_cell_angle_gamma 90.000000
_cell_volume 2465.415168
_symmetry_space_group_name_H-M "P B C N"
_symmetry_group_IT_number 60
_symmetry_cell_setting 'orthorhombic'
loop_
_space_group_symop_operation_xyz
x,y,z
1/2-x,1/2-y,1/2+z
1/2+x,1/2-y,-z
-x,y,1/2-z
-x,-y,-z
1/2+x,1/2+y,1/2-z
1/2-x,1/2+y,z
x,-y,1/2+z
loop_
_atom_site_type_symbol
_atom_site_label
_atom_site_fract_x
_atom_site_fract_y
_atom_site_fract_z
Si Si1 0.073344 0.486467 0.214333
Si Si2 0.664908 0.039075 0.025884
Si Si3 0.086246 0.060960 0.144258
Si Si4 0.294607 0.775078 0.810057
Si Si5 0.566546 0.214645 0.331880
Si Si6 0.769081 0.126057 0.452237
Si Si7 0.050278 0.120996 0.460328
O O1 0.121407 0.485355 0.351870
O O2 0.064392 0.596416 0.144596
O O3 0.000000 0.441114 0.250000
O O4 0.111025 0.420524 0.092658
O O5 0.709377 0.129286 0.084670
O O6 0.714492 0.961218 0.948403
O O7 0.157682 0.083272 0.075447
O O8 0.089327 0.078499 0.318623
O O9 0.028918 0.130709 0.074692
O O10 0.065108 0.948833 0.100437
O O11 0.371124 0.754686 0.767720
O O12 0.248452 0.793334 0.670458
O O13 0.266208 0.678660 0.891381
O O14 0.500000 0.252406 0.250000
O O15 0.573427 0.268808 0.489292
#
# Coordination Sequence:
#
# PCOD8247533 Si02
#       7
#     8   8   8   8   8   8   8
#     4  10  22  43  71  97 131 176 227 279 338 386
#     4  11  23  46  65 103 133 175 226 277 333 407
#     4  10  25  41  66 102 133 180 226 279 349 399
#     4  11  28  44  69 100 134 180 229 272 339 412
#     4  10  21  41  71  95 131 177 225 281 336 391
#     4  12  27  45  68  99 138 180 220 280 337 408
#     4  10  23  43  67  99 136 171 232 285 335 411
#
# _framework density 22.714227000000001
#
# number of rings (size 3 to 8) (size 9 to 14) (size 15 to 20)
#    0.000    1.429    2.857    1.286   12.000    0.000 
#    0.000    0.000    0.000    0.000    0.000    0.000 
#    0.000    0.000    0.000    0.000    0.000    0.000 
#
# Total GULP energy -694448.847032 kJ/mol
# GULP energy per Si atom -12400.872268 kJ/mol
# Density = 2.266253 g / cm^3
# Si number density = 22.714227 Si / 1000 Ang^3
#
#
#
# Elastic Constant Matrix: (Units=GPa)
#
#
# Indices 1 2 3 4 5 6 
#
# 1 110.8985 31.5072 30.3536 0.0000 0.0000 0.0000
# 2 31.5072 31.0702 19.8483 0.0000 0.0000 0.0000
# 3 30.3536 19.8483 99.8762 0.0000 0.0000 0.0000
# 4 0.0000 0.0000 0.0000 43.7334 0.0000 0.0000
# 5 0.0000 0.0000 0.0000 0.0000 30.0682 0.0000
# 6 0.0000 0.0000 0.0000 0.0000 0.0000 12.4649
#
#
#
# Elastic Compliance Matrix: (Units=1/GPa)
#
#
# Indices 1 2 3 4 5 6 
#
# 1 0.012862 -0.012079 -0.001508 0.000000 0.000000 0.000000
# 2 -0.012079 0.048209 -0.005910 0.000000 0.000000 0.000000
# 3 -0.001508 -0.005910 0.011645 0.000000 0.000000 0.000000
# 4 0.000000 0.000000 0.000000 0.022866 0.000000 0.000000
# 5 0.000000 0.000000 0.000000 0.000000 0.033258 0.000000
# 6 0.000000 0.000000 0.000000 0.000000 0.000000 0.080225
#
#
# Mechanical properties :
#
#
# Convention : Reuss Voigt Hill
#
# Bulk Modulus (GPa) = 29.65407 45.02924 37.34166
# Shear Modulus (GPa) = 19.28263 27.92902 23.60583
#
# Velocity S-wave (km/s) = 2.91679 3.51034 3.22724
# Velocity P-wave (km/s) = 4.94239 6.02472 5.51019
#
# Compressibility (1/GPa) = 0.03372218
#
# Stress axis : x y z
#
# Youngs Moduli (GPa) = 77.74890 20.74280 85.87209
#
# Poissons Ratio (x) = 0.25056 0.12953
# Poissons Ratio (y) = 0.93915 0.50747
# Poissons Ratio (z) = 0.11728 0.12258
#
# Static dielectric constant tensor:
#      x y z
#    x 4.194060 0.000000 0.000000 
#    y 0.000000 3.792620 0.000000 
#    z 0.000000 0.000000 4.176880 
# 
# 
# High freq. dielectric constant tensor:
#      x y z
#    x 1.907900 0.000000 0.000000 
#    y 0.000000 1.868930 0.000000 
#    z 0.000000 0.000000 1.904440 
# 
# From -- ./inp_files/7411.got.cif
#   From: 2010.03.12/outbox.cif.g09.slc.cpg/sg60_4_cif.got.tgz:7411.got - 2010.04.10 18:46:24.
