data_PCOD8247694
_publ_section_title
;
Structure prediction by ZEFSAII (Michael W. Deem and Ramdas Pophale) SiO2 
 PCOD8247694
Probable space group: P B C N
;
_chemical_formula_sum "Si O2"
_cell_formula_units_Z 56
_cell_length_a 20.763687
_cell_length_b 14.538815
_cell_length_c 8.806502
_cell_angle_alpha 90.000000
_cell_angle_beta 90.000000
_cell_angle_gamma 90.000000
_cell_volume 2658.501575
_symmetry_space_group_name_H-M "P B C N"
_symmetry_group_IT_number 60
_symmetry_cell_setting 'orthorhombic'
loop_
_space_group_symop_operation_xyz
x,y,z
1/2-x,1/2-y,1/2+z
1/2+x,1/2-y,-z
-x,y,1/2-z
-x,-y,-z
1/2+x,1/2+y,1/2-z
1/2-x,1/2+y,z
x,-y,1/2+z
loop_
_atom_site_type_symbol
_atom_site_label
_atom_site_fract_x
_atom_site_fract_y
_atom_site_fract_z
Si Si1 0.410641 0.808183 0.999993
Si Si2 0.823770 0.951500 0.646255
Si Si3 0.824078 0.628178 0.472336
Si Si4 0.676251 0.951497 0.646253
Si Si5 0.500000 0.738232 0.750000
Si Si6 0.089358 0.191837 0.499992
Si Si7 0.000000 0.261809 0.250000
Si Si8 0.324098 0.628179 0.027664
O O1 0.364359 0.893641 0.974938
O O2 0.461874 0.804402 0.864162
O O3 0.449523 0.824695 0.156608
O O4 0.370037 0.714462 0.008082
O O5 0.750011 0.927340 0.611228
O O6 0.864382 0.893646 0.525066
O O7 0.841860 0.926200 0.818165
O O8 0.836147 0.059468 0.613913
O O9 0.841841 0.573804 0.318161
O O10 0.836127 0.559465 0.613909
O O11 0.870014 0.714463 0.491929
O O12 0.749990 0.662015 0.468977
O O13 0.550476 0.675344 0.843390
O O14 0.038124 0.195639 0.364165
#
# Coordination Sequence:
#
# PCOD8247694 Si02
#       8
#     8   8   8   8   4   8   4   8
#     4  11  21  44  60  86 121 161 196 250 288 349
#     4  10  22  39  63  93 120 151 195 246 302 357
#     4  10  22  39  63  93 120 151 195 246 302 357
#     4  10  22  39  63  93 120 151 195 246 302 357
#     4  10  24  38  64  82 118 162 212 236 282 348
#     4  11  21  44  60  86 121 161 196 250 288 349
#     4  10  24  38  64  82 118 162 212 236 282 348
#     4  10  22  39  63  93 120 151 195 246 302 357
#
# _framework density 21.064496999999999
#
# number of rings (size 3 to 8) (size 9 to 14) (size 15 to 20)
#    0.000    1.714    2.857    0.857    4.000    0.000 
#    0.000    8.571    0.000    0.000    0.000    0.000 
#    0.000    0.000    0.000    0.000    0.000    0.000 
#
# Total GULP energy -694436.823811 kJ/mol
# GULP energy per Si atom -12400.657568 kJ/mol
# Density = 2.101655 g / cm^3
# Si number density = 21.064497 Si / 1000 Ang^3
#
#
#
# Elastic Constant Matrix: (Units=GPa)
#
#
# Indices 1 2 3 4 5 6 
#
# 1 86.5671 43.1999 29.8347 0.0000 0.0000 0.0000
# 2 43.1999 69.6646 16.9572 0.0000 0.0000 0.0000
# 3 29.8347 16.9572 74.4350 0.0000 0.0000 0.0000
# 4 0.0000 0.0000 0.0000 23.0238 0.0000 0.0000
# 5 0.0000 0.0000 0.0000 0.0000 41.6129 0.0000
# 6 0.0000 0.0000 0.0000 0.0000 0.0000 11.1172
#
#
#
# Elastic Compliance Matrix: (Units=1/GPa)
#
#
# Indices 1 2 3 4 5 6 
#
# 1 0.018359 -0.010157 -0.005045 0.000000 0.000000 0.000000
# 2 -0.010157 0.020816 -0.000671 0.000000 0.000000 0.000000
# 3 -0.005045 -0.000671 0.015609 0.000000 0.000000 0.000000
# 4 0.000000 0.000000 0.000000 0.043433 0.000000 0.000000
# 5 0.000000 0.000000 0.000000 0.000000 0.024031 0.000000
# 6 0.000000 0.000000 0.000000 0.000000 0.000000 0.089950
#
#
# Mechanical properties :
#
#
# Convention : Reuss Voigt Hill
#
# Bulk Modulus (GPa) = 43.40411 45.62783 44.51597
# Shear Modulus (GPa) = 19.87092 24.52912 22.20002
#
# Velocity S-wave (km/s) = 3.07471 3.41615 3.24992
# Velocity P-wave (km/s) = 5.76673 6.10476 5.93815
#
# Compressibility (1/GPa) = 0.02303929
#
# Stress axis : x y z
#
# Youngs Moduli (GPa) = 54.46969 48.03970 64.06375
#
# Poissons Ratio (x) = 0.48792 0.32318
# Poissons Ratio (y) = 0.55323 0.04300
# Poissons Ratio (z) = 0.27478 0.03225
#
# Static dielectric constant tensor:
#      x y z
#    x 4.044330 0.000000 0.000000 
#    y 0.000000 3.483430 0.000000 
#    z 0.000000 0.000000 4.038430 
# 
# 
# High freq. dielectric constant tensor:
#      x y z
#    x 1.838240 0.000000 0.000000 
#    y 0.000000 1.796790 0.000000 
#    z 0.000000 0.000000 1.838970 
# 
# From -- ./inp_files/7448.got.cif
#   From: 2010.03.12/outbox.cif.g09.slc.cpg/sg60_4_cif.got.tgz:7448.got - 2010.04.10 18:46:24.
