data_PCOD8247795
_publ_section_title
;
Structure prediction by ZEFSAII (Michael W. Deem and Ramdas Pophale) SiO2 
 PCOD8247795
Probable space group: P B C N
;
_chemical_formula_sum "Si O2"
_cell_formula_units_Z 28
_cell_length_a 5.030305
_cell_length_b 16.084305
_cell_length_c 15.706306
_cell_angle_alpha 90.000000
_cell_angle_beta 90.000000
_cell_angle_gamma 90.000000
_cell_volume 1270.780882
_symmetry_space_group_name_H-M "P B C N"
_symmetry_group_IT_number 60
_symmetry_cell_setting 'orthorhombic'
loop_
_space_group_symop_operation_xyz
x,y,z
1/2-x,1/2-y,1/2+z
1/2+x,1/2-y,-z
-x,y,1/2-z
-x,-y,-z
1/2+x,1/2+y,1/2-z
1/2-x,1/2+y,z
x,-y,1/2+z
loop_
_atom_site_type_symbol
_atom_site_label
_atom_site_fract_x
_atom_site_fract_y
_atom_site_fract_z
Si Si1 0.500000 0.129496 0.250000
Si Si2 0.237001 0.529187 0.696499
Si Si3 0.279810 0.666535 0.570018
Si Si4 0.222619 0.231018 0.389749
O O1 0.291001 0.184154 0.302600
O O2 0.326535 0.069795 0.186528
O O3 0.500000 0.544640 0.750000
O O4 0.246798 0.572507 0.604110
O O5 0.000000 0.572640 0.750000
O O6 0.573587 0.694056 0.596245
O O7 0.247423 0.665955 0.468144
O O8 0.072860 0.730855 0.613983
#
# Coordination Sequence:
#
# PCOD8247795 Si02
#       4
#     4   8   8   8
#     4  10  26  36  62  92 126 152 208 242 314 346
#     4  10  23  39  57  90 120 162 197 241 305 367
#     4  10  22  42  61  87 120 161 207 242 314 344
#     4  10  23  39  64  89 118 159 203 262 287 364
#
# _framework density 22.033695999999999
#
# number of rings (size 3 to 8) (size 9 to 14) (size 15 to 20)
#    0.857    1.143    0.000    1.714   10.000    1.143 
#    0.000    1.429    0.000    0.000    0.000    0.000 
#    0.000    0.000    0.000    0.000    0.000    0.000 
#
# Total GULP energy -347078.818357 kJ/mol
# GULP energy per Si atom -12395.672084 kJ/mol
# Density = 2.198355 g / cm^3
# Si number density = 22.033696 Si / 1000 Ang^3
#
#
#
# Elastic Constant Matrix: (Units=GPa)
#
#
# Indices 1 2 3 4 5 6 
#
# 1 88.8770 -17.6863 -11.1203 0.0000 0.0000 0.0000
# 2 -17.6863 49.9798 19.6773 0.0000 0.0000 0.0000
# 3 -11.1203 19.6773 49.6773 0.0000 0.0000 0.0000
# 4 0.0000 0.0000 0.0000 35.4497 0.0000 0.0000
# 5 0.0000 0.0000 0.0000 0.0000 29.1550 0.0000
# 6 0.0000 0.0000 0.0000 0.0000 0.0000 -76.3289
#
#
#
# Elastic Compliance Matrix: (Units=1/GPa)
#
#
# Indices 1 2 3 4 5 6 
#
# 1 0.012165 0.003830 0.001206 0.000000 0.000000 0.000000
# 2 0.003830 0.024911 -0.009010 0.000000 0.000000 0.000000
# 3 0.001206 -0.009010 0.023969 0.000000 0.000000 0.000000
# 4 0.000000 0.000000 0.000000 0.028209 0.000000 0.000000
# 5 0.000000 0.000000 0.000000 0.000000 0.034299 0.000000
# 6 0.000000 0.000000 0.000000 0.000000 0.000000 -0.013101
#
#
# Mechanical properties :
#
#
# Convention : Reuss Voigt Hill
#
# Bulk Modulus (GPa) = 18.83387 18.91951 18.87669
# Shear Modulus (GPa) = 36.73837 10.83272 23.78554
#
# Velocity S-wave (km/s) = 4.08778 2.21971 3.28915
# Velocity P-wave (km/s) = 5.55394 3.89548 4.79692
#
# Compressibility (1/GPa) = 0.05309583
#
# Stress axis : x y z
#
# Youngs Moduli (GPa) = 82.20625 40.14365 41.72112
#
# Poissons Ratio (x) = -0.15374 -0.05032
# Poissons Ratio (y) = -0.31484 0.37590
# Poissons Ratio (z) = -0.09914 0.36169
#
# Static dielectric constant tensor:
#      x y z
#    x 4.109530 0.000000 0.000000 
#    y 0.000000 3.637160 0.000000 
#    z 0.000000 0.000000 4.142510 
# 
# 
# High freq. dielectric constant tensor:
#      x y z
#    x 1.885610 0.000000 0.000000 
#    y 0.000000 1.844610 0.000000 
#    z 0.000000 0.000000 1.849550 
# 
# From -- ./inp_files/13529.got.cif
#   From: 2010.03.12/outbox.cif.g09.slc.cpg/sg60_7_cif.got.tgz:13529.got - 2010.04.10 18:46:24.
