data_PCOD8247074
_publ_section_title
;
Structure prediction by ZEFSAII (Michael W. Deem and Ramdas Pophale) SiO2 
 PCOD8247074
Probable space group: P B C N
;
_chemical_formula_sum "Si O2"
_cell_formula_units_Z 52
_cell_length_a 16.238963
_cell_length_b 8.837372
_cell_length_c 17.718128
_cell_angle_alpha 90.000000
_cell_angle_beta 90.000000
_cell_angle_gamma 90.000000
_cell_volume 2542.724242
_symmetry_space_group_name_H-M "P B C N"
_symmetry_group_IT_number 60
_symmetry_cell_setting 'orthorhombic'
loop_
_space_group_symop_operation_xyz
x,y,z
1/2-x,1/2-y,1/2+z
1/2+x,1/2-y,-z
-x,y,1/2-z
-x,-y,-z
1/2+x,1/2+y,1/2-z
1/2-x,1/2+y,z
x,-y,1/2+z
loop_
_atom_site_type_symbol
_atom_site_label
_atom_site_fract_x
_atom_site_fract_y
_atom_site_fract_z
Si Si1 0.870036 0.088373 0.970299
Si Si2 0.254973 0.967682 0.773273
Si Si3 0.158530 0.281368 0.184286
Si Si4 0.271472 0.295544 0.529236
Si Si5 0.331653 0.721377 0.868556
Si Si6 0.000000 0.818416 0.750000
Si Si7 0.029838 0.013503 0.888607
O O1 0.825778 0.252382 0.957159
O O2 0.932460 0.043402 0.902618
O O3 0.791569 0.974547 0.973227
O O4 0.925476 0.084152 0.045746
O O5 0.298724 0.066054 0.710134
O O6 0.213290 0.071094 0.836946
O O7 0.190756 0.866155 0.727985
O O8 0.323496 0.861421 0.812151
O O9 0.171052 0.273247 0.094715
O O10 0.062547 0.290228 0.205205
O O11 0.293915 0.225756 0.448094
O O12 0.427226 0.677901 0.880939
O O13 0.044110 0.923796 0.811629
#
# Coordination Sequence:
#
# PCOD8247074 Si02
#       7
#     8   8   8   8   8   4   8
#     4  10  22  39  62  93 123 159 216 255 316 373
#     4  10  22  38  60  90 123 163 208 258 309 373
#     4  11  23  39  62  90 125 162 209 260 317 370
#     4  11  21  37  63  92 120 162 208 262 301 374
#     4  10  20  39  62  90 122 163 211 251 311 373
#     4  12  22  40  60  90 124 166 202 258 320 372
#     4  10  21  38  63  89 122 166 205 254 314 384
#
# _framework density 20.450507999999999
#
# number of rings (size 3 to 8) (size 9 to 14) (size 15 to 20)
#    0.000    1.538    3.077    2.769    2.154    0.000 
#    0.000    3.846    0.000    4.615    0.000    0.000 
#    0.000    0.000    0.000    0.000    0.000    0.000 
#
# Total GULP energy -644619.017765 kJ/mol
# GULP energy per Si atom -12396.519572 kJ/mol
# Density = 2.040396 g / cm^3
# Si number density = 20.450508 Si / 1000 Ang^3
#
#
#
# Elastic Constant Matrix: (Units=GPa)
#
#
# Indices 1 2 3 4 5 6 
#
# 1 87.7618 26.4814 -4.1924 0.0000 0.0000 0.0000
# 2 26.4814 74.0121 11.1842 0.0000 0.0000 0.0000
# 3 -4.1924 11.1842 69.4590 0.0000 0.0000 0.0000
# 4 0.0000 0.0000 0.0000 24.0715 0.0000 0.0000
# 5 0.0000 0.0000 0.0000 0.0000 29.4674 0.0000
# 6 0.0000 0.0000 0.0000 0.0000 0.0000 33.7083
#
#
#
# Elastic Compliance Matrix: (Units=1/GPa)
#
#
# Indices 1 2 3 4 5 6 
#
# 1 0.012937 -0.004865 0.001564 0.000000 0.000000 0.000000
# 2 -0.004865 0.015678 -0.002818 0.000000 0.000000 0.000000
# 3 0.001564 -0.002818 0.014945 0.000000 0.000000 0.000000
# 4 0.000000 0.000000 0.000000 0.041543 0.000000 0.000000
# 5 0.000000 0.000000 0.000000 0.000000 0.033936 0.000000
# 6 0.000000 0.000000 0.000000 0.000000 0.000000 0.029666
#
#
# Mechanical properties :
#
#
# Convention : Reuss Voigt Hill
#
# Bulk Modulus (GPa) = 31.92631 33.13101 32.52866
# Shear Modulus (GPa) = 29.17419 30.63343 29.90381
#
# Velocity S-wave (km/s) = 3.78110 3.87451 3.82809
# Velocity P-wave (km/s) = 5.89132 6.02092 5.95648
#
# Compressibility (1/GPa) = 0.03132213
#
# Stress axis : x y z
#
# Youngs Moduli (GPa) = 77.29597 63.78379 66.91126
#
# Poissons Ratio (x) = 0.31033 -0.10467
# Poissons Ratio (y) = 0.37607 0.18856
# Poissons Ratio (z) = -0.12091 0.17975
#
# Static dielectric constant tensor:
#      x y z
#    x 3.706870 0.000000 0.000000 
#    y 0.000000 3.499220 0.000000 
#    z 0.000000 0.000000 3.878680 
# 
# 
# High freq. dielectric constant tensor:
#      x y z
#    x 1.790060 0.000000 0.000000 
#    y 0.000000 1.775870 0.000000 
#    z 0.000000 0.000000 1.819380 
# 
# From -- ./inp_files/20867.got.cif
#   From: 2010.03.12/outbox.cif.g09.slc.cpg/sg60_11_cif.got.tgz:20867.got - 2010.04.10 18:46:24.
