data_PCOD8247801
_publ_section_title
;
Structure prediction by ZEFSAII (Michael W. Deem and Ramdas Pophale) SiO2 
 PCOD8247801
Probable space group: P B C N
;
_chemical_formula_sum "Si O2"
_cell_formula_units_Z 24
_cell_length_a 8.658334
_cell_length_b 23.395302
_cell_length_c 5.167065
_cell_angle_alpha 90.000000
_cell_angle_beta 90.000000
_cell_angle_gamma 90.000000
_cell_volume 1046.663105
_symmetry_space_group_name_H-M "P B C N"
_symmetry_group_IT_number 60
_symmetry_cell_setting 'orthorhombic'
loop_
_space_group_symop_operation_xyz
x,y,z
1/2-x,1/2-y,1/2+z
1/2+x,1/2-y,-z
-x,y,1/2-z
-x,-y,-z
1/2+x,1/2+y,1/2-z
1/2-x,1/2+y,z
x,-y,1/2+z
loop_
_atom_site_type_symbol
_atom_site_label
_atom_site_fract_x
_atom_site_fract_y
_atom_site_fract_z
Si Si1 0.431899 0.563540 0.001026
Si Si2 0.599120 0.898179 0.010339
Si Si3 0.167091 0.730127 0.838113
O O1 0.500000 0.596199 0.750000
O O2 0.500000 0.596821 0.250000
O O3 0.500000 0.500000 0.000000
O O4 0.246963 0.560928 0.015046
O O5 0.500000 0.899417 0.750000
O O6 0.500000 0.922009 0.250000
O O7 0.659528 0.834985 0.069616
O O8 0.276707 0.733477 0.585410
O O9 0.000000 0.753286 0.750000
#
# Coordination Sequence:
#
# PCOD8247801 Si02
#       3
#     8   8   8
#     4  10  22  42  63  91 123 157 208 263 312 372
#     4  11  23  42  64  91 127 168 209 257 313 375
#     4  11  23  40  61  92 128 167 209 254 308 373
#
# _framework density 22.930014
#
# number of rings (size 3 to 8) (size 9 to 14) (size 15 to 20)
#    0.000    1.333    0.000    7.000    0.000    4.000 
#    0.000   20.000    0.000    0.000    0.000    0.000 
#    0.000    0.000    0.000    0.000    0.000    0.000 
#
# Total GULP energy -297541.043309 kJ/mol
# GULP energy per Si atom -12397.543471 kJ/mol
# Density = 2.287782 g / cm^3
# Si number density = 22.930014 Si / 1000 Ang^3
#
#
#
# Elastic Constant Matrix: (Units=GPa)
#
#
# Indices 1 2 3 4 5 6 
#
# 1 213.5371 64.0793 113.3618 0.0000 0.0000 0.0000
# 2 64.0793 49.9318 34.3818 0.0000 0.0000 0.0000
# 3 113.3618 34.3818 263.7301 0.0000 0.0000 0.0000
# 4 0.0000 0.0000 0.0000 5.1995 0.0000 0.0000
# 5 0.0000 0.0000 0.0000 0.0000 67.2080 0.0000
# 6 0.0000 0.0000 0.0000 0.0000 0.0000 32.1062
#
#
#
# Elastic Compliance Matrix: (Units=1/GPa)
#
#
# Indices 1 2 3 4 5 6 
#
# 1 0.008982 -0.009743 -0.002591 0.000000 0.000000 0.000000
# 2 -0.009743 0.032571 -0.000058 0.000000 0.000000 0.000000
# 3 -0.002591 -0.000058 0.004913 0.000000 0.000000 0.000000
# 4 0.000000 0.000000 0.000000 0.192328 0.000000 0.000000
# 5 0.000000 0.000000 0.000000 0.000000 0.014879 0.000000
# 6 0.000000 0.000000 0.000000 0.000000 0.000000 0.031147
#
#
# Mechanical properties :
#
#
# Convention : Reuss Voigt Hill
#
# Bulk Modulus (GPa) = 46.12108 105.64945 75.88526
# Shear Modulus (GPa) = 15.78125 41.92780 28.85452
#
# Velocity S-wave (km/s) = 2.62627 4.28075 3.55120
# Velocity P-wave (km/s) = 5.41792 8.40285 7.06972
#
# Compressibility (1/GPa) = 0.02168206
#
# Stress axis : x y z
#
# Youngs Moduli (GPa) = 111.33160 30.70192 203.54475
#
# Poissons Ratio (x) = 0.29914 0.52732
# Poissons Ratio (y) = 1.08473 0.01184
# Poissons Ratio (z) = 0.28843 0.00179
#
# Static dielectric constant tensor:
#      x y z
#    x 4.371010 0.000000 0.000000 
#    y 0.000000 3.588640 0.000000 
#    z 0.000000 0.000000 1.532730 
# 
# 
# High freq. dielectric constant tensor:
#      x y z
#    x 1.919600 0.000000 0.000000 
#    y 0.000000 1.867560 0.000000 
#    z 0.000000 0.000000 1.946180 
# 
# From -- ./inp_files/236.got.cif
#   From: 2010.03.12/outbox.cif.g09.slc.cpg/sg60_1_cif.got.tgz:236.got - 2010.04.10 18:46:24.
