data_PCOD8247297
_publ_section_title
;
Structure prediction by ZEFSAII (Michael W. Deem and Ramdas Pophale) SiO2 
 PCOD8247297
Probable space group: P B C N
;
_chemical_formula_sum "Si O2"
_cell_formula_units_Z 32
_cell_length_a 16.817232
_cell_length_b 4.961899
_cell_length_c 17.604163
_cell_angle_alpha 90.000000
_cell_angle_beta 90.000000
_cell_angle_gamma 90.000000
_cell_volume 1468.986540
_symmetry_space_group_name_H-M "P B C N"
_symmetry_group_IT_number 60
_symmetry_cell_setting 'orthorhombic'
loop_
_space_group_symop_operation_xyz
x,y,z
1/2-x,1/2-y,1/2+z
1/2+x,1/2-y,-z
-x,y,1/2-z
-x,-y,-z
1/2+x,1/2+y,1/2-z
1/2-x,1/2+y,z
x,-y,1/2+z
loop_
_atom_site_type_symbol
_atom_site_label
_atom_site_fract_x
_atom_site_fract_y
_atom_site_fract_z
Si Si1 0.527918 0.915273 0.583264
Si Si2 0.031037 0.083124 0.168456
Si Si3 0.301030 0.746534 0.956968
Si Si4 0.200093 0.738535 0.634501
O O1 0.471130 0.674235 0.612295
O O2 0.618115 0.809358 0.587303
O O3 0.500000 0.000000 0.500000
O O4 0.522910 0.174436 0.637085
O O5 0.120844 0.186217 0.179326
O O6 0.000000 0.988701 0.250000
O O7 0.268621 0.454085 0.934150
O O8 0.321039 0.754323 0.045793
O O9 0.228889 0.441251 0.656867
#
# Coordination Sequence:
#
# PCOD8247297 Si02
#       4
#     8   8   8   8
#     4  12  24  42  69  96 128 170 223 272 325 383
#     4  12  26  44  65  98 136 174 217 269 331 393
#     4  10  21  37  62  98 128 161 215 275 321 373
#     4  10  21  38  64  93 126 168 217 263 318 392
#
# _framework density 21.783728
#
# number of rings (size 3 to 8) (size 9 to 14) (size 15 to 20)
#    0.000    1.000    2.500    4.500    7.000    0.000 
#    0.000    7.500    0.000    0.000    0.000    0.000 
#    0.000    0.000    0.000    0.000    0.000    0.000 
#
# Total GULP energy -397001.274572 kJ/mol
# GULP energy per Si atom -12406.289830 kJ/mol
# Density = 2.173415 g / cm^3
# Si number density = 21.783728 Si / 1000 Ang^3
#
#
#
# Elastic Constant Matrix: (Units=GPa)
#
#
# Indices 1 2 3 4 5 6 
#
# 1 98.8490 8.0660 40.0301 0.0000 0.0000 0.0000
# 2 8.0660 113.7784 34.3985 0.0000 0.0000 0.0000
# 3 40.0301 34.3985 70.8305 0.0000 0.0000 0.0000
# 4 0.0000 0.0000 0.0000 28.8451 0.0000 0.0000
# 5 0.0000 0.0000 0.0000 0.0000 26.5448 0.0000
# 6 0.0000 0.0000 0.0000 0.0000 0.0000 31.4944
#
#
#
# Elastic Compliance Matrix: (Units=1/GPa)
#
#
# Indices 1 2 3 4 5 6 
#
# 1 0.013352 0.001565 -0.008306 0.000000 0.000000 0.000000
# 2 0.001565 0.010485 -0.005976 0.000000 0.000000 0.000000
# 3 -0.008306 -0.005976 0.021715 0.000000 0.000000 0.000000
# 4 0.000000 0.000000 0.000000 0.034668 0.000000 0.000000
# 5 0.000000 0.000000 0.000000 0.000000 0.037672 0.000000
# 6 0.000000 0.000000 0.000000 0.000000 0.000000 0.031752
#
#
# Mechanical properties :
#
#
# Convention : Reuss Voigt Hill
#
# Bulk Modulus (GPa) = 49.70973 49.82746 49.76860
# Shear Modulus (GPa) = 27.50513 30.77443 29.13978
#
# Velocity S-wave (km/s) = 3.55723 3.76270 3.66141
# Velocity P-wave (km/s) = 6.30405 6.46534 6.38520
#
# Compressibility (1/GPa) = 0.02011678
#
# Stress axis : x y z
#
# Youngs Moduli (GPa) = 74.89304 95.37560 46.05187
#
# Poissons Ratio (x) = -0.14922 0.38250
# Poissons Ratio (y) = -0.11717 0.27521
# Poissons Ratio (z) = 0.62206 0.56998
#
# Static dielectric constant tensor:
#      x y z
#    x 3.938640 0.000000 0.000000 
#    y 0.000000 4.186330 0.000000 
#    z 0.000000 0.000000 3.573130 
# 
# 
# High freq. dielectric constant tensor:
#      x y z
#    x 1.866190 0.000000 0.000000 
#    y 0.000000 1.877620 0.000000 
#    z 0.000000 0.000000 1.817190 
# 
# From -- ./inp_files/20337.got.cif
#   From: 2010.03.12/outbox.cif.g09.slc.cpg/sg60_11_cif.got.tgz:20337.got - 2010.04.10 18:46:24.
