data_PCOD8247261
_publ_section_title
;
Structure prediction by ZEFSAII (Michael W. Deem and Ramdas Pophale) SiO2 
 PCOD8247261
Probable space group: P B C N
;
_chemical_formula_sum "Si O2"
_cell_formula_units_Z 60
_cell_length_a 6.298479
_cell_length_b 19.174578
_cell_length_c 26.547397
_cell_angle_alpha 90.000000
_cell_angle_beta 90.000000
_cell_angle_gamma 90.000000
_cell_volume 3206.147105
_symmetry_space_group_name_H-M "P B C N"
_symmetry_group_IT_number 60
_symmetry_cell_setting 'orthorhombic'
loop_
_space_group_symop_operation_xyz
x,y,z
1/2-x,1/2-y,1/2+z
1/2+x,1/2-y,-z
-x,y,1/2-z
-x,-y,-z
1/2+x,1/2+y,1/2-z
1/2-x,1/2+y,z
x,-y,1/2+z
loop_
_atom_site_type_symbol
_atom_site_label
_atom_site_fract_x
_atom_site_fract_y
_atom_site_fract_z
Si Si1 0.893159 0.974685 0.881107
Si Si2 0.218829 0.855605 0.844886
Si Si3 0.161197 0.560060 0.015465
Si Si4 0.389155 0.934116 0.702492
Si Si5 0.776542 0.261115 0.072112
Si Si6 0.020336 0.894877 0.433387
Si Si7 0.000000 0.852414 0.750000
Si Si8 0.129568 0.324930 0.018317
O O1 0.075956 0.920209 0.864713
O O2 0.775986 0.949717 0.931502
O O3 0.711011 0.985269 0.838786
O O4 0.990611 0.051667 0.887211
O O5 0.447718 0.882337 0.826187
O O6 0.250005 0.800976 0.889082
O O7 0.099890 0.813509 0.798860
O O8 0.337917 0.563387 0.972767
O O9 0.000000 0.500000 0.000000
O O10 0.036471 0.633250 0.016700
O O11 0.500000 0.973903 0.750000
O O12 0.194304 0.895473 0.728130
O O13 0.620528 0.323719 0.088008
O O14 0.016131 0.290437 0.067408
O O15 0.728083 0.235800 0.015434
O O16 0.800041 0.879170 0.460896
#
# Coordination Sequence:
#
# PCOD8247261 Si02
#       8
#     8   8   8   8   8   8   4   8
#     4  11  22  34  59  89 117 154 198 247 302 361
#     4  10  21  36  64  91 117 151 201 250 309 356
#     4  11  23  35  56  82 118 158 200 244 294 345
#     4   9  19  37  62  94 116 141 191 257 311 352
#     4  11  23  36  56  82 118 170 197 241 296 359
#     4  11  24  37  51  84 122 159 202 244 290 363
#     4   8  18  38  58  98 112 140 192 262 296 358
#     4  11  22  37  52  78 122 160 206 245 288 351
#
# _framework density 18.714051999999999
#
# number of rings (size 3 to 8) (size 9 to 14) (size 15 to 20)
#    0.000    1.600    2.667    2.000    5.600    2.133 
#    0.000    0.000    0.000    0.000   74.533    0.000 
#    0.000    0.000    0.000    0.000    0.000    0.000 
#
# Total GULP energy -743428.233107 kJ/mol
# GULP energy per Si atom -12390.470552 kJ/mol
# Density = 1.867146 g / cm^3
# Si number density = 18.714052 Si / 1000 Ang^3
#
#
#
# Elastic Constant Matrix: (Units=GPa)
#
#
# Indices 1 2 3 4 5 6 
#
# 1 120.1469 42.8030 52.9626 0.0000 0.0000 0.0000
# 2 42.8030 94.0691 51.1975 0.0000 0.0000 0.0000
# 3 52.9626 51.1975 104.0919 0.0000 0.0000 0.0000
# 4 0.0000 0.0000 0.0000 14.7267 0.0000 0.0000
# 5 0.0000 0.0000 0.0000 0.0000 37.6003 0.0000
# 6 0.0000 0.0000 0.0000 0.0000 0.0000 26.5118
#
#
#
# Elastic Compliance Matrix: (Units=1/GPa)
#
#
# Indices 1 2 3 4 5 6 
#
# 1 0.011220 -0.002729 -0.004367 0.000000 0.000000 0.000000
# 2 -0.002729 0.015180 -0.006078 0.000000 0.000000 0.000000
# 3 -0.004367 -0.006078 0.014818 0.000000 0.000000 0.000000
# 4 0.000000 0.000000 0.000000 0.067904 0.000000 0.000000
# 5 0.000000 0.000000 0.000000 0.000000 0.026596 0.000000
# 6 0.000000 0.000000 0.000000 0.000000 0.000000 0.037719
#
#
# Mechanical properties :
#
#
# Convention : Reuss Voigt Hill
#
# Bulk Modulus (GPa) = 67.24240 68.02599 67.63420
# Shear Modulus (GPa) = 24.42109 27.19074 25.80592
#
# Velocity S-wave (km/s) = 3.61634 3.81590 3.71746
# Velocity P-wave (km/s) = 7.31073 7.47288 7.39225
#
# Compressibility (1/GPa) = 0.01487157
#
# Stress axis : x y z
#
# Youngs Moduli (GPa) = 89.12481 65.87609 67.48495
#
# Poissons Ratio (x) = 0.17976 0.29469
# Poissons Ratio (y) = 0.24320 0.41016
# Poissons Ratio (z) = 0.38919 0.40039
#
# Static dielectric constant tensor:
#      x y z
#    x 3.944590 0.000000 0.000000 
#    y 0.000000 3.283510 0.000000 
#    z 0.000000 0.000000 3.817830 
# 
# 
# High freq. dielectric constant tensor:
#      x y z
#    x 1.756890 0.000000 0.000000 
#    y 0.000000 1.699050 0.000000 
#    z 0.000000 0.000000 1.722600 
# 
# From -- ./inp_files/23721.got.cif
#   From: 2010.03.12/outbox.cif.g09.slc.cpg/sg60_12_cif.got.tgz:23721.got - 2010.04.10 18:46:24.
