data_PCOD8247484
_publ_section_title
;
Structure prediction by ZEFSAII (Michael W. Deem and Ramdas Pophale) SiO2 
 PCOD8247484
Probable space group: P B C N
;
_chemical_formula_sum "Si O2"
_cell_formula_units_Z 64
_cell_length_a 21.929582
_cell_length_b 9.605506
_cell_length_c 14.004081
_cell_angle_alpha 90.000000
_cell_angle_beta 90.000000
_cell_angle_gamma 90.000000
_cell_volume 2949.885882
_symmetry_space_group_name_H-M "P B C N"
_symmetry_group_IT_number 60
_symmetry_cell_setting 'orthorhombic'
loop_
_space_group_symop_operation_xyz
x,y,z
1/2-x,1/2-y,1/2+z
1/2+x,1/2-y,-z
-x,y,1/2-z
-x,-y,-z
1/2+x,1/2+y,1/2-z
1/2-x,1/2+y,z
x,-y,1/2+z
loop_
_atom_site_type_symbol
_atom_site_label
_atom_site_fract_x
_atom_site_fract_y
_atom_site_fract_z
Si Si1 0.300399 0.898818 0.204959
Si Si2 0.924753 0.186133 0.980209
Si Si3 0.193477 0.554880 0.925039
Si Si4 0.800753 0.129899 0.058171
Si Si5 0.597759 0.979078 0.927938
Si Si6 0.052294 0.019870 0.170176
Si Si7 0.508542 0.195386 0.861145
Si Si8 0.314000 0.427009 0.722602
O O1 0.312910 0.949625 0.312289
O O2 0.355286 0.968959 0.149879
O O3 0.302490 0.732159 0.186692
O O4 0.235467 0.967225 0.175566
O O5 0.862505 0.100329 0.999815
O O6 0.949489 0.242417 0.083069
O O7 0.916658 0.317126 0.909288
O O8 0.966149 0.079207 0.919294
O O9 0.242004 0.454422 0.978194
O O10 0.214349 0.708536 0.954499
O O11 0.127273 0.511549 0.966230
O O12 0.808957 0.076483 0.164660
O O13 0.535347 0.067321 0.921656
O O14 0.000000 0.999610 0.250000
O O15 0.056240 0.179177 0.136542
O O16 0.121320 0.996782 0.204452
O O17 0.500000 0.151011 0.750000
#
# Coordination Sequence:
#
# PCOD8247484 Si02
#       8
#     8   8   8   8   8   8   8   8
#     4  10  22  40  65  97 132 171 213 266 335 389
#     4  11  25  42  64  97 132 169 219 278 316 388
#     4   9  21  37  60  94 131 162 213 261 322 391
#     4   9  19  39  61  89 129 170 209 263 320 380
#     4  11  24  40  66  97 129 168 217 269 329 398
#     4  11  24  43  66  97 133 177 221 268 326 391
#     4  11  24  45  71  90 122 176 223 264 327 388
#     4  10  21  40  66  94 131 174 215 267 325 392
#
# _framework density 21.695754999999998
#
# number of rings (size 3 to 8) (size 9 to 14) (size 15 to 20)
#    0.000    1.750    1.250    2.250    7.000    2.500 
#    2.250    0.000    0.000    0.000    0.000    0.000 
#    0.000    0.000    0.000    0.000    0.000    0.000 
#
# Total GULP energy -793004.574918 kJ/mol
# GULP energy per Si atom -12390.696483 kJ/mol
# Density = 2.164637 g / cm^3
# Si number density = 21.695755 Si / 1000 Ang^3
#
#
#
# Elastic Constant Matrix: (Units=GPa)
#
#
# Indices 1 2 3 4 5 6 
#
# 1 43.0066 17.0951 20.3693 0.0000 0.0000 0.0000
# 2 17.0951 48.5120 37.5369 0.0000 0.0000 0.0000
# 3 20.3693 37.5369 65.1228 0.0000 0.0000 0.0000
# 4 0.0000 0.0000 0.0000 27.9454 0.0000 0.0000
# 5 0.0000 0.0000 0.0000 0.0000 32.0837 0.0000
# 6 0.0000 0.0000 0.0000 0.0000 0.0000 37.4339
#
#
#
# Elastic Compliance Matrix: (Units=1/GPa)
#
#
# Indices 1 2 3 4 5 6 
#
# 1 0.028115 -0.005601 -0.005565 0.000000 0.000000 0.000000
# 2 -0.005601 0.038324 -0.020338 0.000000 0.000000 0.000000
# 3 -0.005565 -0.020338 0.028819 0.000000 0.000000 0.000000
# 4 0.000000 0.000000 0.000000 0.035784 0.000000 0.000000
# 5 0.000000 0.000000 0.000000 0.000000 0.031168 0.000000
# 6 0.000000 0.000000 0.000000 0.000000 0.000000 0.026714
#
#
# Mechanical properties :
#
#
# Convention : Reuss Voigt Hill
#
# Bulk Modulus (GPa) = 31.00876 34.07156 32.54016
# Shear Modulus (GPa) = 19.03436 24.93528 21.98482
#
# Velocity S-wave (km/s) = 2.96519 3.39383 3.18673
# Velocity P-wave (km/s) = 5.10360 5.57636 5.34521
#
# Compressibility (1/GPa) = 0.03224896
#
# Stress axis : x y z
#
# Youngs Moduli (GPa) = 35.56881 26.09322 34.69899
#
# Poissons Ratio (x) = 0.14615 0.19311
# Poissons Ratio (y) = 0.19922 0.70571
# Poissons Ratio (z) = 0.19795 0.53069
#
# Static dielectric constant tensor:
#      x y z
#    x 4.031810 0.000000 0.000000 
#    y 0.000000 4.147740 0.000000 
#    z 0.000000 0.000000 3.966490 
# 
# 
# High freq. dielectric constant tensor:
#      x y z
#    x 1.855230 0.000000 0.000000 
#    y 0.000000 1.852960 0.000000 
#    z 0.000000 0.000000 1.853010 
# 
# From -- ./inp_files/17953.got.cif
#   From: 2010.03.12/outbox.cif.g09.slc.cpg/sg60_9_cif.got.tgz:17953.got - 2010.04.10 18:46:24.
