data_PCOD8247655
_publ_section_title
;
Structure prediction by ZEFSAII (Michael W. Deem and Ramdas Pophale) SiO2 
 PCOD8247655
Probable space group: P B C N
;
_chemical_formula_sum "Si O2"
_cell_formula_units_Z 60
_cell_length_a 18.440665
_cell_length_b 9.429144
_cell_length_c 17.820955
_cell_angle_alpha 90.000000
_cell_angle_beta 90.000000
_cell_angle_gamma 90.000000
_cell_volume 3098.702055
_symmetry_space_group_name_H-M "P B C N"
_symmetry_group_IT_number 60
_symmetry_cell_setting 'orthorhombic'
loop_
_space_group_symop_operation_xyz
x,y,z
1/2-x,1/2-y,1/2+z
1/2+x,1/2-y,-z
-x,y,1/2-z
-x,-y,-z
1/2+x,1/2+y,1/2-z
1/2-x,1/2+y,z
x,-y,1/2+z
loop_
_atom_site_type_symbol
_atom_site_label
_atom_site_fract_x
_atom_site_fract_y
_atom_site_fract_z
Si Si1 0.659832 0.175491 0.587861
Si Si2 0.417043 0.210966 0.752559
Si Si3 0.995462 0.880055 0.399760
Si Si4 0.252655 0.569529 0.477606
Si Si5 0.500000 0.480022 0.750000
Si Si6 0.358637 0.860736 0.096346
Si Si7 0.106713 0.922900 0.524100
Si Si8 0.944838 0.606862 0.464311
O O1 0.624753 0.175652 0.670488
O O2 0.715971 0.305301 0.575473
O O3 0.594873 0.199215 0.528542
O O4 0.694691 0.019887 0.572025
O O5 0.500000 0.142392 0.750000
O O6 0.428544 0.380268 0.742136
O O7 0.362376 0.161057 0.686189
O O8 0.016851 0.912064 0.315848
O O9 0.986423 0.712349 0.408988
O O10 0.060335 0.940507 0.449329
O O11 0.920548 0.961792 0.416351
O O12 0.219409 0.638606 0.554245
O O13 0.310731 0.454394 0.504311
O O14 0.404881 0.734911 0.057468
O O15 0.389085 0.017460 0.084503
O O16 0.000000 0.500000 0.500000
#
# Coordination Sequence:
#
# PCOD8247655 Si02
#       8
#     8   8   8   8   4   8   8   8
#     4  11  23  42  64  93 127 175 221 264 332 391
#     4  10  22  42  67  91 130 166 212 272 336 383
#     4  11  22  37  66  95 125 166 219 272 323 378
#     4  11  23  40  65  90 125 172 222 266 308 402
#     4  10  22  38  60  98 126 162 204 270 334 378
#     4  11  22  41  62  94 126 172 213 262 334 386
#     4  11  20  39  65  89 120 171 218 265 312 386
#     4  11  22  38  64  95 126 165 225 275 321 380
#
# _framework density 19.362946999999998
#
# number of rings (size 3 to 8) (size 9 to 14) (size 15 to 20)
#    0.400    0.800    5.333    1.600    1.867    0.000 
#    6.000    0.000    0.000    0.000    0.000    0.000 
#    0.000    0.000    0.000    0.000    0.000    0.000 
#
# Total GULP energy -743631.383015 kJ/mol
# GULP energy per Si atom -12393.856384 kJ/mol
# Density = 1.931888 g / cm^3
# Si number density = 19.362947 Si / 1000 Ang^3
#
#
#
# Elastic Constant Matrix: (Units=GPa)
#
#
# Indices 1 2 3 4 5 6 
#
# 1 80.1526 26.2194 42.1494 0.0000 0.0000 0.0000
# 2 26.2194 99.4510 46.4423 0.0000 0.0000 0.0000
# 3 42.1494 46.4423 148.3137 0.0000 0.0000 0.0000
# 4 0.0000 0.0000 0.0000 33.6886 0.0000 0.0000
# 5 0.0000 0.0000 0.0000 0.0000 25.8970 0.0000
# 6 0.0000 0.0000 0.0000 0.0000 0.0000 33.2771
#
#
#
# Elastic Compliance Matrix: (Units=1/GPa)
#
#
# Indices 1 2 3 4 5 6 
#
# 1 0.015111 -0.002317 -0.003569 0.000000 0.000000 0.000000
# 2 -0.002317 0.012133 -0.003141 0.000000 0.000000 0.000000
# 3 -0.003569 -0.003141 0.008740 0.000000 0.000000 0.000000
# 4 0.000000 0.000000 0.000000 0.029684 0.000000 0.000000
# 5 0.000000 0.000000 0.000000 0.000000 0.038614 0.000000
# 6 0.000000 0.000000 0.000000 0.000000 0.000000 0.030051
#
#
# Mechanical properties :
#
#
# Convention : Reuss Voigt Hill
#
# Bulk Modulus (GPa) = 55.77120 61.94885 58.86002
# Shear Modulus (GPa) = 31.57306 32.77962 32.17634
#
# Velocity S-wave (km/s) = 4.04244 4.11896 4.08088
# Velocity P-wave (km/s) = 7.11716 7.39486 7.25734
#
# Compressibility (1/GPa) = 0.01793040
#
# Stress axis : x y z
#
# Youngs Moduli (GPa) = 66.17736 82.42130 114.41488
#
# Poissons Ratio (x) = 0.19100 0.40832
# Poissons Ratio (y) = 0.15335 0.35934
# Poissons Ratio (z) = 0.23617 0.25886
#
# Static dielectric constant tensor:
#      x y z
#    x 3.608670 0.000000 0.000000 
#    y 0.000000 4.739990 0.000000 
#    z 0.000000 0.000000 3.409040 
# 
# 
# High freq. dielectric constant tensor:
#      x y z
#    x 1.743890 0.000000 0.000000 
#    y 0.000000 1.762590 0.000000 
#    z 0.000000 0.000000 1.740360 
# 
# From -- ./inp_files/20904.got.cif
#   From: 2010.03.12/outbox.cif.g09.slc.cpg/sg60_11_cif.got.tgz:20904.got - 2010.04.10 18:46:24.
