data_PCOD8247361
_publ_section_title
;
Structure prediction by ZEFSAII (Michael W. Deem and Ramdas Pophale) SiO2 
 PCOD8247361
Probable space group: P B C N
;
_chemical_formula_sum "Si O2"
_cell_formula_units_Z 64
_cell_length_a 12.118922
_cell_length_b 29.365757
_cell_length_c 8.982489
_cell_angle_alpha 90.000000
_cell_angle_beta 90.000000
_cell_angle_gamma 90.000000
_cell_volume 3196.700029
_symmetry_space_group_name_H-M "P B C N"
_symmetry_group_IT_number 60
_symmetry_cell_setting 'orthorhombic'
loop_
_space_group_symop_operation_xyz
x,y,z
1/2-x,1/2-y,1/2+z
1/2+x,1/2-y,-z
-x,y,1/2-z
-x,-y,-z
1/2+x,1/2+y,1/2-z
1/2-x,1/2+y,z
x,-y,1/2+z
loop_
_atom_site_type_symbol
_atom_site_label
_atom_site_fract_x
_atom_site_fract_y
_atom_site_fract_z
Si Si1 0.128802 0.444816 0.746597
Si Si2 0.245768 0.486245 0.466495
Si Si3 0.740997 0.145462 0.163664
Si Si4 0.926603 0.131545 0.939235
Si Si5 0.110286 0.037587 0.701227
Si Si6 0.590157 0.687083 0.373379
Si Si7 0.881381 0.777940 0.305252
Si Si8 0.785873 0.738944 0.036780
O O1 0.172810 0.456027 0.579875
O O2 0.175079 0.476948 0.876362
O O3 0.153994 0.392488 0.787009
O O4 0.000000 0.452490 0.750000
O O5 0.306349 0.455500 0.340929
O O6 0.335971 0.511616 0.564850
O O7 0.796736 0.166373 0.311072
O O8 0.836972 0.122310 0.067235
O O9 0.682044 0.185951 0.069272
O O10 0.941733 0.084882 0.854221
O O11 0.885874 0.167670 0.816150
O O12 0.040395 0.151387 0.007636
O O13 0.000000 0.009474 0.750000
O O14 0.500000 0.697701 0.250000
O O15 0.617151 0.736063 0.445628
O O16 0.837674 0.758701 0.465100
O O17 0.000000 0.757417 0.250000
O O18 0.781883 0.765363 0.193819
#
# Coordination Sequence:
#
# PCOD8247361 Si02
#       8
#     8   8   8   8   8   8   8   8
#     4  11  23  45  69  92 123 170 220 261 324 374
#     4  10  24  43  66  95 129 167 209 265 317 388
#     4  10  22  40  60  93 129 158 207 280 312 369
#     4  10  21  38  64  89 126 167 209 254 310 389
#     4  11  22  39  64  98 134 163 202 255 323 385
#     4  10  21  39  62  89 125 176 212 252 328 380
#     4  11  22  37  60  89 121 166 213 253 312 366
#     4  11  22  38  61  88 125 166 212 263 308 371
#
# _framework density 20.020645999999999
#
# number of rings (size 3 to 8) (size 9 to 14) (size 15 to 20)
#    0.000    1.500    3.750    1.125    1.750    0.500 
#    0.000    0.000    5.500    0.000    0.000    0.000 
#    0.000    0.000    0.000    0.000    0.000    0.000 
#
# Total GULP energy -793038.588648 kJ/mol
# GULP energy per Si atom -12391.227948 kJ/mol
# Density = 1.997508 g / cm^3
# Si number density = 20.020646 Si / 1000 Ang^3
#
#
#
# Elastic Constant Matrix: (Units=GPa)
#
#
# Indices 1 2 3 4 5 6 
#
# 1 98.6311 53.3083 46.7652 0.0000 0.0000 0.0000
# 2 53.3083 103.7565 53.5604 0.0000 0.0000 0.0000
# 3 46.7652 53.5604 119.1582 0.0000 0.0000 0.0000
# 4 0.0000 0.0000 0.0000 77.4882 0.0000 0.0000
# 5 0.0000 0.0000 0.0000 0.0000 35.4823 0.0000
# 6 0.0000 0.0000 0.0000 0.0000 0.0000 407.8128
#
#
#
# Elastic Compliance Matrix: (Units=1/GPa)
#
#
# Indices 1 2 3 4 5 6 
#
# 1 0.014882 -0.006030 -0.003130 0.000000 0.000000 0.000000
# 2 -0.006030 0.014994 -0.004373 0.000000 0.000000 0.000000
# 3 -0.003130 -0.004373 0.011586 0.000000 0.000000 0.000000
# 4 0.000000 0.000000 0.000000 0.012905 0.000000 0.000000
# 5 0.000000 0.000000 0.000000 0.000000 0.028183 0.000000
# 6 0.000000 0.000000 0.000000 0.000000 0.000000 0.002452
#
#
# Mechanical properties :
#
#
# Convention : Reuss Voigt Hill
#
# Bulk Modulus (GPa) = 69.46666 69.86819 69.66743
# Shear Modulus (GPa) = 42.78355 115.35078 79.06717
#
# Velocity S-wave (km/s) = 4.62775 7.59875 6.29115
# Velocity P-wave (km/s) = 7.95787 10.58120 9.36188
#
# Compressibility (1/GPa) = 0.01439539
#
# Stress axis : x y z
#
# Youngs Moduli (GPa) = 67.19412 66.69540 86.30989
#
# Poissons Ratio (x) = 0.40220 0.27016
# Poissons Ratio (y) = 0.40521 0.37741
# Poissons Ratio (z) = 0.21033 0.29164
#
# Static dielectric constant tensor:
#      x y z
#    x 3.638820 0.000000 0.000000 
#    y 0.000000 3.536710 0.000000 
#    z 0.000000 0.000000 4.137790 
# 
# 
# High freq. dielectric constant tensor:
#      x y z
#    x 1.769880 0.000000 0.000000 
#    y 0.000000 1.766020 0.000000 
#    z 0.000000 0.000000 1.806270 
# 
# From -- ./inp_files/5334.got.cif
#   From: 2010.03.12/outbox.cif.g09.slc.cpg/sg60_3_cif.got.tgz:5334.got - 2010.04.10 18:46:24.
