data_PCOD8247395
_publ_section_title
;
Structure prediction by ZEFSAII (Michael W. Deem and Ramdas Pophale) SiO2 
 PCOD8247395
Probable space group: P B C N
;
_chemical_formula_sum "Si O2"
_cell_formula_units_Z 60
_cell_length_a 16.082296
_cell_length_b 18.503219
_cell_length_c 9.284306
_cell_angle_alpha 90.000000
_cell_angle_beta 90.000000
_cell_angle_gamma 90.000000
_cell_volume 2762.770347
_symmetry_space_group_name_H-M "P B C N"
_symmetry_group_IT_number 60
_symmetry_cell_setting 'orthorhombic'
loop_
_space_group_symop_operation_xyz
x,y,z
1/2-x,1/2-y,1/2+z
1/2+x,1/2-y,-z
-x,y,1/2-z
-x,-y,-z
1/2+x,1/2+y,1/2-z
1/2-x,1/2+y,z
x,-y,1/2+z
loop_
_atom_site_type_symbol
_atom_site_label
_atom_site_fract_x
_atom_site_fract_y
_atom_site_fract_z
Si Si1 0.000000 0.914299 0.750000
Si Si2 0.911869 0.276744 0.773242
Si Si3 0.425548 0.685460 0.466224
Si Si4 0.319920 0.466075 0.671963
Si Si5 0.326343 0.783040 0.012727
Si Si6 0.224773 0.086905 0.458636
Si Si7 0.087370 0.675072 0.794039
Si Si8 0.209860 0.348388 0.527460
O O1 0.995380 0.866847 0.602689
O O2 0.917439 0.961236 0.783536
O O3 0.880398 0.251789 0.617112
O O4 0.000000 0.315422 0.750000
O O5 0.924073 0.200692 0.861916
O O6 0.853531 0.339435 0.839495
O O7 0.340195 0.649076 0.414754
O O8 0.440908 0.765177 0.407140
O O9 0.265778 0.464491 0.819007
O O10 0.306063 0.543027 0.597721
O O11 0.283687 0.404469 0.563554
O O12 0.308256 0.869075 0.993401
O O13 0.244699 0.733154 0.014380
O O14 0.374691 0.779643 0.162390
O O15 0.158186 0.628356 0.881040
O O16 0.000000 0.633567 0.750000
#
# Coordination Sequence:
#
# PCOD8247395 Si02
#       8
#     4   8   8   8   8   8   8   8
#     4  10  22  44  66  90 140 184 208 266 336 402
#     4  11  23  37  62 101 131 162 216 277 334 387
#     4  10  21  39  61  96 133 165 210 258 329 403
#     4  11  26  43  66  94 137 178 224 267 328 410
#     4  12  21  39  67  95 130 170 216 282 324 391
#     4  11  24  43  62  92 130 179 217 268 323 394
#     4  11  22  37  66  97 133 169 215 272 344 395
#     4  11  23  41  64  98 130 172 222 273 336 390
#
# _framework density 21.717331999999999
#
# number of rings (size 3 to 8) (size 9 to 14) (size 15 to 20)
#    0.000    1.067    4.667    4.000    3.733    2.133 
#    1.200    0.000    0.000    4.800    0.000    0.000 
#    0.000    0.000    0.000    0.000    0.000    0.000 
#
# Total GULP energy -743283.992957 kJ/mol
# GULP energy per Si atom -12388.066549 kJ/mol
# Density = 2.166790 g / cm^3
# Si number density = 21.717332 Si / 1000 Ang^3
#
#
#
# Elastic Constant Matrix: (Units=GPa)
#
#
# Indices 1 2 3 4 5 6 
#
# 1 111.0613 21.7950 36.7588 0.0000 0.0000 0.0000
# 2 21.7950 55.2245 12.0092 0.0000 0.0000 0.0000
# 3 36.7588 12.0092 116.6022 0.0000 0.0000 0.0000
# 4 0.0000 0.0000 0.0000 26.0233 0.0000 0.0000
# 5 0.0000 0.0000 0.0000 0.0000 41.9247 0.0000
# 6 0.0000 0.0000 0.0000 0.0000 0.0000 -13.8449
#
#
#
# Elastic Compliance Matrix: (Units=1/GPa)
#
#
# Indices 1 2 3 4 5 6 
#
# 1 0.010699 -0.003569 -0.003005 0.000000 0.000000 0.000000
# 2 -0.003569 0.019713 -0.000905 0.000000 0.000000 0.000000
# 3 -0.003005 -0.000905 0.009617 0.000000 0.000000 0.000000
# 4 0.000000 0.000000 0.000000 0.038427 0.000000 0.000000
# 5 0.000000 0.000000 0.000000 0.000000 0.023852 0.000000
# 6 0.000000 0.000000 0.000000 0.000000 0.000000 -0.072229
#
#
# Mechanical properties :
#
#
# Convention : Reuss Voigt Hill
#
# Bulk Modulus (GPa) = 39.88799 47.11268 43.50033
# Shear Modulus (GPa) = 93.64090 24.97562 59.30826
#
# Velocity S-wave (km/s) = 6.57356 3.39489 5.23149
# Velocity P-wave (km/s) = 8.71908 6.09161 7.52097
#
# Compressibility (1/GPa) = 0.02507020
#
# Stress axis : x y z
#
# Youngs Moduli (GPa) = 93.46569 50.72723 103.98449
#
# Poissons Ratio (x) = 0.18104 0.31251
# Poissons Ratio (y) = 0.33358 0.09413
# Poissons Ratio (z) = 0.28089 0.04592
#
# Static dielectric constant tensor:
#      x y z
#    x 4.139780 0.000000 0.000000 
#    y 0.000000 3.450890 0.000000 
#    z 0.000000 0.000000 4.349550 
# 
# 
# High freq. dielectric constant tensor:
#      x y z
#    x 1.858080 0.000000 0.000000 
#    y 0.000000 1.799500 0.000000 
#    z 0.000000 0.000000 1.872540 
# 
# From -- ./inp_files/6905.got.cif
#   From: 2010.03.12/outbox.cif.g09.slc.cpg/sg60_4_cif.got.tgz:6905.got - 2010.04.10 18:46:24.
