data_PCOD8247178
_publ_section_title
;
Structure prediction by ZEFSAII (Michael W. Deem and Ramdas Pophale) SiO2 
 PCOD8247178
Probable space group: P B C N
;
_chemical_formula_sum "Si O2"
_cell_formula_units_Z 24
_cell_length_a 4.925418
_cell_length_b 16.637005
_cell_length_c 13.618521
_cell_angle_alpha 90.000000
_cell_angle_beta 90.000000
_cell_angle_gamma 90.000000
_cell_volume 1115.958862
_symmetry_space_group_name_H-M "P B C N"
_symmetry_group_IT_number 60
_symmetry_cell_setting 'orthorhombic'
loop_
_space_group_symop_operation_xyz
x,y,z
1/2-x,1/2-y,1/2+z
1/2+x,1/2-y,-z
-x,y,1/2-z
-x,-y,-z
1/2+x,1/2+y,1/2-z
1/2-x,1/2+y,z
x,-y,1/2+z
loop_
_atom_site_type_symbol
_atom_site_label
_atom_site_fract_x
_atom_site_fract_y
_atom_site_fract_z
Si Si1 0.268267 0.089918 0.685530
Si Si2 0.000000 0.561934 0.250000
Si Si3 0.500000 0.666831 0.250000
Si Si4 0.852678 0.267793 0.437801
O O1 0.500000 0.135368 0.750000
O O2 0.238569 0.142374 0.586612
O O3 0.000000 0.087429 0.750000
O O4 0.374723 0.998046 0.665193
O O5 0.248236 0.614454 0.292546
O O6 0.376388 0.717449 0.161534
O O7 0.639830 0.223754 0.508427
#
# Coordination Sequence:
#
# PCOD8247178 Si02
#       4
#     8   4   4   8
#     4  10  20  42  67  88 130 177 209 256 342 376
#     4  10  21  40  71  94 124 188 204 264 349 372
#     4  12  23  44  67  98 134 166 222 282 311 394
#     4  12  26  42  68 101 129 175 224 268 328 392
#
# _framework density 21.506167999999999
#
# number of rings (size 3 to 8) (size 9 to 14) (size 15 to 20)
#    1.000    0.000    3.333    4.000    2.333    0.000 
#    0.000   10.000    0.000    0.000    0.000    0.000 
#    0.000    0.000    0.000    0.000    0.000    0.000 
#
# Total GULP energy -297352.177762 kJ/mol
# GULP energy per Si atom -12389.674073 kJ/mol
# Density = 2.145722 g / cm^3
# Si number density = 21.506168 Si / 1000 Ang^3
#
#
#
# Elastic Constant Matrix: (Units=GPa)
#
#
# Indices 1 2 3 4 5 6 
#
# 1 144.4835 35.3107 27.6701 0.0000 0.0000 0.0000
# 2 35.3107 96.5660 37.3202 0.0000 0.0000 0.0000
# 3 27.6701 37.3202 79.3837 0.0000 0.0000 0.0000
# 4 0.0000 0.0000 0.0000 10.4075 0.0000 0.0000
# 5 0.0000 0.0000 0.0000 0.0000 36.6672 0.0000
# 6 0.0000 0.0000 0.0000 0.0000 0.0000 -205.6632
#
#
#
# Elastic Compliance Matrix: (Units=1/GPa)
#
#
# Indices 1 2 3 4 5 6 
#
# 1 0.007779 -0.002196 -0.001679 0.000000 0.000000 0.000000
# 2 -0.002196 0.013275 -0.005475 0.000000 0.000000 0.000000
# 3 -0.001679 -0.005475 0.015757 0.000000 0.000000 0.000000
# 4 0.000000 0.000000 0.000000 0.096085 0.000000 0.000000
# 5 0.000000 0.000000 0.000000 0.000000 0.027272 0.000000
# 6 0.000000 0.000000 0.000000 0.000000 0.000000 -0.004862
#
#
# Mechanical properties :
#
#
# Convention : Reuss Voigt Hill
#
# Bulk Modulus (GPa) = 55.21895 57.89279 56.55587
# Shear Modulus (GPa) = 27.77118 -17.04223 5.36447
#
# Velocity S-wave (km/s) = 3.59738 -2.81808 1.58108
# Velocity P-wave (km/s) = 6.55641 4.04832 5.44864
#
# Compressibility (1/GPa) = 0.01810972
#
# Stress axis : x y z
#
# Youngs Moduli (GPa) = 128.54436 75.33211 63.46575
#
# Poissons Ratio (x) = 0.16540 0.10658
# Poissons Ratio (y) = 0.28223 0.34750
# Poissons Ratio (z) = 0.21588 0.41247
#
# Static dielectric constant tensor:
#      x y z
#    x 3.581720 0.000000 0.000000 
#    y 0.000000 4.035870 0.000000 
#    z 0.000000 0.000000 3.666650 
# 
# 
# High freq. dielectric constant tensor:
#      x y z
#    x 1.870160 0.000000 0.000000 
#    y 0.000000 1.853320 0.000000 
#    z 0.000000 0.000000 1.792770 
# 
# From -- ./inp_files/8686.got.cif
#   From: 2010.03.12/outbox.cif.g09.slc.cpg/sg60_5_cif.got.tgz:8686.got - 2010.04.10 18:46:24.
