data_PCOD8247587
_publ_section_title
;
Structure prediction by ZEFSAII (Michael W. Deem and Ramdas Pophale) SiO2 
 PCOD8247587
Probable space group: P B C N
;
_chemical_formula_sum "Si O2"
_cell_formula_units_Z 40
_cell_length_a 7.231343
_cell_length_b 14.921507
_cell_length_c 13.853593
_cell_angle_alpha 90.000000
_cell_angle_beta 90.000000
_cell_angle_gamma 90.000000
_cell_volume 1494.837806
_symmetry_space_group_name_H-M "P B C N"
_symmetry_group_IT_number 60
_symmetry_cell_setting 'orthorhombic'
loop_
_space_group_symop_operation_xyz
x,y,z
1/2-x,1/2-y,1/2+z
1/2+x,1/2-y,-z
-x,y,1/2-z
-x,-y,-z
1/2+x,1/2+y,1/2-z
1/2-x,1/2+y,z
x,-y,1/2+z
loop_
_atom_site_type_symbol
_atom_site_label
_atom_site_fract_x
_atom_site_fract_y
_atom_site_fract_z
Si Si1 0.149255 0.068397 0.169116
Si Si2 0.289376 0.904055 0.257357
Si Si3 0.240491 0.036129 0.961893
Si Si4 0.098053 0.352539 0.976745
Si Si5 0.178017 0.750383 0.137535
O O1 0.215968 0.168200 0.187895
O O2 0.000000 0.044891 0.250000
O O3 0.304972 0.992756 0.189350
O O4 0.099105 0.052997 0.053587
O O5 0.500000 0.866847 0.250000
O O6 0.183783 0.923070 0.358901
O O7 0.154429 0.828991 0.214115
O O8 0.262842 0.929652 0.940341
O O9 0.426897 0.091753 0.981483
O O10 0.024068 0.286229 0.893181
O O11 0.200481 0.286207 0.048908
#
# Coordination Sequence:
#
# PCOD8247587 Si02
#       5
#     8   8   8   8   8
#     4  11  26  46  70 112 147 191 263 320 379 463
#     4  12  22  45  76  99 154 206 248 315 401 467
#     4  10  21  45  76  99 148 211 245 309 395 469
#     4  10  21  44  74 103 144 195 257 311 385 463
#     4  11  23  44  74 110 143 195 257 321 387 455
#
# _framework density 26.758756000000002
#
# number of rings (size 3 to 8) (size 9 to 14) (size 15 to 20)
#    0.000    1.200    4.000    3.000    0.000    2.400 
#   10.800    1.000    0.000    0.000    0.000    0.000 
#    0.000    0.000    0.000    0.000    0.000    0.000 
#
# Total GULP energy -495571.382321 kJ/mol
# GULP energy per Si atom -12389.284558 kJ/mol
# Density = 2.669785 g / cm^3
# Si number density = 26.758756 Si / 1000 Ang^3
#
#
#
# Elastic Constant Matrix: (Units=GPa)
#
#
# Indices 1 2 3 4 5 6 
#
# 1 66.3271 44.0684 62.3515 0.0000 0.0000 0.0000
# 2 44.0684 195.6408 77.1110 0.0000 0.0000 0.0000
# 3 62.3515 77.1110 202.3605 0.0000 0.0000 0.0000
# 4 0.0000 0.0000 0.0000-1370.2747 0.0000 0.0000
# 5 0.0000 0.0000 0.0000 0.0000 42.2104 0.0000
# 6 0.0000 0.0000 0.0000 0.0000 0.0000 -41.6185
#
#
#
# Elastic Compliance Matrix: (Units=1/GPa)
#
#
# Indices 1 2 3 4 5 6 
#
# 1 0.022404 -0.002737 -0.005860 0.000000 0.000000 0.000000
# 2 -0.002737 0.006349 -0.001576 0.000000 0.000000 0.000000
# 3 -0.005860 -0.001576 0.007348 0.000000 0.000000 0.000000
# 4 0.000000 0.000000 0.000000 -0.000730 0.000000 0.000000
# 5 0.000000 0.000000 0.000000 0.000000 0.023691 0.000000
# 6 0.000000 0.000000 0.000000 0.000000 0.000000 -0.024028
#
#
# Mechanical properties :
#
#
# Convention : Reuss Voigt Hill
#
# Bulk Modulus (GPa) = 63.47263 92.37670 77.92467
# Shear Modulus (GPa) = 82.46393 -255.21674 -86.37641
#
# Velocity S-wave (km/s) = 5.55738 -9.77671 -5.68768
# Velocity P-wave (km/s) = 8.05922 9.63578 3.73478
#
# Compressibility (1/GPa) = 0.01575482
#
# Stress axis : x y z
#
# Youngs Moduli (GPa) = 44.63449 157.50294 136.09220
#
# Poissons Ratio (x) = 0.43105 0.79755
# Poissons Ratio (y) = 0.12215 0.21450
# Poissons Ratio (z) = 0.26157 0.24824
#
# Static dielectric constant tensor:
#      x y z
#    x 4.599330 0.000000 0.000000 
#    y 0.000000 5.174340 0.000000 
#    z 0.000000 0.000000 5.160180 
# 
# 
# High freq. dielectric constant tensor:
#      x y z
#    x 2.059800 0.000000 0.000000 
#    y 0.000000 2.097770 0.000000 
#    z 0.000000 0.000000 2.081370 
# 
# From -- ./inp_files/14664.got.cif
#   From: 2010.03.12/outbox.cif.g09.slc.cpg/sg60_8_cif.got.tgz:14664.got - 2010.04.10 18:46:24.
