data_PCOD8247285
_publ_section_title
;
Structure prediction by ZEFSAII (Michael W. Deem and Ramdas Pophale) SiO2 
 PCOD8247285
Probable space group: P B C N
;
_chemical_formula_sum "Si O2"
_cell_formula_units_Z 64
_cell_length_a 8.891564
_cell_length_b 15.674503
_cell_length_c 23.867110
_cell_angle_alpha 90.000000
_cell_angle_beta 90.000000
_cell_angle_gamma 90.000000
_cell_volume 3326.379326
_symmetry_space_group_name_H-M "P B C N"
_symmetry_group_IT_number 60
_symmetry_cell_setting 'orthorhombic'
loop_
_space_group_symop_operation_xyz
x,y,z
1/2-x,1/2-y,1/2+z
1/2+x,1/2-y,-z
-x,y,1/2-z
-x,-y,-z
1/2+x,1/2+y,1/2-z
1/2-x,1/2+y,z
x,-y,1/2+z
loop_
_atom_site_type_symbol
_atom_site_label
_atom_site_fract_x
_atom_site_fract_y
_atom_site_fract_z
Si Si1 0.304277 0.416866 0.624022
Si Si2 0.323708 0.240050 0.315026
Si Si3 0.124085 0.674511 0.895968
Si Si4 0.119344 0.859454 0.888040
Si Si5 0.651644 0.894128 0.989783
Si Si6 0.688401 0.895546 0.384336
Si Si7 0.819577 0.409954 0.509755
Si Si8 0.174371 0.740804 0.185064
O O1 0.485924 0.424415 0.628099
O O2 0.258829 0.379494 0.563126
O O3 0.237222 0.510379 0.636445
O O4 0.247871 0.349382 0.669496
O O5 0.253572 0.322069 0.348112
O O6 0.243442 0.152847 0.338248
O O7 0.498884 0.234548 0.328049
O O8 0.290284 0.253818 0.250162
O O9 0.042449 0.767057 0.898828
O O10 0.205344 0.659098 0.955888
O O11 0.994630 0.605592 0.881751
O O12 0.195569 0.888849 0.944971
O O13 0.479891 0.866836 0.974761
O O14 0.656308 0.990224 0.009945
O O15 0.738622 0.879495 0.448594
O O16 0.758774 0.822646 0.346102
#
# Coordination Sequence:
#
# PCOD8247285 Si02
#       8
#     8   8   8   8   8   8   8   8
#     4  11  23  37  62  91 119 161 196 245 305 356
#     4   9  23  39  61  87 115 158 202 256 295 351
#     4   9  20  38  58  88 119 157 197 237 305 346
#     4  10  21  37  58  89 120 157 199 238 303 353
#     4   9  19  34  57  86 122 156 192 243 286 358
#     4  10  22  39  61  89 120 157 199 243 302 361
#     4   9  19  36  55  87 123 151 196 241 291 355
#     4  11  21  43  62  82 121 154 204 251 299 357
#
# _framework density 19.240138000000002
#
# number of rings (size 3 to 8) (size 9 to 14) (size 15 to 20)
#    0.750    1.500    1.250    1.500    1.750    6.000 
#    0.000    6.250    0.000    0.000    0.000    0.000 
#    0.000    0.000    0.000    0.000    0.000    0.000 
#
# Total GULP energy -793112.231385 kJ/mol
# GULP energy per Si atom -12392.378615 kJ/mol
# Density = 1.919635 g / cm^3
# Si number density = 19.240138 Si / 1000 Ang^3
#
#
#
# Elastic Constant Matrix: (Units=GPa)
#
#
# Indices 1 2 3 4 5 6 
#
# 1 99.2590 17.1001 45.4193 0.0000 0.0000 0.0000
# 2 17.1001 49.7041 20.5225 0.0000 0.0000 0.0000
# 3 45.4193 20.5225 71.1498 0.0000 0.0000 0.0000
# 4 0.0000 0.0000 0.0000 12.9972 0.0000 0.0000
# 5 0.0000 0.0000 0.0000 0.0000 30.5206 0.0000
# 6 0.0000 0.0000 0.0000 0.0000 0.0000 22.4581
#
#
#
# Elastic Compliance Matrix: (Units=1/GPa)
#
#
# Indices 1 2 3 4 5 6 
#
# 1 0.014306 -0.001307 -0.008756 0.000000 0.000000 0.000000
# 2 -0.001307 0.022958 -0.005788 0.000000 0.000000 0.000000
# 3 -0.008756 -0.005788 0.021314 0.000000 0.000000 0.000000
# 4 0.000000 0.000000 0.000000 0.076940 0.000000 0.000000
# 5 0.000000 0.000000 0.000000 0.000000 0.032765 0.000000
# 6 0.000000 0.000000 0.000000 0.000000 0.000000 0.044527
#
#
# Mechanical properties :
#
#
# Convention : Reuss Voigt Hill
#
# Bulk Modulus (GPa) = 37.20573 42.91076 40.05825
# Shear Modulus (GPa) = 19.72621 22.33324 21.02972
#
# Velocity S-wave (km/s) = 3.20545 3.41069 3.30966
# Velocity P-wave (km/s) = 5.75147 6.15318 5.95571
#
# Compressibility (1/GPa) = 0.02687758
#
# Stress axis : x y z
#
# Youngs Moduli (GPa) = 69.89977 43.55690 46.91839
#
# Poissons Ratio (x) = 0.05692 0.41080
# Poissons Ratio (y) = 0.09134 0.27156
# Poissons Ratio (z) = 0.61202 0.25211
#
# Static dielectric constant tensor:
#      x y z
#    x 3.512000 0.000000 0.000000 
#    y 0.000000 3.362540 0.000000 
#    z 0.000000 0.000000 3.491900 
# 
# 
# High freq. dielectric constant tensor:
#      x y z
#    x 1.749860 0.000000 0.000000 
#    y 0.000000 1.733810 0.000000 
#    z 0.000000 0.000000 1.744850 
# 
# From -- ./inp_files/24136.got.cif
#   From: 2010.03.12/outbox.cif.g09.slc.cpg/sg60_13_cif.got.tgz:24136.got - 2010.04.10 18:46:24.
