data_PCOD8247772
_publ_section_title
;
Structure prediction by ZEFSAII (Michael W. Deem and Ramdas Pophale) SiO2 
 PCOD8247772
Probable space group: P B C N
;
_chemical_formula_sum "Si O2"
_cell_formula_units_Z 48
_cell_length_a 8.126186
_cell_length_b 31.558801
_cell_length_c 9.068783
_cell_angle_alpha 90.000000
_cell_angle_beta 90.000000
_cell_angle_gamma 90.000000
_cell_volume 2325.713767
_symmetry_space_group_name_H-M "P B C N"
_symmetry_group_IT_number 60
_symmetry_cell_setting 'orthorhombic'
loop_
_space_group_symop_operation_xyz
x,y,z
1/2-x,1/2-y,1/2+z
1/2+x,1/2-y,-z
-x,y,1/2-z
-x,-y,-z
1/2+x,1/2+y,1/2-z
1/2-x,1/2+y,z
x,-y,1/2+z
loop_
_atom_site_type_symbol
_atom_site_label
_atom_site_fract_x
_atom_site_fract_y
_atom_site_fract_z
Si Si1 0.614151 0.736568 0.627827
Si Si2 0.140600 0.709339 0.657127
Si Si3 0.500000 0.420757 0.250000
Si Si4 0.568866 0.655011 0.948923
Si Si5 0.809697 0.554469 0.272820
Si Si6 0.500000 0.616868 0.250000
Si Si7 0.823042 0.014663 0.560067
O O1 0.500000 0.759261 0.750000
O O2 0.588070 0.758659 0.472014
O O3 0.790166 0.737873 0.706599
O O4 0.568952 0.686453 0.615988
O O5 0.253367 0.675223 0.578235
O O6 0.000000 0.685010 0.750000
O O7 0.427649 0.391409 0.122007
O O8 0.646714 0.449054 0.182523
O O9 0.533056 0.649154 0.119052
O O10 0.668166 0.590382 0.274642
O O11 0.771282 0.523772 0.136644
O O12 0.794492 0.530682 0.429257
O O13 0.000000 0.571017 0.250000
O O14 0.000000 0.000000 0.500000
#
# Coordination Sequence:
#
# PCOD8247772 Si02
#       7
#     8   8   4   8   8   4   8
#     4  10  22  41  66  93 127 180 227 276 353 416
#     4  11  22  41  65  97 132 166 235 289 334 422
#     4  12  19  42  70  86 136 184 212 274 354 412
#     4  11  24  43  65  93 130 185 218 272 368 403
#     4  12  25  44  69 104 132 178 236 276 336 414
#     4  12  25  46  68  92 146 178 222 290 344 408
#     4  12  21  42  74  95 136 184 222 278 343 409
#
# _framework density 20.638825000000001
#
# number of rings (size 3 to 8) (size 9 to 14) (size 15 to 20)
#    0.000    0.667    7.500    2.500    3.500    0.000 
#    6.000    0.000    0.000    0.000    0.000    0.000 
#    0.000    0.000    0.000    0.000    0.000    0.000 
#
# Total GULP energy -594676.998280 kJ/mol
# GULP energy per Si atom -12389.104131 kJ/mol
# Density = 2.059185 g / cm^3
# Si number density = 20.638825 Si / 1000 Ang^3
#
#
#
# Elastic Constant Matrix: (Units=GPa)
#
#
# Indices 1 2 3 4 5 6 
#
# 1 129.2463 31.1962 55.9738 0.0000 0.0000 0.0000
# 2 31.1962 67.0933 38.1894 0.0000 0.0000 0.0000
# 3 55.9738 38.1894 158.5595 0.0000 0.0000 0.0000
# 4 0.0000 0.0000 0.0000 44.3186 0.0000 0.0000
# 5 0.0000 0.0000 0.0000 0.0000 39.9986 0.0000
# 6 0.0000 0.0000 0.0000 0.0000 0.0000 8.4108
#
#
#
# Elastic Compliance Matrix: (Units=1/GPa)
#
#
# Indices 1 2 3 4 5 6 
#
# 1 0.009609 -0.002940 -0.002684 0.000000 0.000000 0.000000
# 2 -0.002940 0.018172 -0.003339 0.000000 0.000000 0.000000
# 3 -0.002684 -0.003339 0.008058 0.000000 0.000000 0.000000
# 4 0.000000 0.000000 0.000000 0.022564 0.000000 0.000000
# 5 0.000000 0.000000 0.000000 0.000000 0.025001 0.000000
# 6 0.000000 0.000000 0.000000 0.000000 0.000000 0.118895
#
#
# Mechanical properties :
#
#
# Convention : Reuss Voigt Hill
#
# Bulk Modulus (GPa) = 55.82346 67.29089 61.55718
# Shear Modulus (GPa) = 22.10460 33.84824 27.97642
#
# Velocity S-wave (km/s) = 3.27620 4.05412 3.68574
# Velocity P-wave (km/s) = 6.43566 7.38846 6.92846
#
# Compressibility (1/GPa) = 0.01791361
#
# Stress axis : x y z
#
# Youngs Moduli (GPa) = 104.06639 55.02908 124.09317
#
# Poissons Ratio (x) = 0.16180 0.33307
# Poissons Ratio (y) = 0.30598 0.41433
# Poissons Ratio (z) = 0.27932 0.18374
#
# Static dielectric constant tensor:
#      x y z
#    x 4.344330 0.000000 0.000000 
#    y 0.000000 3.617410 0.000000 
#    z 0.000000 0.000000 4.359790 
# 
# 
# High freq. dielectric constant tensor:
#      x y z
#    x 1.798250 0.000000 0.000000 
#    y 0.000000 1.789500 0.000000 
#    z 0.000000 0.000000 1.841110 
# 
# From -- ./inp_files/4259.got.cif
#   From: 2010.03.12/outbox.cif.g09.slc.cpg/sg60_3_cif.got.tgz:4259.got - 2010.04.10 18:46:24.
