data_PCOD8247872
_publ_section_title
;
Structure prediction by ZEFSAII (Michael W. Deem and Ramdas Pophale) SiO2 
 PCOD8247872
Probable space group: P B C N
;
_chemical_formula_sum "Si O2"
_cell_formula_units_Z 56
_cell_length_a 20.168448
_cell_length_b 11.856575
_cell_length_c 8.262359
_cell_angle_alpha 90.000000
_cell_angle_beta 90.000000
_cell_angle_gamma 90.000000
_cell_volume 1975.767302
_symmetry_space_group_name_H-M "P B C N"
_symmetry_group_IT_number 60
_symmetry_cell_setting 'orthorhombic'
loop_
_space_group_symop_operation_xyz
x,y,z
1/2-x,1/2-y,1/2+z
1/2+x,1/2-y,-z
-x,y,1/2-z
-x,-y,-z
1/2+x,1/2+y,1/2-z
1/2-x,1/2+y,z
x,-y,1/2+z
loop_
_atom_site_type_symbol
_atom_site_label
_atom_site_fract_x
_atom_site_fract_y
_atom_site_fract_z
Si Si1 0.596300 0.109635 0.578753
Si Si2 0.000000 0.440484 0.750000
Si Si3 0.525994 0.263885 0.047430
Si Si4 0.825902 0.452897 0.369772
Si Si5 0.728882 0.363064 0.851101
Si Si6 0.090595 0.166300 0.279532
Si Si7 0.330748 0.236871 0.367304
Si Si8 0.500000 0.462405 0.250000
O O1 0.621400 0.056621 0.408949
O O2 0.570378 0.244652 0.573492
O O3 0.555128 0.021101 0.682390
O O4 0.657699 0.120231 0.709070
O O5 0.984802 0.355148 0.906580
O O6 0.591020 0.258040 0.167589
O O7 0.488569 0.380588 0.094418
O O8 0.556301 0.267520 0.869567
O O9 0.753694 0.508246 0.346309
O O10 0.824116 0.377942 0.529759
O O11 0.668792 0.348297 0.725568
O O12 0.789178 0.278958 0.798618
O O13 0.702487 0.337467 0.030570
O O14 0.062301 0.041016 0.292916
#
# Coordination Sequence:
#
# PCOD8247872 Si02
#       8
#     8   4   8   8   8   8   8   4
#     4  12  23  42  68 102 141 174 229 289 342 421
#     4  11  21  38  70 100 129 189 218 278 362 395
#     4  10  22  44  66  91 140 177 227 283 343 413
#     4  12  23  43  66  98 139 175 226 287 351 407
#     4  11  24  40  70  95 135 183 221 287 347 409
#     4  11  24  44  62 101 133 175 232 286 339 417
#     4  11  23  45  64  99 135 172 234 282 342 414
#     4  11  25  42  68  92 135 185 232 278 348 421
#
# _framework density 28.343419000000001
#
# number of rings (size 3 to 8) (size 9 to 14) (size 15 to 20)
#    0.000    0.857    5.714    1.714    0.000    6.857 
#    0.000    4.286    0.000    0.000    0.000    0.000 
#    0.000    0.000    0.000    0.000    0.000    0.000 
#
# Total GULP energy -694113.345079 kJ/mol
# GULP energy per Si atom -12394.881162 kJ/mol
# Density = 2.827891 g / cm^3
# Si number density = 28.343419 Si / 1000 Ang^3
#
#
#
# Elastic Constant Matrix: (Units=GPa)
#
#
# Indices 1 2 3 4 5 6 
#
# 1 100.9193 57.1534 2.3322 0.0000 0.0000 0.0000
# 2 57.1534 193.8367 18.8258 0.0000 0.0000 0.0000
# 3 2.3322 18.8258 52.0372 0.0000 0.0000 0.0000
# 4 0.0000 0.0000 0.0000 53.9490 0.0000 0.0000
# 5 0.0000 0.0000 0.0000 0.0000 34.5872 0.0000
# 6 0.0000 0.0000 0.0000 0.0000 0.0000 -260.9290
#
#
#
# Elastic Compliance Matrix: (Units=1/GPa)
#
#
# Indices 1 2 3 4 5 6 
#
# 1 0.011924 -0.003590 0.000764 0.000000 0.000000 0.000000
# 2 -0.003590 0.006428 -0.002165 0.000000 0.000000 0.000000
# 3 0.000764 -0.002165 0.019966 0.000000 0.000000 0.000000
# 4 0.000000 0.000000 0.000000 0.018536 0.000000 0.000000
# 5 0.000000 0.000000 0.000000 0.000000 0.028912 0.000000
# 6 0.000000 0.000000 0.000000 0.000000 0.000000 -0.003832
#
#
# Mechanical properties :
#
#
# Convention : Reuss Voigt Hill
#
# Bulk Modulus (GPa) = 35.28894 55.93512 45.61203
# Shear Modulus (GPa) = 49.32883 -16.57980 16.37452
#
# Velocity S-wave (km/s) = 4.17633 -2.42122 2.40619
# Velocity P-wave (km/s) = 5.97773 3.45850 4.88336
#
# Compressibility (1/GPa) = 0.02833749
#
# Stress axis : x y z
#
# Youngs Moduli (GPa) = 83.86116 155.57453 50.08553
#
# Poissons Ratio (x) = 0.55855 -0.03829
# Poissons Ratio (y) = 0.30108 0.10841
# Poissons Ratio (z) = -0.06410 0.33674
#
# Static dielectric constant tensor:
#      x y z
#    x 6.027070 0.000000 0.000000 
#    y 0.000000 5.309760 0.000000 
#    z 0.000000 0.000000 5.648460 
# 
# 
# High freq. dielectric constant tensor:
#      x y z
#    x 2.166670 0.000000 0.000000 
#    y 0.000000 2.159670 0.000000 
#    z 0.000000 0.000000 2.155140 
# 
# From -- ./inp_files/12853.got.cif
#   From: 2010.03.12/outbox.cif.g09.slc.cpg/sg60_7_cif.got.tgz:12853.got - 2010.04.10 18:46:24.
