data_PCOD8247121
_publ_section_title
;
Structure prediction by ZEFSAII (Michael W. Deem and Ramdas Pophale) SiO2 
 PCOD8247121
Probable space group: P B C N
;
_chemical_formula_sum "Si O2"
_cell_formula_units_Z 44
_cell_length_a 6.133258
_cell_length_b 18.358512
_cell_length_c 19.278666
_cell_angle_alpha 90.000000
_cell_angle_beta 90.000000
_cell_angle_gamma 90.000000
_cell_volume 2170.729414
_symmetry_space_group_name_H-M "P B C N"
_symmetry_group_IT_number 60
_symmetry_cell_setting 'orthorhombic'
loop_
_space_group_symop_operation_xyz
x,y,z
1/2-x,1/2-y,1/2+z
1/2+x,1/2-y,-z
-x,y,1/2-z
-x,-y,-z
1/2+x,1/2+y,1/2-z
1/2-x,1/2+y,z
x,-y,1/2+z
loop_
_atom_site_type_symbol
_atom_site_label
_atom_site_fract_x
_atom_site_fract_y
_atom_site_fract_z
Si Si1 0.121644 0.938059 0.679939
Si Si2 0.613242 0.671956 0.930460
Si Si3 0.000000 0.516058 0.750000
Si Si4 0.492845 0.080750 0.974705
Si Si5 0.664013 0.573721 0.647851
Si Si6 0.701695 0.674172 0.438196
O O1 0.110353 0.870746 0.627123
O O2 0.000000 0.912811 0.750000
O O3 0.371230 0.964141 0.695591
O O4 0.991878 0.004110 0.645179
O O5 0.479524 0.647750 0.860822
O O6 0.738490 0.745596 0.911140
O O7 0.779225 0.605942 0.943710
O O8 0.473657 0.682324 0.000461
O O9 0.819013 0.569253 0.715333
O O10 0.305872 0.077543 0.919377
O O11 0.422038 0.135314 0.035956
O O12 0.500000 0.000000 0.000000
#
# Coordination Sequence:
#
# PCOD8247121 Si02
#       6
#     8   8   4   8   8   8
#     4  10  22  41  66  89 119 161 213 259 306 381
#     4  11  22  38  61  93 131 167 201 267 314 374
#     4  10  20  40  66  88 116 166 204 270 302 374
#     4  11  21  36  62  96 117 161 203 260 309 366
#     4  10  21  37  62  92 120 156 210 255 310 364
#     4  11  22  39  62  92 129 166 208 256 322 373
#
# _framework density 20.269684999999999
#
# number of rings (size 3 to 8) (size 9 to 14) (size 15 to 20)
#    0.000    1.455    1.818    4.364    0.000    4.364 
#    0.000    0.000   26.000    0.000    0.000    0.000 
#    0.000    0.000    0.000    0.000    0.000    0.000 
#
# Total GULP energy -545371.893986 kJ/mol
# GULP energy per Si atom -12394.815772 kJ/mol
# Density = 2.022355 g / cm^3
# Si number density = 20.269685 Si / 1000 Ang^3
#
#
#
# Elastic Constant Matrix: (Units=GPa)
#
#
# Indices 1 2 3 4 5 6 
#
# 1 105.2383 59.7609 27.3130 0.0000 0.0000 0.0000
# 2 59.7609 146.6772 55.1798 0.0000 0.0000 0.0000
# 3 27.3130 55.1798 80.6568 0.0000 0.0000 0.0000
# 4 0.0000 0.0000 0.0000 29.8069 0.0000 0.0000
# 5 0.0000 0.0000 0.0000 0.0000 14.9861 0.0000
# 6 0.0000 0.0000 0.0000 0.0000 0.0000 -3.8430
#
#
#
# Elastic Compliance Matrix: (Units=1/GPa)
#
#
# Indices 1 2 3 4 5 6 
#
# 1 0.012422 -0.004684 -0.001002 0.000000 0.000000 0.000000
# 2 -0.004684 0.010947 -0.005903 0.000000 0.000000 0.000000
# 3 -0.001002 -0.005903 0.016776 0.000000 0.000000 0.000000
# 4 0.000000 0.000000 0.000000 0.033549 0.000000 0.000000
# 5 0.000000 0.000000 0.000000 0.000000 0.066728 0.000000
# 6 0.000000 0.000000 0.000000 0.000000 0.000000 -0.260212
#
#
# Mechanical properties :
#
#
# Convention : Reuss Voigt Hill
#
# Bulk Modulus (GPa) = 58.93838 68.56440 63.75139
# Shear Modulus (GPa) = -54.97209 20.87791 -17.04709
#
# Velocity S-wave (km/s) = -5.21337 3.21285 -2.90317
# Velocity P-wave (km/s) = 2.66434 6.90382 4.50356
#
# Compressibility (1/GPa) = 0.01696687
#
# Stress axis : x y z
#
# Youngs Moduli (GPa) = 80.50025 91.35022 59.60965
#
# Poissons Ratio (x) = 0.42791 0.05972
# Poissons Ratio (y) = 0.37709 0.35187
# Poissons Ratio (z) = 0.08065 0.53923
#
# Static dielectric constant tensor:
#      x y z
#    x 4.041360 0.000000 0.000000 
#    y 0.000000 3.670510 0.000000 
#    z 0.000000 0.000000 3.732850 
# 
# 
# High freq. dielectric constant tensor:
#      x y z
#    x 1.812210 0.000000 0.000000 
#    y 0.000000 1.782740 0.000000 
#    z 0.000000 0.000000 1.782930 
# 
# From -- ./inp_files/21571.got.cif
#   From: 2010.03.12/outbox.cif.g09.slc.cpg/sg60_11_cif.got.tgz:21571.got - 2010.04.10 18:46:24.
