data_PCOD8247814
_publ_section_title
;
Structure prediction by ZEFSAII (Michael W. Deem and Ramdas Pophale) SiO2 
 PCOD8247814
Probable space group: P B C N
;
_chemical_formula_sum "Si O2"
_cell_formula_units_Z 40
_cell_length_a 10.072061
_cell_length_b 12.989337
_cell_length_c 14.698686
_cell_angle_alpha 90.000000
_cell_angle_beta 90.000000
_cell_angle_gamma 90.000000
_cell_volume 1923.020191
_symmetry_space_group_name_H-M "P B C N"
_symmetry_group_IT_number 60
_symmetry_cell_setting 'orthorhombic'
loop_
_space_group_symop_operation_xyz
x,y,z
1/2-x,1/2-y,1/2+z
1/2+x,1/2-y,-z
-x,y,1/2-z
-x,-y,-z
1/2+x,1/2+y,1/2-z
1/2-x,1/2+y,z
x,-y,1/2+z
loop_
_atom_site_type_symbol
_atom_site_label
_atom_site_fract_x
_atom_site_fract_y
_atom_site_fract_z
Si Si1 0.637833 0.713676 0.042631
Si Si2 0.732253 0.391674 0.366906
Si Si3 0.224463 0.863497 0.337262
Si Si4 0.005976 0.025945 0.354572
Si Si5 0.016731 0.582813 0.922676
O O1 0.755275 0.754228 0.110874
O O2 0.560612 0.616766 0.083671
O O3 0.530543 0.804768 0.029955
O O4 0.704987 0.689796 0.946442
O O5 0.702355 0.340503 0.269332
O O6 0.642799 0.493703 0.383922
O O7 0.885385 0.423309 0.362181
O O8 0.353980 0.936047 0.358454
O O9 0.095395 0.924467 0.371792
O O10 0.000000 0.062781 0.250000
O O11 0.000000 0.500000 0.000000
#
# Coordination Sequence:
#
# PCOD8247814 Si02
#       5
#     8   8   8   8   8
#     4  10  24  38  71  92 138 170 229 261 345 395
#     4  11  22  41  69  94 132 176 224 277 333 397
#     4   9  23  42  64  96 136 169 224 280 333 398
#     4  10  22  42  66  97 131 177 225 275 332 408
#     4  10  23  41  63  94 136 169 221 276 331 393
#
# _framework density 20.800615000000001
#
# number of rings (size 3 to 8) (size 9 to 14) (size 15 to 20)
#    1.200    0.800    0.000    2.400    5.600    1.600 
#    3.600    0.000    0.000    0.000    0.000    0.000 
#    0.000    0.000    0.000    0.000    0.000    0.000 
#
# Total GULP energy -495723.552245 kJ/mol
# GULP energy per Si atom -12393.088806 kJ/mol
# Density = 2.075327 g / cm^3
# Si number density = 20.800615 Si / 1000 Ang^3
#
#
#
# Elastic Constant Matrix: (Units=GPa)
#
#
# Indices 1 2 3 4 5 6 
#
# 1 90.8454 4.9272 13.3865 0.0000 0.0000 0.0000
# 2 4.9272 73.9421 46.6138 0.0000 0.0000 0.0000
# 3 13.3865 46.6138 118.3219 0.0000 0.0000 0.0000
# 4 0.0000 0.0000 0.0000 27.4033 0.0000 0.0000
# 5 0.0000 0.0000 0.0000 0.0000 34.9854 0.0000
# 6 0.0000 0.0000 0.0000 0.0000 0.0000 22.0076
#
#
#
# Elastic Compliance Matrix: (Units=1/GPa)
#
#
# Indices 1 2 3 4 5 6 
#
# 1 0.011195 0.000070 -0.001294 0.000000 0.000000 0.000000
# 2 0.000070 0.017993 -0.007096 0.000000 0.000000 0.000000
# 3 -0.001294 -0.007096 0.011394 0.000000 0.000000 0.000000
# 4 0.000000 0.000000 0.000000 0.036492 0.000000 0.000000
# 5 0.000000 0.000000 0.000000 0.000000 0.028583 0.000000
# 6 0.000000 0.000000 0.000000 0.000000 0.000000 0.045439
#
#
# Mechanical properties :
#
#
# Convention : Reuss Voigt Hill
#
# Bulk Modulus (GPa) = 41.77103 45.88495 43.82799
# Shear Modulus (GPa) = 28.45489 31.42471 29.93980
#
# Velocity S-wave (km/s) = 3.70264 3.89106 3.79802
# Velocity P-wave (km/s) = 6.19714 6.50342 6.35213
#
# Compressibility (1/GPa) = 0.02394004
#
# Stress axis : x y z
#
# Youngs Moduli (GPa) = 89.32869 55.57691 87.76856
#
# Poissons Ratio (x) = -0.00388 0.11357
# Poissons Ratio (y) = -0.00623 0.62284
# Poissons Ratio (z) = 0.11559 0.39440
#
# Static dielectric constant tensor:
#      x y z
#    x 5.642140 0.000000 0.000000 
#    y 0.000000 3.503800 0.000000 
#    z 0.000000 0.000000 6.437320 
# 
# 
# High freq. dielectric constant tensor:
#      x y z
#    x 1.825710 0.000000 0.000000 
#    y 0.000000 1.787980 0.000000 
#    z 0.000000 0.000000 1.818930 
# 
# From -- ./inp_files/14668.got.cif
#   From: 2010.03.12/outbox.cif.g09.slc.cpg/sg60_8_cif.got.tgz:14668.got - 2010.04.10 18:46:24.
