data_PCOD8247628
_publ_section_title
;
Structure prediction by ZEFSAII (Michael W. Deem and Ramdas Pophale) SiO2 
 PCOD8247628
Probable space group: P B C N
;
_chemical_formula_sum "Si O2"
_cell_formula_units_Z 40
_cell_length_a 8.966111
_cell_length_b 23.784779
_cell_length_c 9.113131
_cell_angle_alpha 90.000000
_cell_angle_beta 90.000000
_cell_angle_gamma 90.000000
_cell_volume 1943.438692
_symmetry_space_group_name_H-M "P B C N"
_symmetry_group_IT_number 60
_symmetry_cell_setting 'orthorhombic'
loop_
_space_group_symop_operation_xyz
x,y,z
1/2-x,1/2-y,1/2+z
1/2+x,1/2-y,-z
-x,y,1/2-z
-x,-y,-z
1/2+x,1/2+y,1/2-z
1/2-x,1/2+y,z
x,-y,1/2+z
loop_
_atom_site_type_symbol
_atom_site_label
_atom_site_fract_x
_atom_site_fract_y
_atom_site_fract_z
Si Si1 0.183071 0.943286 0.894632
Si Si2 0.167999 0.727563 0.727514
Si Si3 0.177321 0.817289 0.953592
Si Si4 0.102156 0.850250 0.384535
Si Si5 0.332083 0.547397 0.070889
O O1 0.228936 0.882263 0.957547
O O2 0.246710 0.945888 0.729112
O O3 0.007649 0.955510 0.898822
O O4 0.246858 0.992766 0.997771
O O5 0.184645 0.791656 0.789028
O O6 0.219612 0.721029 0.559334
O O7 0.271765 0.690184 0.828324
O O8 0.000000 0.706280 0.750000
O O9 0.003995 0.815305 0.003974
O O10 0.192150 0.900183 0.462964
O O11 0.000000 0.873925 0.250000
#
# Coordination Sequence:
#
# PCOD8247628 Si02
#       5
#     8   8   8   8   8
#     4   9  19  30  53  85 114 138 183 232 295 335
#     4  11  23  37  58  81 117 155 190 227 278 334
#     4  10  22  37  58  86 115 147 192 233 282 336
#     4   9  20  36  56  84 114 149 190 236 282 334
#     4   9  18  30  54  83 114 142 177 241 291 334
#
# _framework density 20.582073999999999
#
# number of rings (size 3 to 8) (size 9 to 14) (size 15 to 20)
#    0.000    2.400    0.000    1.200   19.600    0.000 
#    0.000    0.000    0.000    1.200    0.000    0.000 
#    0.000    0.000    0.000    0.000    0.000    0.000 
#
# Total GULP energy -495714.703331 kJ/mol
# GULP energy per Si atom -12392.867583 kJ/mol
# Density = 2.053523 g / cm^3
# Si number density = 20.582074 Si / 1000 Ang^3
#
#
#
# Elastic Constant Matrix: (Units=GPa)
#
#
# Indices 1 2 3 4 5 6 
#
# 1 48.7823 25.1179 10.8181 0.0000 0.0000 0.0000
# 2 25.1179 113.3843 56.8014 0.0000 0.0000 0.0000
# 3 10.8181 56.8014 115.7374 0.0000 0.0000 0.0000
# 4 0.0000 0.0000 0.0000 45.2979 0.0000 0.0000
# 5 0.0000 0.0000 0.0000 0.0000 14.1676 0.0000
# 6 0.0000 0.0000 0.0000 0.0000 0.0000 12.2140
#
#
#
# Elastic Compliance Matrix: (Units=1/GPa)
#
#
# Indices 1 2 3 4 5 6 
#
# 1 0.023158 -0.005365 0.000468 0.000000 0.000000 0.000000
# 2 -0.005365 0.012938 -0.005848 0.000000 0.000000 0.000000
# 3 0.000468 -0.005848 0.011467 0.000000 0.000000 0.000000
# 4 0.000000 0.000000 0.000000 0.022076 0.000000 0.000000
# 5 0.000000 0.000000 0.000000 0.000000 0.070584 0.000000
# 6 0.000000 0.000000 0.000000 0.000000 0.000000 0.081873
#
#
# Mechanical properties :
#
#
# Convention : Reuss Voigt Hill
#
# Bulk Modulus (GPa) = 38.35391 51.48653 44.92022
# Shear Modulus (GPa) = 19.81967 26.68035 23.25001
#
# Velocity S-wave (km/s) = 3.10652 3.60431 3.36463
# Velocity P-wave (km/s) = 5.61626 6.51083 6.08002
#
# Compressibility (1/GPa) = 0.02607296
#
# Stress axis : x y z
#
# Youngs Moduli (GPa) = 43.18233 77.29365 87.20988
#
# Poissons Ratio (x) = 0.41466 -0.04084
# Poissons Ratio (y) = 0.23166 0.51001
# Poissons Ratio (z) = -0.02022 0.45202
#
# Static dielectric constant tensor:
#      x y z
#    x 3.233580 0.000000 0.000000 
#    y 0.000000 3.722420 0.000000 
#    z 0.000000 0.000000 4.178560 
# 
# 
# High freq. dielectric constant tensor:
#      x y z
#    x 1.738280 0.000000 0.000000 
#    y 0.000000 1.808110 0.000000 
#    z 0.000000 0.000000 1.826760 
# 
# From -- ./inp_files/3845.got.cif
#   From: 2010.03.12/outbox.cif.g09.slc.cpg/sg60_2_cif.got.tgz:3845.got - 2010.04.10 18:46:24.
