data_PCOD8247309
_publ_section_title
;
Structure prediction by ZEFSAII (Michael W. Deem and Ramdas Pophale) SiO2 
 PCOD8247309
Probable space group: P B C N
;
_chemical_formula_sum "Si O2"
_cell_formula_units_Z 60
_cell_length_a 20.441417
_cell_length_b 17.058474
_cell_length_c 9.208250
_cell_angle_alpha 90.000000
_cell_angle_beta 90.000000
_cell_angle_gamma 90.000000
_cell_volume 3210.911070
_symmetry_space_group_name_H-M "P B C N"
_symmetry_group_IT_number 60
_symmetry_cell_setting 'orthorhombic'
loop_
_space_group_symop_operation_xyz
x,y,z
1/2-x,1/2-y,1/2+z
1/2+x,1/2-y,-z
-x,y,1/2-z
-x,-y,-z
1/2+x,1/2+y,1/2-z
1/2-x,1/2+y,z
x,-y,1/2+z
loop_
_atom_site_type_symbol
_atom_site_label
_atom_site_fract_x
_atom_site_fract_y
_atom_site_fract_z
Si Si1 0.112327 0.727018 0.055751
Si Si2 0.279268 0.329052 0.982810
Si Si3 0.304003 0.274518 0.676823
Si Si4 0.430253 0.804303 0.241652
Si Si5 0.782052 0.399948 0.907725
Si Si6 0.801895 0.528464 0.111529
Si Si7 0.446047 0.929828 0.995722
Si Si8 0.000000 0.682304 0.250000
O O1 0.167520 0.670408 0.121781
O O2 0.053894 0.736743 0.171268
O O3 0.144972 0.813990 0.034240
O O4 0.090805 0.681597 0.908638
O O5 0.274450 0.275495 0.838889
O O6 0.256806 0.417578 0.953302
O O7 0.228360 0.298585 0.099055
O O8 0.381255 0.257315 0.667257
O O9 0.289571 0.359767 0.605884
O O10 0.500000 0.760988 0.250000
O O11 0.439246 0.886250 0.152424
O O12 0.798522 0.465523 0.785578
O O13 0.784557 0.439829 0.065315
O O14 0.874174 0.541867 0.048653
O O15 0.467298 0.869761 0.872960
O O16 0.500000 0.000000 0.000000
#
# Coordination Sequence:
#
# PCOD8247309 Si02
#       8
#     8   8   8   8   8   8   8   4
#     4  10  21  38  55  79 108 145 186 232 265 323
#     4   9  19  35  57  76 104 138 188 235 272 311
#     4   9  19  37  54  78 103 141 182 233 265 318
#     4  11  22  36  55  78 106 146 187 216 269 328
#     4  10  22  35  55  77 110 140 188 225 273 318
#     4  11  22  36  52  81 108 150 179 227 274 323
#     4  12  26  34  50  75 119 153 180 211 264 330
#     4  12  22  38  50  76 112 150 180 220 264 330
#
# _framework density 18.686285999999999
#
# number of rings (size 3 to 8) (size 9 to 14) (size 15 to 20)
#    0.000    1.600    4.000    0.800    2.800    1.067 
#    0.000    0.000    0.000    0.000    1.733    2.800 
#    0.000    0.000    0.000    0.000    0.000    0.000 
#
# Total GULP energy -743287.902275 kJ/mol
# GULP energy per Si atom -12388.131705 kJ/mol
# Density = 1.864376 g / cm^3
# Si number density = 18.686286 Si / 1000 Ang^3
#
#
#
# Elastic Constant Matrix: (Units=GPa)
#
#
# Indices 1 2 3 4 5 6 
#
# 1 111.4582 39.5422 26.1725 0.0000 0.0000 0.0000
# 2 39.5422 35.4509 2.2486 0.0000 0.0000 0.0000
# 3 26.1725 2.2486 49.5667 0.0000 0.0000 0.0000
# 4 0.0000 0.0000 0.0000 25.7484 0.0000 0.0000
# 5 0.0000 0.0000 0.0000 0.0000 27.8866 0.0000
# 6 0.0000 0.0000 0.0000 0.0000 0.0000 29.1525
#
#
#
# Elastic Compliance Matrix: (Units=1/GPa)
#
#
# Indices 1 2 3 4 5 6 
#
# 1 0.017850 -0.019368 -0.008547 0.000000 0.000000 0.000000
# 2 -0.019368 0.049304 0.007990 0.000000 0.000000 0.000000
# 3 -0.008547 0.007990 0.024325 0.000000 0.000000 0.000000
# 4 0.000000 0.000000 0.000000 0.038837 0.000000 0.000000
# 5 0.000000 0.000000 0.000000 0.000000 0.035859 0.000000
# 6 0.000000 0.000000 0.000000 0.000000 0.000000 0.034302
#
#
# Mechanical properties :
#
#
# Convention : Reuss Voigt Hill
#
# Bulk Modulus (GPa) = 19.36834 36.93360 28.15097
# Shear Modulus (GPa) = 19.41456 25.12500 22.26978
#
# Velocity S-wave (km/s) = 3.22681 3.67081 3.45595
# Velocity P-wave (km/s) = 4.92652 6.14610 5.56979
#
# Compressibility (1/GPa) = 0.05163064
#
# Stress axis : x y z
#
# Youngs Moduli (GPa) = 56.02190 20.28213 41.10952
#
# Poissons Ratio (x) = 0.39283 0.35135
# Poissons Ratio (y) = 1.08504 -0.32847
# Poissons Ratio (z) = 0.47880 -0.16206
#
# Static dielectric constant tensor:
#      x y z
#    x 3.865880 0.000000 0.000000 
#    y 0.000000 3.242880 0.000000 
#    z 0.000000 0.000000 3.723960 
# 
# 
# High freq. dielectric constant tensor:
#      x y z
#    x 1.726510 0.000000 0.000000 
#    y 0.000000 1.683380 0.000000 
#    z 0.000000 0.000000 1.744640 
# 
# From -- ./inp_files/7563.got.cif
#   From: 2010.03.12/outbox.cif.g09.slc.cpg/sg60_4_cif.got.tgz:7563.got - 2010.04.10 18:46:24.
