data_PCOD8247145
_publ_section_title
;
Structure prediction by ZEFSAII (Michael W. Deem and Ramdas Pophale) SiO2 
 PCOD8247145
Probable space group: P B C N
;
_chemical_formula_sum "Si O2"
_cell_formula_units_Z 48
_cell_length_a 9.262106
_cell_length_b 13.426618
_cell_length_c 19.512121
_cell_angle_alpha 90.000000
_cell_angle_beta 90.000000
_cell_angle_gamma 90.000000
_cell_volume 2426.503156
_symmetry_space_group_name_H-M "P B C N"
_symmetry_group_IT_number 60
_symmetry_cell_setting 'orthorhombic'
loop_
_space_group_symop_operation_xyz
x,y,z
1/2-x,1/2-y,1/2+z
1/2+x,1/2-y,-z
-x,y,1/2-z
-x,-y,-z
1/2+x,1/2+y,1/2-z
1/2-x,1/2+y,z
x,-y,1/2+z
loop_
_atom_site_type_symbol
_atom_site_label
_atom_site_fract_x
_atom_site_fract_y
_atom_site_fract_z
Si Si1 0.827753 0.549832 0.059527
Si Si2 0.599500 0.347043 0.849147
Si Si3 0.159750 0.761015 0.935703
Si Si4 0.355233 0.893156 0.549903
Si Si5 0.000000 0.982300 0.250000
Si Si6 0.000000 0.313647 0.250000
Si Si7 0.253356 0.901188 0.332289
O O1 0.769880 0.656643 0.038287
O O2 0.755168 0.506342 0.128033
O O3 0.997215 0.558395 0.077071
O O4 0.783270 0.478292 0.996753
O O5 0.475608 0.317636 0.902665
O O6 0.751565 0.360461 0.888073
O O7 0.566862 0.450127 0.810240
O O8 0.607325 0.256702 0.794623
O O9 0.252615 0.692756 0.883633
O O10 0.105673 0.700347 0.001470
O O11 0.881191 0.906792 0.219173
O O12 0.903375 0.388681 0.207004
#
# Coordination Sequence:
#
# PCOD8247145 Si02
#       7
#     8   8   8   8   4   4   8
#     4  10  21  40  59  88 123 153 200 253 297 362
#     4  10  21  40  61  87 120 161 200 250 301 361
#     4  10  20  41  60  86 123 153 195 254 304 352
#     4  10  22  37  63  90 118 158 200 243 311 363
#     4  11  22  40  59  86 122 160 209 246 301 364
#     4   9  22  40  63  84 122 160 203 250 301 360
#     4  10  22  39  60  85 118 162 199 250 299 355
#
# _framework density 19.781552999999999
#
# number of rings (size 3 to 8) (size 9 to 14) (size 15 to 20)
#    0.000    2.000    1.667    1.000    2.333    3.333 
#    3.000    0.833    0.000    0.000    0.000    0.000 
#    0.000    0.000    0.000    0.000    0.000    0.000 
#
# Total GULP energy -595079.970472 kJ/mol
# GULP energy per Si atom -12397.499385 kJ/mol
# Density = 1.973653 g / cm^3
# Si number density = 19.781553 Si / 1000 Ang^3
#
#
#
# Elastic Constant Matrix: (Units=GPa)
#
#
# Indices 1 2 3 4 5 6 
#
# 1 59.6416 23.5711 30.8241 0.0000 0.0000 0.0000
# 2 23.5711 80.3717 24.6540 0.0000 0.0000 0.0000
# 3 30.8241 24.6540 81.2610 0.0000 0.0000 0.0000
# 4 0.0000 0.0000 0.0000 7.9116 0.0000 0.0000
# 5 0.0000 0.0000 0.0000 0.0000 41.7194 0.0000
# 6 0.0000 0.0000 0.0000 0.0000 0.0000 32.7932
#
#
#
# Elastic Compliance Matrix: (Units=1/GPa)
#
#
# Indices 1 2 3 4 5 6 
#
# 1 0.022136 -0.004318 -0.007087 0.000000 0.000000 0.000000
# 2 -0.004318 0.014561 -0.002780 0.000000 0.000000 0.000000
# 3 -0.007087 -0.002780 0.015838 0.000000 0.000000 0.000000
# 4 0.000000 0.000000 0.000000 0.126396 0.000000 0.000000
# 5 0.000000 0.000000 0.000000 0.000000 0.023970 0.000000
# 6 0.000000 0.000000 0.000000 0.000000 0.000000 0.030494
#
#
# Mechanical properties :
#
#
# Convention : Reuss Voigt Hill
#
# Bulk Modulus (GPa) = 41.38103 42.15254 41.76678
# Shear Modulus (GPa) = 18.53093 25.96651 22.24872
#
# Velocity S-wave (km/s) = 3.06400 3.62700 3.35732
# Velocity P-wave (km/s) = 5.78636 6.23662 6.01570
#
# Compressibility (1/GPa) = 0.02416566
#
# Stress axis : x y z
#
# Youngs Moduli (GPa) = 45.17549 68.67515 63.14128
#
# Poissons Ratio (x) = 0.29655 0.44745
# Poissons Ratio (y) = 0.19507 0.17552
# Poissons Ratio (z) = 0.32014 0.19091
#
# Static dielectric constant tensor:
#      x y z
#    x 3.353360 0.000000 0.000000 
#    y 0.000000 3.611840 0.000000 
#    z 0.000000 0.000000 3.660920 
# 
# 
# High freq. dielectric constant tensor:
#      x y z
#    x 1.758710 0.000000 0.000000 
#    y 0.000000 1.779020 0.000000 
#    z 0.000000 0.000000 1.772550 
# 
# From -- ./inp_files/22091.got.cif
#   From: 2010.03.12/outbox.cif.g09.slc.cpg/sg60_12_cif.got.tgz:22091.got - 2010.04.10 18:46:24.
