data_PCOD8247925
_publ_section_title
;
Structure prediction by ZEFSAII (Michael W. Deem and Ramdas Pophale) SiO2 
 PCOD8247925
Probable space group: P B C N
;
_chemical_formula_sum "Si O2"
_cell_formula_units_Z 56
_cell_length_a 16.675785
_cell_length_b 12.380035
_cell_length_c 13.676108
_cell_angle_alpha 90.000000
_cell_angle_beta 90.000000
_cell_angle_gamma 90.000000
_cell_volume 2823.388760
_symmetry_space_group_name_H-M "P B C N"
_symmetry_group_IT_number 60
_symmetry_cell_setting 'orthorhombic'
loop_
_space_group_symop_operation_xyz
x,y,z
1/2-x,1/2-y,1/2+z
1/2+x,1/2-y,-z
-x,y,1/2-z
-x,-y,-z
1/2+x,1/2+y,1/2-z
1/2-x,1/2+y,z
x,-y,1/2+z
loop_
_atom_site_type_symbol
_atom_site_label
_atom_site_fract_x
_atom_site_fract_y
_atom_site_fract_z
Si Si1 0.534477 0.768812 0.495495
Si Si2 0.289765 0.694315 0.385345
Si Si3 0.792476 0.799061 0.295121
Si Si4 0.037751 0.897560 0.852171
Si Si5 0.564798 0.361648 0.177197
Si Si6 0.317271 0.905771 0.048284
Si Si7 0.361490 0.846848 0.538067
O O1 0.513339 0.662348 0.434334
O O2 0.577631 0.725981 0.592861
O O3 0.598952 0.842716 0.440985
O O4 0.456093 0.840550 0.516183
O O5 0.255132 0.724778 0.280392
O O6 0.369109 0.627394 0.362862
O O7 0.228382 0.620542 0.447252
O O8 0.310624 0.801459 0.446957
O O9 0.851886 0.877782 0.235064
O O10 0.734761 0.875611 0.357220
O O11 0.843424 0.721503 0.365242
O O12 0.000000 0.858920 0.750000
O O13 0.029603 0.026246 0.864749
O O14 0.500000 0.310488 0.250000
O O15 0.334787 0.031589 0.053877
#
# Coordination Sequence:
#
# PCOD8247925 Si02
#       7
#     8   8   8   8   8   8   8
#     4  11  21  44  63  91 130 162 213 259 308 383
#     4  10  23  41  60  92 129 161 210 266 312 378
#     4  11  23  41  62  93 129 162 214 265 314 377
#     4  10  23  39  64  93 125 165 208 257 315 376
#     4  11  22  40  63  92 122 168 207 259 316 375
#     4  11  24  39  66  94 124 172 207 266 322 371
#     4  10  24  41  63  91 127 168 214 257 319 386
#
# _framework density 19.834320999999999
#
# number of rings (size 3 to 8) (size 9 to 14) (size 15 to 20)
#    0.000    1.429    2.857    1.714    4.000    0.000 
#    2.571    0.000    3.143    0.000    0.000    0.000 
#    0.000    0.000    0.000    0.000    0.000    0.000 
#
# Total GULP energy -694554.965603 kJ/mol
# GULP energy per Si atom -12402.767243 kJ/mol
# Density = 1.978918 g / cm^3
# Si number density = 19.834321 Si / 1000 Ang^3
#
#
#
# Elastic Constant Matrix: (Units=GPa)
#
#
# Indices 1 2 3 4 5 6 
#
# 1 112.1061 41.0013 34.5727 0.0000 0.0000 0.0000
# 2 41.0013 107.9063 28.7626 0.0000 0.0000 0.0000
# 3 34.5727 28.7626 85.6218 0.0000 0.0000 0.0000
# 4 0.0000 0.0000 0.0000 16.9268 0.0000 0.0000
# 5 0.0000 0.0000 0.0000 0.0000 39.1005 0.0000
# 6 0.0000 0.0000 0.0000 0.0000 0.0000 21.0165
#
#
#
# Elastic Compliance Matrix: (Units=1/GPa)
#
#
# Indices 1 2 3 4 5 6 
#
# 1 0.011191 -0.003348 -0.003394 0.000000 0.000000 0.000000
# 2 -0.003348 0.011180 -0.002404 0.000000 0.000000 0.000000
# 3 -0.003394 -0.002404 0.013857 0.000000 0.000000 0.000000
# 4 0.000000 0.000000 0.000000 0.059078 0.000000 0.000000
# 5 0.000000 0.000000 0.000000 0.000000 0.025575 0.000000
# 6 0.000000 0.000000 0.000000 0.000000 0.000000 0.047582
#
#
# Mechanical properties :
#
#
# Convention : Reuss Voigt Hill
#
# Bulk Modulus (GPa) = 55.75078 57.14526 56.44802
# Shear Modulus (GPa) = 25.94249 28.82860 27.38555
#
# Velocity S-wave (km/s) = 3.62050 3.81658 3.71983
# Velocity P-wave (km/s) = 6.75623 6.94950 6.85354
#
# Compressibility (1/GPa) = 0.01793697
#
# Stress axis : x y z
#
# Youngs Moduli (GPa) = 89.35562 89.44490 72.16369
#
# Poissons Ratio (x) = 0.29943 0.24495
# Poissons Ratio (y) = 0.29913 0.17348
# Poissons Ratio (z) = 0.30330 0.21502
#
# Static dielectric constant tensor:
#      x y z
#    x 3.815290 0.000000 0.000000 
#    y 0.000000 3.349500 0.000000 
#    z 0.000000 0.000000 3.747110 
# 
# 
# High freq. dielectric constant tensor:
#      x y z
#    x 1.789750 0.000000 0.000000 
#    y 0.000000 1.763870 0.000000 
#    z 0.000000 0.000000 1.783330 
# 
# From -- ./inp_files/16871.got.cif
#   From: 2010.03.12/outbox.cif.g09.slc.cpg/sg60_9_cif.got.tgz:16871.got - 2010.04.10 18:46:24.
