data_PCOD8247909
_publ_section_title
;
Structure prediction by ZEFSAII (Michael W. Deem and Ramdas Pophale) SiO2 
 PCOD8247909
Probable space group: P B C N
;
_chemical_formula_sum "Si O2"
_cell_formula_units_Z 52
_cell_length_a 14.820513
_cell_length_b 19.892383
_cell_length_c 8.483816
_cell_angle_alpha 90.000000
_cell_angle_beta 90.000000
_cell_angle_gamma 90.000000
_cell_volume 2501.158936
_symmetry_space_group_name_H-M "P B C N"
_symmetry_group_IT_number 60
_symmetry_cell_setting 'orthorhombic'
loop_
_space_group_symop_operation_xyz
x,y,z
1/2-x,1/2-y,1/2+z
1/2+x,1/2-y,-z
-x,y,1/2-z
-x,-y,-z
1/2+x,1/2+y,1/2-z
1/2-x,1/2+y,z
x,-y,1/2+z
loop_
_atom_site_type_symbol
_atom_site_label
_atom_site_fract_x
_atom_site_fract_y
_atom_site_fract_z
Si Si1 0.000000 0.523832 0.750000
Si Si2 0.674335 0.218486 0.402426
Si Si3 0.149375 0.800899 0.412362
Si Si4 0.966593 0.201074 0.084234
Si Si5 0.686641 0.557190 0.508301
Si Si6 0.112271 0.571187 0.034729
Si Si7 0.409378 0.556764 0.312872
O O1 0.953969 0.571188 0.617498
O O2 0.925486 0.475876 0.827818
O O3 0.779464 0.215456 0.448812
O O4 0.669918 0.255078 0.236221
O O5 0.622680 0.260487 0.534259
O O6 0.627010 0.145584 0.395000
O O7 0.161606 0.880553 0.376113
O O8 0.046666 0.786870 0.460141
O O9 0.941678 0.122981 0.095950
O O10 0.000000 0.230428 0.250000
O O11 0.792178 0.541130 0.518423
O O12 0.657749 0.575750 0.329799
O O13 0.637417 0.490104 0.560641
O O14 0.500000 0.520187 0.250000
#
# Coordination Sequence:
#
# PCOD8247909 Si02
#       7
#     4   8   8   8   8   8   8
#     4  10  22  48  68 102 128 172 220 286 332 418
#     4  11  26  43  69  98 134 183 223 287 333 412
#     4  11  24  44  64  98 134 174 236 271 341 401
#     4  11  23  43  65  97 137 178 219 281 332 402
#     4  11  23  42  65 100 135 175 224 274 342 401
#     4  10  24  44  71  98 132 169 226 278 345 402
#     4  11  23  39  65  98 137 180 215 276 327 411
#
# _framework density 20.79036
#
# number of rings (size 3 to 8) (size 9 to 14) (size 15 to 20)
#    0.000    1.231    3.077    2.769    7.538    0.000 
#    0.000    0.000    0.000    0.000    0.000    0.000 
#    0.000    0.000    0.000    0.000    0.000    0.000 
#
# Total GULP energy -644900.782893 kJ/mol
# GULP energy per Si atom -12401.938133 kJ/mol
# Density = 2.074304 g / cm^3
# Si number density = 20.790360 Si / 1000 Ang^3
#
#
#
# Elastic Constant Matrix: (Units=GPa)
#
#
# Indices 1 2 3 4 5 6 
#
# 1 95.7968 33.3493 12.7411 0.0000 0.0000 0.0000
# 2 33.3493 92.4468 48.3714 0.0000 0.0000 0.0000
# 3 12.7411 48.3714 86.7192 0.0000 0.0000 0.0000
# 4 0.0000 0.0000 0.0000 31.0575 0.0000 0.0000
# 5 0.0000 0.0000 0.0000 0.0000 35.7919 0.0000
# 6 0.0000 0.0000 0.0000 0.0000 0.0000 31.7440
#
#
#
# Elastic Compliance Matrix: (Units=1/GPa)
#
#
# Indices 1 2 3 4 5 6 
#
# 1 0.011990 -0.004806 0.000919 0.000000 0.000000 0.000000
# 2 -0.004806 0.017202 -0.008889 0.000000 0.000000 0.000000
# 3 0.000919 -0.008889 0.016355 0.000000 0.000000 0.000000
# 4 0.000000 0.000000 0.000000 0.032198 0.000000 0.000000
# 5 0.000000 0.000000 0.000000 0.000000 0.027939 0.000000
# 6 0.000000 0.000000 0.000000 0.000000 0.000000 0.031502
#
#
# Mechanical properties :
#
#
# Convention : Reuss Voigt Hill
#
# Bulk Modulus (GPa) = 50.01387 51.54294 50.77840
# Shear Modulus (GPa) = 29.51555 31.75205 30.63380
#
# Velocity S-wave (km/s) = 3.77194 3.91224 3.84273
# Velocity P-wave (km/s) = 6.56343 6.72704 6.64574
#
# Compressibility (1/GPa) = 0.01999446
#
# Stress axis : x y z
#
# Youngs Moduli (GPa) = 83.40533 58.13337 61.14484
#
# Poissons Ratio (x) = 0.27940 -0.05621
# Poissons Ratio (y) = 0.40086 0.54351
# Poissons Ratio (z) = -0.07667 0.51674
#
# Static dielectric constant tensor:
#      x y z
#    x 4.140770 0.000000 0.000000 
#    y 0.000000 3.714360 0.000000 
#    z 0.000000 0.000000 3.607460 
# 
# 
# High freq. dielectric constant tensor:
#      x y z
#    x 1.835880 0.000000 0.000000 
#    y 0.000000 1.810980 0.000000 
#    z 0.000000 0.000000 1.809100 
# 
# From -- ./inp_files/6080.got.cif
#   From: 2010.03.12/outbox.cif.g09.slc.cpg/sg60_4_cif.got.tgz:6080.got - 2010.04.10 18:46:24.
