data_PCOD8247235
_publ_section_title
;
Structure prediction by ZEFSAII (Michael W. Deem and Ramdas Pophale) SiO2 
 PCOD8247235
Probable space group: P B C N
;
_chemical_formula_sum "Si O2"
_cell_formula_units_Z 64
_cell_length_a 4.971636
_cell_length_b 18.653979
_cell_length_c 34.805319
_cell_angle_alpha 90.000000
_cell_angle_beta 90.000000
_cell_angle_gamma 90.000000
_cell_volume 3227.872903
_symmetry_space_group_name_H-M "P B C N"
_symmetry_group_IT_number 60
_symmetry_cell_setting 'orthorhombic'
loop_
_space_group_symop_operation_xyz
x,y,z
1/2-x,1/2-y,1/2+z
1/2+x,1/2-y,-z
-x,y,1/2-z
-x,-y,-z
1/2+x,1/2+y,1/2-z
1/2-x,1/2+y,z
x,-y,1/2+z
loop_
_atom_site_type_symbol
_atom_site_label
_atom_site_fract_x
_atom_site_fract_y
_atom_site_fract_z
Si Si1 0.853421 0.432593 0.147657
Si Si2 0.323688 0.831365 0.526092
Si Si3 0.409187 0.587340 0.097926
Si Si4 0.831364 0.835824 0.477241
Si Si5 0.361411 0.570373 0.597184
Si Si6 0.481949 0.783586 0.705948
Si Si7 0.402140 0.908203 0.852219
Si Si8 0.525846 0.188358 0.705864
O O1 0.578046 0.400872 0.128759
O O2 0.801212 0.513775 0.163458
O O3 0.985323 0.383085 0.180379
O O4 0.067034 0.438342 0.114001
O O5 0.232534 0.865048 0.565909
O O6 0.614562 0.856689 0.510461
O O7 0.304428 0.747085 0.533067
O O8 0.121145 0.856105 0.493170
O O9 0.463251 0.507141 0.081937
O O10 0.692049 0.618699 0.114523
O O11 0.204342 0.584350 0.133119
O O12 0.807625 0.877014 0.437760
O O13 0.500000 0.808497 0.750000
O O14 0.577126 0.851827 0.682000
O O15 0.682185 0.719050 0.697648
O O16 0.191176 0.750170 0.695097
O O17 0.500000 0.164309 0.750000
#
# Coordination Sequence:
#
# PCOD8247235 Si02
#       8
#     8   8   8   8   8   8   8   8
#     4  10  21  37  56  81 112 144 182 226 272 326
#     4  10  21  36  53  76 106 139 178 223 271 325
#     4  10  21  36  55  80 108 140 181 225 269 323
#     4  10  21  36  53  76 106 139 178 223 271 325
#     4  10  21  36  55  80 108 140 181 225 269 323
#     4  10  21  37  57  83 113 145 185 229 273 327
#     4  10  21  37  56  81 112 144 182 226 272 326
#     4  10  21  37  57  83 113 145 185 229 273 327
#
# _framework density 19.827300999999999
#
# number of rings (size 3 to 8) (size 9 to 14) (size 15 to 20)
#    0.000    2.000    0.000    3.000    0.000    4.500 
#    0.000    0.000    0.000    9.000    0.000    0.000 
#    0.000    0.000    0.000    0.000    0.000    0.000 
#
# Total GULP energy -793331.990226 kJ/mol
# GULP energy per Si atom -12395.812347 kJ/mol
# Density = 1.978217 g / cm^3
# Si number density = 19.827301 Si / 1000 Ang^3
#
#
#
# Elastic Constant Matrix: (Units=GPa)
#
#
# Indices 1 2 3 4 5 6 
#
# 1 76.5261 16.1250 11.1901 0.0000 0.0000 0.0000
# 2 16.1250 77.2676 60.6595 0.0000 0.0000 0.0000
# 3 11.1901 60.6595 82.6602 0.0000 0.0000 0.0000
# 4 0.0000 0.0000 0.0000 2086.2909 0.0000 0.0000
# 5 0.0000 0.0000 0.0000 0.0000 21.8012 0.0000
# 6 0.0000 0.0000 0.0000 0.0000 0.0000 13.0576
#
#
#
# Elastic Compliance Matrix: (Units=1/GPa)
#
#
# Indices 1 2 3 4 5 6 
#
# 1 0.013680 -0.003305 0.000574 0.000000 0.000000 0.000000
# 2 -0.003305 0.031330 -0.022544 0.000000 0.000000 0.000000
# 3 0.000574 -0.022544 0.028564 0.000000 0.000000 0.000000
# 4 0.000000 0.000000 0.000000 0.000479 0.000000 0.000000
# 5 0.000000 0.000000 0.000000 0.000000 0.045869 0.000000
# 6 0.000000 0.000000 0.000000 0.000000 0.000000 0.076583
#
#
# Mechanical properties :
#
#
# Convention : Reuss Voigt Hill
#
# Bulk Modulus (GPa) = 43.43520 45.82256 44.62888
# Shear Modulus (GPa) = 19.62857 434.12857 226.87857
#
# Velocity S-wave (km/s) = 3.14980 14.81318 10.70868
# Velocity P-wave (km/s) = 5.93150 17.76893 13.24608
#
# Compressibility (1/GPa) = 0.02302280
#
# Stress axis : x y z
#
# Youngs Moduli (GPa) = 73.09941 31.91828 35.00947
#
# Poissons Ratio (x) = 0.10549 -0.02008
# Poissons Ratio (y) = 0.24160 0.78925
# Poissons Ratio (z) = -0.04192 0.71956
#
# Static dielectric constant tensor:
#      x y z
#    x 3.918900 0.000000 0.000000 
#    y 0.000000 3.633340 0.000000 
#    z 0.000000 0.000000 3.473020 
# 
# 
# High freq. dielectric constant tensor:
#      x y z
#    x 1.796040 0.000000 0.000000 
#    y 0.000000 1.766440 0.000000 
#    z 0.000000 0.000000 1.759520 
# 
# From -- ./inp_files/25801.got.cif
#   From: 2010.03.12/outbox.cif.g09.slc.cpg/sg60_13_cif.got.tgz:25801.got - 2010.04.10 18:46:24.
