data_PCOD8247551
_publ_section_title
;
Structure prediction by ZEFSAII (Michael W. Deem and Ramdas Pophale) SiO2 
 PCOD8247551
Probable space group: P B C N
;
_chemical_formula_sum "Si O2"
_cell_formula_units_Z 40
_cell_length_a 5.012813
_cell_length_b 12.938628
_cell_length_c 25.527851
_cell_angle_alpha 90.000000
_cell_angle_beta 90.000000
_cell_angle_gamma 90.000000
_cell_volume 1655.708913
_symmetry_space_group_name_H-M "P B C N"
_symmetry_group_IT_number 60
_symmetry_cell_setting 'orthorhombic'
loop_
_space_group_symop_operation_xyz
x,y,z
1/2-x,1/2-y,1/2+z
1/2+x,1/2-y,-z
-x,y,1/2-z
-x,-y,-z
1/2+x,1/2+y,1/2-z
1/2-x,1/2+y,z
x,-y,1/2+z
loop_
_atom_site_type_symbol
_atom_site_label
_atom_site_fract_x
_atom_site_fract_y
_atom_site_fract_z
Si Si1 0.688702 0.652676 0.639930
Si Si2 0.220901 0.446554 0.096237
Si Si3 0.617671 0.679033 0.002861
Si Si4 0.629069 0.132977 0.104199
Si Si5 0.751711 0.322514 0.715102
O O1 0.466163 0.562664 0.637971
O O2 0.553660 0.744570 0.604087
O O3 0.736555 0.700591 0.698031
O O4 0.967445 0.619029 0.615521
O O5 0.325662 0.407967 0.040443
O O6 0.135528 0.566231 0.093327
O O7 0.319316 0.723574 0.001392
O O8 0.656543 0.616383 0.057847
O O9 0.751475 0.107150 0.162097
O O10 0.500000 0.347492 0.750000
O O11 0.000000 0.354331 0.750000
#
# Coordination Sequence:
#
# PCOD8247551 Si02
#       5
#     8   8   8   8   8
#     4  10  24  41  66  94 131 169 221 270 326 396
#     4  12  22  43  64  98 135 175 218 271 331 398
#     4  12  21  40  63  93 136 177 218 268 328 395
#     4  10  25  40  69  96 133 176 221 275 332 392
#     4  10  21  42  66  91 125 167 212 277 335 381
#
# _framework density 24.158836000000001
#
# number of rings (size 3 to 8) (size 9 to 14) (size 15 to 20)
#    1.200    0.000    4.000    1.800    0.000    6.400 
#    0.000    8.000    0.000    0.000    0.000    0.000 
#    0.000    0.000    0.000    0.000    0.000    0.000 
#
# Total GULP energy -495687.938234 kJ/mol
# GULP energy per Si atom -12392.198456 kJ/mol
# Density = 2.410385 g / cm^3
# Si number density = 24.158836 Si / 1000 Ang^3
#
#
#
# Elastic Constant Matrix: (Units=GPa)
#
#
# Indices 1 2 3 4 5 6 
#
# 1 102.0672 -7.3956 37.2852 0.0000 0.0000 0.0000
# 2 -7.3956 12.5378 20.0277 0.0000 0.0000 0.0000
# 3 37.2852 20.0277 118.0949 0.0000 0.0000 0.0000
# 4 0.0000 0.0000 0.0000 22.6337 0.0000 0.0000
# 5 0.0000 0.0000 0.0000 0.0000 21.9603 0.0000
# 6 0.0000 0.0000 0.0000 0.0000 0.0000 24.3144
#
#
#
# Elastic Compliance Matrix: (Units=1/GPa)
#
#
# Indices 1 2 3 4 5 6 
#
# 1 0.014346 0.021529 -0.008180 0.000000 0.000000 0.000000
# 2 0.021529 0.141703 -0.030829 0.000000 0.000000 0.000000
# 3 -0.008180 -0.030829 0.016279 0.000000 0.000000 0.000000
# 4 0.000000 0.000000 0.000000 0.044182 0.000000 0.000000
# 5 0.000000 0.000000 0.000000 0.000000 0.045537 0.000000
# 6 0.000000 0.000000 0.000000 0.000000 0.000000 0.041128
#
#
# Mechanical properties :
#
#
# Convention : Reuss Voigt Hill
#
# Bulk Modulus (GPa) = 7.27971 36.94828 22.11399
# Shear Modulus (GPa) = 13.02342 25.96718 19.49530
#
# Velocity S-wave (km/s) = 2.32432 3.28205 2.84379
# Velocity P-wave (km/s) = 3.19736 5.44881 4.46725
#
# Compressibility (1/GPa) = 0.13736819
#
# Stress axis : x y z
#
# Youngs Moduli (GPa) = 69.70709 7.05699 61.42978
#
# Poissons Ratio (x) = -0.15193 0.50252
# Poissons Ratio (y) = -1.50074 1.89380
# Poissons Ratio (z) = 0.57023 0.21756
#
# Static dielectric constant tensor:
#      x y z
#    x 4.014550 0.000000 0.000000 
#    y 0.000000 4.173320 0.000000 
#    z 0.000000 0.000000 4.465050 
# 
# 
# High freq. dielectric constant tensor:
#      x y z
#    x 1.959930 0.000000 0.000000 
#    y 0.000000 1.945960 0.000000 
#    z 0.000000 0.000000 1.960570 
# 
# From -- ./inp_files/24799.got.cif
#   From: 2010.03.12/outbox.cif.g09.slc.cpg/sg60_13_cif.got.tgz:24799.got - 2010.04.10 18:46:24.
