data_PCOD8247790
_publ_section_title
;
Structure prediction by ZEFSAII (Michael W. Deem and Ramdas Pophale) SiO2 
 PCOD8247790
Probable space group: P B C N
;
_chemical_formula_sum "Si O2"
_cell_formula_units_Z 48
_cell_length_a 8.317097
_cell_length_b 28.134390
_cell_length_c 9.303070
_cell_angle_alpha 90.000000
_cell_angle_beta 90.000000
_cell_angle_gamma 90.000000
_cell_volume 2176.885360
_symmetry_space_group_name_H-M "P B C N"
_symmetry_group_IT_number 60
_symmetry_cell_setting 'orthorhombic'
loop_
_space_group_symop_operation_xyz
x,y,z
1/2-x,1/2-y,1/2+z
1/2+x,1/2-y,-z
-x,y,1/2-z
-x,-y,-z
1/2+x,1/2+y,1/2-z
1/2-x,1/2+y,z
x,-y,1/2+z
loop_
_atom_site_type_symbol
_atom_site_label
_atom_site_fract_x
_atom_site_fract_y
_atom_site_fract_z
Si Si1 0.173959 0.801890 0.592528
Si Si2 0.180764 0.398305 0.530788
Si Si3 0.599738 0.156196 0.891246
Si Si4 0.687154 0.576710 0.766951
Si Si5 0.308339 0.275688 0.916653
Si Si6 0.383109 0.994864 0.630727
O O1 0.196574 0.858608 0.589273
O O2 0.229447 0.781562 0.747735
O O3 0.287893 0.779308 0.467267
O O4 0.988389 0.792969 0.554777
O O5 0.241746 0.426807 0.392290
O O6 0.168873 0.439670 0.651264
O O7 0.009539 0.374322 0.498983
O O8 0.500000 0.174824 0.750000
O O9 0.747522 0.123947 0.841939
O O10 0.675687 0.199187 0.981617
O O11 0.500000 0.581539 0.750000
O O12 0.729545 0.530152 0.863038
O O13 0.500000 0.014366 0.750000
O O14 0.500000 0.000000 0.500000
#
# Coordination Sequence:
#
# PCOD8247790 Si02
#       6
#     8   8   8   8   8   8
#     4  11  27  46  70 106 141 184 228 294 348 429
#     4  11  24  43  68  99 138 179 234 279 352 412
#     4  10  22  41  71  96 134 182 230 286 344 420
#     4  11  23  42  68 101 136 183 231 291 355 412
#     4  11  26  47  71 105 143 180 234 286 360 416
#     4  12  23  45  68  98 137 182 232 284 345 420
#
# _framework density 22.049852000000001
#
# number of rings (size 3 to 8) (size 9 to 14) (size 15 to 20)
#    0.000    1.000    3.333    2.500    9.333    2.667 
#    3.000    0.000    0.000    0.000    0.000    0.000 
#    0.000    0.000    0.000    0.000    0.000    0.000 
#
# Total GULP energy -595096.707539 kJ/mol
# GULP energy per Si atom -12397.848074 kJ/mol
# Density = 2.199967 g / cm^3
# Si number density = 22.049852 Si / 1000 Ang^3
#
#
#
# Elastic Constant Matrix: (Units=GPa)
#
#
# Indices 1 2 3 4 5 6 
#
# 1 126.1937 38.6349 31.4836 0.0000 0.0000 0.0000
# 2 38.6349 110.1552 33.1973 0.0000 0.0000 0.0000
# 3 31.4836 33.1973 97.7368 0.0000 0.0000 0.0000
# 4 0.0000 0.0000 0.0000 -61.2054 0.0000 0.0000
# 5 0.0000 0.0000 0.0000 0.0000 29.9732 0.0000
# 6 0.0000 0.0000 0.0000 0.0000 0.0000 4.2174
#
#
#
# Elastic Compliance Matrix: (Units=1/GPa)
#
#
# Indices 1 2 3 4 5 6 
#
# 1 0.009246 -0.002613 -0.002091 0.000000 0.000000 0.000000
# 2 -0.002613 0.010852 -0.002844 0.000000 0.000000 0.000000
# 3 -0.002091 -0.002844 0.011871 0.000000 0.000000 0.000000
# 4 0.000000 0.000000 0.000000 -0.016338 0.000000 0.000000
# 5 0.000000 0.000000 0.000000 0.000000 0.033363 0.000000
# 6 0.000000 0.000000 0.000000 0.000000 0.000000 0.237114
#
#
# Mechanical properties :
#
#
# Convention : Reuss Voigt Hill
#
# Bulk Modulus (GPa) = 59.26638 60.07971 59.67305
# Shear Modulus (GPa) = 16.29581 9.98169 13.13875
#
# Velocity S-wave (km/s) = 2.72149 2.12995 2.44368
# Velocity P-wave (km/s) = 6.06729 5.77541 5.92315
#
# Compressibility (1/GPa) = 0.01687297
#
# Stress axis : x y z
#
# Youngs Moduli (GPa) = 108.15641 92.15212 84.23761
#
# Poissons Ratio (x) = 0.24076 0.17613
# Poissons Ratio (y) = 0.28258 0.23959
# Poissons Ratio (z) = 0.22615 0.26210
#
# Static dielectric constant tensor:
#      x y z
#    x 5.776730 0.000000 0.000000 
#    y 0.000000 4.555400 0.000000 
#    z 0.000000 0.000000 4.250370 
# 
# 
# High freq. dielectric constant tensor:
#      x y z
#    x 1.868960 0.000000 0.000000 
#    y 0.000000 1.881610 0.000000 
#    z 0.000000 0.000000 1.863410 
# 
# From -- ./inp_files/4219.got.cif
#   From: 2010.03.12/outbox.cif.g09.slc.cpg/sg60_3_cif.got.tgz:4219.got - 2010.04.10 18:46:24.
