data_PCOD8247775
_publ_section_title
;
Structure prediction by ZEFSAII (Michael W. Deem and Ramdas Pophale) SiO2 
 PCOD8247775
Probable space group: P B C N
;
_chemical_formula_sum "Si O2"
_cell_formula_units_Z 56
_cell_length_a 5.230011
_cell_length_b 33.197234
_cell_length_c 13.842136
_cell_angle_alpha 90.000000
_cell_angle_beta 90.000000
_cell_angle_gamma 90.000000
_cell_volume 2403.297938
_symmetry_space_group_name_H-M "P B C N"
_symmetry_group_IT_number 60
_symmetry_cell_setting 'orthorhombic'
loop_
_space_group_symop_operation_xyz
x,y,z
1/2-x,1/2-y,1/2+z
1/2+x,1/2-y,-z
-x,y,1/2-z
-x,-y,-z
1/2+x,1/2+y,1/2-z
1/2-x,1/2+y,z
x,-y,1/2+z
loop_
_atom_site_type_symbol
_atom_site_label
_atom_site_fract_x
_atom_site_fract_y
_atom_site_fract_z
Si Si1 0.250145 0.311023 0.796855
Si Si2 0.500000 0.111359 0.250000
Si Si3 0.837425 0.774867 0.501227
Si Si4 0.000000 0.993038 0.250000
Si Si5 0.708712 0.966227 0.420486
Si Si6 0.985308 0.842692 0.364719
Si Si7 0.013554 0.611873 0.863522
Si Si8 0.383159 0.039972 0.374745
O O1 0.500000 0.291168 0.750000
O O2 0.242182 0.358725 0.766254
O O3 0.261518 0.304689 0.911379
O O4 0.000000 0.289286 0.750000
O O5 0.506742 0.082868 0.345196
O O6 0.571422 0.754311 0.467270
O O7 0.957624 0.798834 0.411200
O O8 0.068998 0.963018 0.160925
O O9 0.234327 0.021847 0.282105
O O10 0.481250 0.934754 0.396127
O O11 0.804079 0.957192 0.530507
O O12 0.612356 0.011848 0.410715
O O13 0.240381 0.864672 0.404281
O O14 0.000000 0.837441 0.250000
O O15 0.746393 0.868490 0.403506
O O16 0.000000 0.614718 0.750000
#
# Coordination Sequence:
#
# PCOD8247775 Si02
#       8
#     8   4   8   4   8   8   8   8
#     4  10  25  45  72 106 147 196 243 294 372 433
#     4  10  24  44  68  96 151 194 248 307 360 442
#     4  12  26  46  77 111 145 182 236 299 362 452
#     4  12  22  42  62  94 143 178 260 307 368 428
#     4  11  25  39  66  95 141 186 253 301 372 419
#     4  10  24  44  68 102 141 182 230 279 367 431
#     4  10  22  41  66  98 138 187 230 292 349 429
#     4  11  24  43  63 101 132 196 246 305 366 424
#
# _framework density 23.301314999999999
#
# number of rings (size 3 to 8) (size 9 to 14) (size 15 to 20)
#    0.429    0.857    1.429    3.000    8.000    2.857 
#    0.000    0.000    0.000    0.000    0.000    0.000 
#    0.000    0.000    0.000    0.000    0.000    0.000 
#
# Total GULP energy -694033.473798 kJ/mol
# GULP energy per Si atom -12393.454889 kJ/mol
# Density = 2.324828 g / cm^3
# Si number density = 23.301315 Si / 1000 Ang^3
#
#
#
# Elastic Constant Matrix: (Units=GPa)
#
#
# Indices 1 2 3 4 5 6 
#
# 1 130.8222 40.4696 41.5489 0.0000 0.0000 0.0000
# 2 40.4696 91.3356 39.8035 0.0000 0.0000 0.0000
# 3 41.5489 39.8035 122.8581 0.0000 0.0000 0.0000
# 4 0.0000 0.0000 0.0000 34.4080 0.0000 0.0000
# 5 0.0000 0.0000 0.0000 0.0000 31.0716 0.0000
# 6 0.0000 0.0000 0.0000 0.0000 0.0000 24.6195
#
#
#
# Elastic Compliance Matrix: (Units=1/GPa)
#
#
# Indices 1 2 3 4 5 6 
#
# 1 0.009305 -0.003204 -0.002109 0.000000 0.000000 0.000000
# 2 -0.003204 0.013852 -0.003404 0.000000 0.000000 0.000000
# 3 -0.002109 -0.003404 0.009956 0.000000 0.000000 0.000000
# 4 0.000000 0.000000 0.000000 0.029063 0.000000 0.000000
# 5 0.000000 0.000000 0.000000 0.000000 0.032184 0.000000
# 6 0.000000 0.000000 0.000000 0.000000 0.000000 0.040618
#
#
# Mechanical properties :
#
#
# Convention : Reuss Voigt Hill
#
# Bulk Modulus (GPa) = 63.78182 65.40667 64.59424
# Shear Modulus (GPa) = 31.71847 32.89940 32.30894
#
# Velocity S-wave (km/s) = 3.69349 3.76162 3.72771
# Velocity P-wave (km/s) = 6.75435 6.85545 6.80509
#
# Compressibility (1/GPa) = 0.01567845
#
# Stress axis : x y z
#
# Youngs Moduli (GPa) = 107.47132 72.19307 100.44678
#
# Poissons Ratio (x) = 0.23130 0.21182
# Poissons Ratio (y) = 0.34432 0.34194
# Poissons Ratio (z) = 0.22663 0.24576
#
# Static dielectric constant tensor:
#      x y z
#    x 4.270390 0.000000 0.000000 
#    y 0.000000 4.045210 0.000000 
#    z 0.000000 0.000000 4.346800 
# 
# 
# High freq. dielectric constant tensor:
#      x y z
#    x 1.917180 0.000000 0.000000 
#    y 0.000000 1.908420 0.000000 
#    z 0.000000 0.000000 1.925030 
# 
# From -- ./inp_files/14140.got.cif
#   From: 2010.03.12/outbox.cif.g09.slc.cpg/sg60_8_cif.got.tgz:14140.got - 2010.04.10 18:46:24.
