data_PCOD8247061
_publ_section_title
;
Structure prediction by ZEFSAII (Michael W. Deem and Ramdas Pophale) SiO2 
 PCOD8247061
Probable space group: P B C N
;
_chemical_formula_sum "Si O2"
_cell_formula_units_Z 60
_cell_length_a 20.157788
_cell_length_b 11.105251
_cell_length_c 13.817726
_cell_angle_alpha 90.000000
_cell_angle_beta 90.000000
_cell_angle_gamma 90.000000
_cell_volume 3093.198770
_symmetry_space_group_name_H-M "P B C N"
_symmetry_group_IT_number 60
_symmetry_cell_setting 'orthorhombic'
loop_
_space_group_symop_operation_xyz
x,y,z
1/2-x,1/2-y,1/2+z
1/2+x,1/2-y,-z
-x,y,1/2-z
-x,-y,-z
1/2+x,1/2+y,1/2-z
1/2-x,1/2+y,z
x,-y,1/2+z
loop_
_atom_site_type_symbol
_atom_site_label
_atom_site_fract_x
_atom_site_fract_y
_atom_site_fract_z
Si Si1 0.639802 0.002179 0.735176
Si Si2 0.076866 0.899242 0.868973
Si Si3 0.797855 0.514438 0.445432
Si Si4 0.198963 0.320246 0.900187
Si Si5 0.500000 0.886511 0.250000
Si Si6 0.937195 0.161587 0.344234
Si Si7 0.157862 0.914596 0.495515
Si Si8 0.669785 0.204444 0.593309
O O1 0.560612 0.024554 0.720015
O O2 0.679274 0.104933 0.676952
O O3 0.660188 0.871214 0.693207
O O4 0.667326 0.005725 0.843392
O O5 0.092347 0.899246 0.753395
O O6 0.097479 0.765062 0.904543
O O7 0.998468 0.918562 0.883219
O O8 0.113292 0.996447 0.933649
O O9 0.822010 0.402736 0.509671
O O10 0.717376 0.517383 0.447782
O O11 0.822189 0.642013 0.488853
O O12 0.182462 0.180681 0.916657
O O13 0.278836 0.315260 0.886460
O O14 0.466000 0.797351 0.170967
O O15 0.881351 0.161176 0.424564
#
# Coordination Sequence:
#
# PCOD8247061 Si02
#       8
#     8   8   8   8   4   8   8   8
#     4  11  22  41  62  86 120 162 197 249 310 367
#     4  10  20  40  58  90 120 155 202 249 296 358
#     4  10  23  37  60  89 118 155 204 247 306 365
#     4  10  23  38  58  90 118 155 196 254 308 352
#     4  10  20  40  62  86 120 154 210 246 286 384
#     4  10  21  37  67  86 114 172 207 236 312 367
#     4  11  22  39  60  90 126 155 206 257 301 369
#     4  10  20  39  60  85 121 151 197 253 294 356
#
# _framework density 19.397394999999999
#
# number of rings (size 3 to 8) (size 9 to 14) (size 15 to 20)
#    0.000    1.867    4.000    1.200    1.867    1.067 
#    4.800    3.333    0.000    0.000    0.000    0.000 
#    0.000    0.000    0.000    0.000    0.000    0.000 
#
# Total GULP energy -743427.942901 kJ/mol
# GULP energy per Si atom -12390.465715 kJ/mol
# Density = 1.935325 g / cm^3
# Si number density = 19.397395 Si / 1000 Ang^3
#
#
#
# Elastic Constant Matrix: (Units=GPa)
#
#
# Indices 1 2 3 4 5 6 
#
# 1 65.2658 12.3222 32.9181 0.0000 0.0000 0.0000
# 2 12.3222 55.3329 15.7581 0.0000 0.0000 0.0000
# 3 32.9181 15.7581 88.4052 0.0000 0.0000 0.0000
# 4 0.0000 0.0000 0.0000 19.1116 0.0000 0.0000
# 5 0.0000 0.0000 0.0000 0.0000 30.2579 0.0000
# 6 0.0000 0.0000 0.0000 0.0000 0.0000 27.2887
#
#
#
# Elastic Compliance Matrix: (Units=1/GPa)
#
#
# Indices 1 2 3 4 5 6 
#
# 1 0.019151 -0.002354 -0.006712 0.000000 0.000000 0.000000
# 2 -0.002354 0.019328 -0.002569 0.000000 0.000000 0.000000
# 3 -0.006712 -0.002569 0.014269 0.000000 0.000000 0.000000
# 4 0.000000 0.000000 0.000000 0.052324 0.000000 0.000000
# 5 0.000000 0.000000 0.000000 0.000000 0.033049 0.000000
# 6 0.000000 0.000000 0.000000 0.000000 0.000000 0.036645
#
#
# Mechanical properties :
#
#
# Convention : Reuss Voigt Hill
#
# Bulk Modulus (GPa) = 33.92115 36.77785 35.34950
# Shear Modulus (GPa) = 24.05447 25.19867 24.62657
#
# Velocity S-wave (km/s) = 3.52531 3.60818 3.56698
# Velocity P-wave (km/s) = 5.83916 6.02992 5.93531
#
# Compressibility (1/GPa) = 0.02948013
#
# Stress axis : x y z
#
# Youngs Moduli (GPa) = 52.21535 51.73809 70.08417
#
# Poissons Ratio (x) = 0.12177 0.47038
# Poissons Ratio (y) = 0.12289 0.18004
# Poissons Ratio (z) = 0.35045 0.13291
#
# Static dielectric constant tensor:
#      x y z
#    x 3.934080 0.000000 0.000000 
#    y 0.000000 3.482970 0.000000 
#    z 0.000000 0.000000 3.390270 
# 
# 
# High freq. dielectric constant tensor:
#      x y z
#    x 1.763660 0.000000 0.000000 
#    y 0.000000 1.749150 0.000000 
#    z 0.000000 0.000000 1.741070 
# 
# From -- ./inp_files/12865.got.cif
#   From: 2010.03.12/outbox.cif.g09.slc.cpg/sg60_7_cif.got.tgz:12865.got - 2010.04.10 18:46:24.
