data_PCOD8247726
_publ_section_title
;
Structure prediction by ZEFSAII (Michael W. Deem and Ramdas Pophale) SiO2 
 PCOD8247726
Probable space group: P B C N
;
_chemical_formula_sum "Si O2"
_cell_formula_units_Z 64
_cell_length_a 10.700072
_cell_length_b 9.415815
_cell_length_c 29.232511
_cell_angle_alpha 90.000000
_cell_angle_beta 90.000000
_cell_angle_gamma 90.000000
_cell_volume 2945.172514
_symmetry_space_group_name_H-M "P B C N"
_symmetry_group_IT_number 60
_symmetry_cell_setting 'orthorhombic'
loop_
_space_group_symop_operation_xyz
x,y,z
1/2-x,1/2-y,1/2+z
1/2+x,1/2-y,-z
-x,y,1/2-z
-x,-y,-z
1/2+x,1/2+y,1/2-z
1/2-x,1/2+y,z
x,-y,1/2+z
loop_
_atom_site_type_symbol
_atom_site_label
_atom_site_fract_x
_atom_site_fract_y
_atom_site_fract_z
Si Si1 0.141101 0.225301 0.613562
Si Si2 0.806381 0.212949 0.198928
Si Si3 0.140625 0.931168 0.252721
Si Si4 0.634574 0.177752 0.487147
Si Si5 0.119701 0.658106 0.371596
Si Si6 0.505522 0.943400 0.197886
Si Si7 0.852265 0.631668 0.024030
Si Si8 0.751157 0.981378 0.838312
O O1 0.172691 0.285893 0.564158
O O2 0.185814 0.063106 0.618642
O O3 0.219172 0.320118 0.649461
O O4 0.994352 0.230922 0.625374
O O5 0.725030 0.292361 0.238322
O O6 0.741746 0.235562 0.148917
O O7 0.942091 0.283884 0.197790
O O8 0.827357 0.047039 0.208686
O O9 0.158951 0.010841 0.204762
O O10 0.000000 0.875390 0.250000
O O11 0.483677 0.205573 0.493325
O O12 0.728094 0.271993 0.518130
O O13 0.665044 0.013579 0.496351
O O14 0.094218 0.539682 0.333343
O O15 0.140891 0.593719 0.422072
O O16 0.500000 0.004093 0.250000
O O17 0.372593 0.932583 0.174587
#
# Coordination Sequence:
#
# PCOD8247726 Si02
#       8
#     8   8   8   8   8   8   8   8
#     4  10  22  40  64  90 127 164 211 260 327 386
#     4  12  23  42  60  89 127 164 215 265 313 381
#     4  12  26  39  61  89 126 168 216 264 317 379
#     4  10  22  44  67  99 130 171 214 275 336 402
#     4  10  23  42  64  92 128 171 211 264 324 384
#     4  11  22  41  63  88 127 171 212 262 323 371
#     4  10  23  42  71  96 134 169 221 270 338 398
#     4  11  22  39  62  89 122 168 212 261 315 386
#
# _framework density 21.730475999999999
#
# number of rings (size 3 to 8) (size 9 to 14) (size 15 to 20)
#    0.000    1.250    2.500    2.625    3.500    4.000 
#    0.000    0.000    0.000    0.000    0.000    0.000 
#    0.000    0.000    0.000    0.000    0.000    0.000 
#
# Total GULP energy -793364.747374 kJ/mol
# GULP energy per Si atom -12396.324178 kJ/mol
# Density = 2.168102 g / cm^3
# Si number density = 21.730476 Si / 1000 Ang^3
#
#
#
# Elastic Constant Matrix: (Units=GPa)
#
#
# Indices 1 2 3 4 5 6 
#
# 1 75.1071 18.2052 13.0276 0.0000 0.0000 0.0000
# 2 18.2052 44.2745 -4.4155 0.0000 0.0000 0.0000
# 3 13.0276 -4.4155 82.0786 0.0000 0.0000 0.0000
# 4 0.0000 0.0000 0.0000 26.0649 0.0000 0.0000
# 5 0.0000 0.0000 0.0000 0.0000 35.2539 0.0000
# 6 0.0000 0.0000 0.0000 0.0000 0.0000 23.8909
#
#
#
# Elastic Compliance Matrix: (Units=1/GPa)
#
#
# Indices 1 2 3 4 5 6 
#
# 1 0.015403 -0.006613 -0.002801 0.000000 0.000000 0.000000
# 2 -0.006613 0.025547 0.002424 0.000000 0.000000 0.000000
# 3 -0.002801 0.002424 0.012758 0.000000 0.000000 0.000000
# 4 0.000000 0.000000 0.000000 0.038366 0.000000 0.000000
# 5 0.000000 0.000000 0.000000 0.000000 0.028366 0.000000
# 6 0.000000 0.000000 0.000000 0.000000 0.000000 0.041857
#
#
# Mechanical properties :
#
#
# Convention : Reuss Voigt Hill
#
# Bulk Modulus (GPa) = 25.17009 28.34387 26.75698
# Shear Modulus (GPa) = 26.38260 28.68481 27.53371
#
# Velocity S-wave (km/s) = 3.48815 3.63716 3.56343
# Velocity P-wave (km/s) = 5.27550 5.54168 5.41023
#
# Compressibility (1/GPa) = 0.03972970
#
# Stress axis : x y z
#
# Youngs Moduli (GPa) = 64.92259 39.14319 78.38014
#
# Poissons Ratio (x) = 0.25885 0.21950
# Poissons Ratio (y) = 0.42932 -0.18999
# Poissons Ratio (z) = 0.18182 -0.09488
#
# Static dielectric constant tensor:
#      x y z
#    x 4.177440 0.000000 0.000000 
#    y 0.000000 3.706390 0.000000 
#    z 0.000000 0.000000 3.933950 
# 
# 
# High freq. dielectric constant tensor:
#      x y z
#    x 1.866940 0.000000 0.000000 
#    y 0.000000 1.837420 0.000000 
#    z 0.000000 0.000000 1.850630 
# 
# From -- ./inp_files/26089.got.cif
#   From: 2010.03.12/outbox.cif.g09.slc.cpg/sg60_14_cif.got.tgz:26089.got - 2010.04.10 18:46:24.
