data_PCOD8247024
_publ_section_title
;
Structure prediction by ZEFSAII (Michael W. Deem and Ramdas Pophale) SiO2 
 PCOD8247024
Probable space group: P B C N
;
_chemical_formula_sum "Si O2"
_cell_formula_units_Z 40
_cell_length_a 12.106507
_cell_length_b 16.264943
_cell_length_c 9.669854
_cell_angle_alpha 90.000000
_cell_angle_beta 90.000000
_cell_angle_gamma 90.000000
_cell_volume 1904.106870
_symmetry_space_group_name_H-M "P B C N"
_symmetry_group_IT_number 60
_symmetry_cell_setting 'orthorhombic'
loop_
_space_group_symop_operation_xyz
x,y,z
1/2-x,1/2-y,1/2+z
1/2+x,1/2-y,-z
-x,y,1/2-z
-x,-y,-z
1/2+x,1/2+y,1/2-z
1/2-x,1/2+y,z
x,-y,1/2+z
loop_
_atom_site_type_symbol
_atom_site_label
_atom_site_fract_x
_atom_site_fract_y
_atom_site_fract_z
Si Si1 0.837030 0.325862 0.993447
Si Si2 0.941314 0.625621 0.888595
Si Si3 0.122757 0.946907 0.778704
Si Si4 0.696495 0.269252 0.761016
Si Si5 0.755739 0.503815 0.966715
O O1 0.811399 0.290423 0.840130
O O2 0.779873 0.413096 0.022282
O O3 0.784517 0.263301 0.105991
O O4 0.968322 0.338278 0.005259
O O5 0.865828 0.701825 0.850019
O O6 0.869359 0.555823 0.964266
O O7 0.000000 0.589641 0.750000
O O8 0.122853 0.851102 0.739440
O O9 0.207099 0.000703 0.687392
O O10 0.000000 0.980807 0.750000
O O11 0.162374 0.956044 0.936349
#
# Coordination Sequence:
#
# PCOD8247024 Si02
#       5
#     8   8   8   8   8
#     4  10  21  38  58  86 117 155 196 243 295 347
#     4  10  20  38  62  87 120 157 195 249 303 353
#     4  11  22  39  60  85 117 156 196 244 297 353
#     4  10  21  37  58  82 115 154 196 238 292 357
#     4  11  23  38  61  88 118 154 201 246 296 360
#
# _framework density 21.007224999999998
#
# number of rings (size 3 to 8) (size 9 to 14) (size 15 to 20)
#    0.000    1.600    0.000    6.600    0.000    0.000 
#    0.000   12.000    0.000    0.000    0.000    0.000 
#    0.000    0.000    0.000    0.000    0.000    0.000 
#
# Total GULP energy -496012.008268 kJ/mol
# GULP energy per Si atom -12400.300207 kJ/mol
# Density = 2.095941 g / cm^3
# Si number density = 21.007225 Si / 1000 Ang^3
#
#
#
# Elastic Constant Matrix: (Units=GPa)
#
#
# Indices 1 2 3 4 5 6 
#
# 1 94.5132 35.3039 39.7781 0.0000 0.0000 0.0000
# 2 35.3039 79.1679 41.9234 0.0000 0.0000 0.0000
# 3 39.7781 41.9234 83.0647 0.0000 0.0000 0.0000
# 4 0.0000 0.0000 0.0000 34.1973 0.0000 0.0000
# 5 0.0000 0.0000 0.0000 0.0000 42.8297 0.0000
# 6 0.0000 0.0000 0.0000 0.0000 0.0000 23.9195
#
#
#
# Elastic Compliance Matrix: (Units=1/GPa)
#
#
# Indices 1 2 3 4 5 6 
#
# 1 0.013992 -0.003673 -0.004847 0.000000 0.000000 0.000000
# 2 -0.003673 0.018203 -0.007428 0.000000 0.000000 0.000000
# 3 -0.004847 -0.007428 0.018109 0.000000 0.000000 0.000000
# 4 0.000000 0.000000 0.000000 0.029242 0.000000 0.000000
# 5 0.000000 0.000000 0.000000 0.000000 0.023348 0.000000
# 6 0.000000 0.000000 0.000000 0.000000 0.000000 0.041807
#
#
# Mechanical properties :
#
#
# Convention : Reuss Voigt Hill
#
# Bulk Modulus (GPa) = 54.32411 54.52851 54.42631
# Shear Modulus (GPa) = 27.36218 29.50534 28.43376
#
# Velocity S-wave (km/s) = 3.61295 3.75178 3.68302
# Velocity P-wave (km/s) = 6.58182 6.69187 6.63708
#
# Compressibility (1/GPa) = 0.01840803
#
# Stress axis : x y z
#
# Youngs Moduli (GPa) = 71.46690 54.93610 55.22125
#
# Poissons Ratio (x) = 0.20178 0.26765
# Poissons Ratio (y) = 0.26250 0.41020
# Poissons Ratio (z) = 0.34639 0.40808
#
# Static dielectric constant tensor:
#      x y z
#    x 3.836510 0.000000 0.000000 
#    y 0.000000 3.791960 0.000000 
#    z 0.000000 0.000000 3.815780 
# 
# 
# High freq. dielectric constant tensor:
#      x y z
#    x 1.815700 0.000000 0.000000 
#    y 0.000000 1.829990 0.000000 
#    z 0.000000 0.000000 1.819550 
# 
# From -- ./inp_files/4721.got.cif
#   From: 2010.03.12/outbox.cif.g09.slc.cpg/sg60_3_cif.got.tgz:4721.got - 2010.04.10 18:46:24.
