data_PCOD8247619
_publ_section_title
;
Structure prediction by ZEFSAII (Michael W. Deem and Ramdas Pophale) SiO2 
 PCOD8247619
Probable space group: P B C N
;
_chemical_formula_sum "Si O2"
_cell_formula_units_Z 36
_cell_length_a 14.470276
_cell_length_b 24.679969
_cell_length_c 5.067604
_cell_angle_alpha 90.000000
_cell_angle_beta 90.000000
_cell_angle_gamma 90.000000
_cell_volume 1809.772959
_symmetry_space_group_name_H-M "P B C N"
_symmetry_group_IT_number 60
_symmetry_cell_setting 'orthorhombic'
loop_
_space_group_symop_operation_xyz
x,y,z
1/2-x,1/2-y,1/2+z
1/2+x,1/2-y,-z
-x,y,1/2-z
-x,-y,-z
1/2+x,1/2+y,1/2-z
1/2-x,1/2+y,z
x,-y,1/2+z
loop_
_atom_site_type_symbol
_atom_site_label
_atom_site_fract_x
_atom_site_fract_y
_atom_site_fract_z
Si Si1 0.254377 0.855351 0.513641
Si Si2 0.644995 0.322173 0.478415
Si Si3 0.937339 0.293840 0.005273
Si Si4 0.168840 0.964147 0.400483
Si Si5 0.000000 0.100856 0.750000
O O1 0.201216 0.819038 0.296219
O O2 0.361753 0.840652 0.529224
O O3 0.247471 0.918782 0.439548
O O4 0.210561 0.845801 0.798181
O O5 0.612892 0.262826 0.560959
O O6 0.556992 0.361594 0.451788
O O7 0.000000 0.288822 0.750000
O O8 0.000000 0.310405 0.250000
O O9 0.068246 0.936042 0.425592
O O10 0.180013 0.011985 0.608583
#
# Coordination Sequence:
#
# PCOD8247619 Si02
#       5
#     8   8   8   8   4
#     4  11  24  41  62  87 124 167 203 254 306 358
#     4  11  22  39  60  92 129 164 197 238 309 382
#     4  12  24  40  64  91 123 159 209 254 303 365
#     4  11  23  39  60  88 122 163 206 249 296 358
#     4  10  22  36  62  94 128 160 192 246 296 382
#
# _framework density 19.891997
#
# number of rings (size 3 to 8) (size 9 to 14) (size 15 to 20)
#    0.000    0.889    1.111    7.333    3.111    3.556 
#    0.000    0.000    0.000    4.000    0.000    0.000 
#    0.000    0.000    0.000    0.000    0.000    0.000 
#
# Total GULP energy -446658.789125 kJ/mol
# GULP energy per Si atom -12407.188587 kJ/mol
# Density = 1.984672 g / cm^3
# Si number density = 19.891997 Si / 1000 Ang^3
#
#
#
# Elastic Constant Matrix: (Units=GPa)
#
#
# Indices 1 2 3 4 5 6 
#
# 1 82.7111 49.0324 22.1826 0.0000 0.0000 0.0000
# 2 49.0324 101.8596 13.7993 0.0000 0.0000 0.0000
# 3 22.1826 13.7993 93.2087 0.0000 0.0000 0.0000
# 4 0.0000 0.0000 0.0000 18.7652 0.0000 0.0000
# 5 0.0000 0.0000 0.0000 0.0000 33.3783 0.0000
# 6 0.0000 0.0000 0.0000 0.0000 0.0000 28.5464
#
#
#
# Elastic Compliance Matrix: (Units=1/GPa)
#
#
# Indices 1 2 3 4 5 6 
#
# 1 0.017710 -0.008117 -0.003013 0.000000 0.000000 0.000000
# 2 -0.008117 0.013739 -0.000102 0.000000 0.000000 0.000000
# 3 -0.003013 -0.000102 0.011461 0.000000 0.000000 0.000000
# 4 0.000000 0.000000 0.000000 0.053290 0.000000 0.000000
# 5 0.000000 0.000000 0.000000 0.000000 0.029960 0.000000
# 6 0.000000 0.000000 0.000000 0.000000 0.000000 0.035031
#
#
# Mechanical properties :
#
#
# Convention : Reuss Voigt Hill
#
# Bulk Modulus (GPa) = 48.91180 49.75644 49.33412
# Shear Modulus (GPa) = 26.25089 28.98900 27.61995
#
# Velocity S-wave (km/s) = 3.63667 3.82163 3.73029
# Velocity P-wave (km/s) = 6.50199 6.67388 6.58850
#
# Compressibility (1/GPa) = 0.02044496
#
# Stress axis : x y z
#
# Youngs Moduli (GPa) = 56.46439 72.78762 87.25368
#
# Poissons Ratio (x) = 0.59082 0.26291
# Poissons Ratio (y) = 0.45832 0.00892
# Poissons Ratio (z) = 0.17013 0.00744
#
# Static dielectric constant tensor:
#      x y z
#    x 3.634570 0.000000 0.000000 
#    y 0.000000 3.696950 0.000000 
#    z 0.000000 0.000000 3.634390 
# 
# 
# High freq. dielectric constant tensor:
#      x y z
#    x 1.761260 0.000000 0.000000 
#    y 0.000000 1.774670 0.000000 
#    z 0.000000 0.000000 1.792450 
# 
# From -- ./inp_files/759.got.cif
#   From: 2010.03.12/outbox.cif.g09.slc.cpg/sg60_1_cif.got.tgz:759.got - 2010.04.10 18:46:24.
