data_PCOD8247561
_publ_section_title
;
Structure prediction by ZEFSAII (Michael W. Deem and Ramdas Pophale) SiO2 
 PCOD8247561
Probable space group: P B C N
;
_chemical_formula_sum "Si O2"
_cell_formula_units_Z 56
_cell_length_a 7.390532
_cell_length_b 14.217664
_cell_length_c 21.855923
_cell_angle_alpha 90.000000
_cell_angle_beta 90.000000
_cell_angle_gamma 90.000000
_cell_volume 2296.535167
_symmetry_space_group_name_H-M "P B C N"
_symmetry_group_IT_number 60
_symmetry_cell_setting 'orthorhombic'
loop_
_space_group_symop_operation_xyz
x,y,z
1/2-x,1/2-y,1/2+z
1/2+x,1/2-y,-z
-x,y,1/2-z
-x,-y,-z
1/2+x,1/2+y,1/2-z
1/2-x,1/2+y,z
x,-y,1/2+z
loop_
_atom_site_type_symbol
_atom_site_label
_atom_site_fract_x
_atom_site_fract_y
_atom_site_fract_z
Si Si1 0.706824 0.972777 0.855334
Si Si2 0.203758 0.882874 0.767525
Si Si3 0.940821 0.285108 0.912887
Si Si4 0.670457 0.714199 0.036510
Si Si5 0.597633 0.460482 0.604923
Si Si6 0.378517 0.896257 0.387642
Si Si7 0.614530 0.306077 0.198187
O O1 0.705232 0.952065 0.782524
O O2 0.662692 0.877572 0.891565
O O3 0.907234 0.006452 0.875468
O O4 0.568551 0.055070 0.872821
O O5 0.318670 0.788232 0.768814
O O6 0.000000 0.856466 0.750000
O O7 0.210057 0.926018 0.835310
O O8 0.129083 0.313634 0.943652
O O9 0.978023 0.214422 0.857463
O O10 0.825547 0.229393 0.963899
O O11 0.554430 0.623034 0.056924
O O12 0.588251 0.804605 0.071226
O O13 0.733788 0.537784 0.575837
O O14 0.284333 0.867741 0.323387
O O15 0.500000 0.362898 0.250000
#
# Coordination Sequence:
#
# PCOD8247561 Si02
#       7
#     8   8   8   8   8   8   8
#     4  11  23  44  75 105 147 198 244 309 386 428
#     4  10  21  42  74 102 141 192 241 296 373 450
#     4  11  22  44  75 102 144 200 246 310 376 443
#     4  11  24  47  73 104 148 197 254 309 374 457
#     4  11  23  48  70 107 153 194 246 308 373 452
#     4  11  25  47  71 111 153 189 252 311 366 455
#     4  11  22  45  73 110 144 189 248 306 374 450
#
# _framework density 24.384561999999999
#
# number of rings (size 3 to 8) (size 9 to 14) (size 15 to 20)
#    0.000    1.143    5.714    0.857    0.000    2.286 
#   15.429    3.571    0.000    0.000    0.000    0.000 
#    0.000    0.000    0.000    0.000    0.000    0.000 
#
# Total GULP energy -694466.817971 kJ/mol
# GULP energy per Si atom -12401.193178 kJ/mol
# Density = 2.432906 g / cm^3
# Si number density = 24.384562 Si / 1000 Ang^3
#
#
#
# Elastic Constant Matrix: (Units=GPa)
#
#
# Indices 1 2 3 4 5 6 
#
# 1 91.2963 31.9792 26.1026 0.0000 0.0000 0.0000
# 2 31.9792 90.0593 3.6412 0.0000 0.0000 0.0000
# 3 26.1026 3.6412 87.2666 0.0000 0.0000 0.0000
# 4 0.0000 0.0000 0.0000 13.6116 0.0000 0.0000
# 5 0.0000 0.0000 0.0000 0.0000 32.1686 0.0000
# 6 0.0000 0.0000 0.0000 0.0000 0.0000 19.6911
#
#
#
# Elastic Compliance Matrix: (Units=1/GPa)
#
#
# Indices 1 2 3 4 5 6 
#
# 1 0.013722 -0.004715 -0.003908 0.000000 0.000000 0.000000
# 2 -0.004715 0.012742 0.000879 0.000000 0.000000 0.000000
# 3 -0.003908 0.000879 0.012591 0.000000 0.000000 0.000000
# 4 0.000000 0.000000 0.000000 0.073467 0.000000 0.000000
# 5 0.000000 0.000000 0.000000 0.000000 0.031086 0.000000
# 6 0.000000 0.000000 0.000000 0.000000 0.000000 0.050784
#
#
# Mechanical properties :
#
#
# Convention : Reuss Voigt Hill
#
# Bulk Modulus (GPa) = 42.43009 43.56312 42.99661
# Shear Modulus (GPa) = 22.96355 26.88755 24.92555
#
# Velocity S-wave (km/s) = 3.07208 3.32421 3.20063
# Velocity P-wave (km/s) = 5.47921 5.71294 5.59730
#
# Compressibility (1/GPa) = 0.02356818
#
# Stress axis : x y z
#
# Youngs Moduli (GPa) = 72.87553 78.47829 79.41969
#
# Poissons Ratio (x) = 0.36999 0.31035
# Poissons Ratio (y) = 0.34358 -0.06977
# Poissons Ratio (z) = 0.28478 -0.06894
#
# Static dielectric constant tensor:
#      x y z
#    x 4.399360 0.000000 0.000000 
#    y 0.000000 4.310170 0.000000 
#    z 0.000000 0.000000 4.670380 
# 
# 
# High freq. dielectric constant tensor:
#      x y z
#    x 1.978480 0.000000 0.000000 
#    y 0.000000 1.964220 0.000000 
#    z 0.000000 0.000000 1.963670 
# 
# From -- ./inp_files/22197.got.cif
#   From: 2010.03.12/outbox.cif.g09.slc.cpg/sg60_12_cif.got.tgz:22197.got - 2010.04.10 18:46:24.
