data_PCOD8247018
_publ_section_title
;
Structure prediction by ZEFSAII (Michael W. Deem and Ramdas Pophale) SiO2 
 PCOD8247018
Probable space group: P B C N
;
_chemical_formula_sum "Si O2"
_cell_formula_units_Z 48
_cell_length_a 9.006716
_cell_length_b 9.266258
_cell_length_c 26.776582
_cell_angle_alpha 90.000000
_cell_angle_beta 90.000000
_cell_angle_gamma 90.000000
_cell_volume 2234.734820
_symmetry_space_group_name_H-M "P B C N"
_symmetry_group_IT_number 60
_symmetry_cell_setting 'orthorhombic'
loop_
_space_group_symop_operation_xyz
x,y,z
1/2-x,1/2-y,1/2+z
1/2+x,1/2-y,-z
-x,y,1/2-z
-x,-y,-z
1/2+x,1/2+y,1/2-z
1/2-x,1/2+y,z
x,-y,1/2+z
loop_
_atom_site_type_symbol
_atom_site_label
_atom_site_fract_x
_atom_site_fract_y
_atom_site_fract_z
Si Si1 0.090925 0.978357 0.297892
Si Si2 0.812202 0.892209 0.838533
Si Si3 0.651662 0.414195 0.500193
Si Si4 0.659298 0.838111 0.736348
Si Si5 0.663580 0.883391 0.399786
Si Si6 0.899061 0.591141 0.536345
O O1 0.248946 0.059930 0.301376
O O2 0.000000 0.029752 0.250000
O O3 0.975748 0.029908 0.340546
O O4 0.125984 0.808754 0.294038
O O5 0.758074 0.817900 0.786666
O O6 0.807348 0.779097 0.883173
O O7 0.693008 0.013886 0.852714
O O8 0.500000 0.500000 0.500000
O O9 0.730583 0.422532 0.446305
O O10 0.747969 0.499903 0.542101
O O11 0.632349 0.248964 0.514623
O O12 0.500000 0.908990 0.750000
O O13 0.488128 0.896752 0.411882
O O14 0.000000 0.500000 0.500000
#
# Coordination Sequence:
#
# PCOD8247018 Si02
#       6
#     8   8   8   8   8   8
#     4   9  20  37  58  85 116 157 199 237 300 376
#     4  11  22  39  62  90 123 157 203 265 315 359
#     4  11  21  39  64  88 123 167 209 252 308 391
#     4  10  20  38  61  84 115 159 201 242 300 375
#     4  11  22  39  61  90 122 157 205 264 316 362
#     4  10  21  38  60  87 117 163 208 244 310 387
#
# _framework density 21.479058999999999
#
# number of rings (size 3 to 8) (size 9 to 14) (size 15 to 20)
#    0.000    1.667    0.000    8.000    0.000    3.333 
#    0.000    8.333    0.000    0.000    0.000    0.000 
#    0.000    0.000    0.000    0.000    0.000    0.000 
#
# Total GULP energy -594779.597516 kJ/mol
# GULP energy per Si atom -12391.241615 kJ/mol
# Density = 2.143017 g / cm^3
# Si number density = 21.479059 Si / 1000 Ang^3
#
#
#
# Elastic Constant Matrix: (Units=GPa)
#
#
# Indices 1 2 3 4 5 6 
#
# 1 140.1385 55.7153 13.8924 0.0000 0.0000 0.0000
# 2 55.7153 139.9585 19.8328 0.0000 0.0000 0.0000
# 3 13.8924 19.8328 37.5133 0.0000 0.0000 0.0000
# 4 0.0000 0.0000 0.0000 19.3297 0.0000 0.0000
# 5 0.0000 0.0000 0.0000 0.0000 36.1735 0.0000
# 6 0.0000 0.0000 0.0000 0.0000 0.0000 48.0593
#
#
#
# Elastic Compliance Matrix: (Units=1/GPa)
#
#
# Indices 1 2 3 4 5 6 
#
# 1 0.008553 -0.003195 -0.001478 0.000000 0.000000 0.000000
# 2 -0.003195 0.008917 -0.003531 0.000000 0.000000 0.000000
# 3 -0.001478 -0.003531 0.029071 0.000000 0.000000 0.000000
# 4 0.000000 0.000000 0.000000 0.051734 0.000000 0.000000
# 5 0.000000 0.000000 0.000000 0.000000 0.027645 0.000000
# 6 0.000000 0.000000 0.000000 0.000000 0.000000 0.020808
#
#
# Mechanical properties :
#
#
# Convention : Reuss Voigt Hill
#
# Bulk Modulus (GPa) = 33.18673 55.16570 44.17622
# Shear Modulus (GPa) = 28.87160 35.92382 32.39771
#
# Velocity S-wave (km/s) = 3.67028 4.09406 3.88795
# Velocity P-wave (km/s) = 5.78321 6.93453 6.38487
#
# Compressibility (1/GPa) = 0.03013253
#
# Stress axis : x y z
#
# Youngs Moduli (GPa) = 116.92267 112.14114 34.39800
#
# Poissons Ratio (x) = 0.35832 0.05084
# Poissons Ratio (y) = 0.37360 0.12147
# Poissons Ratio (z) = 0.17282 0.39599
#
# Static dielectric constant tensor:
#      x y z
#    x 4.695820 0.000000 0.000000 
#    y 0.000000 3.349420 0.000000 
#    z 0.000000 0.000000 3.747280 
# 
# 
# High freq. dielectric constant tensor:
#      x y z
#    x 1.859750 0.000000 0.000000 
#    y 0.000000 1.853620 0.000000 
#    z 0.000000 0.000000 1.809470 
# 
# From -- ./inp_files/25914.got.cif
#   From: 2010.03.12/outbox.cif.g09.slc.cpg/sg60_13_cif.got.tgz:25914.got - 2010.04.10 18:46:24.
