data_PCOD8247216
_publ_section_title
;
Structure prediction by ZEFSAII (Michael W. Deem and Ramdas Pophale) SiO2 
 PCOD8247216
Probable space group: P B C N
;
_chemical_formula_sum "Si O2"
_cell_formula_units_Z 64
_cell_length_a 15.925527
_cell_length_b 8.780261
_cell_length_c 21.831822
_cell_angle_alpha 90.000000
_cell_angle_beta 90.000000
_cell_angle_gamma 90.000000
_cell_volume 3052.749862
_symmetry_space_group_name_H-M "P B C N"
_symmetry_group_IT_number 60
_symmetry_cell_setting 'orthorhombic'
loop_
_space_group_symop_operation_xyz
x,y,z
1/2-x,1/2-y,1/2+z
1/2+x,1/2-y,-z
-x,y,1/2-z
-x,-y,-z
1/2+x,1/2+y,1/2-z
1/2-x,1/2+y,z
x,-y,1/2+z
loop_
_atom_site_type_symbol
_atom_site_label
_atom_site_fract_x
_atom_site_fract_y
_atom_site_fract_z
Si Si1 0.168296 0.590496 0.379035
Si Si2 0.154332 0.890662 0.539215
Si Si3 0.261402 0.652326 0.610647
Si Si4 0.362584 0.079994 0.131893
Si Si5 0.092768 0.435997 0.492548
Si Si6 0.027365 0.824429 0.916284
Si Si7 0.162846 0.935134 0.399170
Si Si8 0.981511 0.430922 0.180500
O O1 0.141174 0.553618 0.448717
O O2 0.158563 0.770678 0.366108
O O3 0.263752 0.536311 0.368470
O O4 0.111028 0.498379 0.330191
O O5 0.203191 0.746266 0.564680
O O6 0.183250 0.907727 0.469826
O O7 0.054432 0.867962 0.544948
O O8 0.175600 0.043406 0.575020
O O9 0.198469 0.556534 0.654419
O O10 0.320411 0.761003 0.652402
O O11 0.454726 0.064165 0.159168
O O12 0.360582 0.076673 0.057273
O O13 0.089819 0.269282 0.461102
O O14 0.000000 0.500000 0.500000
O O15 0.001349 0.720688 0.858554
O O16 0.075010 0.974539 0.891855
O O17 0.000000 0.387789 0.250000
#
# Coordination Sequence:
#
# PCOD8247216 Si02
#       8
#     8   8   8   8   8   8   8   8
#     4  11  23  39  63  91 130 167 208 259 318 390
#     4  11  20  35  58  98 141 166 198 245 317 398
#     4  10  21  33  58  90 128 165 196 246 307 388
#     4  11  20  38  60  90 122 155 202 251 319 374
#     4  11  18  33  59  91 127 164 197 248 316 387
#     4  11  23  38  62  97 131 173 207 259 326 384
#     4  12  23  37  62 100 132 167 204 253 321 399
#     4  11  25  46  67  84 120 171 225 274 322 373
#
# _framework density 20.964704000000001
#
# number of rings (size 3 to 8) (size 9 to 14) (size 15 to 20)
#    0.000    1.000    3.750    6.375    1.750    0.000 
#    0.000    3.125    0.000    0.000    0.000    0.000 
#    0.000    0.000    0.000    0.000    0.000    0.000 
#
# Total GULP energy -793728.173657 kJ/mol
# GULP energy per Si atom -12402.002713 kJ/mol
# Density = 2.091699 g / cm^3
# Si number density = 20.964704 Si / 1000 Ang^3
#
#
#
# Elastic Constant Matrix: (Units=GPa)
#
#
# Indices 1 2 3 4 5 6 
#
# 1 80.9781 35.8856 7.3418 0.0000 0.0000 0.0000
# 2 35.8856 123.3523 3.3411 0.0000 0.0000 0.0000
# 3 7.3418 3.3411 50.2946 0.0000 0.0000 0.0000
# 4 0.0000 0.0000 0.0000 6.5622 0.0000 0.0000
# 5 0.0000 0.0000 0.0000 0.0000 10.0720 0.0000
# 6 0.0000 0.0000 0.0000 0.0000 0.0000 43.3148
#
#
#
# Elastic Compliance Matrix: (Units=1/GPa)
#
#
# Indices 1 2 3 4 5 6 
#
# 1 0.014341 -0.004123 -0.001820 0.000000 0.000000 0.000000
# 2 -0.004123 0.009307 -0.000016 0.000000 0.000000 0.000000
# 3 -0.001820 -0.000016 0.020150 0.000000 0.000000 0.000000
# 4 0.000000 0.000000 0.000000 0.152387 0.000000 0.000000
# 5 0.000000 0.000000 0.000000 0.000000 0.099285 0.000000
# 6 0.000000 0.000000 0.000000 0.000000 0.000000 0.023087
#
#
# Mechanical properties :
#
#
# Convention : Reuss Voigt Hill
#
# Bulk Modulus (GPa) = 31.36791 38.64023 35.00407
# Shear Modulus (GPa) = 14.65845 25.86026 20.25935
#
# Velocity S-wave (km/s) = 2.64710 3.51595 3.11200
# Velocity P-wave (km/s) = 4.93331 5.91216 5.44478
#
# Compressibility (1/GPa) = 0.03187971
#
# Stress axis : x y z
#
# Youngs Moduli (GPa) = 69.73011 107.44940 49.62889
#
# Poissons Ratio (x) = 0.44299 0.09030
# Poissons Ratio (y) = 0.28748 0.00082
# Poissons Ratio (z) = 0.12688 0.00176
#
# Static dielectric constant tensor:
#      x y z
#    x 3.970980 0.000000 0.000000 
#    y 0.000000 4.091470 0.000000 
#    z 0.000000 0.000000 3.255190 
# 
# 
# High freq. dielectric constant tensor:
#      x y z
#    x 1.841020 0.000000 0.000000 
#    y 0.000000 1.837400 0.000000 
#    z 0.000000 0.000000 1.755710 
# 
# From -- ./inp_files/24445.got.cif
#   From: 2010.03.12/outbox.cif.g09.slc.cpg/sg60_13_cif.got.tgz:24445.got - 2010.04.10 18:46:24.
