data_PCOD8247284
_publ_section_title
;
Structure prediction by ZEFSAII (Michael W. Deem and Ramdas Pophale) SiO2 
 PCOD8247284
Probable space group: P B C N
;
_chemical_formula_sum "Si O2"
_cell_formula_units_Z 60
_cell_length_a 7.826459
_cell_length_b 12.623201
_cell_length_c 28.709332
_cell_angle_alpha 90.000000
_cell_angle_beta 90.000000
_cell_angle_gamma 90.000000
_cell_volume 2836.337452
_symmetry_space_group_name_H-M "P B C N"
_symmetry_group_IT_number 60
_symmetry_cell_setting 'orthorhombic'
loop_
_space_group_symop_operation_xyz
x,y,z
1/2-x,1/2-y,1/2+z
1/2+x,1/2-y,-z
-x,y,1/2-z
-x,-y,-z
1/2+x,1/2+y,1/2-z
1/2-x,1/2+y,z
x,-y,1/2+z
loop_
_atom_site_type_symbol
_atom_site_label
_atom_site_fract_x
_atom_site_fract_y
_atom_site_fract_z
Si Si1 0.955387 0.055456 0.951464
Si Si2 0.944946 0.517706 0.179833
Si Si3 0.284868 0.227469 0.032416
Si Si4 0.296034 0.374952 0.370505
Si Si5 0.145724 0.257332 0.783768
Si Si6 0.053287 0.668423 0.942621
Si Si7 0.128903 0.461459 0.586946
Si Si8 0.500000 0.159636 0.750000
O O1 0.865567 0.159233 0.969296
O O2 0.103554 0.082424 0.915168
O O3 0.828441 0.984004 0.920771
O O4 0.000000 0.000000 0.000000
O O5 0.769043 0.478313 0.156781
O O6 0.887799 0.616867 0.211529
O O7 0.033775 0.420419 0.207293
O O8 0.085256 0.547635 0.141291
O O9 0.087436 0.241091 0.047456
O O10 0.400157 0.156015 0.066740
O O11 0.297018 0.173545 0.981521
O O12 0.388002 0.296925 0.334114
O O13 0.135997 0.308491 0.392053
O O14 0.333745 0.232530 0.761814
O O15 0.000000 0.210264 0.750000
O O16 0.981192 0.548387 0.941110
#
# Coordination Sequence:
#
# PCOD8247284 Si02
#       8
#     8   8   8   8   8   8   8   4
#     4  11  23  39  61  98 134 179 229 274 327 410
#     4  10  22  45  66  97 135 171 224 287 345 418
#     4  11  21  36  60  90 128 180 223 267 326 386
#     4  10  23  42  63  94 135 170 223 280 341 405
#     4  11  24  46  75 101 132 182 227 285 367 423
#     4  10  21  37  58  87 132 173 221 277 326 390
#     4  10  22  37  60  91 129 176 222 279 333 402
#     4  10  24  48  68 102 142 164 228 298 340 432
#
# _framework density 21.154043000000001
#
# number of rings (size 3 to 8) (size 9 to 14) (size 15 to 20)
#    0.000    1.600    0.667    3.600    1.867    5.333 
#   12.000    0.000    0.000    0.000    0.000    0.000 
#    0.000    0.000    0.000    0.000    0.000    0.000 
#
# Total GULP energy -743528.882684 kJ/mol
# GULP energy per Si atom -12392.148045 kJ/mol
# Density = 2.110590 g / cm^3
# Si number density = 21.154043 Si / 1000 Ang^3
#
#
#
# Elastic Constant Matrix: (Units=GPa)
#
#
# Indices 1 2 3 4 5 6 
#
# 1 99.5392 44.4688 65.6027 0.0000 0.0000 0.0000
# 2 44.4688 92.7659 50.0913 0.0000 0.0000 0.0000
# 3 65.6027 50.0913 132.8765 0.0000 0.0000 0.0000
# 4 0.0000 0.0000 0.0000 40.4309 0.0000 0.0000
# 5 0.0000 0.0000 0.0000 0.0000 41.4438 0.0000
# 6 0.0000 0.0000 0.0000 0.0000 0.0000 15.5872
#
#
#
# Elastic Compliance Matrix: (Units=1/GPa)
#
#
# Indices 1 2 3 4 5 6 
#
# 1 0.016161 -0.004318 -0.006351 0.000000 0.000000 0.000000
# 2 -0.004318 0.014688 -0.003406 0.000000 0.000000 0.000000
# 3 -0.006351 -0.003406 0.011945 0.000000 0.000000 0.000000
# 4 0.000000 0.000000 0.000000 0.024734 0.000000 0.000000
# 5 0.000000 0.000000 0.000000 0.000000 0.024129 0.000000
# 6 0.000000 0.000000 0.000000 0.000000 0.000000 0.064155
#
#
# Mechanical properties :
#
#
# Convention : Reuss Voigt Hill
#
# Bulk Modulus (GPa) = 68.27801 71.72302 70.00051
# Shear Modulus (GPa) = 26.47693 30.49362 28.48528
#
# Velocity S-wave (km/s) = 3.54167 3.80083 3.67354
# Velocity P-wave (km/s) = 7.00508 7.29661 7.15233
#
# Compressibility (1/GPa) = 0.01464600
#
# Stress axis : x y z
#
# Youngs Moduli (GPa) = 61.87715 68.08080 83.71472
#
# Poissons Ratio (x) = 0.29394 0.53170
# Poissons Ratio (y) = 0.26716 0.28510
# Poissons Ratio (z) = 0.39300 0.23185
#
# Static dielectric constant tensor:
#      x y z
#    x 4.260500 0.000000 0.000000 
#    y 0.000000 3.952620 0.000000 
#    z 0.000000 0.000000 3.997270 
# 
# 
# High freq. dielectric constant tensor:
#      x y z
#    x 1.823080 0.000000 0.000000 
#    y 0.000000 1.833460 0.000000 
#    z 0.000000 0.000000 1.839480 
# 
# From -- ./inp_files/25228.got.cif
#   From: 2010.03.12/outbox.cif.g09.slc.cpg/sg60_13_cif.got.tgz:25228.got - 2010.04.10 18:46:24.
