data_PCOD8247458
_publ_section_title
;
Structure prediction by ZEFSAII (Michael W. Deem and Ramdas Pophale) SiO2 
 PCOD8247458
Probable space group: P B C N
;
_chemical_formula_sum "Si O2"
_cell_formula_units_Z 48
_cell_length_a 17.076015
_cell_length_b 15.294858
_cell_length_c 8.886769
_cell_angle_alpha 90.000000
_cell_angle_beta 90.000000
_cell_angle_gamma 90.000000
_cell_volume 2321.003890
_symmetry_space_group_name_H-M "P B C N"
_symmetry_group_IT_number 60
_symmetry_cell_setting 'orthorhombic'
loop_
_space_group_symop_operation_xyz
x,y,z
1/2-x,1/2-y,1/2+z
1/2+x,1/2-y,-z
-x,y,1/2-z
-x,-y,-z
1/2+x,1/2+y,1/2-z
1/2-x,1/2+y,z
x,-y,1/2+z
loop_
_atom_site_type_symbol
_atom_site_label
_atom_site_fract_x
_atom_site_fract_y
_atom_site_fract_z
Si Si1 0.333058 0.765598 0.868490
Si Si2 0.162277 0.419411 0.408655
Si Si3 0.828903 0.752171 0.776948
Si Si4 0.657832 0.573686 0.606801
Si Si5 0.912433 0.927319 0.795964
Si Si6 0.589419 0.925537 0.769046
O O1 0.253079 0.789655 0.783291
O O2 0.359721 0.668203 0.818145
O O3 0.398816 0.833272 0.815072
O O4 0.320866 0.771387 0.047669
O O5 0.143167 0.332576 0.313704
O O6 0.253313 0.423503 0.455668
O O7 0.144382 0.502339 0.305827
O O8 0.108769 0.417975 0.555464
O O9 0.892170 0.828363 0.748443
O O10 0.596472 0.559707 0.473309
O O11 0.647621 0.496241 0.724056
O O12 0.000000 0.950595 0.750000
O O13 0.500000 0.954470 0.750000
#
# Coordination Sequence:
#
# PCOD8247458 Si02
#       6
#     8   8   8   8   8   8
#     4  10  21  40  61  89 119 158 210 255 304 369
#     4  11  23  41  63  88 119 164 212 255 304 373
#     4  10  22  40  64  89 120 162 208 255 304 368
#     4  10  22  39  61  85 116 159 205 245 291 360
#     4  11  23  38  59  89 123 155 193 247 307 359
#     4  12  25  40  62  92 126 160 202 261 323 377
#
# _framework density 20.680707000000002
#
# number of rings (size 3 to 8) (size 9 to 14) (size 15 to 20)
#    0.000    1.333    0.000    7.000    0.000    9.333 
#    0.000    0.000    0.000    0.000    0.000    0.000 
#    0.000    0.000    0.000    0.000    0.000    0.000 
#
# Total GULP energy -595443.157315 kJ/mol
# GULP energy per Si atom -12405.065777 kJ/mol
# Density = 2.063364 g / cm^3
# Si number density = 20.680707 Si / 1000 Ang^3
#
#
#
# Elastic Constant Matrix: (Units=GPa)
#
#
# Indices 1 2 3 4 5 6 
#
# 1 54.8688 22.9063 12.4420 0.0000 0.0000 0.0000
# 2 22.9063 127.9395 47.0143 0.0000 0.0000 0.0000
# 3 12.4420 47.0143 95.7297 0.0000 0.0000 0.0000
# 4 0.0000 0.0000 0.0000 35.8031 0.0000 0.0000
# 5 0.0000 0.0000 0.0000 0.0000 32.7960 0.0000
# 6 0.0000 0.0000 0.0000 0.0000 0.0000 24.0479
#
#
#
# Elastic Compliance Matrix: (Units=1/GPa)
#
#
# Indices 1 2 3 4 5 6 
#
# 1 0.019778 -0.003168 -0.001015 0.000000 0.000000 0.000000
# 2 -0.003168 0.010045 -0.004521 0.000000 0.000000 0.000000
# 3 -0.001015 -0.004521 0.012798 0.000000 0.000000 0.000000
# 4 0.000000 0.000000 0.000000 0.027931 0.000000 0.000000
# 5 0.000000 0.000000 0.000000 0.000000 0.030492 0.000000
# 6 0.000000 0.000000 0.000000 0.000000 0.000000 0.041584
#
#
# Mechanical properties :
#
#
# Convention : Reuss Voigt Hill
#
# Bulk Modulus (GPa) = 39.66219 49.25146 44.45683
# Shear Modulus (GPa) = 29.68418 31.60778 30.64598
#
# Velocity S-wave (km/s) = 3.79272 3.91368 3.85367
# Velocity P-wave (km/s) = 6.19674 6.65503 6.42997
#
# Compressibility (1/GPa) = 0.02521293
#
# Stress axis : x y z
#
# Youngs Moduli (GPa) = 50.56116 99.55258 78.13421
#
# Poissons Ratio (x) = 0.31541 0.07927
# Poissons Ratio (y) = 0.16019 0.35328
# Poissons Ratio (z) = 0.05130 0.45012
#
# Static dielectric constant tensor:
#      x y z
#    x 3.498500 0.000000 0.000000 
#    y 0.000000 3.955410 0.000000 
#    z 0.000000 0.000000 3.699230 
# 
# 
# High freq. dielectric constant tensor:
#      x y z
#    x 1.799240 0.000000 0.000000 
#    y 0.000000 1.827930 0.000000 
#    z 0.000000 0.000000 1.814890 
# 
# From -- ./inp_files/6723.got.cif
#   From: 2010.03.12/outbox.cif.g09.slc.cpg/sg60_4_cif.got.tgz:6723.got - 2010.04.10 18:46:24.
