data_PCOD8247393
_publ_section_title
;
Structure prediction by ZEFSAII (Michael W. Deem and Ramdas Pophale) SiO2 
 PCOD8247393
Probable space group: P B C N
;
_chemical_formula_sum "Si O2"
_cell_formula_units_Z 40
_cell_length_a 12.345576
_cell_length_b 29.003583
_cell_length_c 5.050864
_cell_angle_alpha 90.000000
_cell_angle_beta 90.000000
_cell_angle_gamma 90.000000
_cell_volume 1808.542357
_symmetry_space_group_name_H-M "P B C N"
_symmetry_group_IT_number 60
_symmetry_cell_setting 'orthorhombic'
loop_
_space_group_symop_operation_xyz
x,y,z
1/2-x,1/2-y,1/2+z
1/2+x,1/2-y,-z
-x,y,1/2-z
-x,-y,-z
1/2+x,1/2+y,1/2-z
1/2-x,1/2+y,z
x,-y,1/2+z
loop_
_atom_site_type_symbol
_atom_site_label
_atom_site_fract_x
_atom_site_fract_y
_atom_site_fract_z
Si Si1 0.500000 0.672719 0.250000
Si Si2 0.723841 0.278630 0.708018
Si Si3 0.834106 0.970783 0.311998
Si Si4 0.378136 0.138061 0.274257
Si Si5 0.122086 0.421750 0.274114
Si Si6 0.500000 0.391031 0.250000
O O1 0.400025 0.706009 0.310821
O O2 0.524698 0.640678 0.499617
O O3 0.763021 0.261591 0.422158
O O4 0.796916 0.321371 0.796218
O O5 0.705160 0.962776 0.290482
O O6 0.893906 0.921922 0.294934
O O7 0.870355 0.994591 0.582517
O O8 0.500000 0.157231 0.250000
O O9 0.358466 0.120107 0.570526
O O10 0.357051 0.096262 0.070640
O O11 0.000000 0.441502 0.250000
#
# Coordination Sequence:
#
# PCOD8247393 Si02
#       6
#     4   8   8   8   8   4
#     4  12  26  45  70  94 128 178 210 264 320 385
#     4  12  26  41  65  95 131 159 211 266 327 378
#     4  12  24  39  63  94 129 163 208 270 319 362
#     4  10  21  39  63  85 119 167 209 257 311 380
#     4  10  21  39  61  88 120 164 214 250 312 383
#     4  12  24  45  68  90 130 168 226 250 312 399
#
# _framework density 22.117256999999999
#
# number of rings (size 3 to 8) (size 9 to 14) (size 15 to 20)
#    0.000    0.800    0.000    7.800    2.800    0.800 
#    0.000    0.000    0.000    0.000    0.000    0.000 
#    0.000    0.000    0.000    0.000    0.000    0.000 
#
# Total GULP energy -496366.379379 kJ/mol
# GULP energy per Si atom -12409.159484 kJ/mol
# Density = 2.206692 g / cm^3
# Si number density = 22.117257 Si / 1000 Ang^3
#
#
#
# Elastic Constant Matrix: (Units=GPa)
#
#
# Indices 1 2 3 4 5 6 
#
# 1 102.6461 33.3526 10.2566 0.0000 0.0000 0.0000
# 2 33.3526 68.8652 19.5283 0.0000 0.0000 0.0000
# 3 10.2566 19.5283 96.9999 0.0000 0.0000 0.0000
# 4 0.0000 0.0000 0.0000 27.2976 0.0000 0.0000
# 5 0.0000 0.0000 0.0000 0.0000 25.9230 0.0000
# 6 0.0000 0.0000 0.0000 0.0000 0.0000 49.2922
#
#
#
# Elastic Compliance Matrix: (Units=1/GPa)
#
#
# Indices 1 2 3 4 5 6 
#
# 1 0.011563 -0.005571 -0.000101 0.000000 0.000000 0.000000
# 2 -0.005571 0.018085 -0.003052 0.000000 0.000000 0.000000
# 3 -0.000101 -0.003052 0.010934 0.000000 0.000000 0.000000
# 4 0.000000 0.000000 0.000000 0.036633 0.000000 0.000000
# 5 0.000000 0.000000 0.000000 0.000000 0.038576 0.000000
# 6 0.000000 0.000000 0.000000 0.000000 0.000000 0.020287
#
#
# Mechanical properties :
#
#
# Convention : Reuss Voigt Hill
#
# Bulk Modulus (GPa) = 43.22717 43.86513 43.54615
# Shear Modulus (GPa) = 31.01019 34.19414 32.60217
#
# Velocity S-wave (km/s) = 3.74850 3.93624 3.84351
# Velocity P-wave (km/s) = 6.19047 6.36668 6.27920
#
# Compressibility (1/GPa) = 0.02313360
#
# Stress axis : x y z
#
# Youngs Moduli (GPa) = 86.48592 55.29506 91.45484
#
# Poissons Ratio (x) = 0.30807 0.00924
# Poissons Ratio (y) = 0.48184 0.27910
# Poissons Ratio (z) = 0.00873 0.16875
#
# Static dielectric constant tensor:
#      x y z
#    x 4.214420 0.000000 0.000000 
#    y 0.000000 3.719610 0.000000 
#    z 0.000000 0.000000 4.110600 
# 
# 
# High freq. dielectric constant tensor:
#      x y z
#    x 1.885960 0.000000 0.000000 
#    y 0.000000 1.860220 0.000000 
#    z 0.000000 0.000000 1.888420 
# 
# From -- ./inp_files/886.got.cif
#   From: 2010.03.12/outbox.cif.g09.slc.cpg/sg60_1_cif.got.tgz:886.got - 2010.04.10 18:46:24.
