data_PCOD8247311
_publ_section_title
;
Structure prediction by ZEFSAII (Michael W. Deem and Ramdas Pophale) SiO2 
 PCOD8247311
Probable space group: P B C N
;
_chemical_formula_sum "Si O2"
_cell_formula_units_Z 32
_cell_length_a 8.156417
_cell_length_b 33.793465
_cell_length_c 5.110792
_cell_angle_alpha 90.000000
_cell_angle_beta 90.000000
_cell_angle_gamma 90.000000
_cell_volume 1408.705959
_symmetry_space_group_name_H-M "P B C N"
_symmetry_group_IT_number 60
_symmetry_cell_setting 'orthorhombic'
loop_
_space_group_symop_operation_xyz
x,y,z
1/2-x,1/2-y,1/2+z
1/2+x,1/2-y,-z
-x,y,1/2-z
-x,-y,-z
1/2+x,1/2+y,1/2-z
1/2-x,1/2+y,z
x,-y,1/2+z
loop_
_atom_site_type_symbol
_atom_site_label
_atom_site_fract_x
_atom_site_fract_y
_atom_site_fract_z
Si Si1 0.809562 0.903063 0.253675
Si Si2 0.810468 0.146554 0.255016
Si Si3 0.680686 0.768528 0.672880
Si Si4 0.182846 0.483470 0.437677
O O1 0.766249 0.887171 0.542002
O O2 0.000000 0.916407 0.250000
O O3 0.770840 0.868808 0.044890
O O4 0.690759 0.939281 0.176308
O O5 0.702154 0.184537 0.193449
O O6 0.000000 0.158931 0.250000
O O7 0.702577 0.754541 0.374811
O O8 0.500000 0.756031 0.750000
O O9 0.271749 0.511765 0.219107
O O10 0.000000 0.500000 0.500000
#
# Coordination Sequence:
#
# PCOD8247311 Si02
#       4
#     8   8   8   8
#     4  10  21  38  62  88 122 163 212 267 324 392
#     4  10  21  40  63  94 128 167 210 266 332 388
#     4  12  25  44  69 102 136 179 224 274 331 404
#     4  10  21  38  56  84 117 160 209 256 331 375
#
# _framework density 22.715885
#
# number of rings (size 3 to 8) (size 9 to 14) (size 15 to 20)
#    0.000    1.500    0.000    5.250    0.000    3.000 
#   13.500    0.000    0.000    0.000    0.000    0.000 
#    0.000    0.000    0.000    0.000    0.000    0.000 
#
# Total GULP energy -396653.773008 kJ/mol
# GULP energy per Si atom -12395.430406 kJ/mol
# Density = 2.266418 g / cm^3
# Si number density = 22.715885 Si / 1000 Ang^3
#
#
#
# Elastic Constant Matrix: (Units=GPa)
#
#
# Indices 1 2 3 4 5 6 
#
# 1 52.8814 25.8457 6.0030 0.0000 0.0000 0.0000
# 2 25.8457 106.5888 17.8415 0.0000 0.0000 0.0000
# 3 6.0030 17.8415 142.5228 0.0000 0.0000 0.0000
# 4 0.0000 0.0000 0.0000 36.2604 0.0000 0.0000
# 5 0.0000 0.0000 0.0000 0.0000 21.3372 0.0000
# 6 0.0000 0.0000 0.0000 0.0000 0.0000 21.8188
#
#
#
# Elastic Compliance Matrix: (Units=1/GPa)
#
#
# Indices 1 2 3 4 5 6 
#
# 1 0.021462 -0.005161 -0.000258 0.000000 0.000000 0.000000
# 2 -0.005161 0.010824 -0.001138 0.000000 0.000000 0.000000
# 3 -0.000258 -0.001138 0.007170 0.000000 0.000000 0.000000
# 4 0.000000 0.000000 0.000000 0.027578 0.000000 0.000000
# 5 0.000000 0.000000 0.000000 0.000000 0.046866 0.000000
# 6 0.000000 0.000000 0.000000 0.000000 0.000000 0.045832
#
#
# Mechanical properties :
#
#
# Convention : Reuss Voigt Hill
#
# Bulk Modulus (GPa) = 37.96151 44.59705 41.27928
# Shear Modulus (GPa) = 27.52914 32.70347 30.11631
#
# Velocity S-wave (km/s) = 3.48500 3.79842 3.64508
# Velocity P-wave (km/s) = 5.73945 6.23799 5.99391
#
# Compressibility (1/GPa) = 0.02634247
#
# Stress axis : x y z
#
# Youngs Moduli (GPa) = 46.59419 92.38991 139.47603
#
# Poissons Ratio (x) = 0.47682 0.03597
# Poissons Ratio (y) = 0.24047 0.15866
# Poissons Ratio (z) = 0.01202 0.10510
#
# Static dielectric constant tensor:
#      x y z
#    x 3.600580 0.000000 0.000000 
#    y 0.000000 3.889360 0.000000 
#    z 0.000000 0.000000 -1.157550 
# 
# 
# High freq. dielectric constant tensor:
#      x y z
#    x 1.867960 0.000000 0.000000 
#    y 0.000000 1.892800 0.000000 
#    z 0.000000 0.000000 1.932200 
# 
# From -- ./inp_files/364.got.cif
#   From: 2010.03.12/outbox.cif.g09.slc.cpg/sg60_1_cif.got.tgz:364.got - 2010.04.10 18:46:24.
