data_PCOD8247961
_publ_section_title
;
Structure prediction by ZEFSAII (Michael W. Deem and Ramdas Pophale) SiO2 
 PCOD8247961
Probable space group: P B C N
;
_chemical_formula_sum "Si O2"
_cell_formula_units_Z 64
_cell_length_a 8.791694
_cell_length_b 15.117229
_cell_length_c 23.399611
_cell_angle_alpha 90.000000
_cell_angle_beta 90.000000
_cell_angle_gamma 90.000000
_cell_volume 3109.949905
_symmetry_space_group_name_H-M "P B C N"
_symmetry_group_IT_number 60
_symmetry_cell_setting 'orthorhombic'
loop_
_space_group_symop_operation_xyz
x,y,z
1/2-x,1/2-y,1/2+z
1/2+x,1/2-y,-z
-x,y,1/2-z
-x,-y,-z
1/2+x,1/2+y,1/2-z
1/2-x,1/2+y,z
x,-y,1/2+z
loop_
_atom_site_type_symbol
_atom_site_label
_atom_site_fract_x
_atom_site_fract_y
_atom_site_fract_z
Si Si1 0.924255 0.594352 0.628025
Si Si2 0.426696 0.397169 0.889612
Si Si3 0.428631 0.249330 0.189415
Si Si4 0.075745 0.905647 0.371975
Si Si5 0.928982 0.346157 0.002006
Si Si6 0.428631 0.250670 0.689415
Si Si7 0.928982 0.153843 0.502006
Si Si8 0.426696 0.102831 0.389612
O O1 0.750000 0.622002 0.638897
O O2 0.968948 0.610473 0.562476
O O3 0.950367 0.490977 0.642050
O O4 0.028124 0.651584 0.670235
O O5 0.450367 0.490977 0.857950
O O6 0.513612 0.320313 0.856784
O O7 0.493339 0.405688 0.953308
O O8 0.250000 0.371683 0.893234
O O9 0.500000 0.225657 0.250000
O O10 0.471876 0.348416 0.170235
O O11 0.250000 0.241764 0.194934
O O12 0.486388 0.179687 0.143216
O O13 0.031052 0.889527 0.437524
O O14 0.750000 0.340883 0.990958
O O15 0.006661 0.405688 0.953308
O O16 0.000000 0.250000 0.000000
O O17 0.500000 0.274343 0.750000
#
# Coordination Sequence:
#
# PCOD8247961 Si02
#       8
#     8   8   8   8   8   8   8   8
#     4  10  23  42  65  93 128 167 207 256 310 370
#     4  11  23  41  65  94 129 166 208 257 309 370
#     4  12  26  44  67  91 122 164 210 262 313 370
#     4  10  23  42  65  93 128 167 207 256 310 370
#     4  11  21  36  62  95 130 169 207 251 311 372
#     4  12  26  44  67  91 122 164 210 262 313 370
#     4  11  21  36  62  95 130 169 207 251 311 372
#     4  11  23  41  65  94 129 166 208 257 309 370
#
# _framework density 20.579108000000002
#
# number of rings (size 3 to 8) (size 9 to 14) (size 15 to 20)
#    0.000    1.000    2.500    4.500    0.000    4.000 
#    0.000    0.000    0.000    0.000    0.000    0.000 
#    0.000    0.000    0.000    0.000    0.000    0.000 
#
# Total GULP energy -793990.693215 kJ/mol
# GULP energy per Si atom -12406.104581 kJ/mol
# Density = 2.053227 g / cm^3
# Si number density = 20.579108 Si / 1000 Ang^3
#
#
#
# Elastic Constant Matrix: (Units=GPa)
#
#
# Indices 1 2 3 4 5 6 
#
# 1 125.0466 26.9814 32.2300 0.0000 0.0000 0.0000
# 2 26.9814 81.5001 3.6284 0.0000 0.0000 0.0000
# 3 32.2300 3.6284 69.7689 0.0000 0.0000 0.0000
# 4 0.0000 0.0000 0.0000 14.8783 0.0000 0.0000
# 5 0.0000 0.0000 0.0000 0.0000 38.3209 0.0000
# 6 0.0000 0.0000 0.0000 0.0000 0.0000 25.0035
#
#
#
# Elastic Compliance Matrix: (Units=1/GPa)
#
#
# Indices 1 2 3 4 5 6 
#
# 1 0.009777 -0.003043 -0.004358 0.000000 0.000000 0.000000
# 2 -0.003043 0.013245 0.000717 0.000000 0.000000 0.000000
# 3 -0.004358 0.000717 0.016309 0.000000 0.000000 0.000000
# 4 0.000000 0.000000 0.000000 0.067212 0.000000 0.000000
# 5 0.000000 0.000000 0.000000 0.000000 0.026095 0.000000
# 6 0.000000 0.000000 0.000000 0.000000 0.000000 0.039994
#
#
# Mechanical properties :
#
#
# Convention : Reuss Voigt Hill
#
# Bulk Modulus (GPa) = 38.51650 44.66615 41.59133
# Shear Modulus (GPa) = 25.68640 29.87227 27.77933
#
# Velocity S-wave (km/s) = 3.53679 3.81410 3.67806
# Velocity P-wave (km/s) = 5.95277 6.41468 6.18804
#
# Compressibility (1/GPa) = 0.02596290
#
# Stress axis : x y z
#
# Youngs Moduli (GPa) = 102.28242 75.49830 61.31566
#
# Poissons Ratio (x) = 0.22972 0.26723
# Poissons Ratio (y) = 0.31121 -0.04395
# Poissons Ratio (z) = 0.44577 -0.05411
#
# Static dielectric constant tensor:
#      x y z
#    x 3.840650 0.000000 0.000000 
#    y 0.000000 3.852590 0.000000 
#    z 0.000000 0.000000 3.851230 
# 
# 
# High freq. dielectric constant tensor:
#      x y z
#    x 1.813430 0.000000 0.000000 
#    y 0.000000 1.816090 0.000000 
#    z 0.000000 0.000000 1.802610 
# 
# From -- ./inp_files/24114.got.cif
#   From: 2010.03.12/outbox.cif.g09.slc.cpg/sg60_13_cif.got.tgz:24114.got - 2010.04.10 18:46:24.
