data_PCOD8247952
_publ_section_title
;
Structure prediction by ZEFSAII (Michael W. Deem and Ramdas Pophale) SiO2 
 PCOD8247952
Probable space group: P B C N
;
_chemical_formula_sum "Si O2"
_cell_formula_units_Z 40
_cell_length_a 12.335687
_cell_length_b 28.772620
_cell_length_c 5.112449
_cell_angle_alpha 90.000000
_cell_angle_beta 90.000000
_cell_angle_gamma 90.000000
_cell_volume 1814.561700
_symmetry_space_group_name_H-M "P B C N"
_symmetry_group_IT_number 60
_symmetry_cell_setting 'orthorhombic'
loop_
_space_group_symop_operation_xyz
x,y,z
1/2-x,1/2-y,1/2+z
1/2+x,1/2-y,-z
-x,y,1/2-z
-x,-y,-z
1/2+x,1/2+y,1/2-z
1/2-x,1/2+y,z
x,-y,1/2+z
loop_
_atom_site_type_symbol
_atom_site_label
_atom_site_fract_x
_atom_site_fract_y
_atom_site_fract_z
Si Si1 0.569591 0.851668 0.005232
Si Si2 0.704858 0.380156 0.885547
Si Si3 0.877741 0.020848 0.493888
Si Si4 0.387974 0.338399 0.140296
Si Si5 0.320414 0.244389 0.967705
O O1 0.500000 0.842835 0.750000
O O2 0.665103 0.887162 0.908379
O O3 0.613512 0.801714 0.099637
O O4 0.500000 0.872328 0.250000
O O5 0.663886 0.368629 0.594423
O O6 0.633068 0.423855 0.979858
O O7 0.688489 0.339409 0.102811
O O8 0.816000 0.997597 0.249763
O O9 0.000000 0.000000 0.500000
O O10 0.500000 0.359585 0.250000
O O11 0.403720 0.285779 0.044227
O O12 0.241642 0.236497 0.213778
#
# Coordination Sequence:
#
# PCOD8247952 Si02
#       5
#     8   8   8   8   8
#     4  12  25  43  70  93 134 192 239 285 334 401
#     4  12  25  44  67 101 138 173 232 284 341 421
#     4  10  23  41  68  98 132 174 205 272 360 440
#     4  12  25  39  65  99 138 184 220 286 344 415
#     4  12  22  43  63  94 140 186 235 289 347 383
#
# _framework density 22.043889
#
# number of rings (size 3 to 8) (size 9 to 14) (size 15 to 20)
#    0.000    0.400    4.000    4.800    8.400    1.600 
#    0.000    0.000    0.000    3.600    0.000    0.000 
#    0.000    0.000    0.000    0.000    0.000    0.000 
#
# Total GULP energy -495648.416317 kJ/mol
# GULP energy per Si atom -12391.210408 kJ/mol
# Density = 2.199372 g / cm^3
# Si number density = 22.043889 Si / 1000 Ang^3
#
#
#
# Elastic Constant Matrix: (Units=GPa)
#
#
# Indices 1 2 3 4 5 6 
#
# 1 117.6706 34.1761 48.4664 0.0000 0.0000 0.0000
# 2 34.1761 68.3083 15.1145 0.0000 0.0000 0.0000
# 3 48.4664 15.1145 185.8666 0.0000 0.0000 0.0000
# 4 0.0000 0.0000 0.0000 26.3521 0.0000 0.0000
# 5 0.0000 0.0000 0.0000 0.0000 42.9361 0.0000
# 6 0.0000 0.0000 0.0000 0.0000 0.0000 22.2694
#
#
#
# Elastic Compliance Matrix: (Units=1/GPa)
#
#
# Indices 1 2 3 4 5 6 
#
# 1 0.010940 -0.004931 -0.002452 0.000000 0.000000 0.000000
# 2 -0.004931 0.017130 -0.000107 0.000000 0.000000 0.000000
# 3 -0.002452 -0.000107 0.006028 0.000000 0.000000 0.000000
# 4 0.000000 0.000000 0.000000 0.037948 0.000000 0.000000
# 5 0.000000 0.000000 0.000000 0.000000 0.023290 0.000000
# 6 0.000000 0.000000 0.000000 0.000000 0.000000 0.044905
#
#
# Mechanical properties :
#
#
# Convention : Reuss Voigt Hill
#
# Bulk Modulus (GPa) = 52.30487 63.03993 57.67240
# Shear Modulus (GPa) = 30.94157 36.58409 33.76283
#
# Velocity S-wave (km/s) = 3.75058 4.07824 3.91784
# Velocity P-wave (km/s) = 6.52188 7.12991 6.83266
#
# Compressibility (1/GPa) = 0.01911868
#
# Stress axis : x y z
#
# Youngs Moduli (GPa) = 91.40474 58.37580 165.88573
#
# Poissons Ratio (x) = 0.28786 0.40672
# Poissons Ratio (y) = 0.45073 0.01778
# Poissons Ratio (z) = 0.22411 0.00626
#
# Static dielectric constant tensor:
#      x y z
#    x 3.670170 0.000000 0.000000 
#    y 0.000000 3.716870 0.000000 
#    z 0.000000 0.000000 -10.997820 
# 
# 
# High freq. dielectric constant tensor:
#      x y z
#    x 1.845620 0.000000 0.000000 
#    y 0.000000 1.840340 0.000000 
#    z 0.000000 0.000000 1.905350 
# 
# From -- ./inp_files/829.got.cif
#   From: 2010.03.12/outbox.cif.g09.slc.cpg/sg60_1_cif.got.tgz:829.got - 2010.04.10 18:46:24.
