data_PCOD8247509
_publ_section_title
;
Structure prediction by ZEFSAII (Michael W. Deem and Ramdas Pophale) SiO2 
 PCOD8247509
Probable space group: P B C N
;
_chemical_formula_sum "Si O2"
_cell_formula_units_Z 52
_cell_length_a 12.305596
_cell_length_b 8.748347
_cell_length_c 22.022897
_cell_angle_alpha 90.000000
_cell_angle_beta 90.000000
_cell_angle_gamma 90.000000
_cell_volume 2370.844670
_symmetry_space_group_name_H-M "P B C N"
_symmetry_group_IT_number 60
_symmetry_cell_setting 'orthorhombic'
loop_
_space_group_symop_operation_xyz
x,y,z
1/2-x,1/2-y,1/2+z
1/2+x,1/2-y,-z
-x,y,1/2-z
-x,-y,-z
1/2+x,1/2+y,1/2-z
1/2-x,1/2+y,z
x,-y,1/2+z
loop_
_atom_site_type_symbol
_atom_site_label
_atom_site_fract_x
_atom_site_fract_y
_atom_site_fract_z
Si Si1 0.761102 0.980791 0.027537
Si Si2 0.816526 0.292120 0.223938
Si Si3 0.871023 0.240076 0.954793
Si Si4 0.866408 0.809143 0.314121
Si Si5 0.000000 0.056794 0.250000
Si Si6 0.613096 0.122875 0.202504
Si Si7 0.899543 0.722165 0.079114
O O1 0.830067 0.877271 0.074069
O O2 0.673158 0.074604 0.065620
O O3 0.700322 0.879966 0.977599
O O4 0.842976 0.088101 0.991310
O O5 0.756195 0.338250 0.287321
O O6 0.724253 0.213231 0.182732
O O7 0.873117 0.441801 0.195975
O O8 0.907266 0.163486 0.224209
O O9 0.845694 0.220565 0.883966
O O10 0.998758 0.270412 0.966789
O O11 0.917969 0.666877 0.272949
O O12 0.946040 0.953622 0.302971
O O13 0.542692 0.194072 0.146281
#
# Coordination Sequence:
#
# PCOD8247509 Si02
#       7
#     8   8   8   8   4   8   8
#     4  10  25  43  65  95 131 172 225 277 317 380
#     4  10  22  40  61  97 134 167 213 258 327 398
#     4  11  24  42  69  94 129 178 214 276 327 387
#     4  10  23  41  65  99 136 165 219 269 330 398
#     4  12  22  40  66  90 136 180 204 256 328 404
#     4  10  21  41  63  96 134 164 210 280 319 391
#     4  11  22  44  68  93 130 173 223 269 328 388
#
# _framework density 21.933111
#
# number of rings (size 3 to 8) (size 9 to 14) (size 15 to 20)
#    0.923    0.615    1.538    2.769    4.308    3.077 
#    0.000    1.538    0.000    0.000    0.000    0.000 
#    0.000    0.000    0.000    0.000    0.000    0.000 
#
# Total GULP energy -644366.302648 kJ/mol
# GULP energy per Si atom -12391.659666 kJ/mol
# Density = 2.188319 g / cm^3
# Si number density = 21.933111 Si / 1000 Ang^3
#
#
#
# Elastic Constant Matrix: (Units=GPa)
#
#
# Indices 1 2 3 4 5 6 
#
# 1 61.1285 17.5575 18.9934 0.0000 0.0000 0.0000
# 2 17.5575 135.6601 45.3656 0.0000 0.0000 0.0000
# 3 18.9934 45.3656 112.4148 0.0000 0.0000 0.0000
# 4 0.0000 0.0000 0.0000 22.4879 0.0000 0.0000
# 5 0.0000 0.0000 0.0000 0.0000 31.0900 0.0000
# 6 0.0000 0.0000 0.0000 0.0000 0.0000 37.3316
#
#
#
# Elastic Compliance Matrix: (Units=1/GPa)
#
#
# Indices 1 2 3 4 5 6 
#
# 1 0.017518 -0.001477 -0.002364 0.000000 0.000000 0.000000
# 2 -0.001477 0.008646 -0.003240 0.000000 0.000000 0.000000
# 3 -0.002364 -0.003240 0.010602 0.000000 0.000000 0.000000
# 4 0.000000 0.000000 0.000000 0.044468 0.000000 0.000000
# 5 0.000000 0.000000 0.000000 0.000000 0.032165 0.000000
# 6 0.000000 0.000000 0.000000 0.000000 0.000000 0.026787
#
#
# Mechanical properties :
#
#
# Convention : Reuss Voigt Hill
#
# Bulk Modulus (GPa) = 44.23680 52.55958 48.39819
# Shear Modulus (GPa) = 30.88688 33.33437 32.11063
#
# Velocity S-wave (km/s) = 3.75671 3.90272 3.83041
# Velocity P-wave (km/s) = 6.24739 6.65762 6.45576
#
# Compressibility (1/GPa) = 0.02260561
#
# Stress axis : x y z
#
# Youngs Moduli (GPa) = 57.08554 115.66294 94.31872
#
# Poissons Ratio (x) = 0.17080 0.22295
# Poissons Ratio (y) = 0.08430 0.30555
# Poissons Ratio (z) = 0.13494 0.37470
#
# Static dielectric constant tensor:
#      x y z
#    x 3.713390 0.000000 0.000000 
#    y 0.000000 4.003370 0.000000 
#    z 0.000000 0.000000 3.799940 
# 
# 
# High freq. dielectric constant tensor:
#      x y z
#    x 1.887870 0.000000 0.000000 
#    y 0.000000 1.868420 0.000000 
#    z 0.000000 0.000000 1.849610 
# 
# From -- ./inp_files/25313.got.cif
#   From: 2010.03.12/outbox.cif.g09.slc.cpg/sg60_13_cif.got.tgz:25313.got - 2010.04.10 18:46:24.
