data_PCOD8247162
_publ_section_title
;
Structure prediction by ZEFSAII (Michael W. Deem and Ramdas Pophale) SiO2 
 PCOD8247162
Probable space group: P B C N
;
_chemical_formula_sum "Si O2"
_cell_formula_units_Z 60
_cell_length_a 19.152929
_cell_length_b 5.023854
_cell_length_c 29.410076
_cell_angle_alpha 90.000000
_cell_angle_beta 90.000000
_cell_angle_gamma 90.000000
_cell_volume 2829.882186
_symmetry_space_group_name_H-M "P B C N"
_symmetry_group_IT_number 60
_symmetry_cell_setting 'orthorhombic'
loop_
_space_group_symop_operation_xyz
x,y,z
1/2-x,1/2-y,1/2+z
1/2+x,1/2-y,-z
-x,y,1/2-z
-x,-y,-z
1/2+x,1/2+y,1/2-z
1/2-x,1/2+y,z
x,-y,1/2+z
loop_
_atom_site_type_symbol
_atom_site_label
_atom_site_fract_x
_atom_site_fract_y
_atom_site_fract_z
Si Si1 0.921861 0.916981 0.881264
Si Si2 0.000000 0.500799 0.750000
Si Si3 0.077196 0.096649 0.881492
Si Si4 0.899931 0.605400 0.677029
Si Si5 0.295639 0.620007 0.053399
Si Si6 0.708069 0.934132 0.747842
Si Si7 0.204342 0.118302 0.946509
Si Si8 0.398694 0.093583 0.177726
O O1 0.928692 0.652425 0.851217
O O2 0.999810 0.002187 0.897323
O O3 0.872063 0.861438 0.924147
O O4 0.884647 0.152296 0.853369
O O5 0.046888 0.686214 0.782522
O O6 0.046817 0.315630 0.717161
O O7 0.114363 0.871062 0.851185
O O8 0.127871 0.141953 0.924306
O O9 0.068182 0.371472 0.854343
O O10 0.830335 0.499728 0.700692
O O11 0.247086 0.862486 0.069121
O O12 0.309751 0.623698 0.999963
O O13 0.723788 0.620012 0.747692
O O14 0.669661 0.001602 0.795257
O O15 0.245368 0.856331 0.930912
#
# Coordination Sequence:
#
# PCOD8247162 Si02
#       8
#     8   4   8   8   8   8   8   8
#     4  12  23  40  63  97 123 158 211 257 310 368
#     4  10  20  42  56  82 118 160 204 236 296 360
#     4  12  23  40  63  97 123 158 211 257 310 368
#     4  11  24  38  62  85 121 163 200 257 303 362
#     4  10  23  43  66  92 126 167 205 251 317 380
#     4  11  24  41  56  85 120 159 208 252 306 365
#     4  10  23  43  66  92 126 167 205 251 317 380
#     4  11  24  38  62  85 121 163 200 257 303 362
#
# _framework density 21.202296
#
# number of rings (size 3 to 8) (size 9 to 14) (size 15 to 20)
#    0.000    1.067    2.667    3.200    0.000   11.200 
#    0.000    0.000    0.000    8.000    0.000    0.000 
#    0.000    0.000    0.000    0.000    0.000    0.000 
#
# Total GULP energy -743959.755853 kJ/mol
# GULP energy per Si atom -12399.329264 kJ/mol
# Density = 2.115404 g / cm^3
# Si number density = 21.202296 Si / 1000 Ang^3
#
#
#
# Elastic Constant Matrix: (Units=GPa)
#
#
# Indices 1 2 3 4 5 6 
#
# 1 123.5024 17.1500 59.0030 0.0000 0.0000 0.0000
# 2 17.1500 107.0610 35.2050 0.0000 0.0000 0.0000
# 3 59.0030 35.2050 83.7012 0.0000 0.0000 0.0000
# 4 0.0000 0.0000 0.0000 12.0607 0.0000 0.0000
# 5 0.0000 0.0000 0.0000 0.0000 39.5230 0.0000
# 6 0.0000 0.0000 0.0000 0.0000 0.0000 32.0951
#
#
#
# Elastic Compliance Matrix: (Units=1/GPa)
#
#
# Indices 1 2 3 4 5 6 
#
# 1 0.012304 0.001023 -0.009104 0.000000 0.000000 0.000000
# 2 0.001023 0.010925 -0.005316 0.000000 0.000000 0.000000
# 3 -0.009104 -0.005316 0.020600 0.000000 0.000000 0.000000
# 4 0.000000 0.000000 0.000000 0.082914 0.000000 0.000000
# 5 0.000000 0.000000 0.000000 0.000000 0.025302 0.000000
# 6 0.000000 0.000000 0.000000 0.000000 0.000000 0.031157
#
#
# Mechanical properties :
#
#
# Convention : Reuss Voigt Hill
#
# Bulk Modulus (GPa) = 58.70046 59.66454 59.18250
# Shear Modulus (GPa) = 23.18302 30.26287 26.72295
#
# Velocity S-wave (km/s) = 3.31028 3.78211 3.55403
# Velocity P-wave (km/s) = 6.50819 6.87562 6.69443
#
# Compressibility (1/GPa) = 0.01703564
#
# Stress axis : x y z
#
# Youngs Moduli (GPa) = 81.27260 91.53605 48.54254
#
# Poissons Ratio (x) = -0.09360 0.44192
# Poissons Ratio (y) = -0.08311 0.25804
# Poissons Ratio (z) = 0.73988 0.48659
#
# Static dielectric constant tensor:
#      x y z
#    x 3.856760 0.000000 0.000000 
#    y 0.000000 3.845470 0.000000 
#    z 0.000000 0.000000 3.780760 
# 
# 
# High freq. dielectric constant tensor:
#      x y z
#    x 1.838840 0.000000 0.000000 
#    y 0.000000 1.834850 0.000000 
#    z 0.000000 0.000000 1.823840 
# 
# From -- ./inp_files/25471.got.cif
#   From: 2010.03.12/outbox.cif.g09.slc.cpg/sg60_13_cif.got.tgz:25471.got - 2010.04.10 18:46:24.
