data_PCOD8247493
_publ_section_title
;
Structure prediction by ZEFSAII (Michael W. Deem and Ramdas Pophale) SiO2 
 PCOD8247493
Probable space group: P B C N
;
_chemical_formula_sum "Si O2"
_cell_formula_units_Z 64
_cell_length_a 5.387740
_cell_length_b 18.406018
_cell_length_c 30.757948
_cell_angle_alpha 90.000000
_cell_angle_beta 90.000000
_cell_angle_gamma 90.000000
_cell_volume 3050.168490
_symmetry_space_group_name_H-M "P B C N"
_symmetry_group_IT_number 60
_symmetry_cell_setting 'orthorhombic'
loop_
_space_group_symop_operation_xyz
x,y,z
1/2-x,1/2-y,1/2+z
1/2+x,1/2-y,-z
-x,y,1/2-z
-x,-y,-z
1/2+x,1/2+y,1/2-z
1/2-x,1/2+y,z
x,-y,1/2+z
loop_
_atom_site_type_symbol
_atom_site_label
_atom_site_fract_x
_atom_site_fract_y
_atom_site_fract_z
Si Si1 0.848668 0.623107 0.436153
Si Si2 0.948948 0.740603 0.634619
Si Si3 0.977441 0.904457 0.631522
Si Si4 0.233737 0.521129 0.452449
Si Si5 0.497816 0.530035 0.801179
Si Si6 0.034997 0.112210 0.985174
Si Si7 0.499364 0.115660 0.699165
Si Si8 0.968963 0.228962 0.916135
O O1 0.749980 0.609847 0.387575
O O2 0.651284 0.649162 0.472090
O O3 0.946819 0.544817 0.452790
O O4 0.042102 0.690165 0.433683
O O5 0.875303 0.824520 0.645032
O O6 0.995205 0.695404 0.678344
O O7 0.202668 0.733796 0.607355
O O8 0.707990 0.703868 0.611580
O O9 0.830289 0.944364 0.592771
O O10 0.993964 0.953159 0.674382
O O11 0.274930 0.434853 0.454696
O O12 0.329394 0.557192 0.497145
O O13 0.500000 0.513515 0.750000
O O14 0.746529 0.573901 0.815165
O O15 0.246571 0.571906 0.814819
O O16 0.920282 0.174586 0.955732
O O17 0.500000 0.129196 0.750000
#
# Coordination Sequence:
#
# PCOD8247493 Si02
#       8
#     8   8   8   8   8   8   8   8
#     4  10  22  39  60  84 127 164 210 266 310 367
#     4  11  24  42  62  96 128 162 215 252 322 378
#     4  10  23  39  62  90 127 166 201 263 309 373
#     4  10  21  41  55  87 121 158 213 262 310 366
#     4  10  23  42  67  99 127 163 208 252 315 380
#     4  10  24  36  60  85 118 166 215 255 320 363
#     4  10  23  43  67  96 130 162 204 259 308 377
#     4  11  25  40  62  94 121 168 212 263 310 379
#
# _framework density 20.982448999999999
#
# number of rings (size 3 to 8) (size 9 to 14) (size 15 to 20)
#    0.000    1.750    1.250    1.125    8.750    0.500 
#    0.000    0.000    0.000    4.500    0.000    0.000 
#    0.000    0.000    0.000    0.000    0.000    0.000 
#
# Total GULP energy -792919.820694 kJ/mol
# GULP energy per Si atom -12389.372198 kJ/mol
# Density = 2.093469 g / cm^3
# Si number density = 20.982449 Si / 1000 Ang^3
#
#
#
# Elastic Constant Matrix: (Units=GPa)
#
#
# Indices 1 2 3 4 5 6 
#
# 1 105.1681 26.5922 25.1393 0.0000 0.0000 0.0000
# 2 26.5922 112.9382 61.4342 0.0000 0.0000 0.0000
# 3 25.1393 61.4342 79.3052 0.0000 0.0000 0.0000
# 4 0.0000 0.0000 0.0000 35.7106 0.0000 0.0000
# 5 0.0000 0.0000 0.0000 0.0000 19.3356 0.0000
# 6 0.0000 0.0000 0.0000 0.0000 0.0000 25.1493
#
#
#
# Elastic Compliance Matrix: (Units=1/GPa)
#
#
# Indices 1 2 3 4 5 6 
#
# 1 0.010371 -0.001130 -0.002412 0.000000 0.000000 0.000000
# 2 -0.001130 0.015426 -0.011592 0.000000 0.000000 0.000000
# 3 -0.002412 -0.011592 0.022354 0.000000 0.000000 0.000000
# 4 0.000000 0.000000 0.000000 0.028003 0.000000 0.000000
# 5 0.000000 0.000000 0.000000 0.000000 0.051718 0.000000
# 6 0.000000 0.000000 0.000000 0.000000 0.000000 0.039763
#
#
# Mechanical properties :
#
#
# Convention : Reuss Voigt Hill
#
# Bulk Modulus (GPa) = 55.91874 58.19366 57.05620
# Shear Modulus (GPa) = 24.52637 28.32215 26.42426
#
# Velocity S-wave (km/s) = 3.42263 3.67795 3.55258
# Velocity P-wave (km/s) = 6.50594 6.76987 6.63921
#
# Compressibility (1/GPa) = 0.01788309
#
# Stress axis : x y z
#
# Youngs Moduli (GPa) = 96.42381 64.82658 44.73530
#
# Poissons Ratio (x) = 0.07323 0.10792
# Poissons Ratio (y) = 0.10892 0.51855
# Poissons Ratio (z) = 0.23262 0.75144
#
# Static dielectric constant tensor:
#      x y z
#    x 3.961630 0.000000 0.000000 
#    y 0.000000 3.941530 0.000000 
#    z 0.000000 0.000000 3.619450 
# 
# 
# High freq. dielectric constant tensor:
#      x y z
#    x 1.827170 0.000000 0.000000 
#    y 0.000000 1.826530 0.000000 
#    z 0.000000 0.000000 1.810450 
# 
# From -- ./inp_files/25815.got.cif
#   From: 2010.03.12/outbox.cif.g09.slc.cpg/sg60_13_cif.got.tgz:25815.got - 2010.04.10 18:46:24.
