data_PCOD8247916
_publ_section_title
;
Structure prediction by ZEFSAII (Michael W. Deem and Ramdas Pophale) SiO2 
 PCOD8247916
Probable space group: P B C N
;
_chemical_formula_sum "Si O2"
_cell_formula_units_Z 36
_cell_length_a 6.082324
_cell_length_b 12.946072
_cell_length_c 19.893678
_cell_angle_alpha 90.000000
_cell_angle_beta 90.000000
_cell_angle_gamma 90.000000
_cell_volume 1566.472060
_symmetry_space_group_name_H-M "P B C N"
_symmetry_group_IT_number 60
_symmetry_cell_setting 'orthorhombic'
loop_
_space_group_symop_operation_xyz
x,y,z
1/2-x,1/2-y,1/2+z
1/2+x,1/2-y,-z
-x,y,1/2-z
-x,-y,-z
1/2+x,1/2+y,1/2-z
1/2-x,1/2+y,z
x,-y,1/2+z
loop_
_atom_site_type_symbol
_atom_site_label
_atom_site_fract_x
_atom_site_fract_y
_atom_site_fract_z
Si Si1 0.022742 0.115819 0.976034
Si Si2 0.620962 0.081206 0.316278
Si Si3 0.000000 0.958979 0.250000
Si Si4 0.335727 0.108159 0.855206
Si Si5 0.820155 0.748769 0.903707
O O1 0.807375 0.151861 0.935775
O O2 0.233477 0.120622 0.928476
O O3 0.050478 0.189310 0.039601
O O4 0.000000 0.000000 0.000000
O O5 0.500000 0.122853 0.250000
O O6 0.649602 0.176936 0.366089
O O7 0.857013 0.030223 0.299812
O O8 0.461133 0.000371 0.352311
O O9 0.842052 0.886005 0.205073
O O10 0.508810 0.202530 0.848794
#
# Coordination Sequence:
#
# PCOD8247916 Si02
#       5
#     8   8   4   8   8
#     4  12  27  45  74 107 148 190 247 300 362 438
#     4  10  25  49  74 104 145 190 246 305 367 443
#     4  10  22  50  70 104 142 196 238 308 368 438
#     4  11  24  46  75 103 148 188 244 302 368 438
#     4  12  25  46  73 112 143 197 242 301 372 439
#
# _framework density 22.981579
#
# number of rings (size 3 to 8) (size 9 to 14) (size 15 to 20)
#    0.000    0.889    2.222    4.000    3.111    5.333 
#   26.000    0.000    0.000    0.000    0.000    0.000 
#    0.000    0.000    0.000    0.000    0.000    0.000 
#
# Total GULP energy -446607.045524 kJ/mol
# GULP energy per Si atom -12405.751265 kJ/mol
# Density = 2.292927 g / cm^3
# Si number density = 22.981579 Si / 1000 Ang^3
#
#
#
# Elastic Constant Matrix: (Units=GPa)
#
#
# Indices 1 2 3 4 5 6 
#
# 1 129.4671 66.5877 53.6118 0.0000 0.0000 0.0000
# 2 66.5877 133.3326 67.0222 0.0000 0.0000 0.0000
# 3 53.6118 67.0222 109.5363 0.0000 0.0000 0.0000
# 4 0.0000 0.0000 0.0000 34.0056 0.0000 0.0000
# 5 0.0000 0.0000 0.0000 0.0000 48.6931 0.0000
# 6 0.0000 0.0000 0.0000 0.0000 0.0000 33.5903
#
#
#
# Elastic Compliance Matrix: (Units=1/GPa)
#
#
# Indices 1 2 3 4 5 6 
#
# 1 0.011005 -0.004027 -0.002922 0.000000 0.000000 0.000000
# 2 -0.004027 0.012305 -0.005558 0.000000 0.000000 0.000000
# 3 -0.002922 -0.005558 0.013961 0.000000 0.000000 0.000000
# 4 0.000000 0.000000 0.000000 0.029407 0.000000 0.000000
# 5 0.000000 0.000000 0.000000 0.000000 0.020537 0.000000
# 6 0.000000 0.000000 0.000000 0.000000 0.000000 0.029771
#
#
# Mechanical properties :
#
#
# Convention : Reuss Voigt Hill
#
# Bulk Modulus (GPa) = 81.59428 82.97548 82.28488
# Shear Modulus (GPa) = 34.22641 35.59874 34.91257
#
# Velocity S-wave (km/s) = 3.86333 3.94002 3.90186
# Velocity P-wave (km/s) = 7.44860 7.54201 7.49545
#
# Compressibility (1/GPa) = 0.01225576
#
# Stress axis : x y z
#
# Youngs Moduli (GPa) = 90.86446 81.26676 71.63036
#
# Poissons Ratio (x) = 0.32728 0.20933
# Poissons Ratio (y) = 0.36593 0.39813
# Poissons Ratio (z) = 0.26554 0.45169
#
# Static dielectric constant tensor:
#      x y z
#    x 4.401560 0.000000 0.000000 
#    y 0.000000 4.038050 0.000000 
#    z 0.000000 0.000000 4.375710 
# 
# 
# High freq. dielectric constant tensor:
#      x y z
#    x 1.922970 0.000000 0.000000 
#    y 0.000000 1.906900 0.000000 
#    z 0.000000 0.000000 1.914950 
# 
# From -- ./inp_files/23456.got.cif
#   From: 2010.03.12/outbox.cif.g09.slc.cpg/sg60_12_cif.got.tgz:23456.got - 2010.04.10 18:46:24.
