data_PCOD8247064
_publ_section_title
;
Structure prediction by ZEFSAII (Michael W. Deem and Ramdas Pophale) SiO2 
 PCOD8247064
Probable space group: P B C N
;
_chemical_formula_sum "Si O2"
_cell_formula_units_Z 56
_cell_length_a 20.280219
_cell_length_b 14.338076
_cell_length_c 9.089943
_cell_angle_alpha 90.000000
_cell_angle_beta 90.000000
_cell_angle_gamma 90.000000
_cell_volume 2643.167456
_symmetry_space_group_name_H-M "P B C N"
_symmetry_group_IT_number 60
_symmetry_cell_setting 'orthorhombic'
loop_
_space_group_symop_operation_xyz
x,y,z
1/2-x,1/2-y,1/2+z
1/2+x,1/2-y,-z
-x,y,1/2-z
-x,-y,-z
1/2+x,1/2+y,1/2-z
1/2-x,1/2+y,z
x,-y,1/2+z
loop_
_atom_site_type_symbol
_atom_site_label
_atom_site_fract_x
_atom_site_fract_y
_atom_site_fract_z
Si Si1 0.524167 0.745282 0.908474
Si Si2 0.613424 0.237701 0.002484
Si Si3 0.756481 0.451647 0.719861
Si Si4 0.619972 0.568720 0.355780
Si Si5 0.836741 0.285793 0.817653
Si Si6 0.267732 0.129568 0.599331
Si Si7 0.559199 0.439584 0.557935
O O1 0.500000 0.705048 0.750000
O O2 0.592029 0.803178 0.893743
O O3 0.461193 0.804328 0.972872
O O4 0.546269 0.666425 0.020824
O O5 0.598954 0.339760 0.942124
O O6 0.658903 0.175577 0.894949
O O7 0.653851 0.251807 0.152747
O O8 0.687007 0.413035 0.772210
O O9 0.807872 0.389759 0.812448
O O10 0.762204 0.434817 0.545728
O O11 0.763995 0.561416 0.758816
O O12 0.623262 0.480709 0.468752
O O13 0.565362 0.548082 0.231980
O O14 0.788527 0.210481 0.897568
O O15 0.500000 0.500000 0.500000
#
# Coordination Sequence:
#
# PCOD8247064 Si02
#       7
#     8   8   8   8   8   8   8
#     4  10  20  39  61  88 125 168 208 263 320 379
#     4  10  23  40  63  89 129 171 211 262 324 394
#     4  11  24  40  65  91 125 168 215 270 323 381
#     4  12  23  39  57  91 129 170 203 261 323 388
#     4  10  22  41  64  95 124 167 219 267 329 386
#     4  11  24  43  64  96 126 167 218 270 326 385
#     4  12  24  35  58  91 129 162 207 249 322 400
#
# _framework density 21.186702
#
# number of rings (size 3 to 8) (size 9 to 14) (size 15 to 20)
#    0.000    1.143    2.857    3.857    6.000    0.000 
#    2.571    0.714    0.000    0.000    0.000    0.000 
#    0.000    0.000    0.000    0.000    0.000    0.000 
#
# Total GULP energy -694017.256770 kJ/mol
# GULP energy per Si atom -12393.165299 kJ/mol
# Density = 2.113848 g / cm^3
# Si number density = 21.186702 Si / 1000 Ang^3
#
#
#
# Elastic Constant Matrix: (Units=GPa)
#
#
# Indices 1 2 3 4 5 6 
#
# 1 131.1139 35.8597 16.1027 0.0000 0.0000 0.0000
# 2 35.8597 48.6452 9.7389 0.0000 0.0000 0.0000
# 3 16.1027 9.7389 47.2764 0.0000 0.0000 0.0000
# 4 0.0000 0.0000 0.0000 30.5153 0.0000 0.0000
# 5 0.0000 0.0000 0.0000 0.0000 26.4336 0.0000
# 6 0.0000 0.0000 0.0000 0.0000 0.0000 34.4441
#
#
#
# Elastic Compliance Matrix: (Units=1/GPa)
#
#
# Indices 1 2 3 4 5 6 
#
# 1 0.009716 -0.006779 -0.001913 0.000000 0.000000 0.000000
# 2 -0.006779 0.026172 -0.003082 0.000000 0.000000 0.000000
# 3 -0.001913 -0.003082 0.022439 0.000000 0.000000 0.000000
# 4 0.000000 0.000000 0.000000 0.032770 0.000000 0.000000
# 5 0.000000 0.000000 0.000000 0.000000 0.037831 0.000000
# 6 0.000000 0.000000 0.000000 0.000000 0.000000 0.029033
#
#
# Mechanical properties :
#
#
# Convention : Reuss Voigt Hill
#
# Bulk Modulus (GPa) = 28.75421 38.93757 33.84589
# Shear Modulus (GPa) = 25.89314 29.30089 27.59701
#
# Velocity S-wave (km/s) = 3.49971 3.72288 3.61302
# Velocity P-wave (km/s) = 5.47100 6.07438 5.78057
#
# Compressibility (1/GPa) = 0.03477751
#
# Stress axis : x y z
#
# Youngs Moduli (GPa) = 102.92242 38.20925 44.56593
#
# Poissons Ratio (x) = 0.25904 0.08525
# Poissons Ratio (y) = 0.69776 0.13736
# Poissons Ratio (z) = 0.19687 0.11777
#
# Static dielectric constant tensor:
#      x y z
#    x 4.302100 0.000000 0.000000 
#    y 0.000000 4.432240 0.000000 
#    z 0.000000 0.000000 4.063360 
# 
# 
# High freq. dielectric constant tensor:
#      x y z
#    x 1.854250 0.000000 0.000000 
#    y 0.000000 1.793160 0.000000 
#    z 0.000000 0.000000 1.832100 
# 
# From -- ./inp_files/7400.got.cif
#   From: 2010.03.12/outbox.cif.g09.slc.cpg/sg60_4_cif.got.tgz:7400.got - 2010.04.10 18:46:24.
