data_PCOD8247715
_publ_section_title
;
Structure prediction by ZEFSAII (Michael W. Deem and Ramdas Pophale) SiO2 
 PCOD8247715
Probable space group: P B C N
;
_chemical_formula_sum "Si O2"
_cell_formula_units_Z 28
_cell_length_a 19.411968
_cell_length_b 11.550300
_cell_length_c 4.875906
_cell_angle_alpha 90.000000
_cell_angle_beta 90.000000
_cell_angle_gamma 90.000000
_cell_volume 1093.246651
_symmetry_space_group_name_H-M "P B C N"
_symmetry_group_IT_number 60
_symmetry_cell_setting 'orthorhombic'
loop_
_space_group_symop_operation_xyz
x,y,z
1/2-x,1/2-y,1/2+z
1/2+x,1/2-y,-z
-x,y,1/2-z
-x,-y,-z
1/2+x,1/2+y,1/2-z
1/2-x,1/2+y,z
x,-y,1/2+z
loop_
_atom_site_type_symbol
_atom_site_label
_atom_site_fract_x
_atom_site_fract_y
_atom_site_fract_z
Si Si1 0.500000 0.249181 0.250000
Si Si2 0.590758 0.420088 0.935354
Si Si3 0.616005 0.081356 0.377431
Si Si4 0.759825 0.075832 0.528044
O O1 0.464554 0.323962 0.488136
O O2 0.555741 0.174003 0.417580
O O3 0.580697 0.465510 0.626328
O O4 0.667147 0.362101 0.966217
O O5 0.690425 0.145095 0.436525
O O6 0.609172 0.970327 0.574040
O O7 0.757513 0.956557 0.348350
#
# Coordination Sequence:
#
# PCOD8247715 Si02
#       4
#     4   8   8   8
#     4  12  24  38  64  96 128 164 200 258 320 368
#     4  10  22  40  61  88 123 162 206 253 304 366
#     4  10  22  40  61  88 123 162 206 253 304 366
#     4   8  16  36  60  80 112 156 198 246 296 350
#
# _framework density 25.611789999999999
#
# number of rings (size 3 to 8) (size 9 to 14) (size 15 to 20)
#    0.000    2.286    0.000    1.714    0.000    4.571 
#    0.000   17.143    0.000    0.000    0.000    0.000 
#    0.000    0.000    0.000    0.000    0.000    0.000 
#
# Total GULP energy -347045.638941 kJ/mol
# GULP energy per Si atom -12394.487105 kJ/mol
# Density = 2.555350 g / cm^3
# Si number density = 25.611790 Si / 1000 Ang^3
#
#
#
# Elastic Constant Matrix: (Units=GPa)
#
#
# Indices 1 2 3 4 5 6 
#
# 1 212.0269 59.0796 14.7075 0.0000 0.0000 0.0000
# 2 59.0796 47.3411 -1.5424 0.0000 0.0000 0.0000
# 3 14.7075 -1.5424 77.5361 0.0000 0.0000 0.0000
# 4 0.0000 0.0000 0.0000 8.5482 0.0000 0.0000
# 5 0.0000 0.0000 0.0000 0.0000 40.8946 0.0000
# 6 0.0000 0.0000 0.0000 0.0000 0.0000 -21.3463
#
#
#
# Elastic Compliance Matrix: (Units=1/GPa)
#
#
# Indices 1 2 3 4 5 6 
#
# 1 0.007422 -0.009315 -0.001593 0.000000 0.000000 0.000000
# 2 -0.009315 0.032826 0.002420 0.000000 0.000000 0.000000
# 3 -0.001593 0.002420 0.013248 0.000000 0.000000 0.000000
# 4 0.000000 0.000000 0.000000 0.116983 0.000000 0.000000
# 5 0.000000 0.000000 0.000000 0.000000 0.024453 0.000000
# 6 0.000000 0.000000 0.000000 0.000000 0.000000 -0.046847
#
#
# Mechanical properties :
#
#
# Convention : Reuss Voigt Hill
#
# Bulk Modulus (GPa) = 27.38206 53.48818 40.43512
# Shear Modulus (GPa) = 28.21104 23.26327 25.73716
#
# Velocity S-wave (km/s) = 3.32247 3.01708 3.17345
# Velocity P-wave (km/s) = 5.04309 5.75035 5.40830
#
# Compressibility (1/GPa) = 0.03652026
#
# Stress axis : x y z
#
# Youngs Moduli (GPa) = 134.72814 30.46329 75.48559
#
# Poissons Ratio (x) = 0.28376 0.12026
# Poissons Ratio (y) = 1.25495 -0.18266
# Poissons Ratio (z) = 0.21465 -0.07372
#
# Static dielectric constant tensor:
#      x y z
#    x 5.535410 0.000000 0.000000 
#    y 0.000000 3.771880 0.000000 
#    z 0.000000 0.000000 4.442460 
# 
# 
# High freq. dielectric constant tensor:
#      x y z
#    x 2.065240 0.000000 0.000000 
#    y 0.000000 1.952680 0.000000 
#    z 0.000000 0.000000 2.034070 
# 
# From -- ./inp_files/1924.got.cif
#   From: 2010.03.12/outbox.cif.g09.slc.cpg/sg60_1_cif.got.tgz:1924.got - 2010.04.10 18:46:24.
