data_PCOD8247542
_publ_section_title
;
Structure prediction by ZEFSAII (Michael W. Deem and Ramdas Pophale) SiO2 
 PCOD8247542
Probable space group: P B C N
;
_chemical_formula_sum "Si O2"
_cell_formula_units_Z 64
_cell_length_a 11.944993
_cell_length_b 14.231503
_cell_length_c 17.200735
_cell_angle_alpha 90.000000
_cell_angle_beta 90.000000
_cell_angle_gamma 90.000000
_cell_volume 2924.042450
_symmetry_space_group_name_H-M "P B C N"
_symmetry_group_IT_number 60
_symmetry_cell_setting 'orthorhombic'
loop_
_space_group_symop_operation_xyz
x,y,z
1/2-x,1/2-y,1/2+z
1/2+x,1/2-y,-z
-x,y,1/2-z
-x,-y,-z
1/2+x,1/2+y,1/2-z
1/2-x,1/2+y,z
x,-y,1/2+z
loop_
_atom_site_type_symbol
_atom_site_label
_atom_site_fract_x
_atom_site_fract_y
_atom_site_fract_z
Si Si1 0.747169 0.910438 0.239062
Si Si2 0.036142 0.351247 0.337977
Si Si3 0.081995 0.788068 0.189437
Si Si4 0.221083 0.893742 0.505182
Si Si5 0.569170 0.539026 0.635843
Si Si6 0.661701 0.718899 0.967909
Si Si7 0.511043 0.657243 0.411526
Si Si8 0.329183 0.937558 0.093777
O O1 0.663425 0.889483 0.165970
O O2 0.803778 0.811399 0.264499
O O3 0.842304 0.977635 0.204776
O O4 0.699833 0.959624 0.316240
O O5 0.023689 0.240894 0.354463
O O6 0.000000 0.369143 0.250000
O O7 0.961425 0.408769 0.401824
O O8 0.110444 0.731881 0.110737
O O9 0.000000 0.732956 0.250000
O O10 0.021990 0.883805 0.159769
O O11 0.138216 0.934269 0.441183
O O12 0.298492 0.805711 0.477076
O O13 0.142793 0.842254 0.569348
O O14 0.303906 0.971964 0.541205
O O15 0.506047 0.442153 0.628539
O O16 0.760149 0.648318 0.943159
O O17 0.565350 0.661230 0.011126
#
# Coordination Sequence:
#
# PCOD8247542 Si02
#       8
#     8   8   8   8   8   8   8   8
#     4   9  20  39  61  86 126 166 199 262 315 373
#     4  10  22  41  63  88 130 166 203 255 326 381
#     4   9  19  37  63  88 124 165 208 263 318 365
#     4  12  23  38  67  92 125 166 209 259 322 375
#     4  11  21  38  62  94 123 160 216 270 311 363
#     4  11  21  39  61  93 126 161 207 261 318 373
#     4  12  22  37  64  94 123 160 213 266 307 377
#     4  10  21  42  62  88 124 166 206 256 317 384
#
# _framework density 21.887505999999998
#
# number of rings (size 3 to 8) (size 9 to 14) (size 15 to 20)
#    0.000    1.500    3.750    2.625    0.000    2.500 
#    0.000    5.625    0.000    0.000    0.000    0.000 
#    0.000    0.000    0.000    0.000    0.000    0.000 
#
# Total GULP energy -792921.093822 kJ/mol
# GULP energy per Si atom -12389.392091 kJ/mol
# Density = 2.183769 g / cm^3
# Si number density = 21.887506 Si / 1000 Ang^3
#
#
#
# Elastic Constant Matrix: (Units=GPa)
#
#
# Indices 1 2 3 4 5 6 
#
# 1 79.9339 17.2963 9.8664 0.0000 0.0000 0.0000
# 2 17.2963 77.3446 10.0893 0.0000 0.0000 0.0000
# 3 9.8664 10.0893 45.5767 0.0000 0.0000 0.0000
# 4 0.0000 0.0000 0.0000 28.9865 0.0000 0.0000
# 5 0.0000 0.0000 0.0000 0.0000 37.0758 0.0000
# 6 0.0000 0.0000 0.0000 0.0000 0.0000 25.8761
#
#
#
# Elastic Compliance Matrix: (Units=1/GPa)
#
#
# Indices 1 2 3 4 5 6 
#
# 1 0.013377 -0.002691 -0.002300 0.000000 0.000000 0.000000
# 2 -0.002691 0.013855 -0.002484 0.000000 0.000000 0.000000
# 3 -0.002300 -0.002484 0.022989 0.000000 0.000000 0.000000
# 4 0.000000 0.000000 0.000000 0.034499 0.000000 0.000000
# 5 0.000000 0.000000 0.000000 0.000000 0.026972 0.000000
# 6 0.000000 0.000000 0.000000 0.000000 0.000000 0.038646
#
#
# Mechanical properties :
#
#
# Convention : Reuss Voigt Hill
#
# Bulk Modulus (GPa) = 28.35350 30.81770 29.58560
# Shear Modulus (GPa) = 28.24144 29.42789 28.83467
#
# Velocity S-wave (km/s) = 3.59597 3.67073 3.63354
# Velocity P-wave (km/s) = 5.49761 5.66359 5.58122
#
# Compressibility (1/GPa) = 0.03526901
#
# Stress axis : x y z
#
# Youngs Moduli (GPa) = 74.75755 72.17564 43.49926
#
# Poissons Ratio (x) = 0.19425 0.10005
# Poissons Ratio (y) = 0.20120 0.10807
# Poissons Ratio (z) = 0.17194 0.17932
#
# Static dielectric constant tensor:
#      x y z
#    x 4.584260 0.000000 0.000000 
#    y 0.000000 3.434730 0.000000 
#    z 0.000000 0.000000 4.173210 
# 
# 
# High freq. dielectric constant tensor:
#      x y z
#    x 1.878220 0.000000 0.000000 
#    y 0.000000 1.818580 0.000000 
#    z 0.000000 0.000000 1.869910 
# 
# From -- ./inp_files/20189.got.cif
#   From: 2010.03.12/outbox.cif.g09.slc.cpg/sg60_11_cif.got.tgz:20189.got - 2010.04.10 18:46:24.
