data_PCOD8247689
_publ_section_title
;
Structure prediction by ZEFSAII (Michael W. Deem and Ramdas Pophale) SiO2 
 PCOD8247689
Probable space group: P B C N
;
_chemical_formula_sum "Si O2"
_cell_formula_units_Z 56
_cell_length_a 21.235360
_cell_length_b 14.715927
_cell_length_c 9.092468
_cell_angle_alpha 90.000000
_cell_angle_beta 90.000000
_cell_angle_gamma 90.000000
_cell_volume 2841.378134
_symmetry_space_group_name_H-M "P B C N"
_symmetry_group_IT_number 60
_symmetry_cell_setting 'orthorhombic'
loop_
_space_group_symop_operation_xyz
x,y,z
1/2-x,1/2-y,1/2+z
1/2+x,1/2-y,-z
-x,y,1/2-z
-x,-y,-z
1/2+x,1/2+y,1/2-z
1/2-x,1/2+y,z
x,-y,1/2+z
loop_
_atom_site_type_symbol
_atom_site_label
_atom_site_fract_x
_atom_site_fract_y
_atom_site_fract_z
Si Si1 0.000000 0.952734 0.250000
Si Si2 0.786883 0.664484 0.984329
Si Si3 0.115830 0.061261 0.152525
Si Si4 0.305429 0.476597 0.916498
Si Si5 0.500000 0.010081 0.750000
Si Si6 0.292777 0.325474 0.305350
Si Si7 0.422465 0.690047 0.913809
Si Si8 0.933180 0.385312 0.514148
O O1 0.029119 0.888520 0.374404
O O2 0.047696 0.018256 0.168319
O O3 0.752507 0.686585 0.832418
O O4 0.757576 0.579189 0.066261
O O5 0.770476 0.754520 0.073299
O O6 0.860022 0.635169 0.979639
O O7 0.147130 0.077954 0.310051
O O8 0.112444 0.156481 0.064046
O O9 0.158985 0.986550 0.071035
O O10 0.282836 0.572952 0.858961
O O11 0.462939 0.074146 0.634915
O O12 0.450011 0.949498 0.844986
O O13 0.368463 0.304641 0.285274
O O14 0.459382 0.784718 0.942651
#
# Coordination Sequence:
#
# PCOD8247689 Si02
#       8
#     4   8   8   8   4   8   8   8
#     4  12  19  37  62  88 124 174 202 237 307 374
#     4  11  24  40  67  93 124 166 209 254 322 381
#     4  11  22  37  60  88 129 167 203 245 304 374
#     4  11  22  41  59  86 132 161 197 264 308 362
#     4  10  23  49  66  90 124 160 214 275 315 374
#     4  10  23  41  59  93 126 159 208 257 308 371
#     4  10  22  39  61  92 128 160 210 256 305 369
#     4  10  24  44  67  91 121 162 211 267 320 376
#
# _framework density 19.708745
#
# number of rings (size 3 to 8) (size 9 to 14) (size 15 to 20)
#    0.000    1.429    4.286    0.857    8.000    0.571 
#    2.571    1.429    0.000    0.000    0.000    0.000 
#    0.000    0.000    0.000    0.000    0.000    0.000 
#
# Total GULP energy -693894.495407 kJ/mol
# GULP energy per Si atom -12390.973132 kJ/mol
# Density = 1.966389 g / cm^3
# Si number density = 19.708745 Si / 1000 Ang^3
#
#
#
# Elastic Constant Matrix: (Units=GPa)
#
#
# Indices 1 2 3 4 5 6 
#
# 1 93.0685 39.3952 54.9687 0.0000 0.0000 0.0000
# 2 39.3952 101.1042 48.5499 0.0000 0.0000 0.0000
# 3 54.9687 48.5499 99.0190 0.0000 0.0000 0.0000
# 4 0.0000 0.0000 0.0000 25.3881 0.0000 0.0000
# 5 0.0000 0.0000 0.0000 0.0000 31.5050 0.0000
# 6 0.0000 0.0000 0.0000 0.0000 0.0000 17.2642
#
#
#
# Elastic Compliance Matrix: (Units=1/GPa)
#
#
# Indices 1 2 3 4 5 6 
#
# 1 0.016515 -0.002659 -0.007865 0.000000 0.000000 0.000000
# 2 -0.002659 0.013365 -0.005077 0.000000 0.000000 0.000000
# 3 -0.007865 -0.005077 0.016954 0.000000 0.000000 0.000000
# 4 0.000000 0.000000 0.000000 0.039389 0.000000 0.000000
# 5 0.000000 0.000000 0.000000 0.000000 0.031741 0.000000
# 6 0.000000 0.000000 0.000000 0.000000 0.000000 0.057923
#
#
# Mechanical properties :
#
#
# Convention : Reuss Voigt Hill
#
# Bulk Modulus (GPa) = 63.96386 64.33547 64.14967
# Shear Modulus (GPa) = 23.55176 24.84999 24.20087
#
# Velocity S-wave (km/s) = 3.46061 3.55471 3.50798
# Velocity P-wave (km/s) = 6.96368 7.04003 7.00196
#
# Compressibility (1/GPa) = 0.01563383
#
# Stress axis : x y z
#
# Youngs Moduli (GPa) = 60.55044 74.82440 58.98240
#
# Poissons Ratio (x) = 0.19893 0.46387
# Poissons Ratio (y) = 0.16098 0.29945
# Poissons Ratio (z) = 0.47620 0.37988
#
# Static dielectric constant tensor:
#      x y z
#    x 3.668860 0.000000 0.000000 
#    y 0.000000 3.737570 0.000000 
#    z 0.000000 0.000000 -0.449600 
# 
# 
# High freq. dielectric constant tensor:
#      x y z
#    x 1.766390 0.000000 0.000000 
#    y 0.000000 1.778930 0.000000 
#    z 0.000000 0.000000 1.770510 
# 
# From -- ./inp_files/7452.got.cif
#   From: 2010.03.12/outbox.cif.g09.slc.cpg/sg60_4_cif.got.tgz:7452.got - 2010.04.10 18:46:24.
