data_PCOD8247327
_publ_section_title
;
Structure prediction by ZEFSAII (Michael W. Deem and Ramdas Pophale) SiO2 
 PCOD8247327
Probable space group: P B C N
;
_chemical_formula_sum "Si O2"
_cell_formula_units_Z 44
_cell_length_a 29.347175
_cell_length_b 5.114752
_cell_length_c 13.095735
_cell_angle_alpha 90.000000
_cell_angle_beta 90.000000
_cell_angle_gamma 90.000000
_cell_volume 1965.715947
_symmetry_space_group_name_H-M "P B C N"
_symmetry_group_IT_number 60
_symmetry_cell_setting 'orthorhombic'
loop_
_space_group_symop_operation_xyz
x,y,z
1/2-x,1/2-y,1/2+z
1/2+x,1/2-y,-z
-x,y,1/2-z
-x,-y,-z
1/2+x,1/2+y,1/2-z
1/2-x,1/2+y,z
x,-y,1/2+z
loop_
_atom_site_type_symbol
_atom_site_label
_atom_site_fract_x
_atom_site_fract_y
_atom_site_fract_z
Si Si1 0.025988 0.249954 0.539174
Si Si2 0.585083 0.623742 0.132969
Si Si3 0.723822 0.862452 0.796591
Si Si4 0.142179 0.602165 0.339551
Si Si5 0.000000 0.914737 0.250000
Si Si6 0.275991 0.896879 0.462558
O O1 0.075404 0.226276 0.483771
O O2 0.026588 0.256989 0.663341
O O3 0.000000 0.500000 0.500000
O O4 0.000000 0.000000 0.500000
O O5 0.613681 0.355584 0.125687
O O6 0.538108 0.588654 0.194657
O O7 0.610089 0.859634 0.191787
O O8 0.743419 0.134433 0.753211
O O9 0.723165 0.871444 0.916891
O O10 0.672517 0.818939 0.757715
O O11 0.174032 0.489174 0.429648
O O12 0.239644 0.112972 0.421608
#
# Coordination Sequence:
#
# PCOD8247327 Si02
#       6
#     8   8   8   8   4   8
#     4  10  22  42  65  90 118 158 211 255 309 385
#     4  11  25  39  62  93 122 161 210 260 321 385
#     4  10  21  38  61  89 122 164 207 243 300 377
#     4  12  23  38  60  92 125 157 203 262 312 370
#     4  10  24  46  68  86 126 172 208 268 332 376
#     4  10  21  38  60  84 119 164 202 249 309 367
#
# _framework density 22.383704000000002
#
# number of rings (size 3 to 8) (size 9 to 14) (size 15 to 20)
#    0.000    1.455    0.000    5.455    0.000    9.455 
#    0.000    0.000    0.000    0.000    0.000    0.000 
#    0.000    0.000    0.000    0.000    0.000    0.000 
#
# Total GULP energy -545380.819400 kJ/mol
# GULP energy per Si atom -12395.018623 kJ/mol
# Density = 2.233276 g / cm^3
# Si number density = 22.383704 Si / 1000 Ang^3
#
#
#
# Elastic Constant Matrix: (Units=GPa)
#
#
# Indices 1 2 3 4 5 6 
#
# 1 125.2376 51.6719 27.6310 0.0000 0.0000 0.0000
# 2 51.6719 154.5024 36.0277 0.0000 0.0000 0.0000
# 3 27.6310 36.0277 85.1983 0.0000 0.0000 0.0000
# 4 0.0000 0.0000 0.0000 21.0477 0.0000 0.0000
# 5 0.0000 0.0000 0.0000 0.0000 24.1447 0.0000
# 6 0.0000 0.0000 0.0000 0.0000 0.0000 50.1880
#
#
#
# Elastic Compliance Matrix: (Units=1/GPa)
#
#
# Indices 1 2 3 4 5 6 
#
# 1 0.009542 -0.002740 -0.001936 0.000000 0.000000 0.000000
# 2 -0.002740 0.007967 -0.002480 0.000000 0.000000 0.000000
# 3 -0.001936 -0.002480 0.013414 0.000000 0.000000 0.000000
# 4 0.000000 0.000000 0.000000 0.047511 0.000000 0.000000
# 5 0.000000 0.000000 0.000000 0.000000 0.041417 0.000000
# 6 0.000000 0.000000 0.000000 0.000000 0.000000 0.019925
#
#
# Mechanical properties :
#
#
# Convention : Reuss Voigt Hill
#
# Bulk Modulus (GPa) = 60.20204 66.17774 63.18989
# Shear Modulus (GPa) = 31.32304 35.71659 33.51982
#
# Velocity S-wave (km/s) = 3.74487 3.99889 3.87397
# Velocity P-wave (km/s) = 6.75667 7.13799 6.94995
#
# Compressibility (1/GPa) = 0.01661073
#
# Stress axis : x y z
#
# Youngs Moduli (GPa) = 104.79492 125.51561 74.54813
#
# Poissons Ratio (x) = 0.34390 0.14433
# Poissons Ratio (y) = 0.28713 0.18491
# Poissons Ratio (z) = 0.20290 0.31134
#
# Static dielectric constant tensor:
#      x y z
#    x 4.207360 0.000000 0.000000 
#    y 0.000000 4.315420 0.000000 
#    z 0.000000 0.000000 4.532110 
# 
# 
# High freq. dielectric constant tensor:
#      x y z
#    x 1.874460 0.000000 0.000000 
#    y 0.000000 1.898640 0.000000 
#    z 0.000000 0.000000 1.893610 
# 
# From -- ./inp_files/18006.got.cif
#   From: 2010.03.12/outbox.cif.g09.slc.cpg/sg60_10_cif.got.tgz:18006.got - 2010.04.10 18:46:24.
