data_PCOD8247853
_publ_section_title
;
Structure prediction by ZEFSAII (Michael W. Deem and Ramdas Pophale) SiO2 
 PCOD8247853
Probable space group: P B C N
;
_chemical_formula_sum "Si O2"
_cell_formula_units_Z 56
_cell_length_a 7.749410
_cell_length_b 15.406496
_cell_length_c 20.688015
_cell_angle_alpha 90.000000
_cell_angle_beta 90.000000
_cell_angle_gamma 90.000000
_cell_volume 2469.968057
_symmetry_space_group_name_H-M "P B C N"
_symmetry_group_IT_number 60
_symmetry_cell_setting 'orthorhombic'
loop_
_space_group_symop_operation_xyz
x,y,z
1/2-x,1/2-y,1/2+z
1/2+x,1/2-y,-z
-x,y,1/2-z
-x,-y,-z
1/2+x,1/2+y,1/2-z
1/2-x,1/2+y,z
x,-y,1/2+z
loop_
_atom_site_type_symbol
_atom_site_label
_atom_site_fract_x
_atom_site_fract_y
_atom_site_fract_z
Si Si1 0.786089 0.054621 0.175637
Si Si2 0.221417 0.838298 0.029001
Si Si3 0.818935 0.499021 0.537189
Si Si4 0.500000 0.416784 0.250000
Si Si5 0.879004 0.683416 0.560333
Si Si6 0.362071 0.721272 0.660136
Si Si7 0.512499 0.727796 0.176275
Si Si8 0.000000 0.358508 0.750000
O O1 0.672388 0.035444 0.111559
O O2 0.664452 0.081781 0.235920
O O3 0.923860 0.130515 0.164485
O O4 0.892712 0.971204 0.197983
O O5 0.422758 0.836799 0.045428
O O6 0.092887 0.817661 0.089217
O O7 0.185666 0.936351 0.001683
O O8 0.187963 0.768281 0.974496
O O9 0.760462 0.600289 0.541172
O O10 0.000000 0.500000 0.500000
O O11 0.636834 0.357267 0.288787
O O12 0.864996 0.704457 0.637339
O O13 0.179054 0.766672 0.648718
O O14 0.485880 0.798130 0.685723
O O15 0.500000 0.756763 0.250000
#
# Coordination Sequence:
#
# PCOD8247853 Si02
#       8
#     8   8   8   4   8   8   8   4
#     4  12  24  43  70  99 148 181 241 306 362 441
#     4  10  22  43  66  98 134 179 223 295 347 426
#     4  10  24  43  64 106 139 184 234 286 360 443
#     4  11  26  46  64 107 140 184 244 307 368 439
#     4  10  23  41  68  95 137 178 231 285 350 431
#     4  10  24  43  67  97 137 179 242 293 357 447
#     4  11  21  43  69  97 136 186 236 292 365 432
#     4  11  24  40  70  99 128 196 230 297 364 431
#
# _framework density 22.672359
#
# number of rings (size 3 to 8) (size 9 to 14) (size 15 to 20)
#    0.000    1.429    3.571    0.000    6.000    4.571 
#    5.143    1.429    0.000    0.000    0.000    0.000 
#    0.000    0.000    0.000    0.000    0.000    0.000 
#
# Total GULP energy -693906.711399 kJ/mol
# GULP energy per Si atom -12391.191275 kJ/mol
# Density = 2.262076 g / cm^3
# Si number density = 22.672359 Si / 1000 Ang^3
#
#
#
# Elastic Constant Matrix: (Units=GPa)
#
#
# Indices 1 2 3 4 5 6 
#
# 1 46.0194 41.3720 25.1904 0.0000 0.0000 0.0000
# 2 41.3720 137.3060 53.0337 0.0000 0.0000 0.0000
# 3 25.1904 53.0337 152.1994 0.0000 0.0000 0.0000
# 4 0.0000 0.0000 0.0000 37.8099 0.0000 0.0000
# 5 0.0000 0.0000 0.0000 0.0000 25.0295 0.0000
# 6 0.0000 0.0000 0.0000 0.0000 0.0000 22.0567
#
#
#
# Elastic Compliance Matrix: (Units=1/GPa)
#
#
# Indices 1 2 3 4 5 6 
#
# 1 0.030386 -0.008335 -0.002125 0.000000 0.000000 0.000000
# 2 -0.008335 0.010702 -0.002350 0.000000 0.000000 0.000000
# 3 -0.002125 -0.002350 0.007741 0.000000 0.000000 0.000000
# 4 0.000000 0.000000 0.000000 0.026448 0.000000 0.000000
# 5 0.000000 0.000000 0.000000 0.000000 0.039953 0.000000
# 6 0.000000 0.000000 0.000000 0.000000 0.000000 0.045338
#
#
# Mechanical properties :
#
#
# Convention : Reuss Voigt Hill
#
# Bulk Modulus (GPa) = 43.08477 63.85746 53.47111
# Shear Modulus (GPa) = 25.78338 31.37448 28.57893
#
# Velocity S-wave (km/s) = 3.37592 3.72401 3.55423
# Velocity P-wave (km/s) = 5.85152 6.83502 6.36230
#
# Compressibility (1/GPa) = 0.02321006
#
# Stress axis : x y z
#
# Youngs Moduli (GPa) = 32.90946 93.44077 129.18700
#
# Poissons Ratio (x) = 0.77884 0.27451
# Poissons Ratio (y) = 0.27430 0.30353
# Poissons Ratio (z) = 0.06993 0.21954
#
# Static dielectric constant tensor:
#      x y z
#    x 3.932080 0.000000 0.000000 
#    y 0.000000 4.448970 0.000000 
#    z 0.000000 0.000000 4.599120 
# 
# 
# High freq. dielectric constant tensor:
#      x y z
#    x 1.870600 0.000000 0.000000 
#    y 0.000000 1.907310 0.000000 
#    z 0.000000 0.000000 1.904630 
# 
# From -- ./inp_files/22243.got.cif
#   From: 2010.03.12/outbox.cif.g09.slc.cpg/sg60_12_cif.got.tgz:22243.got - 2010.04.10 18:46:24.
