data_PCOD8247152
_publ_section_title
;
Structure prediction by ZEFSAII (Michael W. Deem and Ramdas Pophale) SiO2 
 PCOD8247152
Probable space group: P B C N
;
_chemical_formula_sum "Si O2"
_cell_formula_units_Z 56
_cell_length_a 8.899557
_cell_length_b 13.923104
_cell_length_c 21.016144
_cell_angle_alpha 90.000000
_cell_angle_beta 90.000000
_cell_angle_gamma 90.000000
_cell_volume 2604.099005
_symmetry_space_group_name_H-M "P B C N"
_symmetry_group_IT_number 60
_symmetry_cell_setting 'orthorhombic'
loop_
_space_group_symop_operation_xyz
x,y,z
1/2-x,1/2-y,1/2+z
1/2+x,1/2-y,-z
-x,y,1/2-z
-x,-y,-z
1/2+x,1/2+y,1/2-z
1/2-x,1/2+y,z
x,-y,1/2+z
loop_
_atom_site_type_symbol
_atom_site_label
_atom_site_fract_x
_atom_site_fract_y
_atom_site_fract_z
Si Si1 0.666386 0.457946 0.772810
Si Si2 0.508343 0.095536 0.576039
Si Si3 0.298498 0.917464 0.544528
Si Si4 0.934778 0.964267 0.402605
Si Si5 0.763556 0.783092 0.390220
Si Si6 0.672875 0.238977 0.251280
Si Si7 0.267451 0.592401 0.834008
O O1 0.500000 0.446313 0.750000
O O2 0.669257 0.488812 0.846518
O O3 0.741132 0.359590 0.753379
O O4 0.743237 0.541741 0.733545
O O5 0.636900 0.116434 0.523203
O O6 0.401453 0.188527 0.583430
O O7 0.601536 0.081987 0.639806
O O8 0.413142 0.999269 0.567835
O O9 0.301768 0.825462 0.590594
O O10 0.126011 0.963339 0.540539
O O11 0.884132 0.856635 0.420492
O O12 0.109550 0.957900 0.382147
O O13 0.777574 0.797447 0.314262
O O14 0.500000 0.213722 0.250000
O O15 0.700195 0.296945 0.185102
#
# Coordination Sequence:
#
# PCOD8247152 Si02
#       7
#     8   8   8   8   8   8   8
#     4  10  22  38  59  93 132 170 208 265 331 401
#     4  10  26  43  67  98 126 177 231 274 325 404
#     4  10  23  47  65  90 132 178 230 265 341 391
#     4  10  20  41  65  91 134 172 212 274 332 388
#     4  11  22  41  66  92 133 172 211 283 328 390
#     4  12  23  38  62  97 129 169 215 261 342 406
#     4  11  23  39  61  99 132 162 222 272 329 407
#
# _framework density 21.504560000000001
#
# number of rings (size 3 to 8) (size 9 to 14) (size 15 to 20)
#    0.000    1.429    4.286    0.429    4.000    1.714 
#    0.000    4.286    0.000    0.000    0.000    0.000 
#    0.000    0.000    0.000    0.000    0.000    0.000 
#
# Total GULP energy -693784.350898 kJ/mol
# GULP energy per Si atom -12389.006266 kJ/mol
# Density = 2.145561 g / cm^3
# Si number density = 21.504560 Si / 1000 Ang^3
#
#
#
# Elastic Constant Matrix: (Units=GPa)
#
#
# Indices 1 2 3 4 5 6 
#
# 1 84.4536 30.8999 18.2667 0.0000 0.0000 0.0000
# 2 30.8999 103.3171 7.2157 0.0000 0.0000 0.0000
# 3 18.2667 7.2157 38.9207 0.0000 0.0000 0.0000
# 4 0.0000 0.0000 0.0000 17.7400 0.0000 0.0000
# 5 0.0000 0.0000 0.0000 0.0000 42.8170 0.0000
# 6 0.0000 0.0000 0.0000 0.0000 0.0000 24.5906
#
#
#
# Elastic Compliance Matrix: (Units=1/GPa)
#
#
# Indices 1 2 3 4 5 6 
#
# 1 0.014608 -0.003941 -0.006125 0.000000 0.000000 0.000000
# 2 -0.003941 0.010869 -0.000165 0.000000 0.000000 0.000000
# 3 -0.006125 -0.000165 0.028599 0.000000 0.000000 0.000000
# 4 0.000000 0.000000 0.000000 0.056370 0.000000 0.000000
# 5 0.000000 0.000000 0.000000 0.000000 0.023355 0.000000
# 6 0.000000 0.000000 0.000000 0.000000 0.000000 0.040666
#
#
# Mechanical properties :
#
#
# Convention : Reuss Voigt Hill
#
# Bulk Modulus (GPa) = 29.75111 37.71733 33.73422
# Shear Modulus (GPa) = 24.25612 28.38347 26.31980
#
# Velocity S-wave (km/s) = 3.36214 3.63696 3.50225
# Velocity P-wave (km/s) = 5.37930 5.93413 5.66351
#
# Compressibility (1/GPa) = 0.03361220
#
# Stress axis : x y z
#
# Youngs Moduli (GPa) = 68.45753 92.00334 34.96666
#
# Poissons Ratio (x) = 0.36259 0.21418
# Poissons Ratio (y) = 0.26979 0.00578
# Poissons Ratio (z) = 0.41931 0.01522
#
# Static dielectric constant tensor:
#      x y z
#    x 3.884290 0.000000 0.000000 
#    y 0.000000 3.880360 0.000000 
#    z 0.000000 0.000000 4.135340 
# 
# 
# High freq. dielectric constant tensor:
#      x y z
#    x 1.844920 0.000000 0.000000 
#    y 0.000000 1.850160 0.000000 
#    z 0.000000 0.000000 1.837060 
# 
# From -- ./inp_files/22212.got.cif
#   From: 2010.03.12/outbox.cif.g09.slc.cpg/sg60_12_cif.got.tgz:22212.got - 2010.04.10 18:46:24.
