data_PCOD8247575
_publ_section_title
;
Structure prediction by ZEFSAII (Michael W. Deem and Ramdas Pophale) SiO2 
 PCOD8247575
Probable space group: P B C N
;
_chemical_formula_sum "Si O2"
_cell_formula_units_Z 36
_cell_length_a 14.500504
_cell_length_b 12.386717
_cell_length_c 10.083199
_cell_angle_alpha 90.000000
_cell_angle_beta 90.000000
_cell_angle_gamma 90.000000
_cell_volume 1811.080069
_symmetry_space_group_name_H-M "P B C N"
_symmetry_group_IT_number 60
_symmetry_cell_setting 'orthorhombic'
loop_
_space_group_symop_operation_xyz
x,y,z
1/2-x,1/2-y,1/2+z
1/2+x,1/2-y,-z
-x,y,1/2-z
-x,-y,-z
1/2+x,1/2+y,1/2-z
1/2-x,1/2+y,z
x,-y,1/2+z
loop_
_atom_site_type_symbol
_atom_site_label
_atom_site_fract_x
_atom_site_fract_y
_atom_site_fract_z
Si Si1 0.500000 0.576934 0.250000
Si Si2 0.144750 0.034429 0.900698
Si Si3 0.050916 0.560188 0.613693
Si Si4 0.370388 0.276657 0.593302
Si Si5 0.748445 0.583592 0.869337
O O1 0.460554 0.503272 0.369969
O O2 0.590190 0.645249 0.292457
O O3 0.197303 0.045296 0.761801
O O4 0.145355 0.154028 0.961760
O O5 0.190392 0.947156 0.999789
O O6 0.050387 0.686603 0.571645
O O7 0.155682 0.516405 0.626031
O O8 0.000000 0.539567 0.750000
O O9 0.000000 0.500000 0.500000
O O10 0.275048 0.212741 0.632552
#
# Coordination Sequence:
#
# PCOD8247575 Si02
#       5
#     4   8   8   8   8
#     4  12  24  46  68  94 142 184 220 292 336 428
#     4  12  24  46  64 103 133 179 233 276 350 402
#     4  10  21  44  65  99 134 173 218 277 344 403
#     4  10  24  41  67  95 131 179 217 280 342 390
#     4  10  25  40  72  95 134 174 227 283 332 413
#
# _framework density 19.877641000000001
#
# number of rings (size 3 to 8) (size 9 to 14) (size 15 to 20)
#    1.333    0.000    3.333    2.000    3.111    0.000 
#    2.000    0.000    0.000    0.000    0.000    0.000 
#    0.000    0.000    0.000    0.000    0.000    0.000 
#
# Total GULP energy -445984.635850 kJ/mol
# GULP energy per Si atom -12388.462107 kJ/mol
# Density = 1.983240 g / cm^3
# Si number density = 19.877641 Si / 1000 Ang^3
#
#
#
# Elastic Constant Matrix: (Units=GPa)
#
#
# Indices 1 2 3 4 5 6 
#
# 1 80.3730 25.5214 65.5963 0.0000 0.0000 0.0000
# 2 25.5214 88.0709 61.3456 0.0000 0.0000 0.0000
# 3 65.5963 61.3456 142.5103 0.0000 0.0000 0.0000
# 4 0.0000 0.0000 0.0000 35.8030 0.0000 0.0000
# 5 0.0000 0.0000 0.0000 0.0000 47.0692 0.0000
# 6 0.0000 0.0000 0.0000 0.0000 0.0000 32.6533
#
#
#
# Elastic Compliance Matrix: (Units=1/GPa)
#
#
# Indices 1 2 3 4 5 6 
#
# 1 0.019976 0.000880 -0.009573 0.000000 0.000000 0.000000
# 2 0.000880 0.016256 -0.007402 0.000000 0.000000 0.000000
# 3 -0.009573 -0.007402 0.014610 0.000000 0.000000 0.000000
# 4 0.000000 0.000000 0.000000 0.027931 0.000000 0.000000
# 5 0.000000 0.000000 0.000000 0.000000 0.021245 0.000000
# 6 0.000000 0.000000 0.000000 0.000000 0.000000 0.030625
#
#
# Mechanical properties :
#
#
# Convention : Reuss Voigt Hill
#
# Bulk Modulus (GPa) = 53.62092 68.43119 61.02605
# Shear Modulus (GPa) = 29.57679 33.67115 31.62397
#
# Velocity S-wave (km/s) = 3.86157 4.12019 3.99298
# Velocity P-wave (km/s) = 6.84955 7.55881 7.21290
#
# Compressibility (1/GPa) = 0.01864944
#
# Stress axis : x y z
#
# Youngs Moduli (GPa) = 50.06001 61.51687 68.44586
#
# Poissons Ratio (x) = -0.05412 0.65526
# Poissons Ratio (y) = -0.04404 0.50666
# Poissons Ratio (z) = 0.47925 0.45537
#
# Static dielectric constant tensor:
#      x y z
#    x 3.658350 0.000000 0.000000 
#    y 0.000000 3.938140 0.000000 
#    z 0.000000 0.000000 3.482440 
# 
# 
# High freq. dielectric constant tensor:
#      x y z
#    x 1.776740 0.000000 0.000000 
#    y 0.000000 1.771100 0.000000 
#    z 0.000000 0.000000 1.779180 
# 
# From -- ./inp_files/5616.got.cif
#   From: 2010.03.12/outbox.cif.g09.slc.cpg/sg60_3_cif.got.tgz:5616.got - 2010.04.10 18:46:24.
