data_PCOD8247098
_publ_section_title
;
Structure prediction by ZEFSAII (Michael W. Deem and Ramdas Pophale) SiO2 
 PCOD8247098
Probable space group: P B C N
;
_chemical_formula_sum "Si O2"
_cell_formula_units_Z 32
_cell_length_a 7.584724
_cell_length_b 32.266486
_cell_length_c 5.433108
_cell_angle_alpha 90.000000
_cell_angle_beta 90.000000
_cell_angle_gamma 90.000000
_cell_volume 1329.657510
_symmetry_space_group_name_H-M "P B C N"
_symmetry_group_IT_number 60
_symmetry_cell_setting 'orthorhombic'
loop_
_space_group_symop_operation_xyz
x,y,z
1/2-x,1/2-y,1/2+z
1/2+x,1/2-y,-z
-x,y,1/2-z
-x,-y,-z
1/2+x,1/2+y,1/2-z
1/2-x,1/2+y,z
x,-y,1/2+z
loop_
_atom_site_type_symbol
_atom_site_label
_atom_site_fract_x
_atom_site_fract_y
_atom_site_fract_z
Si Si1 0.824154 0.387727 0.087918
Si Si2 0.000000 0.330321 0.750000
Si Si3 0.199081 0.483120 0.495366
Si Si4 0.000000 0.835371 0.250000
Si Si5 0.259652 0.724255 0.497899
O O1 0.785605 0.433943 0.000660
O O2 0.659663 0.366898 0.217130
O O3 0.000000 0.387188 0.250000
O O4 0.845672 0.359567 0.848249
O O5 0.081946 0.302749 0.968134
O O6 0.292784 0.499722 0.745880
O O7 0.000000 0.500000 0.500000
O O8 0.935624 0.804267 0.468801
O O9 0.222284 0.749627 0.747485
#
# Coordination Sequence:
#
# PCOD8247098 Si02
#       5
#     8   4   8   4   8
#     4  12  25  47  75 110 153 199 250 316 377 449
#     4  12  27  46  76 104 148 200 248 310 390 452
#     4  10  20  39  72 104 144 201 247 291 370 451
#     4  12  29  50  78 116 150 196 262 318 382 456
#     4  12  29  51  77 110 151 200 255 318 389 460
#
# _framework density 24.066348999999999
#
# number of rings (size 3 to 8) (size 9 to 14) (size 15 to 20)
#    0.000    0.500    5.000    3.750    0.000   10.000 
#    0.000    1.250    0.000    0.000    0.000    0.000 
#    0.000    0.000    0.000    0.000    0.000    0.000 
#
# Total GULP energy -396495.502741 kJ/mol
# GULP energy per Si atom -12390.484461 kJ/mol
# Density = 2.401157 g / cm^3
# Si number density = 24.066349 Si / 1000 Ang^3
#
#
#
# Elastic Constant Matrix: (Units=GPa)
#
#
# Indices 1 2 3 4 5 6 
#
# 1 94.4413 51.7136 38.8222 0.0000 0.0000 0.0000
# 2 51.7136 212.2002 97.0934 0.0000 0.0000 0.0000
# 3 38.8222 97.0934 197.3589 0.0000 0.0000 0.0000
# 4 0.0000 0.0000 0.0000 35.7244 0.0000 0.0000
# 5 0.0000 0.0000 0.0000 0.0000 29.7339 0.0000
# 6 0.0000 0.0000 0.0000 0.0000 0.0000 16.4111
#
#
#
# Elastic Compliance Matrix: (Units=1/GPa)
#
#
# Indices 1 2 3 4 5 6 
#
# 1 0.012448 -0.002469 -0.001234 0.000000 0.000000 0.000000
# 2 -0.002469 0.006571 -0.002747 0.000000 0.000000 0.000000
# 3 -0.001234 -0.002747 0.006661 0.000000 0.000000 0.000000
# 4 0.000000 0.000000 0.000000 0.027992 0.000000 0.000000
# 5 0.000000 0.000000 0.000000 0.000000 0.033632 0.000000
# 6 0.000000 0.000000 0.000000 0.000000 0.000000 0.060934
#
#
# Mechanical properties :
#
#
# Convention : Reuss Voigt Hill
#
# Bulk Modulus (GPa) = 78.24703 97.69542 87.97122
# Shear Modulus (GPa) = 30.23009 37.46530 33.84770
#
# Velocity S-wave (km/s) = 3.54802 3.94985 3.75431
# Velocity P-wave (km/s) = 7.02625 7.84118 7.44487
#
# Compressibility (1/GPa) = 0.01278004
#
# Stress axis : x y z
#
# Youngs Moduli (GPa) = 80.33577 152.17981 150.12487
#
# Poissons Ratio (x) = 0.37572 0.18525
# Poissons Ratio (y) = 0.19834 0.41241
# Poissons Ratio (z) = 0.09913 0.41806
#
# Static dielectric constant tensor:
#      x y z
#    x 3.944950 0.000000 0.000000 
#    y 0.000000 4.663740 0.000000 
#    z 0.000000 0.000000 4.649430 
# 
# 
# High freq. dielectric constant tensor:
#      x y z
#    x 1.933480 0.000000 0.000000 
#    y 0.000000 1.977370 0.000000 
#    z 0.000000 0.000000 1.965330 
# 
# From -- ./inp_files/455.got.cif
#   From: 2010.03.12/outbox.cif.g09.slc.cpg/sg60_1_cif.got.tgz:455.got - 2010.04.10 18:46:24.
