data_PCOD8247858
_publ_section_title
;
Structure prediction by ZEFSAII (Michael W. Deem and Ramdas Pophale) SiO2 
 PCOD8247858
Probable space group: P B C N
;
_chemical_formula_sum "Si O2"
_cell_formula_units_Z 40
_cell_length_a 14.061870
_cell_length_b 14.437485
_cell_length_c 9.452088
_cell_angle_alpha 90.000000
_cell_angle_beta 90.000000
_cell_angle_gamma 90.000000
_cell_volume 1918.944353
_symmetry_space_group_name_H-M "P B C N"
_symmetry_group_IT_number 60
_symmetry_cell_setting 'orthorhombic'
loop_
_space_group_symop_operation_xyz
x,y,z
1/2-x,1/2-y,1/2+z
1/2+x,1/2-y,-z
-x,y,1/2-z
-x,-y,-z
1/2+x,1/2+y,1/2-z
1/2-x,1/2+y,z
x,-y,1/2+z
loop_
_atom_site_type_symbol
_atom_site_label
_atom_site_fract_x
_atom_site_fract_y
_atom_site_fract_z
Si Si1 0.560755 0.250382 0.448716
Si Si2 0.292069 0.105391 0.968292
Si Si3 0.442927 0.563948 0.391051
Si Si4 0.759733 0.446565 0.716761
Si Si5 0.854154 0.745609 0.149034
O O1 0.609978 0.159366 0.509903
O O2 0.577349 0.335210 0.550685
O O3 0.449031 0.227295 0.441172
O O4 0.611018 0.279107 0.302175
O O5 0.208018 0.174928 0.923270
O O6 0.321522 0.030942 0.847476
O O7 0.260147 0.053673 0.113208
O O8 0.500000 0.576397 0.250000
O O9 0.500000 0.500000 0.500000
O O10 0.341892 0.521957 0.347405
O O11 0.793677 0.348217 0.656758
#
# Coordination Sequence:
#
# PCOD8247858 Si02
#       5
#     8   8   8   8   8
#     4  10  23  43  66  95 131 179 218 275 336 387
#     4  11  24  43  68  96 137 169 226 275 329 402
#     4  12  25  41  65 100 133 169 223 267 333 397
#     4  11  24  41  65  96 129 178 215 272 335 385
#     4  10  22  43  68  93 135 172 222 279 328 396
#
# _framework density 20.844792999999999
#
# number of rings (size 3 to 8) (size 9 to 14) (size 15 to 20)
#    0.000    1.200    2.000    3.600    8.400    0.800 
#    3.600    0.000    0.000    0.000    0.000    0.000 
#    0.000    0.000    0.000    0.000    0.000    0.000 
#
# Total GULP energy -495996.862616 kJ/mol
# GULP energy per Si atom -12399.921565 kJ/mol
# Density = 2.079735 g / cm^3
# Si number density = 20.844793 Si / 1000 Ang^3
#
#
#
# Elastic Constant Matrix: (Units=GPa)
#
#
# Indices 1 2 3 4 5 6 
#
# 1 77.1442 27.8872 41.9631 0.0000 0.0000 0.0000
# 2 27.8872 108.8165 75.1607 0.0000 0.0000 0.0000
# 3 41.9631 75.1607 106.5357 0.0000 0.0000 0.0000
# 4 0.0000 0.0000 0.0000 48.8966 0.0000 0.0000
# 5 0.0000 0.0000 0.0000 0.0000 28.2099 0.0000
# 6 0.0000 0.0000 0.0000 0.0000 0.0000 27.8632
#
#
#
# Elastic Compliance Matrix: (Units=1/GPa)
#
#
# Indices 1 2 3 4 5 6 
#
# 1 0.016512 0.000508 -0.006862 0.000000 0.000000 0.000000
# 2 0.000508 0.017940 -0.012857 0.000000 0.000000 0.000000
# 3 -0.006862 -0.012857 0.021160 0.000000 0.000000 0.000000
# 4 0.000000 0.000000 0.000000 0.020451 0.000000 0.000000
# 5 0.000000 0.000000 0.000000 0.000000 0.035449 0.000000
# 6 0.000000 0.000000 0.000000 0.000000 0.000000 0.035890
#
#
# Mechanical properties :
#
#
# Convention : Reuss Voigt Hill
#
# Bulk Modulus (GPa) = 58.17354 64.72428 61.44891
# Shear Modulus (GPa) = 26.10247 30.82630 28.46438
#
# Velocity S-wave (km/s) = 3.54252 3.84975 3.69933
# Velocity P-wave (km/s) = 6.68589 7.13294 6.91303
#
# Compressibility (1/GPa) = 0.01718995
#
# Stress axis : x y z
#
# Youngs Moduli (GPa) = 60.56250 55.74203 47.25904
#
# Poissons Ratio (x) = -0.02834 0.32431
# Poissons Ratio (y) = -0.03079 0.60760
# Poissons Ratio (z) = 0.41561 0.71666
#
# Static dielectric constant tensor:
#      x y z
#    x 3.864950 0.000000 0.000000 
#    y 0.000000 3.749830 0.000000 
#    z 0.000000 0.000000 3.961550 
# 
# 
# High freq. dielectric constant tensor:
#      x y z
#    x 1.823080 0.000000 0.000000 
#    y 0.000000 1.822720 0.000000 
#    z 0.000000 0.000000 1.824080 
# 
# From -- ./inp_files/5653.got.cif
#   From: 2010.03.12/outbox.cif.g09.slc.cpg/sg60_3_cif.got.tgz:5653.got - 2010.04.10 18:46:24.
