data_PCOD8247896
_publ_section_title
;
Structure prediction by ZEFSAII (Michael W. Deem and Ramdas Pophale) SiO2 
 PCOD8247896
Probable space group: P B C N
;
_chemical_formula_sum "Si O2"
_cell_formula_units_Z 56
_cell_length_a 19.390897
_cell_length_b 8.448709
_cell_length_c 15.802832
_cell_angle_alpha 90.000000
_cell_angle_beta 90.000000
_cell_angle_gamma 90.000000
_cell_volume 2588.947088
_symmetry_space_group_name_H-M "P B C N"
_symmetry_group_IT_number 60
_symmetry_cell_setting 'orthorhombic'
loop_
_space_group_symop_operation_xyz
x,y,z
1/2-x,1/2-y,1/2+z
1/2+x,1/2-y,-z
-x,y,1/2-z
-x,-y,-z
1/2+x,1/2+y,1/2-z
1/2-x,1/2+y,z
x,-y,1/2+z
loop_
_atom_site_type_symbol
_atom_site_label
_atom_site_fract_x
_atom_site_fract_y
_atom_site_fract_z
Si Si1 0.343496 0.311176 0.435518
Si Si2 0.172651 0.875539 0.245526
Si Si3 0.606233 0.219222 0.407084
Si Si4 0.318754 0.737680 0.269440
Si Si5 0.556546 0.088961 0.816136
Si Si6 0.483022 0.183845 0.514696
Si Si7 0.796883 0.167582 0.041942
O O1 0.355906 0.314498 0.335038
O O2 0.412006 0.246853 0.477433
O O3 0.285842 0.181539 0.460363
O O4 0.320645 0.485414 0.467418
O O5 0.117384 0.826593 0.175050
O O6 0.249192 0.809264 0.230134
O O7 0.177687 0.061094 0.237644
O O8 0.543362 0.282290 0.466904
O O9 0.674025 0.226777 0.465343
O O10 0.591762 0.044328 0.373485
O O11 0.384372 0.830199 0.237117
O O12 0.321453 0.747834 0.370792
O O13 0.500000 0.022503 0.750000
O O14 0.519954 0.210035 0.883204
O O15 0.500000 0.000000 0.500000
#
# Coordination Sequence:
#
# PCOD8247896 Si02
#       7
#     8   8   8   8   8   8   8
#     4  10  24  44  70 101 140 181 229 281 355 407
#     4  10  23  41  70 101 133 180 223 290 336 411
#     4  11  25  42  69 100 132 180 232 283 344 403
#     4  10  22  46  66 102 137 177 228 277 349 410
#     4  11  25  44  69  98 138 185 226 279 344 414
#     4  10  25  43  67 100 135 181 227 282 346 412
#     4  10  24  43  71 102 138 180 227 292 340 413
#
# _framework density 21.630414999999999
#
# number of rings (size 3 to 8) (size 9 to 14) (size 15 to 20)
#    0.000    1.714    0.000    1.714   12.000    1.714 
#    5.143    0.000    0.000    0.000    0.000    0.000 
#    0.000    0.000    0.000    0.000    0.000    0.000 
#
# Total GULP energy -694231.447436 kJ/mol
# GULP energy per Si atom -12396.990133 kJ/mol
# Density = 2.158118 g / cm^3
# Si number density = 21.630415 Si / 1000 Ang^3
#
#
#
# Elastic Constant Matrix: (Units=GPa)
#
#
# Indices 1 2 3 4 5 6 
#
# 1 82.1290 38.0424 43.8143 0.0000 0.0000 0.0000
# 2 38.0424 71.7814 30.9196 0.0000 0.0000 0.0000
# 3 43.8143 30.9196 113.0768 0.0000 0.0000 0.0000
# 4 0.0000 0.0000 0.0000 27.5784 0.0000 0.0000
# 5 0.0000 0.0000 0.0000 0.0000 44.8672 0.0000
# 6 0.0000 0.0000 0.0000 0.0000 0.0000 37.8779
#
#
#
# Elastic Compliance Matrix: (Units=1/GPa)
#
#
# Indices 1 2 3 4 5 6 
#
# 1 0.018373 -0.007561 -0.005052 0.000000 0.000000 0.000000
# 2 -0.007561 0.018903 -0.002239 0.000000 0.000000 0.000000
# 3 -0.005052 -0.002239 0.011413 0.000000 0.000000 0.000000
# 4 0.000000 0.000000 0.000000 0.036260 0.000000 0.000000
# 5 0.000000 0.000000 0.000000 0.000000 0.022288 0.000000
# 6 0.000000 0.000000 0.000000 0.000000 0.000000 0.026401
#
#
# Mechanical properties :
#
#
# Convention : Reuss Voigt Hill
#
# Bulk Modulus (GPa) = 52.67189 54.72665 53.69927
# Shear Modulus (GPa) = 29.46879 32.34542 30.90711
#
# Velocity S-wave (km/s) = 3.69504 3.87119 3.78414
# Velocity P-wave (km/s) = 6.52749 6.73329 6.63119
#
# Compressibility (1/GPa) = 0.01898546
#
# Stress axis : x y z
#
# Youngs Moduli (GPa) = 54.42644 52.90164 87.61840
#
# Poissons Ratio (x) = 0.40002 0.44261
# Poissons Ratio (y) = 0.41155 0.19617
# Poissons Ratio (z) = 0.27494 0.11844
#
# Static dielectric constant tensor:
#      x y z
#    x 3.922260 0.000000 0.000000 
#    y 0.000000 3.804920 0.000000 
#    z 0.000000 0.000000 4.488220 
# 
# 
# High freq. dielectric constant tensor:
#      x y z
#    x 1.855970 0.000000 0.000000 
#    y 0.000000 1.835460 0.000000 
#    z 0.000000 0.000000 1.869090 
# 
# From -- ./inp_files/17714.got.cif
#   From: 2010.03.12/outbox.cif.g09.slc.cpg/sg60_9_cif.got.tgz:17714.got - 2010.04.10 18:46:24.
