data_PCOD8247205
_publ_section_title
;
Structure prediction by ZEFSAII (Michael W. Deem and Ramdas Pophale) SiO2 
 PCOD8247205
Probable space group: P B C N
;
_chemical_formula_sum "Si O2"
_cell_formula_units_Z 48
_cell_length_a 9.270753
_cell_length_b 15.734919
_cell_length_c 14.812833
_cell_angle_alpha 90.000000
_cell_angle_beta 90.000000
_cell_angle_gamma 90.000000
_cell_volume 2160.815311
_symmetry_space_group_name_H-M "P B C N"
_symmetry_group_IT_number 60
_symmetry_cell_setting 'orthorhombic'
loop_
_space_group_symop_operation_xyz
x,y,z
1/2-x,1/2-y,1/2+z
1/2+x,1/2-y,-z
-x,y,1/2-z
-x,-y,-z
1/2+x,1/2+y,1/2-z
1/2-x,1/2+y,z
x,-y,1/2+z
loop_
_atom_site_type_symbol
_atom_site_label
_atom_site_fract_x
_atom_site_fract_y
_atom_site_fract_z
Si Si1 0.873873 0.492894 0.072827
Si Si2 0.698741 0.183039 0.083583
Si Si3 0.500000 0.437592 0.750000
Si Si4 0.000000 0.529393 0.250000
Si Si5 0.271077 0.166596 0.215274
Si Si6 0.570399 0.449647 0.081231
Si Si7 0.914142 0.225335 0.933207
O O1 0.791313 0.582106 0.079000
O O2 0.739352 0.428628 0.053803
O O3 0.939978 0.469231 0.170670
O O4 0.000000 0.500000 0.000000
O O5 0.715636 0.212054 0.187295
O O6 0.543574 0.210335 0.045948
O O7 0.828907 0.220697 0.026452
O O8 0.385139 0.375431 0.701733
O O9 0.428968 0.495997 0.826680
O O10 0.116276 0.590174 0.202610
O O11 0.304346 0.239763 0.142605
O O12 0.481121 0.363988 0.098782
O O13 0.500000 0.500000 0.000000
#
# Coordination Sequence:
#
# PCOD8247205 Si02
#       7
#     8   8   4   4   8   8   8
#     4  11  24  45  71 100 138 184 235 285 357 423
#     4  11  25  46  65 104 136 184 233 289 353 420
#     4  12  26  45  76 101 142 186 236 296 356 431
#     4  10  20  45  68  97 134 186 224 278 350 413
#     4  11  23  46  70  98 136 190 232 280 360 418
#     4  12  27  45  67 110 144 183 237 294 361 424
#     4  12  26  43  76  99 146 185 234 296 356 435
#
# _framework density 22.213837999999999
#
# number of rings (size 3 to 8) (size 9 to 14) (size 15 to 20)
#    0.000    0.667    8.333    0.000   11.667    0.000 
#    0.000    0.000    0.000    0.000    0.000    0.000 
#    0.000    0.000    0.000    0.000    0.000    0.000 
#
# Total GULP energy -595174.369568 kJ/mol
# GULP energy per Si atom -12399.466033 kJ/mol
# Density = 2.216328 g / cm^3
# Si number density = 22.213838 Si / 1000 Ang^3
#
#
#
# Elastic Constant Matrix: (Units=GPa)
#
#
# Indices 1 2 3 4 5 6 
#
# 1 139.6217 23.4555 34.2779 0.0000 0.0000 0.0000
# 2 23.4555 60.1894 16.0410 0.0000 0.0000 0.0000
# 3 34.2779 16.0410 104.1133 0.0000 0.0000 0.0000
# 4 0.0000 0.0000 0.0000 28.0495 0.0000 0.0000
# 5 0.0000 0.0000 0.0000 0.0000 45.4962 0.0000
# 6 0.0000 0.0000 0.0000 0.0000 0.0000 34.8185
#
#
#
# Elastic Compliance Matrix: (Units=1/GPa)
#
#
# Indices 1 2 3 4 5 6 
#
# 1 0.008156 -0.002568 -0.002289 0.000000 0.000000 0.000000
# 2 -0.002568 0.018134 -0.001948 0.000000 0.000000 0.000000
# 3 -0.002289 -0.001948 0.010659 0.000000 0.000000 0.000000
# 4 0.000000 0.000000 0.000000 0.035651 0.000000 0.000000
# 5 0.000000 0.000000 0.000000 0.000000 0.021980 0.000000
# 6 0.000000 0.000000 0.000000 0.000000 0.000000 0.028720
#
#
# Mechanical properties :
#
#
# Convention : Reuss Voigt Hill
#
# Bulk Modulus (GPa) = 42.85078 50.16369 46.50724
# Shear Modulus (GPa) = 34.55631 37.01617 35.78624
#
# Velocity S-wave (km/s) = 3.94841 4.08653 4.01807
# Velocity P-wave (km/s) = 6.33393 6.70056 6.51982
#
# Compressibility (1/GPa) = 0.02333680
#
# Stress axis : x y z
#
# Youngs Moduli (GPa) = 122.61349 55.14422 93.81814
#
# Poissons Ratio (x) = 0.14161 0.21480
# Poissons Ratio (y) = 0.31488 0.18280
# Poissons Ratio (z) = 0.28072 0.10745
#
# Static dielectric constant tensor:
#      x y z
#    x 4.274510 0.000000 0.000000 
#    y 0.000000 3.887110 0.000000 
#    z 0.000000 0.000000 3.617010 
# 
# 
# High freq. dielectric constant tensor:
#      x y z
#    x 1.896540 0.000000 0.000000 
#    y 0.000000 1.849570 0.000000 
#    z 0.000000 0.000000 1.879950 
# 
# From -- ./inp_files/15062.got.cif
#   From: 2010.03.12/outbox.cif.g09.slc.cpg/sg60_8_cif.got.tgz:15062.got - 2010.04.10 18:46:24.
