data_PCOD8247592
_publ_section_title
;
Structure prediction by ZEFSAII (Michael W. Deem and Ramdas Pophale) SiO2 
 PCOD8247592
Probable space group: P B C N
;
_chemical_formula_sum "Si O2"
_cell_formula_units_Z 32
_cell_length_a 11.167765
_cell_length_b 14.665148
_cell_length_c 8.052946
_cell_angle_alpha 90.000000
_cell_angle_beta 90.000000
_cell_angle_gamma 90.000000
_cell_volume 1318.886746
_symmetry_space_group_name_H-M "P B C N"
_symmetry_group_IT_number 60
_symmetry_cell_setting 'orthorhombic'
loop_
_space_group_symop_operation_xyz
x,y,z
1/2-x,1/2-y,1/2+z
1/2+x,1/2-y,-z
-x,y,1/2-z
-x,-y,-z
1/2+x,1/2+y,1/2-z
1/2-x,1/2+y,z
x,-y,1/2+z
loop_
_atom_site_type_symbol
_atom_site_label
_atom_site_fract_x
_atom_site_fract_y
_atom_site_fract_z
Si Si1 0.361743 0.937501 0.706633
Si Si2 0.964156 0.896126 0.990497
Si Si3 0.830523 0.179515 0.174563
Si Si4 0.726327 0.882426 0.152646
O O1 0.500000 0.938343 0.750000
O O2 0.298708 0.869496 0.841056
O O3 0.339261 0.903144 0.520871
O O4 0.308667 0.039763 0.717156
O O5 0.893248 0.875227 0.822340
O O6 0.087225 0.835705 0.990977
O O7 0.871733 0.875230 0.139808
O O8 0.000000 0.000000 0.000000
O O9 0.820245 0.285552 0.219316
#
# Coordination Sequence:
#
# PCOD8247592 Si02
#       4
#     8   8   8   8
#     4  11  25  45  67 104 144 186 233 296 371 426
#     4  10  21  46  71  96 140 187 245 306 356 430
#     4  10  24  43  69 107 138 186 245 301 366 439
#     4  11  25  44  73 102 142 189 238 303 360 441
#
# _framework density 24.262886000000002
#
# number of rings (size 3 to 8) (size 9 to 14) (size 15 to 20)
#    0.000    1.500    2.500    0.750    7.000    4.000 
#    0.000    0.000    0.000    0.000    0.000    0.000 
#    0.000    0.000    0.000    0.000    0.000    0.000 
#
# Total GULP energy -396650.405555 kJ/mol
# GULP energy per Si atom -12395.325174 kJ/mol
# Density = 2.420766 g / cm^3
# Si number density = 24.262886 Si / 1000 Ang^3
#
#
#
# Elastic Constant Matrix: (Units=GPa)
#
#
# Indices 1 2 3 4 5 6 
#
# 1 126.4866 63.2527 12.9077 0.0000 0.0000 0.0000
# 2 63.2527 217.8066 29.0154 0.0000 0.0000 0.0000
# 3 12.9077 29.0154 42.7681 0.0000 0.0000 0.0000
# 4 0.0000 0.0000 0.0000 40.0492 0.0000 0.0000
# 5 0.0000 0.0000 0.0000 0.0000 19.7755 0.0000
# 6 0.0000 0.0000 0.0000 0.0000 0.0000 39.1619
#
#
#
# Elastic Compliance Matrix: (Units=1/GPa)
#
#
# Indices 1 2 3 4 5 6 
#
# 1 0.009294 -0.002556 -0.001071 0.000000 0.000000 0.000000
# 2 -0.002556 0.005751 -0.003130 0.000000 0.000000 0.000000
# 3 -0.001071 -0.003130 0.025828 0.000000 0.000000 0.000000
# 4 0.000000 0.000000 0.000000 0.024969 0.000000 0.000000
# 5 0.000000 0.000000 0.000000 0.000000 0.050568 0.000000
# 6 0.000000 0.000000 0.000000 0.000000 0.000000 0.025535
#
#
# Mechanical properties :
#
#
# Convention : Reuss Voigt Hill
#
# Bulk Modulus (GPa) = 36.55097 66.37921 51.46509
# Shear Modulus (GPa) = 30.38078 38.58967 34.48523
#
# Velocity S-wave (km/s) = 3.54241 3.99241 3.77412
# Velocity P-wave (km/s) = 5.64171 6.97640 6.34425
#
# Compressibility (1/GPa) = 0.02735906
#
# Stress axis : x y z
#
# Youngs Moduli (GPa) = 107.60132 173.89647 38.71700
#
# Poissons Ratio (x) = 0.44453 0.04145
# Poissons Ratio (y) = 0.27506 0.12118
# Poissons Ratio (z) = 0.11520 0.54427
#
# Static dielectric constant tensor:
#      x y z
#    x 5.575930 0.000000 0.000000 
#    y 0.000000 4.340100 0.000000 
#    z 0.000000 0.000000 4.351840 
# 
# 
# High freq. dielectric constant tensor:
#      x y z
#    x 1.989030 0.000000 0.000000 
#    y 0.000000 1.968460 0.000000 
#    z 0.000000 0.000000 1.937950 
# 
# From -- ./inp_files/4511.got.cif
#   From: 2010.03.12/outbox.cif.g09.slc.cpg/sg60_3_cif.got.tgz:4511.got - 2010.04.10 18:46:24.
