data_PCOD8247644
_publ_section_title
;
Structure prediction by ZEFSAII (Michael W. Deem and Ramdas Pophale) SiO2 
 PCOD8247644
Probable space group: P B C N
;
_chemical_formula_sum "Si O2"
_cell_formula_units_Z 64
_cell_length_a 31.810616
_cell_length_b 8.927185
_cell_length_c 11.173983
_cell_angle_alpha 90.000000
_cell_angle_beta 90.000000
_cell_angle_gamma 90.000000
_cell_volume 3173.179357
_symmetry_space_group_name_H-M "P B C N"
_symmetry_group_IT_number 60
_symmetry_cell_setting 'orthorhombic'
loop_
_space_group_symop_operation_xyz
x,y,z
1/2-x,1/2-y,1/2+z
1/2+x,1/2-y,-z
-x,y,1/2-z
-x,-y,-z
1/2+x,1/2+y,1/2-z
1/2-x,1/2+y,z
x,-y,1/2+z
loop_
_atom_site_type_symbol
_atom_site_label
_atom_site_fract_x
_atom_site_fract_y
_atom_site_fract_z
Si Si1 0.524657 0.513591 0.626711
Si Si2 0.796467 0.578733 0.499304
Si Si3 0.911395 0.205647 0.229336
Si Si4 0.159066 0.988100 0.366195
Si Si5 0.592526 0.293248 0.010551
Si Si6 0.743351 0.651246 0.079198
Si Si7 0.377509 0.007532 0.367121
Si Si8 0.686595 0.799304 0.757010
O O1 0.500000 0.557718 0.750000
O O2 0.500000 0.500000 0.500000
O O3 0.548726 0.358129 0.655964
O O4 0.557627 0.645321 0.602029
O O5 0.762690 0.670142 0.580010
O O6 0.773076 0.419890 0.472460
O O7 0.842309 0.569633 0.553285
O O8 0.800885 0.694449 0.392820
O O9 0.920519 0.194546 0.371480
O O10 0.906547 0.378902 0.190509
O O11 0.870262 0.109122 0.199205
O O12 0.134998 0.890725 0.468147
O O13 0.177378 0.872929 0.269625
O O14 0.198024 0.074603 0.422491
O O15 0.597104 0.118938 0.045457
O O16 0.774306 0.621321 0.190641
O O17 0.355648 0.102874 0.262092
#
# Coordination Sequence:
#
# PCOD8247644 Si02
#       8
#     8   8   8   8   8   8   8   8
#     4  11  23  47  75 104 137 168 209 259 318 397
#     4  11  23  36  58  78 121 169 213 270 322 373
#     4  11  22  40  72  96 130 170 210 265 322 397
#     4  10  22  38  57  89 121 162 220 267 324 388
#     4  10  23  42  67  97 131 170 210 262 325 391
#     4  11  22  38  50  83 117 157 221 265 321 376
#     4  10  22  43  58  94 130 163 216 263 317 380
#     4  10  23  38  55  80 122 167 213 272 322 374
#
# _framework density 20.169046000000002
#
# number of rings (size 3 to 8) (size 9 to 14) (size 15 to 20)
#    0.000    1.500    3.750    0.750    3.500    0.000 
#    4.500    1.250    0.000    0.000    0.000    0.000 
#    0.000    0.000    0.000    0.000    0.000    0.000 
#
# Total GULP energy -792883.562556 kJ/mol
# GULP energy per Si atom -12388.805665 kJ/mol
# Density = 2.012314 g / cm^3
# Si number density = 20.169046 Si / 1000 Ang^3
#
#
#
# Elastic Constant Matrix: (Units=GPa)
#
#
# Indices 1 2 3 4 5 6 
#
# 1 77.0346 22.3987 36.8214 0.0000 0.0000 0.0000
# 2 22.3987 98.8382 32.5296 0.0000 0.0000 0.0000
# 3 36.8214 32.5296 96.1221 0.0000 0.0000 0.0000
# 4 0.0000 0.0000 0.0000 24.6153 0.0000 0.0000
# 5 0.0000 0.0000 0.0000 0.0000 22.8638 0.0000
# 6 0.0000 0.0000 0.0000 0.0000 0.0000 31.6666
#
#
#
# Elastic Compliance Matrix: (Units=1/GPa)
#
#
# Indices 1 2 3 4 5 6 
#
# 1 0.016180 -0.001831 -0.005578 0.000000 0.000000 0.000000
# 2 -0.001831 0.011593 -0.003222 0.000000 0.000000 0.000000
# 3 -0.005578 -0.003222 0.013631 0.000000 0.000000 0.000000
# 4 0.000000 0.000000 0.000000 0.040625 0.000000 0.000000
# 5 0.000000 0.000000 0.000000 0.000000 0.043737 0.000000
# 6 0.000000 0.000000 0.000000 0.000000 0.000000 0.031579
#
#
# Mechanical properties :
#
#
# Convention : Reuss Voigt Hill
#
# Bulk Modulus (GPa) = 49.64941 50.61046 50.12993
# Shear Modulus (GPa) = 26.98022 27.84548 27.41285
#
# Velocity S-wave (km/s) = 3.66143 3.71968 3.69067
# Velocity P-wave (km/s) = 6.52264 6.60270 6.56279
#
# Compressibility (1/GPa) = 0.02014123
#
# Stress axis : x y z
#
# Youngs Moduli (GPa) = 61.80502 86.26019 73.36353
#
# Poissons Ratio (x) = 0.15792 0.40926
# Poissons Ratio (y) = 0.11315 0.23637
# Poissons Ratio (z) = 0.34478 0.27793
#
# Static dielectric constant tensor:
#      x y z
#    x 3.715640 0.000000 0.000000 
#    y 0.000000 3.882020 0.000000 
#    z 0.000000 0.000000 3.584930 
# 
# 
# High freq. dielectric constant tensor:
#      x y z
#    x 1.784400 0.000000 0.000000 
#    y 0.000000 1.799540 0.000000 
#    z 0.000000 0.000000 1.775810 
# 
# From -- ./inp_files/13404.got.cif
#   From: 2010.03.12/outbox.cif.g09.slc.cpg/sg60_7_cif.got.tgz:13404.got - 2010.04.10 18:46:24.
