data_PCOD8247843
_publ_section_title
;
Structure prediction by ZEFSAII (Michael W. Deem and Ramdas Pophale) SiO2 
 PCOD8247843
Probable space group: P B C N
;
_chemical_formula_sum "Si O2"
_cell_formula_units_Z 28
_cell_length_a 5.010490
_cell_length_b 15.873332
_cell_length_c 15.733056
_cell_angle_alpha 90.000000
_cell_angle_beta 90.000000
_cell_angle_gamma 90.000000
_cell_volume 1251.299837
_symmetry_space_group_name_H-M "P B C N"
_symmetry_group_IT_number 60
_symmetry_cell_setting 'orthorhombic'
loop_
_space_group_symop_operation_xyz
x,y,z
1/2-x,1/2-y,1/2+z
1/2+x,1/2-y,-z
-x,y,1/2-z
-x,-y,-z
1/2+x,1/2+y,1/2-z
1/2-x,1/2+y,z
x,-y,1/2+z
loop_
_atom_site_type_symbol
_atom_site_label
_atom_site_fract_x
_atom_site_fract_y
_atom_site_fract_z
Si Si1 0.719061 0.585901 0.067405
Si Si2 0.500000 0.615876 0.750000
Si Si3 0.237889 0.276818 0.803645
Si Si4 0.713392 0.982472 0.391787
O O1 0.745255 0.680575 0.103731
O O2 0.417703 0.556157 0.082852
O O3 0.918363 0.521855 0.116949
O O4 0.787815 0.587444 0.967248
O O5 0.676436 0.676308 0.687247
O O6 0.704033 0.559658 0.803451
O O7 0.500000 0.294099 0.750000
O O8 0.000000 0.320658 0.750000
#
# Coordination Sequence:
#
# PCOD8247843 Si02
#       4
#     8   4   8   8
#     4  10  22  43  62  91 121 168 208 259 314 374
#     4  10  26  38  62  98 124 164 206 266 316 384
#     4  10  23  40  58  93 125 167 204 250 324 386
#     4  10  23  40  66  91 122 158 218 261 307 371
#
# _framework density 22.376729999999998
#
# number of rings (size 3 to 8) (size 9 to 14) (size 15 to 20)
#    0.857    1.143    0.000    1.714   10.000    0.000 
#    5.143    0.000    0.000    0.000    0.000    0.000 
#    0.000    0.000    0.000    0.000    0.000    0.000 
#
# Total GULP energy -347118.286060 kJ/mol
# GULP energy per Si atom -12397.081645 kJ/mol
# Density = 2.232580 g / cm^3
# Si number density = 22.376730 Si / 1000 Ang^3
#
#
#
# Elastic Constant Matrix: (Units=GPa)
#
#
# Indices 1 2 3 4 5 6 
#
# 1 104.8897 -9.6291 3.7836 0.0000 0.0000 0.0000
# 2 -9.6291 47.5221 27.1044 0.0000 0.0000 0.0000
# 3 3.7836 27.1044 76.8467 0.0000 0.0000 0.0000
# 4 0.0000 0.0000 0.0000 30.6647 0.0000 0.0000
# 5 0.0000 0.0000 0.0000 0.0000 33.9522 0.0000
# 6 0.0000 0.0000 0.0000 0.0000 0.0000 95.5688
#
#
#
# Elastic Compliance Matrix: (Units=1/GPa)
#
#
# Indices 1 2 3 4 5 6 
#
# 1 0.009849 0.002844 -0.001488 0.000000 0.000000 0.000000
# 2 0.002844 0.027163 -0.009721 0.000000 0.000000 0.000000
# 3 -0.001488 -0.009721 0.016515 0.000000 0.000000 0.000000
# 4 0.000000 0.000000 0.000000 0.032611 0.000000 0.000000
# 5 0.000000 0.000000 0.000000 0.000000 0.029453 0.000000
# 6 0.000000 0.000000 0.000000 0.000000 0.000000 0.010464
#
#
# Mechanical properties :
#
#
# Convention : Reuss Voigt Hill
#
# Bulk Modulus (GPa) = 27.17564 30.19738 28.68651
# Shear Modulus (GPa) = 32.24778 45.90380 39.07579
#
# Velocity S-wave (km/s) = 3.80034 4.53416 4.18337
# Velocity P-wave (km/s) = 5.60605 6.39811 6.01513
#
# Compressibility (1/GPa) = 0.03679765
#
# Stress axis : x y z
#
# Youngs Moduli (GPa) = 101.53710 36.81420 60.55184
#
# Poissons Ratio (x) = -0.10471 0.09011
# Poissons Ratio (y) = -0.28880 0.58861
# Poissons Ratio (z) = 0.15110 0.35786
#
# Static dielectric constant tensor:
#      x y z
#    x 4.125560 0.000000 0.000000 
#    y 0.000000 3.669460 0.000000 
#    z 0.000000 0.000000 3.746930 
# 
# 
# High freq. dielectric constant tensor:
#      x y z
#    x 1.900860 0.000000 0.000000 
#    y 0.000000 1.854700 0.000000 
#    z 0.000000 0.000000 1.865390 
# 
# From -- ./inp_files/18480.got.cif
#   From: 2010.03.12/outbox.cif.g09.slc.cpg/sg60_10_cif.got.tgz:18480.got - 2010.04.10 18:46:24.
