data_PCOD8247054
_publ_section_title
;
Structure prediction by ZEFSAII (Michael W. Deem and Ramdas Pophale) SiO2 
 PCOD8247054
Probable space group: P B C N
;
_chemical_formula_sum "Si O2"
_cell_formula_units_Z 60
_cell_length_a 12.013895
_cell_length_b 10.839350
_cell_length_c 20.685028
_cell_angle_alpha 90.000000
_cell_angle_beta 90.000000
_cell_angle_gamma 90.000000
_cell_volume 2693.662528
_symmetry_space_group_name_H-M "P B C N"
_symmetry_group_IT_number 60
_symmetry_cell_setting 'orthorhombic'
loop_
_space_group_symop_operation_xyz
x,y,z
1/2-x,1/2-y,1/2+z
1/2+x,1/2-y,-z
-x,y,1/2-z
-x,-y,-z
1/2+x,1/2+y,1/2-z
1/2-x,1/2+y,z
x,-y,1/2+z
loop_
_atom_site_type_symbol
_atom_site_label
_atom_site_fract_x
_atom_site_fract_y
_atom_site_fract_z
Si Si1 0.690129 0.697351 0.964954
Si Si2 0.468393 0.428407 0.129656
Si Si3 0.723290 0.547320 0.647493
Si Si4 0.899644 0.379458 0.050781
Si Si5 0.874070 0.468352 0.430823
Si Si6 0.500000 0.730080 0.750000
Si Si7 0.216078 0.878139 0.639336
Si Si8 0.729773 0.199241 0.222061
O O1 0.578971 0.652249 0.929040
O O2 0.777873 0.588813 0.976170
O O3 0.763958 0.791431 0.922030
O O4 0.654219 0.744741 0.036820
O O5 0.600064 0.441148 0.117779
O O6 0.443895 0.357352 0.196385
O O7 0.405628 0.559711 0.133921
O O8 0.813947 0.537298 0.590958
O O9 0.720759 0.419987 0.686894
O O10 0.758002 0.668045 0.689899
O O11 0.020703 0.379179 0.086152
O O12 0.920640 0.422206 0.976159
O O13 0.815625 0.517981 0.364781
O O14 0.403981 0.816576 0.778853
O O15 0.222723 0.800670 0.705165
#
# Coordination Sequence:
#
# PCOD8247054 Si02
#       8
#     8   8   8   8   8   4   8   8
#     4  10  21  38  65  91 120 174 214 269 322 391
#     4  10  21  41  63  95 130 175 211 268 338 389
#     4  11  27  41  66  98 134 174 212 274 338 388
#     4  10  23  41  61  91 126 169 218 271 319 384
#     4   9  22  39  64  86 123 167 216 272 316 388
#     4  10  20  38  68  88 132 172 210 256 336 406
#     4  10  20  40  65  92 122 166 229 260 321 397
#     4  11  24  41  65  96 130 175 214 270 328 396
#
# _framework density 22.274504
#
# number of rings (size 3 to 8) (size 9 to 14) (size 15 to 20)
#    0.000    1.867    1.333    1.600    7.467    3.200 
#    0.000    3.333    0.000    0.000    0.000    0.000 
#    0.000    0.000    0.000    0.000    0.000    0.000 
#
# Total GULP energy -743551.752229 kJ/mol
# GULP energy per Si atom -12392.529204 kJ/mol
# Density = 2.222381 g / cm^3
# Si number density = 22.274504 Si / 1000 Ang^3
#
#
#
# Elastic Constant Matrix: (Units=GPa)
#
#
# Indices 1 2 3 4 5 6 
#
# 1 122.9621 12.2198 11.1641 0.0000 0.0000 0.0000
# 2 12.2198 73.8402 4.1427 0.0000 0.0000 0.0000
# 3 11.1641 4.1427 50.7039 0.0000 0.0000 0.0000
# 4 0.0000 0.0000 0.0000 30.7801 0.0000 0.0000
# 5 0.0000 0.0000 0.0000 0.0000 22.7362 0.0000
# 6 0.0000 0.0000 0.0000 0.0000 0.0000 24.5637
#
#
#
# Elastic Compliance Matrix: (Units=1/GPa)
#
#
# Indices 1 2 3 4 5 6 
#
# 1 0.008420 -0.001295 -0.001748 0.000000 0.000000 0.000000
# 2 -0.001295 0.013804 -0.000843 0.000000 0.000000 0.000000
# 3 -0.001748 -0.000843 0.020176 0.000000 0.000000 0.000000
# 4 0.000000 0.000000 0.000000 0.032488 0.000000 0.000000
# 5 0.000000 0.000000 0.000000 0.000000 0.043983 0.000000
# 6 0.000000 0.000000 0.000000 0.000000 0.000000 0.040711
#
#
# Mechanical properties :
#
#
# Convention : Reuss Voigt Hill
#
# Bulk Modulus (GPa) = 28.87813 33.61772 31.24792
# Shear Modulus (GPa) = 27.94900 30.28131 29.11515
#
# Velocity S-wave (km/s) = 3.54609 3.69109 3.61932
# Velocity P-wave (km/s) = 5.45520 5.76981 5.61471
#
# Compressibility (1/GPa) = 0.03462829
#
# Stress axis : x y z
#
# Youngs Moduli (GPa) = 118.76438 72.44070 49.56361
#
# Poissons Ratio (x) = 0.09384 0.08664
# Poissons Ratio (y) = 0.15384 0.04177
# Poissons Ratio (z) = 0.20761 0.06104
#
# Static dielectric constant tensor:
#      x y z
#    x 4.185720 0.000000 0.000000 
#    y 0.000000 4.187540 0.000000 
#    z 0.000000 0.000000 3.818820 
# 
# 
# High freq. dielectric constant tensor:
#      x y z
#    x 1.883660 0.000000 0.000000 
#    y 0.000000 1.874460 0.000000 
#    z 0.000000 0.000000 1.858880 
# 
# From -- ./inp_files/22667.got.cif
#   From: 2010.03.12/outbox.cif.g09.slc.cpg/sg60_12_cif.got.tgz:22667.got - 2010.04.10 18:46:24.
