data_PCOD8247984
_publ_section_title
;
Structure prediction by ZEFSAII (Michael W. Deem and Ramdas Pophale) SiO2 
 PCOD8247984
Probable space group: P B C N
;
_chemical_formula_sum "Si O2"
_cell_formula_units_Z 56
_cell_length_a 12.562690
_cell_length_b 13.181231
_cell_length_c 12.944793
_cell_angle_alpha 90.000000
_cell_angle_beta 90.000000
_cell_angle_gamma 90.000000
_cell_volume 2143.550523
_symmetry_space_group_name_H-M "P B C N"
_symmetry_group_IT_number 60
_symmetry_cell_setting 'orthorhombic'
loop_
_space_group_symop_operation_xyz
x,y,z
1/2-x,1/2-y,1/2+z
1/2+x,1/2-y,-z
-x,y,1/2-z
-x,-y,-z
1/2+x,1/2+y,1/2-z
1/2-x,1/2+y,z
x,-y,1/2+z
loop_
_atom_site_type_symbol
_atom_site_label
_atom_site_fract_x
_atom_site_fract_y
_atom_site_fract_z
Si Si1 0.255697 0.125089 0.365291
Si Si2 0.630440 0.674030 0.596201
Si Si3 0.713197 0.446227 0.267936
Si Si4 0.263691 0.149690 0.103019
Si Si5 0.114647 0.535467 0.532701
Si Si6 0.388800 0.799259 0.193425
Si Si7 0.110155 0.163206 0.548596
O O1 0.336546 0.219106 0.349622
O O2 0.150012 0.156631 0.429454
O O3 0.231904 0.068322 0.254637
O O4 0.316097 0.039011 0.429971
O O5 0.625547 0.588479 0.684551
O O6 0.714719 0.644802 0.510029
O O7 0.515760 0.667986 0.542969
O O8 0.817303 0.378291 0.241417
O O9 0.663322 0.428634 0.383520
O O10 0.324026 0.038155 0.117277
O O11 0.172679 0.191412 0.184791
O O12 0.355986 0.232949 0.104022
O O13 0.101896 0.649344 0.579461
O O14 0.000000 0.500000 0.500000
O O15 0.500000 0.782515 0.250000
#
# Coordination Sequence:
#
# PCOD8247984 Si02
#       7
#     8   8   8   8   8   8   8
#     4  11  23  44  72 102 144 193 246 302 372 438
#     4  11  22  41  71  99 138 196 240 301 382 434
#     4  11  23  43  68 104 150 185 247 311 361 447
#     4  10  23  42  70 104 147 187 246 312 371 442
#     4  12  22  43  76 105 138 196 251 300 368 447
#     4  11  25  45  70 108 154 186 245 318 369 445
#     4  10  23  44  66 105 152 185 249 313 364 445
#
# _framework density 26.124880000000001
#
# number of rings (size 3 to 8) (size 9 to 14) (size 15 to 20)
#    0.000    1.143    5.714    2.143    0.000    4.000 
#    0.000    1.429    0.000    0.000    0.000    0.000 
#    0.000    0.000    0.000    0.000    0.000    0.000 
#
# Total GULP energy -694058.460179 kJ/mol
# GULP energy per Si atom -12393.901075 kJ/mol
# Density = 2.606542 g / cm^3
# Si number density = 26.124880 Si / 1000 Ang^3
#
#
#
# Elastic Constant Matrix: (Units=GPa)
#
#
# Indices 1 2 3 4 5 6 
#
# 1 133.9864 57.6240 34.7104 0.0000 0.0000 0.0000
# 2 57.6240 167.3101 46.8989 0.0000 0.0000 0.0000
# 3 34.7104 46.8989 75.6716 0.0000 0.0000 0.0000
# 4 0.0000 0.0000 0.0000 43.9929 0.0000 0.0000
# 5 0.0000 0.0000 0.0000 0.0000 37.4377 0.0000
# 6 0.0000 0.0000 0.0000 0.0000 0.0000 26.4588
#
#
#
# Elastic Compliance Matrix: (Units=1/GPa)
#
#
# Indices 1 2 3 4 5 6 
#
# 1 0.009205 -0.002405 -0.002732 0.000000 0.000000 0.000000
# 2 -0.002405 0.007862 -0.003769 0.000000 0.000000 0.000000
# 3 -0.002732 -0.003769 0.016804 0.000000 0.000000 0.000000
# 4 0.000000 0.000000 0.000000 0.022731 0.000000 0.000000
# 5 0.000000 0.000000 0.000000 0.000000 0.026711 0.000000
# 6 0.000000 0.000000 0.000000 0.000000 0.000000 0.037795
#
#
# Mechanical properties :
#
#
# Convention : Reuss Voigt Hill
#
# Bulk Modulus (GPa) = 62.27025 72.82608 67.54817
# Shear Modulus (GPa) = 34.65635 37.42688 36.04162
#
# Velocity S-wave (km/s) = 3.64616 3.78910 3.71831
# Velocity P-wave (km/s) = 6.45084 6.86146 6.65931
#
# Compressibility (1/GPa) = 0.01605903
#
# Stress axis : x y z
#
# Youngs Moduli (GPa) = 108.63187 127.19850 59.50807
#
# Poissons Ratio (x) = 0.30586 0.16259
# Poissons Ratio (y) = 0.26122 0.22431
# Poissons Ratio (z) = 0.29680 0.47947
#
# Static dielectric constant tensor:
#      x y z
#    x 4.570460 0.000000 0.000000 
#    y 0.000000 5.181250 0.000000 
#    z 0.000000 0.000000 4.860690 
# 
# 
# High freq. dielectric constant tensor:
#      x y z
#    x 2.033850 0.000000 0.000000 
#    y 0.000000 2.069150 0.000000 
#    z 0.000000 0.000000 2.067910 
# 
# From -- ./inp_files/16163.got.cif
#   From: 2010.03.12/outbox.cif.g09.slc.cpg/sg60_9_cif.got.tgz:16163.got - 2010.04.10 18:46:24.
