data_PCOD8247169
_publ_section_title
;
Structure prediction by ZEFSAII (Michael W. Deem and Ramdas Pophale) SiO2 
 PCOD8247169
Probable space group: P B C N
;
_chemical_formula_sum "Si O2"
_cell_formula_units_Z 56
_cell_length_a 14.449849
_cell_length_b 11.915441
_cell_length_c 15.635362
_cell_angle_alpha 90.000000
_cell_angle_beta 90.000000
_cell_angle_gamma 90.000000
_cell_volume 2692.039141
_symmetry_space_group_name_H-M "P B C N"
_symmetry_group_IT_number 60
_symmetry_cell_setting 'orthorhombic'
loop_
_space_group_symop_operation_xyz
x,y,z
1/2-x,1/2-y,1/2+z
1/2+x,1/2-y,-z
-x,y,1/2-z
-x,-y,-z
1/2+x,1/2+y,1/2-z
1/2-x,1/2+y,z
x,-y,1/2+z
loop_
_atom_site_type_symbol
_atom_site_label
_atom_site_fract_x
_atom_site_fract_y
_atom_site_fract_z
Si Si1 0.691018 0.773747 0.127439
Si Si2 0.365023 0.648577 0.955092
Si Si3 0.649598 0.400247 0.491630
Si Si4 0.314673 0.203781 0.596466
Si Si5 0.026724 0.169819 0.664262
Si Si6 0.604618 0.063102 0.756717
Si Si7 0.684855 0.825881 0.776521
O O1 0.756475 0.843643 0.064775
O O2 0.630600 0.688474 0.068693
O O3 0.623988 0.861609 0.173392
O O4 0.760154 0.713026 0.192999
O O5 0.382239 0.518019 0.970170
O O6 0.429876 0.701089 0.881136
O O7 0.384435 0.723503 0.038749
O O8 0.755940 0.385696 0.460857
O O9 0.587855 0.390511 0.406545
O O10 0.381021 0.138698 0.660262
O O11 0.246144 0.292489 0.641756
O O12 0.082775 0.274024 0.706914
O O13 0.000000 0.095938 0.750000
O O14 0.500000 0.020177 0.750000
O O15 0.674603 0.959169 0.765033
#
# Coordination Sequence:
#
# PCOD8247169 Si02
#       7
#     8   8   8   8   8   8   8
#     4  10  22  40  64  90 128 166 211 262 311 393
#     4  11  21  40  64  88 124 161 213 261 326 371
#     4  10  22  40  63  90 123 163 213 261 321 369
#     4   9  22  40  62  88 126 166 210 263 312 391
#     4  11  22  39  63  91 121 162 213 263 299 392
#     4  11  23  38  63  96 131 163 211 263 323 365
#     4  10  20  42  64  90 126 173 213 249 321 387
#
# _framework density 20.802074999999999
#
# number of rings (size 3 to 8) (size 9 to 14) (size 15 to 20)
#    0.000    1.714    1.429    2.571    2.000    0.000 
#    5.143    0.714    0.000    0.000    0.000    0.000 
#    0.000    0.000    0.000    0.000    0.000    0.000 
#
# Total GULP energy -693926.638464 kJ/mol
# GULP energy per Si atom -12391.547115 kJ/mol
# Density = 2.075473 g / cm^3
# Si number density = 20.802075 Si / 1000 Ang^3
#
#
#
# Elastic Constant Matrix: (Units=GPa)
#
#
# Indices 1 2 3 4 5 6 
#
# 1 71.7598 25.5303 30.7055 0.0000 0.0000 0.0000
# 2 25.5303 99.9991 48.0164 0.0000 0.0000 0.0000
# 3 30.7055 48.0164 131.2492 0.0000 0.0000 0.0000
# 4 0.0000 0.0000 0.0000 15.4014 0.0000 0.0000
# 5 0.0000 0.0000 0.0000 0.0000 27.3635 0.0000
# 6 0.0000 0.0000 0.0000 0.0000 0.0000 17.1050
#
#
#
# Elastic Compliance Matrix: (Units=1/GPa)
#
#
# Indices 1 2 3 4 5 6 
#
# 1 0.016104 -0.002793 -0.002746 0.000000 0.000000 0.000000
# 2 -0.002793 0.012616 -0.003962 0.000000 0.000000 0.000000
# 3 -0.002746 -0.003962 0.009711 0.000000 0.000000 0.000000
# 4 0.000000 0.000000 0.000000 0.064929 0.000000 0.000000
# 5 0.000000 0.000000 0.000000 0.000000 0.036545 0.000000
# 6 0.000000 0.000000 0.000000 0.000000 0.000000 0.058463
#
#
# Mechanical properties :
#
#
# Convention : Reuss Voigt Hill
#
# Bulk Modulus (GPa) = 51.46900 56.83471 54.15185
# Shear Modulus (GPa) = 22.33690 25.22435 23.78063
#
# Velocity S-wave (km/s) = 3.28042 3.48600 3.38477
# Velocity P-wave (km/s) = 6.25653 6.60181 6.43149
#
# Compressibility (1/GPa) = 0.01942917
#
# Stress axis : x y z
#
# Youngs Moduli (GPa) = 62.09668 79.26739 102.97760
#
# Poissons Ratio (x) = 0.22140 0.28274
# Poissons Ratio (y) = 0.17344 0.40798
# Poissons Ratio (z) = 0.17050 0.31405
#
# Static dielectric constant tensor:
#      x y z
#    x 3.716200 0.000000 0.000000 
#    y 0.000000 3.513630 0.000000 
#    z 0.000000 0.000000 4.102610 
# 
# 
# High freq. dielectric constant tensor:
#      x y z
#    x 1.810010 0.000000 0.000000 
#    y 0.000000 1.791970 0.000000 
#    z 0.000000 0.000000 1.838960 
# 
# From -- ./inp_files/16854.got.cif
#   From: 2010.03.12/outbox.cif.g09.slc.cpg/sg60_9_cif.got.tgz:16854.got - 2010.04.10 18:46:24.
