data_PCOD8247900
_publ_section_title
;
Structure prediction by ZEFSAII (Michael W. Deem and Ramdas Pophale) SiO2 
 PCOD8247900
Probable space group: P B C N
;
_chemical_formula_sum "Si O2"
_cell_formula_units_Z 40
_cell_length_a 8.669525
_cell_length_b 22.335730
_cell_length_c 9.248085
_cell_angle_alpha 90.000000
_cell_angle_beta 90.000000
_cell_angle_gamma 90.000000
_cell_volume 1790.800748
_symmetry_space_group_name_H-M "P B C N"
_symmetry_group_IT_number 60
_symmetry_cell_setting 'orthorhombic'
loop_
_space_group_symop_operation_xyz
x,y,z
1/2-x,1/2-y,1/2+z
1/2+x,1/2-y,-z
-x,y,1/2-z
-x,-y,-z
1/2+x,1/2+y,1/2-z
1/2-x,1/2+y,z
x,-y,1/2+z
loop_
_atom_site_type_symbol
_atom_site_label
_atom_site_fract_x
_atom_site_fract_y
_atom_site_fract_z
Si Si1 0.321005 0.571706 0.773579
Si Si2 0.756600 0.689321 0.107996
Si Si3 0.500000 0.895892 0.750000
Si Si4 0.500000 0.616148 0.250000
Si Si5 0.319874 0.197000 0.724346
Si Si6 0.245376 0.035904 0.088102
O O1 0.500000 0.585389 0.750000
O O2 0.229241 0.633220 0.786904
O O3 0.261254 0.532919 0.638360
O O4 0.280779 0.533863 0.916725
O O5 0.890861 0.644988 0.154264
O O6 0.592331 0.658422 0.139333
O O7 0.773162 0.751760 0.191631
O O8 0.771687 0.703679 0.940678
O O9 0.590864 0.936660 0.865404
O O10 0.608770 0.574346 0.343720
O O11 0.500000 0.206060 0.750000
#
# Coordination Sequence:
#
# PCOD8247900 Si02
#       6
#     8   8   4   4   8   8
#     4  12  27  44  72 102 141 185 238 291 355 424
#     4  11  26  46  72 101 141 186 234 297 353 426
#     4  10  26  44  74  98 144 186 234 294 362 416
#     4  10  22  46  72  94 138 182 238 284 354 414
#     4  12  29  46  72 105 145 185 240 292 361 426
#     4  11  25  45  69 101 139 183 235 291 353 422
#
# _framework density 22.336376000000001
#
# number of rings (size 3 to 8) (size 9 to 14) (size 15 to 20)
#    0.000    0.800    2.000    3.000   16.800    0.800 
#    0.000    0.000    0.000    0.000    0.000    0.000 
#    0.000    0.000    0.000    0.000    0.000    0.000 
#
# Total GULP energy -496339.875437 kJ/mol
# GULP energy per Si atom -12408.496886 kJ/mol
# Density = 2.228554 g / cm^3
# Si number density = 22.336376 Si / 1000 Ang^3
#
#
#
# Elastic Constant Matrix: (Units=GPa)
#
#
# Indices 1 2 3 4 5 6 
#
# 1 114.7348 23.8083 19.9951 0.0000 0.0000 0.0000
# 2 23.8083 96.4514 -13.5184 0.0000 0.0000 0.0000
# 3 19.9951 -13.5184 88.2911 0.0000 0.0000 0.0000
# 4 0.0000 0.0000 0.0000 -19.2953 0.0000 0.0000
# 5 0.0000 0.0000 0.0000 0.0000 30.8298 0.0000
# 6 0.0000 0.0000 0.0000 0.0000 0.0000 200.4253
#
#
#
# Elastic Compliance Matrix: (Units=1/GPa)
#
#
# Indices 1 2 3 4 5 6 
#
# 1 0.009751 -0.002776 -0.002633 0.000000 0.000000 0.000000
# 2 -0.002776 0.011386 0.002372 0.000000 0.000000 0.000000
# 3 -0.002633 0.002372 0.012286 0.000000 0.000000 0.000000
# 4 0.000000 0.000000 0.000000 -0.051826 0.000000 0.000000
# 5 0.000000 0.000000 0.000000 0.000000 0.032436 0.000000
# 6 0.000000 0.000000 0.000000 0.000000 0.000000 0.004989
#
#
# Mechanical properties :
#
#
# Convention : Reuss Voigt Hill
#
# Bulk Modulus (GPa) = 36.56653 40.00526 38.28589
# Shear Modulus (GPa) = 146.14845 60.33812 103.24328
#
# Velocity S-wave (km/s) = 8.09770 5.20308 6.80605
# Velocity P-wave (km/s) = 10.19003 7.35155 8.88487
#
# Compressibility (1/GPa) = 0.02734741
#
# Stress axis : x y z
#
# Youngs Moduli (GPa) = 102.55694 87.83039 81.39551
#
# Poissons Ratio (x) = 0.24381 0.21433
# Poissons Ratio (y) = 0.28469 -0.19306
# Poissons Ratio (z) = 0.27006 -0.20833
#
# Static dielectric constant tensor:
#      x y z
#    x 5.164530 0.000000 0.000000 
#    y 0.000000 4.195640 0.000000 
#    z 0.000000 0.000000 4.565210 
# 
# 
# High freq. dielectric constant tensor:
#      x y z
#    x 1.891020 0.000000 0.000000 
#    y 0.000000 1.897650 0.000000 
#    z 0.000000 0.000000 1.886500 
# 
# From -- ./inp_files/3891.got.cif
#   From: 2010.03.12/outbox.cif.g09.slc.cpg/sg60_2_cif.got.tgz:3891.got - 2010.04.10 18:46:24.
