data_PCOD8247631
_publ_section_title
;
Structure prediction by ZEFSAII (Michael W. Deem and Ramdas Pophale) SiO2 
 PCOD8247631
Probable space group: P B C N
;
_chemical_formula_sum "Si O2"
_cell_formula_units_Z 48
_cell_length_a 11.250168
_cell_length_b 23.085736
_cell_length_c 8.598957
_cell_angle_alpha 90.000000
_cell_angle_beta 90.000000
_cell_angle_gamma 90.000000
_cell_volume 2233.307426
_symmetry_space_group_name_H-M "P B C N"
_symmetry_group_IT_number 60
_symmetry_cell_setting 'orthorhombic'
loop_
_space_group_symop_operation_xyz
x,y,z
1/2-x,1/2-y,1/2+z
1/2+x,1/2-y,-z
-x,y,1/2-z
-x,-y,-z
1/2+x,1/2+y,1/2-z
1/2-x,1/2+y,z
x,-y,1/2+z
loop_
_atom_site_type_symbol
_atom_site_label
_atom_site_fract_x
_atom_site_fract_y
_atom_site_fract_z
Si Si1 0.202654 0.418483 0.823068
Si Si2 0.863688 0.478394 0.998534
Si Si3 0.333194 0.135765 0.828827
Si Si4 0.861832 0.814382 0.707639
Si Si5 0.782011 0.231452 0.520754
Si Si6 0.560580 0.167513 0.997576
O O1 0.173866 0.451185 0.663702
O O2 0.324509 0.381512 0.816573
O O3 0.217818 0.466387 0.958983
O O4 0.091298 0.376491 0.862703
O O5 0.835948 0.432333 0.136225
O O6 0.000000 0.500000 0.000000
O O7 0.423964 0.165988 0.951753
O O8 0.362775 0.146033 0.650829
O O9 0.215006 0.172546 0.873262
O O10 0.829432 0.774721 0.558564
O O11 0.778179 0.787713 0.841752
O O12 0.000000 0.810435 0.750000
O O13 0.903622 0.267649 0.547715
#
# Coordination Sequence:
#
# PCOD8247631 Si02
#       6
#     8   8   8   8   8   8
#     4  11  24  41  62  91 132 175 222 274 347 397
#     4  12  23  37  62  96 134 169 223 286 335 398
#     4  11  21  38  62  91 132 168 220 273 337 399
#     4  11  24  46  68  98 139 182 226 282 338 414
#     4  11  21  39  66  95 135 173 221 274 340 400
#     4  10  22  37  59  92 125 174 210 272 341 401
#
# _framework density 21.492788000000001
#
# number of rings (size 3 to 8) (size 9 to 14) (size 15 to 20)
#    0.000    1.000    5.000    2.500    2.333    0.000 
#    0.000    3.333    0.000    0.000    0.000    0.000 
#    0.000    0.000    0.000    0.000    0.000    0.000 
#
# Total GULP energy -594827.832315 kJ/mol
# GULP energy per Si atom -12392.246507 kJ/mol
# Density = 2.144387 g / cm^3
# Si number density = 21.492788 Si / 1000 Ang^3
#
#
#
# Elastic Constant Matrix: (Units=GPa)
#
#
# Indices 1 2 3 4 5 6 
#
# 1 75.3147 37.6359 27.8081 0.0000 0.0000 0.0000
# 2 37.6359 155.1561 31.7103 0.0000 0.0000 0.0000
# 3 27.8081 31.7103 91.3136 0.0000 0.0000 0.0000
# 4 0.0000 0.0000 0.0000 48.4916 0.0000 0.0000
# 5 0.0000 0.0000 0.0000 0.0000 26.0980 0.0000
# 6 0.0000 0.0000 0.0000 0.0000 0.0000 36.5727
#
#
#
# Elastic Compliance Matrix: (Units=1/GPa)
#
#
# Indices 1 2 3 4 5 6 
#
# 1 0.016283 -0.003161 -0.003861 0.000000 0.000000 0.000000
# 2 -0.003161 0.007551 -0.001660 0.000000 0.000000 0.000000
# 3 -0.003861 -0.001660 0.012703 0.000000 0.000000 0.000000
# 4 0.000000 0.000000 0.000000 0.020622 0.000000 0.000000
# 5 0.000000 0.000000 0.000000 0.000000 0.038317 0.000000
# 6 0.000000 0.000000 0.000000 0.000000 0.000000 0.027343
#
#
# Mechanical properties :
#
#
# Convention : Reuss Voigt Hill
#
# Bulk Modulus (GPa) = 52.15280 57.34364 54.74822
# Shear Modulus (GPa) = 34.11269 37.20782 35.66025
#
# Velocity S-wave (km/s) = 3.98825 4.16526 4.07771
# Velocity P-wave (km/s) = 6.74731 7.06193 6.90641
#
# Compressibility (1/GPa) = 0.01917443
#
# Stress axis : x y z
#
# Youngs Moduli (GPa) = 61.41535 132.43327 78.71869
#
# Poissons Ratio (x) = 0.41856 0.30394
# Poissons Ratio (y) = 0.19410 0.13065
# Poissons Ratio (z) = 0.23713 0.21980
#
# Static dielectric constant tensor:
#      x y z
#    x 3.581070 0.000000 0.000000 
#    y 0.000000 4.465350 0.000000 
#    z 0.000000 0.000000 4.013870 
# 
# 
# High freq. dielectric constant tensor:
#      x y z
#    x 1.786730 0.000000 0.000000 
#    y 0.000000 1.869470 0.000000 
#    z 0.000000 0.000000 1.853680 
# 
# From -- ./inp_files/5096.got.cif
#   From: 2010.03.12/outbox.cif.g09.slc.cpg/sg60_3_cif.got.tgz:5096.got - 2010.04.10 18:46:24.
