data_PCOD8247123
_publ_section_title
;
Structure prediction by ZEFSAII (Michael W. Deem and Ramdas Pophale) SiO2 
 PCOD8247123
Probable space group: P B C N
;
_chemical_formula_sum "Si O2"
_cell_formula_units_Z 60
_cell_length_a 11.918700
_cell_length_b 12.134736
_cell_length_c 20.081548
_cell_angle_alpha 90.000000
_cell_angle_beta 90.000000
_cell_angle_gamma 90.000000
_cell_volume 2904.399869
_symmetry_space_group_name_H-M "P B C N"
_symmetry_group_IT_number 60
_symmetry_cell_setting 'orthorhombic'
loop_
_space_group_symop_operation_xyz
x,y,z
1/2-x,1/2-y,1/2+z
1/2+x,1/2-y,-z
-x,y,1/2-z
-x,-y,-z
1/2+x,1/2+y,1/2-z
1/2-x,1/2+y,z
x,-y,1/2+z
loop_
_atom_site_type_symbol
_atom_site_label
_atom_site_fract_x
_atom_site_fract_y
_atom_site_fract_z
Si Si1 0.476457 0.672684 0.629505
Si Si2 0.551341 0.911110 0.679256
Si Si3 0.215334 0.876953 0.039101
Si Si4 0.186875 0.892739 0.824664
Si Si5 0.662915 0.783947 0.078003
Si Si6 0.000000 0.994592 0.250000
Si Si7 0.346158 0.547793 0.941795
Si Si8 0.968496 0.430926 0.435705
O O1 0.516659 0.789604 0.655965
O O2 0.351444 0.679154 0.599799
O O3 0.476472 0.583462 0.687691
O O4 0.556138 0.638151 0.567232
O O5 0.500000 0.938514 0.750000
O O6 0.684598 0.922080 0.688698
O O7 0.502825 0.000491 0.629004
O O8 0.338055 0.902723 0.066167
O O9 0.220609 0.794790 0.976616
O O10 0.155885 0.991862 0.015147
O O11 0.176322 0.764486 0.846822
O O12 0.108894 0.926680 0.761837
O O13 0.133614 0.953217 0.888043
O O14 0.726012 0.900173 0.074734
O O15 0.533420 0.813468 0.063012
O O16 0.000000 0.500000 0.500000
#
# Coordination Sequence:
#
# PCOD8247123 Si02
#       8
#     8   8   8   8   8   4   8   8
#     4  11  23  43  65  97 129 178 225 273 343 401
#     4  12  25  43  69  98 134 182 226 278 344 411
#     4  11  25  38  66 101 131 169 218 293 331 401
#     4  10  22  44  65  91 128 179 224 267 332 408
#     4  11  21  41  66  94 130 173 218 270 343 405
#     4  10  24  46  66  92 132 176 228 274 324 410
#     4  10  20  40  66  90 128 173 214 269 337 404
#     4  12  24  45  68 100 137 173 227 284 343 410
#
# _framework density 20.658311999999999
#
# number of rings (size 3 to 8) (size 9 to 14) (size 15 to 20)
#    0.000    1.067    4.667    2.000    3.733    0.000 
#    3.600    0.000    0.000    0.000    0.000    0.000 
#    0.000    0.000    0.000    0.000    0.000    0.000 
#
# Total GULP energy -743922.512274 kJ/mol
# GULP energy per Si atom -12398.708538 kJ/mol
# Density = 2.061129 g / cm^3
# Si number density = 20.658312 Si / 1000 Ang^3
#
#
#
# Elastic Constant Matrix: (Units=GPa)
#
#
# Indices 1 2 3 4 5 6 
#
# 1 155.6142 33.3994 61.0604 0.0000 0.0000 0.0000
# 2 33.3994 75.4986 36.6143 0.0000 0.0000 0.0000
# 3 61.0604 36.6143 75.0776 0.0000 0.0000 0.0000
# 4 0.0000 0.0000 0.0000 25.5635 0.0000 0.0000
# 5 0.0000 0.0000 0.0000 0.0000 36.0568 0.0000
# 6 0.0000 0.0000 0.0000 0.0000 0.0000 34.2422
#
#
#
# Elastic Compliance Matrix: (Units=1/GPa)
#
#
# Indices 1 2 3 4 5 6 
#
# 1 0.009458 -0.000594 -0.007403 0.000000 0.000000 0.000000
# 2 -0.000594 0.017386 -0.007996 0.000000 0.000000 0.000000
# 3 -0.007403 -0.007996 0.023239 0.000000 0.000000 0.000000
# 4 0.000000 0.000000 0.000000 0.039118 0.000000 0.000000
# 5 0.000000 0.000000 0.000000 0.000000 0.027734 0.000000
# 6 0.000000 0.000000 0.000000 0.000000 0.000000 0.029204
#
#
# Mechanical properties :
#
#
# Convention : Reuss Voigt Hill
#
# Bulk Modulus (GPa) = 55.25249 63.14871 59.20060
# Shear Modulus (GPa) = 27.15070 30.84691 28.99880
#
# Velocity S-wave (km/s) = 3.62923 3.86838 3.75071
# Velocity P-wave (km/s) = 6.66075 7.11246 6.89031
#
# Compressibility (1/GPa) = 0.01809873
#
# Stress axis : x y z
#
# Youngs Moduli (GPa) = 105.72652 57.51852 43.03025
#
# Poissons Ratio (x) = 0.03418 0.31854
# Poissons Ratio (y) = 0.06282 0.34405
# Poissons Ratio (z) = 0.78266 0.45989
#
# Static dielectric constant tensor:
#      x y z
#    x 3.623870 0.000000 0.000000 
#    y 0.000000 3.917450 0.000000 
#    z 0.000000 0.000000 4.039280 
# 
# 
# High freq. dielectric constant tensor:
#      x y z
#    x 1.817340 0.000000 0.000000 
#    y 0.000000 1.814060 0.000000 
#    z 0.000000 0.000000 1.794500 
# 
# From -- ./inp_files/22686.got.cif
#   From: 2010.03.12/outbox.cif.g09.slc.cpg/sg60_12_cif.got.tgz:22686.got - 2010.04.10 18:46:24.
