data_PCOD8247219
_publ_section_title
;
Structure prediction by ZEFSAII (Michael W. Deem and Ramdas Pophale) SiO2 
 PCOD8247219
Probable space group: P B C N
;
_chemical_formula_sum "Si O2"
_cell_formula_units_Z 56
_cell_length_a 14.041490
_cell_length_b 24.278673
_cell_length_c 9.004626
_cell_angle_alpha 90.000000
_cell_angle_beta 90.000000
_cell_angle_gamma 90.000000
_cell_volume 3069.755741
_symmetry_space_group_name_H-M "P B C N"
_symmetry_group_IT_number 60
_symmetry_cell_setting 'orthorhombic'
loop_
_space_group_symop_operation_xyz
x,y,z
1/2-x,1/2-y,1/2+z
1/2+x,1/2-y,-z
-x,y,1/2-z
-x,-y,-z
1/2+x,1/2+y,1/2-z
1/2-x,1/2+y,z
x,-y,1/2+z
loop_
_atom_site_type_symbol
_atom_site_label
_atom_site_fract_x
_atom_site_fract_y
_atom_site_fract_z
Si Si1 0.905654 0.682584 0.171139
Si Si2 0.283885 0.641169 0.423482
Si Si3 0.399739 0.563354 0.937892
Si Si4 0.497043 0.762693 0.410772
Si Si5 0.137208 0.170031 0.114357
Si Si6 0.381296 0.451432 0.098593
Si Si7 0.312910 0.248816 0.082199
O O1 0.821817 0.637752 0.151216
O O2 0.865270 0.736439 0.260440
O O3 0.000000 0.657231 0.250000
O O4 0.933436 0.701373 0.009161
O O5 0.356173 0.653318 0.287935
O O6 0.307224 0.583865 0.502137
O O7 0.287349 0.687394 0.553967
O O8 0.513170 0.570711 0.933494
O O9 0.358081 0.552530 0.773583
O O10 0.354125 0.618009 0.006257
O O11 0.370610 0.514262 0.047963
O O12 0.500000 0.789996 0.250000
O O13 0.535541 0.699687 0.408816
O O14 0.387372 0.766997 0.454987
O O15 0.220063 0.211809 0.066248
#
# Coordination Sequence:
#
# PCOD8247219 Si02
#       7
#     8   8   8   8   8   8   8
#     4   9  21  36  51  75 116 148 186 229 282 330
#     4  11  20  35  55  80 109 147 191 226 278 331
#     4  10  22  38  54  80 111 144 183 226 283 330
#     4  11  20  33  51  77 108 149 181 225 270 322
#     4  11  22  34  52  78 114 146 181 229 268 330
#     4  10  22  37  57  78 107 146 185 229 273 339
#     4  10  21  34  51  78 111 148 182 221 276 332
#
# _framework density 18.242495000000002
#
# number of rings (size 3 to 8) (size 9 to 14) (size 15 to 20)
#    0.000    1.714    2.857    1.714    2.000    2.286 
#    0.000    0.000    0.000    0.000    0.000   17.000 
#    0.000    0.000    0.000    0.000    0.000    0.000 
#
# Total GULP energy -694199.853866 kJ/mol
# GULP energy per Si atom -12396.425962 kJ/mol
# Density = 1.820097 g / cm^3
# Si number density = 18.242495 Si / 1000 Ang^3
#
#
#
# Elastic Constant Matrix: (Units=GPa)
#
#
# Indices 1 2 3 4 5 6 
#
# 1 64.7648 18.8744 30.4988 0.0000 0.0000 0.0000
# 2 18.8744 67.5404 40.5005 0.0000 0.0000 0.0000
# 3 30.4988 40.5005 127.6722 0.0000 0.0000 0.0000
# 4 0.0000 0.0000 0.0000 28.8506 0.0000 0.0000
# 5 0.0000 0.0000 0.0000 0.0000 25.5564 0.0000
# 6 0.0000 0.0000 0.0000 0.0000 0.0000 21.8092
#
#
#
# Elastic Compliance Matrix: (Units=1/GPa)
#
#
# Indices 1 2 3 4 5 6 
#
# 1 0.017879 -0.003007 -0.003317 0.000000 0.000000 0.000000
# 2 -0.003007 0.018790 -0.005242 0.000000 0.000000 0.000000
# 3 -0.003317 -0.005242 0.010288 0.000000 0.000000 0.000000
# 4 0.000000 0.000000 0.000000 0.034661 0.000000 0.000000
# 5 0.000000 0.000000 0.000000 0.000000 0.039129 0.000000
# 6 0.000000 0.000000 0.000000 0.000000 0.000000 0.045852
#
#
# Mechanical properties :
#
#
# Convention : Reuss Voigt Hill
#
# Bulk Modulus (GPa) = 41.97503 48.85834 45.41668
# Shear Modulus (GPa) = 25.29425 26.58349 25.93887
#
# Velocity S-wave (km/s) = 3.72769 3.82151 3.77489
# Velocity P-wave (km/s) = 6.44880 6.80535 6.62947
#
# Compressibility (1/GPa) = 0.02382369
#
# Stress axis : x y z
#
# Youngs Moduli (GPa) = 55.93174 53.22037 97.20186
#
# Poissons Ratio (x) = 0.16005 0.32242
# Poissons Ratio (y) = 0.16820 0.50955
# Poissons Ratio (z) = 0.18553 0.27899
#
# Static dielectric constant tensor:
#      x y z
#    x 3.443420 0.000000 0.000000 
#    y 0.000000 3.031360 0.000000 
#    z 0.000000 0.000000 3.605550 
# 
# 
# High freq. dielectric constant tensor:
#      x y z
#    x 1.705080 0.000000 0.000000 
#    y 0.000000 1.667430 0.000000 
#    z 0.000000 0.000000 1.726940 
# 
# From -- ./inp_files/6146.got.cif
#   From: 2010.03.12/outbox.cif.g09.slc.cpg/sg60_4_cif.got.tgz:6146.got - 2010.04.10 18:46:24.
