data_PCOD8247388
_publ_section_title
;
Structure prediction by ZEFSAII (Michael W. Deem and Ramdas Pophale) SiO2 
 PCOD8247388
Probable space group: P B C N
;
_chemical_formula_sum "Si O2"
_cell_formula_units_Z 48
_cell_length_a 5.234535
_cell_length_b 18.577206
_cell_length_c 20.757148
_cell_angle_alpha 90.000000
_cell_angle_beta 90.000000
_cell_angle_gamma 90.000000
_cell_volume 2018.488070
_symmetry_space_group_name_H-M "P B C N"
_symmetry_group_IT_number 60
_symmetry_cell_setting 'orthorhombic'
loop_
_space_group_symop_operation_xyz
x,y,z
1/2-x,1/2-y,1/2+z
1/2+x,1/2-y,-z
-x,y,1/2-z
-x,-y,-z
1/2+x,1/2+y,1/2-z
1/2-x,1/2+y,z
x,-y,1/2+z
loop_
_atom_site_type_symbol
_atom_site_label
_atom_site_fract_x
_atom_site_fract_y
_atom_site_fract_z
Si Si1 0.592434 0.152259 0.471119
Si Si2 0.610842 0.550779 0.392918
Si Si3 0.877198 0.469591 0.683878
Si Si4 0.581538 0.869435 0.181247
Si Si5 0.723208 0.402675 0.435197
Si Si6 0.349273 0.719351 0.919133
O O1 0.417346 0.089711 0.503772
O O2 0.621559 0.211446 0.528733
O O3 0.452771 0.198642 0.414362
O O4 0.854928 0.116969 0.443132
O O5 0.385803 0.569049 0.341221
O O6 0.552334 0.475462 0.429308
O O7 0.900549 0.542084 0.367416
O O8 0.787569 0.552598 0.693564
O O9 0.000000 0.438326 0.750000
O O10 0.500000 0.836809 0.250000
O O11 0.348387 0.885263 0.133895
O O12 0.769847 0.809338 0.151484
O O13 0.548306 0.335437 0.450759
#
# Coordination Sequence:
#
# PCOD8247388 Si02
#       6
#     8   8   8   8   8   8
#     4  11  24  37  62  90 133 180 225 279 345 413
#     4  11  23  39  65  98 130 176 228 284 338 412
#     4  10  21  40  66  97 129 171 222 283 344 404
#     4   9  20  38  64  95 127 166 223 279 332 403
#     4  10  21  39  60  95 128 172 220 279 343 401
#     4  11  21  39  61  90 133 176 221 275 343 404
#
# _framework density 23.780173000000001
#
# number of rings (size 3 to 8) (size 9 to 14) (size 15 to 20)
#    0.000    1.667    3.333    1.000    2.333    1.333 
#    0.000    0.000    3.667    0.000    0.000    0.000 
#    0.000    0.000    0.000    0.000    0.000    0.000 
#
# Total GULP energy -594692.703972 kJ/mol
# GULP energy per Si atom -12389.431333 kJ/mol
# Density = 2.372605 g / cm^3
# Si number density = 23.780173 Si / 1000 Ang^3
#
#
#
# Elastic Constant Matrix: (Units=GPa)
#
#
# Indices 1 2 3 4 5 6 
#
# 1 101.8155 26.9265 46.3906 0.0000 0.0000 0.0000
# 2 26.9265 74.6251 42.9600 0.0000 0.0000 0.0000
# 3 46.3906 42.9600 140.5668 0.0000 0.0000 0.0000
# 4 0.0000 0.0000 0.0000 25.4898 0.0000 0.0000
# 5 0.0000 0.0000 0.0000 0.0000 43.8737 0.0000
# 6 0.0000 0.0000 0.0000 0.0000 0.0000 29.7366
#
#
#
# Elastic Compliance Matrix: (Units=1/GPa)
#
#
# Indices 1 2 3 4 5 6 
#
# 1 0.011924 -0.002472 -0.003180 0.000000 0.000000 0.000000
# 2 -0.002472 0.016774 -0.004311 0.000000 0.000000 0.000000
# 3 -0.003180 -0.004311 0.009481 0.000000 0.000000 0.000000
# 4 0.000000 0.000000 0.000000 0.039231 0.000000 0.000000
# 5 0.000000 0.000000 0.000000 0.000000 0.022793 0.000000
# 6 0.000000 0.000000 0.000000 0.000000 0.000000 0.033629
#
#
# Mechanical properties :
#
#
# Convention : Reuss Voigt Hill
#
# Bulk Modulus (GPa) = 54.78215 61.06241 57.92228
# Shear Modulus (GPa) = 31.28106 33.20203 32.24155
#
# Velocity S-wave (km/s) = 3.63082 3.74064 3.68614
# Velocity P-wave (km/s) = 6.37683 6.66259 6.52128
#
# Compressibility (1/GPa) = 0.01825412
#
# Stress axis : x y z
#
# Youngs Moduli (GPa) = 83.86246 59.61689 105.47560
#
# Poissons Ratio (x) = 0.14737 0.33539
# Poissons Ratio (y) = 0.20731 0.45466
# Poissons Ratio (z) = 0.26667 0.25698
#
# Static dielectric constant tensor:
#      x y z
#    x 4.221140 0.000000 0.000000 
#    y 0.000000 4.027190 0.000000 
#    z 0.000000 0.000000 4.233250 
# 
# 
# High freq. dielectric constant tensor:
#      x y z
#    x 1.939490 0.000000 0.000000 
#    y 0.000000 1.914570 0.000000 
#    z 0.000000 0.000000 1.936990 
# 
# From -- ./inp_files/21598.got.cif
#   From: 2010.03.12/outbox.cif.g09.slc.cpg/sg60_11_cif.got.tgz:21598.got - 2010.04.10 18:46:24.
