data_PCOD8247800
_publ_section_title
;
Structure prediction by ZEFSAII (Michael W. Deem and Ramdas Pophale) SiO2 
 PCOD8247800
Probable space group: P B C N
;
_chemical_formula_sum "Si O2"
_cell_formula_units_Z 48
_cell_length_a 5.034272
_cell_length_b 15.159381
_cell_length_c 29.276287
_cell_angle_alpha 90.000000
_cell_angle_beta 90.000000
_cell_angle_gamma 90.000000
_cell_volume 2234.262214
_symmetry_space_group_name_H-M "P B C N"
_symmetry_group_IT_number 60
_symmetry_cell_setting 'orthorhombic'
loop_
_space_group_symop_operation_xyz
x,y,z
1/2-x,1/2-y,1/2+z
1/2+x,1/2-y,-z
-x,y,1/2-z
-x,-y,-z
1/2+x,1/2+y,1/2-z
1/2-x,1/2+y,z
x,-y,1/2+z
loop_
_atom_site_type_symbol
_atom_site_label
_atom_site_fract_x
_atom_site_fract_y
_atom_site_fract_z
Si Si1 0.249774 0.749973 0.030195
Si Si2 0.113408 0.899726 0.340466
Si Si3 0.000000 0.197351 0.250000
Si Si4 0.500000 0.302553 0.250000
Si Si5 0.400401 0.102090 0.101099
Si Si6 0.099607 0.602190 0.601098
Si Si7 0.113396 0.100177 0.340466
O O1 0.168488 0.663888 0.058752
O O2 0.331567 0.836009 0.058749
O O3 0.499529 0.720601 0.999933
O O4 0.329685 0.860402 0.375886
O O5 0.130458 0.857136 0.290927
O O6 0.822663 0.888377 0.360598
O O7 0.196321 0.999952 0.332838
O O8 0.750000 0.249952 0.270743
O O9 0.869541 0.142769 0.209072
O O10 0.670337 0.139498 0.124111
O O11 0.177364 0.111519 0.139407
O O12 0.426304 0.999950 0.084399
#
# Coordination Sequence:
#
# PCOD8247800 Si02
#       7
#     8   8   4   4   8   8   8
#     4  12  26  42  66  98 126 162 206 270 332 386
#     4  10  22  42  63  89 127 173 212 255 308 369
#     4  12  25  36  59 100 130 168 212 262 309 360
#     4  12  25  36  59 100 130 168 212 262 309 360
#     4  10  23  42  67  92 125 170 211 258 318 380
#     4  10  23  42  67  92 125 170 211 258 318 380
#     4  10  22  42  63  89 127 173 212 255 308 369
#
# _framework density 21.483602000000001
#
# number of rings (size 3 to 8) (size 9 to 14) (size 15 to 20)
#    0.000    1.333    0.000    4.500    7.000    1.333 
#    0.000    6.667    0.000    0.000    0.000    0.000 
#    0.000    0.000    0.000    0.000    0.000    0.000 
#
# Total GULP energy -595317.325908 kJ/mol
# GULP energy per Si atom -12402.444290 kJ/mol
# Density = 2.143470 g / cm^3
# Si number density = 21.483602 Si / 1000 Ang^3
#
#
#
# Elastic Constant Matrix: (Units=GPa)
#
#
# Indices 1 2 3 4 5 6 
#
# 1 118.1236 35.1231 34.6284 0.0000 0.0000 0.0000
# 2 35.1231 83.8268 68.3326 0.0000 0.0000 0.0000
# 3 34.6284 68.3326 127.3937 0.0000 0.0000 0.0000
# 4 0.0000 0.0000 0.0000 -7.0958 0.0000 0.0000
# 5 0.0000 0.0000 0.0000 0.0000 46.0510 0.0000
# 6 0.0000 0.0000 0.0000 0.0000 0.0000 22.6529
#
#
#
# Elastic Compliance Matrix: (Units=1/GPa)
#
#
# Indices 1 2 3 4 5 6 
#
# 1 0.009718 -0.003409 -0.000813 0.000000 0.000000 0.000000
# 2 -0.003409 0.022394 -0.011085 0.000000 0.000000 0.000000
# 3 -0.000813 -0.011085 0.014017 0.000000 0.000000 0.000000
# 4 0.000000 0.000000 0.000000 -0.140929 0.000000 0.000000
# 5 0.000000 0.000000 0.000000 0.000000 0.021715 0.000000
# 6 0.000000 0.000000 0.000000 0.000000 0.000000 0.044144
#
#
# Mechanical properties :
#
#
# Convention : Reuss Voigt Hill
#
# Bulk Modulus (GPa) = 64.45801 67.27915 65.86858
# Shear Modulus (GPa) = 730.45322 25.07230 377.76276
#
# Velocity S-wave (km/s) = 18.45923 3.41991 13.27477
# Velocity P-wave (km/s) = 22.00892 6.85411 16.29987
#
# Compressibility (1/GPa) = 0.01551397
#
# Stress axis : x y z
#
# Youngs Moduli (GPa) = 102.90551 44.65475 71.34355
#
# Poissons Ratio (x) = 0.15223 0.05800
# Poissons Ratio (y) = 0.35080 0.79086
# Poissons Ratio (z) = 0.08366 0.49501
#
# Static dielectric constant tensor:
#      x y z
#    x 4.278820 0.000000 0.000000 
#    y 0.000000 3.994590 0.000000 
#    z 0.000000 0.000000 3.665510 
# 
# 
# High freq. dielectric constant tensor:
#      x y z
#    x 1.867600 0.000000 0.000000 
#    y 0.000000 1.845350 0.000000 
#    z 0.000000 0.000000 1.838450 
# 
# From -- ./inp_files/24909.got.cif
#   From: 2010.03.12/outbox.cif.g09.slc.cpg/sg60_13_cif.got.tgz:24909.got - 2010.04.10 18:46:24.
