data_PCOD8247673
_publ_section_title
;
Structure prediction by ZEFSAII (Michael W. Deem and Ramdas Pophale) SiO2 
 PCOD8247673
Probable space group: P B C N
;
_chemical_formula_sum "Si O2"
_cell_formula_units_Z 60
_cell_length_a 13.715584
_cell_length_b 9.018265
_cell_length_c 20.901531
_cell_angle_alpha 90.000000
_cell_angle_beta 90.000000
_cell_angle_gamma 90.000000
_cell_volume 2585.326487
_symmetry_space_group_name_H-M "P B C N"
_symmetry_group_IT_number 60
_symmetry_cell_setting 'orthorhombic'
loop_
_space_group_symop_operation_xyz
x,y,z
1/2-x,1/2-y,1/2+z
1/2+x,1/2-y,-z
-x,y,1/2-z
-x,-y,-z
1/2+x,1/2+y,1/2-z
1/2-x,1/2+y,z
x,-y,1/2+z
loop_
_atom_site_type_symbol
_atom_site_label
_atom_site_fract_x
_atom_site_fract_y
_atom_site_fract_z
Si Si1 0.797038 0.052524 0.201388
Si Si2 0.519872 0.265600 0.675464
Si Si3 0.004439 0.663886 0.030085
Si Si4 0.190941 0.163913 0.573643
Si Si5 0.000000 0.343639 0.750000
Si Si6 0.619838 0.332955 0.934865
Si Si7 0.812200 0.777843 0.284015
Si Si8 0.607845 0.027724 0.138334
O O1 0.902451 0.102003 0.176769
O O2 0.757780 0.143603 0.262780
O O3 0.724737 0.046355 0.139908
O O4 0.804994 0.885653 0.224173
O O5 0.500000 0.218821 0.750000
O O6 0.421619 0.318436 0.638396
O O7 0.567419 0.139049 0.629215
O O8 0.934140 0.650974 0.091125
O O9 0.112009 0.711393 0.053594
O O10 0.967272 0.793933 0.983512
O O11 0.000000 0.500000 0.000000
O O12 0.294789 0.216961 0.545463
O O13 0.220126 0.159641 0.648300
O O14 0.158566 0.999808 0.552477
O O15 0.927539 0.252164 0.795534
O O16 0.926101 0.442319 0.710212
#
# Coordination Sequence:
#
# PCOD8247673 Si02
#       8
#     8   8   8   8   4   8   8   8
#     4  11  25  40  68 109 147 186 234 299 375 438
#     4  12  24  44  71 109 146 188 243 304 374 438
#     4  12  26  50  75 102 143 192 250 303 368 432
#     4  12  26  49  73 109 141 196 250 300 367 443
#     4  10  22  38  68  98 136 178 228 282 366 414
#     4  12  29  46  77 104 147 194 246 311 361 444
#     4  11  22  41  67 104 144 186 230 296 357 442
#     4  11  23  45  71 101 144 190 233 300 364 437
#
# _framework density 23.207901
#
# number of rings (size 3 to 8) (size 9 to 14) (size 15 to 20)
#    0.000    0.533    4.667    3.600    2.800    1.067 
#    2.400    0.000    0.000    0.000    0.000    0.000 
#    0.000    0.000    0.000    0.000    0.000    0.000 
#
# Total GULP energy -743545.716553 kJ/mol
# GULP energy per Si atom -12392.428609 kJ/mol
# Density = 2.315508 g / cm^3
# Si number density = 23.207901 Si / 1000 Ang^3
#
#
#
# Elastic Constant Matrix: (Units=GPa)
#
#
# Indices 1 2 3 4 5 6 
#
# 1 126.0922 30.7109 28.9226 0.0000 0.0000 0.0000
# 2 30.7109 94.6944 15.4618 0.0000 0.0000 0.0000
# 3 28.9226 15.4618 65.9818 0.0000 0.0000 0.0000
# 4 0.0000 0.0000 0.0000 31.6038 0.0000 0.0000
# 5 0.0000 0.0000 0.0000 0.0000 36.0100 0.0000
# 6 0.0000 0.0000 0.0000 0.0000 0.0000 -80.6595
#
#
#
# Elastic Compliance Matrix: (Units=1/GPa)
#
#
# Indices 1 2 3 4 5 6 
#
# 1 0.009335 -0.002453 -0.003517 0.000000 0.000000 0.000000
# 2 -0.002453 0.011625 -0.001649 0.000000 0.000000 0.000000
# 3 -0.003517 -0.001649 0.017084 0.000000 0.000000 0.000000
# 4 0.000000 0.000000 0.000000 0.031642 0.000000 0.000000
# 5 0.000000 0.000000 0.000000 0.000000 0.027770 0.000000
# 6 0.000000 0.000000 0.000000 0.000000 0.000000 -0.012398
#
#
# Mechanical properties :
#
#
# Convention : Reuss Voigt Hill
#
# Bulk Modulus (GPa) = 43.84871 48.55100 46.19985
# Shear Modulus (GPa) = 46.34014 11.50240 28.92127
#
# Velocity S-wave (km/s) = 4.47334 2.22868 3.53396
# Velocity P-wave (km/s) = 6.75395 5.25244 6.04996
#
# Compressibility (1/GPa) = 0.02280569
#
# Stress axis : x y z
#
# Youngs Moduli (GPa) = 107.12451 86.02062 58.53521
#
# Poissons Ratio (x) = 0.21103 0.20587
# Poissons Ratio (y) = 0.26280 0.09651
# Poissons Ratio (z) = 0.37676 0.14183
#
# Static dielectric constant tensor:
#      x y z
#    x 4.810580 0.000000 0.000000 
#    y 0.000000 4.063660 0.000000 
#    z 0.000000 0.000000 4.038900 
# 
# 
# High freq. dielectric constant tensor:
#      x y z
#    x 1.932500 0.000000 0.000000 
#    y 0.000000 1.914590 0.000000 
#    z 0.000000 0.000000 1.903040 
# 
# From -- ./inp_files/24406.got.cif
#   From: 2010.03.12/outbox.cif.g09.slc.cpg/sg60_13_cif.got.tgz:24406.got - 2010.04.10 18:46:24.
