data_PCOD8247891
_publ_section_title
;
Structure prediction by ZEFSAII (Michael W. Deem and Ramdas Pophale) SiO2 
 PCOD8247891
Probable space group: P B C N
;
_chemical_formula_sum "Si O2"
_cell_formula_units_Z 60
_cell_length_a 11.655589
_cell_length_b 11.543500
_cell_length_c 19.655035
_cell_angle_alpha 90.000000
_cell_angle_beta 90.000000
_cell_angle_gamma 90.000000
_cell_volume 2644.512071
_symmetry_space_group_name_H-M "P B C N"
_symmetry_group_IT_number 60
_symmetry_cell_setting 'orthorhombic'
loop_
_space_group_symop_operation_xyz
x,y,z
1/2-x,1/2-y,1/2+z
1/2+x,1/2-y,-z
-x,y,1/2-z
-x,-y,-z
1/2+x,1/2+y,1/2-z
1/2-x,1/2+y,z
x,-y,1/2+z
loop_
_atom_site_type_symbol
_atom_site_label
_atom_site_fract_x
_atom_site_fract_y
_atom_site_fract_z
Si Si1 0.275496 0.924468 0.463049
Si Si2 0.059324 0.963856 0.188735
Si Si3 0.500000 0.924680 0.250000
Si Si4 0.549321 0.939332 0.617864
Si Si5 0.341884 0.790568 0.585643
Si Si6 0.232075 0.685959 0.713946
Si Si7 0.144147 0.797374 0.346479
Si Si8 0.902332 0.041969 0.952375
O O1 0.281350 0.814148 0.513337
O O2 0.199915 0.890426 0.397897
O O3 0.398795 0.971523 0.437728
O O4 0.217620 0.024221 0.509757
O O5 0.188692 0.927917 0.207634
O O6 0.075453 0.032236 0.117461
O O7 0.000000 0.040133 0.250000
O O8 0.973390 0.851559 0.183280
O O9 0.402096 0.845832 0.215036
O O10 0.443686 0.004598 0.307644
O O11 0.418774 0.904363 0.600367
O O12 0.623307 0.822594 0.614926
O O13 0.255137 0.770844 0.649151
O O14 0.416534 0.674436 0.572795
O O15 0.268111 0.740313 0.786305
O O16 0.000000 0.000000 0.000000
#
# Coordination Sequence:
#
# PCOD8247891 Si02
#       8
#     8   8   4   8   8   8   8   8
#     4  12  25  42  68 108 146 184 243 302 359 436
#     4   9  19  38  69  93 131 184 239 280 347 431
#     4  12  26  42  74 108 144 186 242 320 350 444
#     4  12  24  44  72 103 141 194 244 291 378 434
#     4  11  25  45  69 100 143 196 233 302 368 439
#     4  10  22  45  68 101 140 181 243 296 364 426
#     4  11  20  46  71 101 135 189 234 295 356 437
#     4  11  21  41  68  99 136 187 239 286 357 434
#
# _framework density 22.688497000000002
#
# number of rings (size 3 to 8) (size 9 to 14) (size 15 to 20)
#    0.000    1.067    5.333    2.000    4.667    0.000 
#    4.800    0.000    1.467    0.000    0.000    0.000 
#    0.000    0.000    0.000    0.000    0.000    0.000 
#
# Total GULP energy -743459.599776 kJ/mol
# GULP energy per Si atom -12390.993330 kJ/mol
# Density = 2.263686 g / cm^3
# Si number density = 22.688497 Si / 1000 Ang^3
#
#
#
# Elastic Constant Matrix: (Units=GPa)
#
#
# Indices 1 2 3 4 5 6 
#
# 1 124.6721 31.2175 55.1401 0.0000 0.0000 0.0000
# 2 31.2175 55.4913 34.0665 0.0000 0.0000 0.0000
# 3 55.1401 34.0665 177.3953 0.0000 0.0000 0.0000
# 4 0.0000 0.0000 0.0000 41.9503 0.0000 0.0000
# 5 0.0000 0.0000 0.0000 0.0000 45.9297 0.0000
# 6 0.0000 0.0000 0.0000 0.0000 0.0000 24.7775
#
#
#
# Elastic Compliance Matrix: (Units=1/GPa)
#
#
# Indices 1 2 3 4 5 6 
#
# 1 0.010117 -0.004264 -0.002326 0.000000 0.000000 0.000000
# 2 -0.004264 0.022226 -0.002943 0.000000 0.000000 0.000000
# 3 -0.002326 -0.002943 0.006925 0.000000 0.000000 0.000000
# 4 0.000000 0.000000 0.000000 0.023838 0.000000 0.000000
# 5 0.000000 0.000000 0.000000 0.000000 0.021772 0.000000
# 6 0.000000 0.000000 0.000000 0.000000 0.000000 0.040359
#
#
# Mechanical properties :
#
#
# Convention : Reuss Voigt Hill
#
# Bulk Modulus (GPa) = 49.49651 66.48965 57.99308
# Shear Modulus (GPa) = 33.10423 38.34048 35.72236
#
# Velocity S-wave (km/s) = 3.82393 4.11526 3.97226
# Velocity P-wave (km/s) = 6.43114 7.20760 6.83041
#
# Compressibility (1/GPa) = 0.02020345
#
# Stress axis : x y z
#
# Youngs Moduli (GPa) = 98.83938 44.99201 144.39840
#
# Poissons Ratio (x) = 0.19183 0.33587
# Poissons Ratio (y) = 0.42143 0.42496
# Poissons Ratio (z) = 0.22990 0.13241
#
# Static dielectric constant tensor:
#      x y z
#    x 3.856080 0.000000 0.000000 
#    y 0.000000 4.372570 0.000000 
#    z 0.000000 0.000000 4.067610 
# 
# 
# High freq. dielectric constant tensor:
#      x y z
#    x 1.891760 0.000000 0.000000 
#    y 0.000000 1.849700 0.000000 
#    z 0.000000 0.000000 1.928610 
# 
# From -- ./inp_files/22678.got.cif
#   From: 2010.03.12/outbox.cif.g09.slc.cpg/sg60_12_cif.got.tgz:22678.got - 2010.04.10 18:46:24.
