data_PCOD8247376
_publ_section_title
;
Structure prediction by ZEFSAII (Michael W. Deem and Ramdas Pophale) SiO2 
 PCOD8247376
Probable space group: P B C N
;
_chemical_formula_sum "Si O2"
_cell_formula_units_Z 52
_cell_length_a 17.418026
_cell_length_b 14.179213
_cell_length_c 10.629699
_cell_angle_alpha 90.000000
_cell_angle_beta 90.000000
_cell_angle_gamma 90.000000
_cell_volume 2625.258225
_symmetry_space_group_name_H-M "P B C N"
_symmetry_group_IT_number 60
_symmetry_cell_setting 'orthorhombic'
loop_
_space_group_symop_operation_xyz
x,y,z
1/2-x,1/2-y,1/2+z
1/2+x,1/2-y,-z
-x,y,1/2-z
-x,-y,-z
1/2+x,1/2+y,1/2-z
1/2-x,1/2+y,z
x,-y,1/2+z
loop_
_atom_site_type_symbol
_atom_site_label
_atom_site_fract_x
_atom_site_fract_y
_atom_site_fract_z
Si Si1 0.000000 0.078932 0.750000
Si Si2 0.106858 0.085867 0.314461
Si Si3 0.285674 0.614260 0.097317
Si Si4 0.638671 0.763668 0.560949
Si Si5 0.523995 0.707194 0.991353
Si Si6 0.156624 0.746557 0.157415
Si Si7 0.762261 0.907069 0.484206
O O1 0.026742 0.136029 0.627656
O O2 0.070612 0.016885 0.800520
O O3 0.135180 0.117747 0.176857
O O4 0.043378 0.155153 0.376861
O O5 0.182523 0.082931 0.397580
O O6 0.216906 0.662739 0.172060
O O7 0.251967 0.511560 0.068858
O O8 0.305599 0.676277 0.974482
O O9 0.556405 0.760969 0.490014
O O10 0.617105 0.747205 0.706356
O O11 0.680755 0.862191 0.527879
O O12 0.593557 0.777844 0.951659
O O13 0.200475 0.843472 0.124472
#
# Coordination Sequence:
#
# PCOD8247376 Si02
#       7
#     4   8   8   8   8   8   8
#     4  12  20  32  56  90 120 156 190 240 314 362
#     4  11  21  36  54  90 121 149 197 246 310 359
#     4  11  23  37  61  87 118 156 202 252 295 358
#     4  11  21  40  60  86 122 161 200 249 302 361
#     4  11  22  36  59  85 123 159 193 248 304 364
#     4  10  21  39  58  87 116 159 198 246 304 357
#     4  10  23  37  60  87 119 160 203 247 301 358
#
# _framework density 19.807575
#
# number of rings (size 3 to 8) (size 9 to 14) (size 15 to 20)
#    0.000    1.231    3.077    4.154    2.154    0.000 
#    0.000    0.769    0.000    0.000    0.000    0.000 
#    0.000    0.000    0.000    0.000    0.000    0.000 
#
# Total GULP energy -644638.980810 kJ/mol
# GULP energy per Si atom -12396.903477 kJ/mol
# Density = 1.976249 g / cm^3
# Si number density = 19.807575 Si / 1000 Ang^3
#
#
#
# Elastic Constant Matrix: (Units=GPa)
#
#
# Indices 1 2 3 4 5 6 
#
# 1 97.4953 34.6700 9.3401 0.0000 0.0000 0.0000
# 2 34.6700 94.1616 23.9170 0.0000 0.0000 0.0000
# 3 9.3401 23.9170 58.8762 0.0000 0.0000 0.0000
# 4 0.0000 0.0000 0.0000 18.0057 0.0000 0.0000
# 5 0.0000 0.0000 0.0000 0.0000 31.2868 0.0000
# 6 0.0000 0.0000 0.0000 0.0000 0.0000 24.6294
#
#
#
# Elastic Compliance Matrix: (Units=1/GPa)
#
#
# Indices 1 2 3 4 5 6 
#
# 1 0.011803 -0.004316 -0.000119 0.000000 0.000000 0.000000
# 2 -0.004316 0.013420 -0.004767 0.000000 0.000000 0.000000
# 3 -0.000119 -0.004767 0.018940 0.000000 0.000000 0.000000
# 4 0.000000 0.000000 0.000000 0.055538 0.000000 0.000000
# 5 0.000000 0.000000 0.000000 0.000000 0.031962 0.000000
# 6 0.000000 0.000000 0.000000 0.000000 0.000000 0.040602
#
#
# Mechanical properties :
#
#
# Convention : Reuss Voigt Hill
#
# Bulk Modulus (GPa) = 38.82065 42.93192 40.87628
# Shear Modulus (GPa) = 25.09347 26.95811 26.02579
#
# Velocity S-wave (km/s) = 3.56316 3.69318 3.62875
# Velocity P-wave (km/s) = 6.04728 6.31725 6.18374
#
# Compressibility (1/GPa) = 0.02575949
#
# Stress axis : x y z
#
# Youngs Moduli (GPa) = 84.72447 74.51689 52.79788
#
# Poissons Ratio (x) = 0.32158 0.00630
# Poissons Ratio (y) = 0.36563 0.25168
# Poissons Ratio (z) = 0.01011 0.35521
#
# Static dielectric constant tensor:
#      x y z
#    x 3.815780 0.000000 0.000000 
#    y 0.000000 3.451460 0.000000 
#    z 0.000000 0.000000 3.608910 
# 
# 
# High freq. dielectric constant tensor:
#      x y z
#    x 1.783780 0.000000 0.000000 
#    y 0.000000 1.741840 0.000000 
#    z 0.000000 0.000000 1.778860 
# 
# From -- ./inp_files/12501.got.cif
#   From: 2010.03.12/outbox.cif.g09.slc.cpg/sg60_7_cif.got.tgz:12501.got - 2010.04.10 18:46:24.
