data_PCOD8247556
_publ_section_title
;
Structure prediction by ZEFSAII (Michael W. Deem and Ramdas Pophale) SiO2 
 PCOD8247556
Probable space group: P B C N
;
_chemical_formula_sum "Si O2"
_cell_formula_units_Z 48
_cell_length_a 10.013979
_cell_length_b 10.397989
_cell_length_c 22.699671
_cell_angle_alpha 90.000000
_cell_angle_beta 90.000000
_cell_angle_gamma 90.000000
_cell_volume 2363.608770
_symmetry_space_group_name_H-M "P B C N"
_symmetry_group_IT_number 60
_symmetry_cell_setting 'orthorhombic'
loop_
_space_group_symop_operation_xyz
x,y,z
1/2-x,1/2-y,1/2+z
1/2+x,1/2-y,-z
-x,y,1/2-z
-x,-y,-z
1/2+x,1/2+y,1/2-z
1/2-x,1/2+y,z
x,-y,1/2+z
loop_
_atom_site_type_symbol
_atom_site_label
_atom_site_fract_x
_atom_site_fract_y
_atom_site_fract_z
Si Si1 0.979824 0.994386 0.592202
Si Si2 0.129325 0.958745 0.285537
Si Si3 0.848301 0.142605 0.991153
Si Si4 0.030427 0.733864 0.650554
Si Si5 0.297069 0.271367 0.761026
Si Si6 0.458712 0.131690 0.529818
O O1 0.874578 0.968492 0.539668
O O2 0.048734 0.863504 0.613127
O O3 0.897180 0.056374 0.645418
O O4 0.097865 0.089958 0.571578
O O5 0.166377 0.816564 0.264448
O O6 0.000000 0.007736 0.250000
O O7 0.233629 0.075633 0.270038
O O8 0.691015 0.173564 0.988985
O O9 0.930989 0.268731 0.007430
O O10 0.891367 0.726591 0.685323
O O11 0.148726 0.731661 0.697306
O O12 0.037082 0.620143 0.601679
O O13 0.500000 0.000000 0.500000
#
# Coordination Sequence:
#
# PCOD8247556 Si02
#       6
#     8   8   8   8   8   8
#     4   9  20  41  68  85 132 170 215 259 327 382
#     4  11  22  41  65  96 124 170 214 268 321 392
#     4  10  24  41  65  96 129 175 213 266 324 386
#     4   9  20  42  65  88 126 172 202 272 319 386
#     4  10  21  42  67  90 130 169 215 264 335 376
#     4  11  26  41  66  98 132 168 222 265 328 392
#
# _framework density 20.307929999999999
#
# number of rings (size 3 to 8) (size 9 to 14) (size 15 to 20)
#    0.000    2.000    3.333    0.000   11.667    2.667 
#    3.000    0.000    0.000    0.000    0.000    0.000 
#    0.000    0.000    0.000    0.000    0.000    0.000 
#
# Total GULP energy -594935.273819 kJ/mol
# GULP energy per Si atom -12394.484871 kJ/mol
# Density = 2.026171 g / cm^3
# Si number density = 20.307930 Si / 1000 Ang^3
#
#
#
# Elastic Constant Matrix: (Units=GPa)
#
#
# Indices 1 2 3 4 5 6 
#
# 1 91.2181 40.4525 27.6358 0.0000 0.0000 0.0000
# 2 40.4525 100.6269 42.5267 0.0000 0.0000 0.0000
# 3 27.6358 42.5267 134.0671 0.0000 0.0000 0.0000
# 4 0.0000 0.0000 0.0000 32.1632 0.0000 0.0000
# 5 0.0000 0.0000 0.0000 0.0000 18.8313 0.0000
# 6 0.0000 0.0000 0.0000 0.0000 0.0000 27.9035
#
#
#
# Elastic Compliance Matrix: (Units=1/GPa)
#
#
# Indices 1 2 3 4 5 6 
#
# 1 0.013514 -0.004914 -0.001227 0.000000 0.000000 0.000000
# 2 -0.004914 0.013263 -0.003194 0.000000 0.000000 0.000000
# 3 -0.001227 -0.003194 0.008725 0.000000 0.000000 0.000000
# 4 0.000000 0.000000 0.000000 0.031091 0.000000 0.000000
# 5 0.000000 0.000000 0.000000 0.000000 0.053103 0.000000
# 6 0.000000 0.000000 0.000000 0.000000 0.000000 0.035838
#
#
# Mechanical properties :
#
#
# Convention : Reuss Voigt Hill
#
# Bulk Modulus (GPa) = 59.41193 60.79357 60.10275
# Shear Modulus (GPa) = 27.80637 30.13273 28.96955
#
# Velocity S-wave (km/s) = 3.70433 3.85618 3.78102
# Velocity P-wave (km/s) = 6.90037 7.05887 6.98007
#
# Compressibility (1/GPa) = 0.01683164
#
# Stress axis : x y z
#
# Youngs Moduli (GPa) = 73.99912 75.39722 114.61246
#
# Poissons Ratio (x) = 0.37051 0.14061
# Poissons Ratio (y) = 0.36364 0.36609
# Poissons Ratio (z) = 0.09079 0.24083
#
# Static dielectric constant tensor:
#      x y z
#    x 3.397720 0.000000 0.000000 
#    y 0.000000 3.560660 0.000000 
#    z 0.000000 0.000000 4.150610 
# 
# 
# High freq. dielectric constant tensor:
#      x y z
#    x 1.767720 0.000000 0.000000 
#    y 0.000000 1.784890 0.000000 
#    z 0.000000 0.000000 1.814860 
# 
# From -- ./inp_files/23913.got.cif
#   From: 2010.03.12/outbox.cif.g09.slc.cpg/sg60_12_cif.got.tgz:23913.got - 2010.04.10 18:46:24.
