data_PCOD8247760
_publ_section_title
;
Structure prediction by ZEFSAII (Michael W. Deem and Ramdas Pophale) SiO2 
 PCOD8247760
Probable space group: P B C N
;
_chemical_formula_sum "Si O2"
_cell_formula_units_Z 48
_cell_length_a 8.293836
_cell_length_b 9.230549
_cell_length_c 29.785552
_cell_angle_alpha 90.000000
_cell_angle_beta 90.000000
_cell_angle_gamma 90.000000
_cell_volume 2280.282365
_symmetry_space_group_name_H-M "P B C N"
_symmetry_group_IT_number 60
_symmetry_cell_setting 'orthorhombic'
loop_
_space_group_symop_operation_xyz
x,y,z
1/2-x,1/2-y,1/2+z
1/2+x,1/2-y,-z
-x,y,1/2-z
-x,-y,-z
1/2+x,1/2+y,1/2-z
1/2-x,1/2+y,z
x,-y,1/2+z
loop_
_atom_site_type_symbol
_atom_site_label
_atom_site_fract_x
_atom_site_fract_y
_atom_site_fract_z
Si Si1 0.465468 0.948465 0.198338
Si Si2 0.581847 0.515472 0.883661
Si Si3 0.267273 0.219901 0.165432
Si Si4 0.392928 0.383536 0.023978
Si Si5 0.287210 0.929015 0.383902
Si Si6 0.336179 0.181430 0.443483
O O1 0.500000 0.966004 0.250000
O O2 0.351987 0.807287 0.198119
O O3 0.617870 0.925853 0.164019
O O4 0.377792 0.099545 0.188182
O O5 0.652653 0.362201 0.869174
O O6 0.619235 0.657897 0.855040
O O7 0.669658 0.535881 0.931621
O O8 0.389642 0.499535 0.880802
O O9 0.494773 0.249939 0.043257
O O10 0.500000 0.500000 0.000000
O O11 0.255057 0.332216 0.990731
O O12 0.269378 0.772406 0.407228
O O13 0.381419 0.029906 0.419746
#
# Coordination Sequence:
#
# PCOD8247760 Si02
#       6
#     8   8   8   8   8   8
#     4  11  25  44  69  97 123 164 209 264 324 387
#     4  10  22  41  64  92 132 171 212 260 311 377
#     4  10  24  42  65  95 128 167 205 262 327 371
#     4  11  23  38  58  93 125 165 219 257 302 368
#     4  11  23  42  64  89 127 169 215 258 329 372
#     4  11  23  40  62  90 126 170 211 265 310 371
#
# _framework density 21.050025000000002
#
# number of rings (size 3 to 8) (size 9 to 14) (size 15 to 20)
#    0.000    1.333    3.333    3.000    2.333    6.000 
#    0.000    3.333    0.000    0.000    0.000    0.000 
#    0.000    0.000    0.000    0.000    0.000    0.000 
#
# Total GULP energy -594645.518155 kJ/mol
# GULP energy per Si atom -12388.448295 kJ/mol
# Density = 2.100211 g / cm^3
# Si number density = 21.050025 Si / 1000 Ang^3
#
#
#
# Elastic Constant Matrix: (Units=GPa)
#
#
# Indices 1 2 3 4 5 6 
#
# 1 41.2618 -8.1649 18.3055 0.0000 0.0000 0.0000
# 2 -8.1649 64.9173 -9.4462 0.0000 0.0000 0.0000
# 3 18.3055 -9.4462 106.1746 0.0000 0.0000 0.0000
# 4 0.0000 0.0000 0.0000 8.5000 0.0000 0.0000
# 5 0.0000 0.0000 0.0000 0.0000 33.2212 0.0000
# 6 0.0000 0.0000 0.0000 0.0000 0.0000 23.2481
#
#
#
# Elastic Compliance Matrix: (Units=1/GPa)
#
#
# Indices 1 2 3 4 5 6 
#
# 1 0.026710 0.002725 -0.004363 0.000000 0.000000 0.000000
# 2 0.002725 0.015884 0.000943 0.000000 0.000000 0.000000
# 3 -0.004363 0.000943 0.010255 0.000000 0.000000 0.000000
# 4 0.000000 0.000000 0.000000 0.117646 0.000000 0.000000
# 5 0.000000 0.000000 0.000000 0.000000 0.030101 0.000000
# 6 0.000000 0.000000 0.000000 0.000000 0.000000 0.043014
#
#
# Mechanical properties :
#
#
# Convention : Reuss Voigt Hill
#
# Bulk Modulus (GPa) = 19.43273 23.74918 21.59096
# Shear Modulus (GPa) = 19.07281 27.10448 23.08864
#
# Velocity S-wave (km/s) = 3.01337 3.59224 3.31546
# Velocity P-wave (km/s) = 4.62157 5.33969 4.99356
#
# Compressibility (1/GPa) = 0.05145957
#
# Stress axis : x y z
#
# Youngs Moduli (GPa) = 37.43898 62.95577 97.51763
#
# Poissons Ratio (x) = -0.17153 0.42544
# Poissons Ratio (y) = -0.10201 -0.09200
# Poissons Ratio (z) = 0.16333 -0.05940
#
# Static dielectric constant tensor:
#      x y z
#    x 3.787630 0.000000 0.000000 
#    y 0.000000 4.015950 0.000000 
#    z 0.000000 0.000000 3.728140 
# 
# 
# High freq. dielectric constant tensor:
#      x y z
#    x 1.820890 0.000000 0.000000 
#    y 0.000000 1.849730 0.000000 
#    z 0.000000 0.000000 1.821330 
# 
# From -- ./inp_files/25915.got.cif
#   From: 2010.03.12/outbox.cif.g09.slc.cpg/sg60_13_cif.got.tgz:25915.got - 2010.04.10 18:46:24.
