data_PCOD8247470
_publ_section_title
;
Structure prediction by ZEFSAII (Michael W. Deem and Ramdas Pophale) SiO2 
 PCOD8247470
Probable space group: P B C N
;
_chemical_formula_sum "Si O2"
_cell_formula_units_Z 40
_cell_length_a 8.985270
_cell_length_b 12.525617
_cell_length_c 16.456303
_cell_angle_alpha 90.000000
_cell_angle_beta 90.000000
_cell_angle_gamma 90.000000
_cell_volume 1852.091911
_symmetry_space_group_name_H-M "P B C N"
_symmetry_group_IT_number 60
_symmetry_cell_setting 'orthorhombic'
loop_
_space_group_symop_operation_xyz
x,y,z
1/2-x,1/2-y,1/2+z
1/2+x,1/2-y,-z
-x,y,1/2-z
-x,-y,-z
1/2+x,1/2+y,1/2-z
1/2-x,1/2+y,z
x,-y,1/2+z
loop_
_atom_site_type_symbol
_atom_site_label
_atom_site_fract_x
_atom_site_fract_y
_atom_site_fract_z
Si Si1 0.857799 0.447418 0.095244
Si Si2 0.274164 0.196825 0.039116
Si Si3 0.342030 0.641964 0.778303
Si Si4 0.911880 0.283376 0.327908
Si Si5 0.592868 0.808840 0.594217
O O1 0.718622 0.442516 0.156180
O O2 0.926014 0.564300 0.098752
O O3 0.982866 0.361780 0.120920
O O4 0.798930 0.418017 0.004568
O O5 0.152602 0.190813 0.112490
O O6 0.431696 0.240213 0.072461
O O7 0.217210 0.281233 0.972331
O O8 0.500000 0.596885 0.750000
O O9 0.228645 0.648309 0.703264
O O10 0.358493 0.759588 0.819365
O O11 0.000000 0.234217 0.250000
#
# Coordination Sequence:
#
# PCOD8247470 Si02
#       5
#     8   8   8   8   8
#     4  10  23  42  65  93 126 169 222 254 326 391
#     4  11  21  39  67  91 125 163 215 267 315 379
#     4  10  21  40  64  92 132 164 210 271 316 377
#     4  10  21  40  64  90 132 164 204 265 324 384
#     4  11  23  42  67  93 122 174 213 265 319 382
#
# _framework density 21.597199
#
# number of rings (size 3 to 8) (size 9 to 14) (size 15 to 20)
#    0.000    1.600    4.000    0.600    0.000    2.400 
#    0.000   11.000    0.000    0.000    0.000    0.000 
#    0.000    0.000    0.000    0.000    0.000    0.000 
#
# Total GULP energy -495880.448777 kJ/mol
# GULP energy per Si atom -12397.011219 kJ/mol
# Density = 2.154804 g / cm^3
# Si number density = 21.597199 Si / 1000 Ang^3
#
#
#
# Elastic Constant Matrix: (Units=GPa)
#
#
# Indices 1 2 3 4 5 6 
#
# 1 153.7089 31.2142 52.9564 0.0000 0.0000 0.0000
# 2 31.2142 63.3391 27.6717 0.0000 0.0000 0.0000
# 3 52.9564 27.6717 99.4676 0.0000 0.0000 0.0000
# 4 0.0000 0.0000 0.0000 14.4433 0.0000 0.0000
# 5 0.0000 0.0000 0.0000 0.0000 48.4168 0.0000
# 6 0.0000 0.0000 0.0000 0.0000 0.0000 17.2015
#
#
#
# Elastic Compliance Matrix: (Units=1/GPa)
#
#
# Indices 1 2 3 4 5 6 
#
# 1 0.008290 -0.002456 -0.003730 0.000000 0.000000 0.000000
# 2 -0.002456 0.018700 -0.003895 0.000000 0.000000 0.000000
# 3 -0.003730 -0.003895 0.013123 0.000000 0.000000 0.000000
# 4 0.000000 0.000000 0.000000 0.069236 0.000000 0.000000
# 5 0.000000 0.000000 0.000000 0.000000 0.020654 0.000000
# 6 0.000000 0.000000 0.000000 0.000000 0.000000 0.058134
#
#
# Mechanical properties :
#
#
# Convention : Reuss Voigt Hill
#
# Bulk Modulus (GPa) = 50.12273 60.02226 55.07249
# Shear Modulus (GPa) = 23.26132 29.65720 26.45926
#
# Velocity S-wave (km/s) = 3.28541 3.70969 3.50398
# Velocity P-wave (km/s) = 6.13598 6.79714 6.47500
#
# Compressibility (1/GPa) = 0.01995103
#
# Stress axis : x y z
#
# Youngs Moduli (GPa) = 120.63276 53.47663 76.20167
#
# Poissons Ratio (x) = 0.13131 0.28425
# Poissons Ratio (y) = 0.29622 0.29680
# Poissons Ratio (z) = 0.44999 0.20829
#
# Static dielectric constant tensor:
#      x y z
#    x 4.208800 0.000000 0.000000 
#    y 0.000000 3.276380 0.000000 
#    z 0.000000 0.000000 4.270980 
# 
# 
# High freq. dielectric constant tensor:
#      x y z
#    x 1.871650 0.000000 0.000000 
#    y 0.000000 1.788260 0.000000 
#    z 0.000000 0.000000 1.867610 
# 
# From -- ./inp_files/19016.got.cif
#   From: 2010.03.12/outbox.cif.g09.slc.cpg/sg60_10_cif.got.tgz:19016.got - 2010.04.10 18:46:24.
