data_PCOD8247002
_publ_section_title
;
Structure prediction by ZEFSAII (Michael W. Deem and Ramdas Pophale) SiO2 
 PCOD8247002
Probable space group: P B C N
;
_chemical_formula_sum "Si O2"
_cell_formula_units_Z 60
_cell_length_a 10.206624
_cell_length_b 15.671253
_cell_length_c 18.683122
_cell_angle_alpha 90.000000
_cell_angle_beta 90.000000
_cell_angle_gamma 90.000000
_cell_volume 2988.376331
_symmetry_space_group_name_H-M "P B C N"
_symmetry_group_IT_number 60
_symmetry_cell_setting 'orthorhombic'
loop_
_space_group_symop_operation_xyz
x,y,z
1/2-x,1/2-y,1/2+z
1/2+x,1/2-y,-z
-x,y,1/2-z
-x,-y,-z
1/2+x,1/2+y,1/2-z
1/2-x,1/2+y,z
x,-y,1/2+z
loop_
_atom_site_type_symbol
_atom_site_label
_atom_site_fract_x
_atom_site_fract_y
_atom_site_fract_z
Si Si1 0.095088 0.012530 0.308381
Si Si2 0.132694 0.787402 0.105700
Si Si3 0.270333 0.357775 0.250246
Si Si4 0.082958 0.031379 0.567674
Si Si5 0.161348 0.214761 0.903270
Si Si6 0.896444 0.179798 0.119633
Si Si7 0.332831 0.355509 0.550566
Si Si8 0.500000 0.791087 0.250000
O O1 0.159615 0.089722 0.351491
O O2 0.000000 0.055364 0.250000
O O3 0.012936 0.953716 0.364076
O O4 0.197915 0.957247 0.262630
O O5 0.144483 0.812419 0.189113
O O6 0.234674 0.712768 0.085949
O O7 0.986849 0.749317 0.093631
O O8 0.153762 0.876098 0.059419
O O9 0.301398 0.313392 0.324615
O O10 0.119361 0.351668 0.225987
O O11 0.000000 0.000000 0.500000
O O12 0.187050 0.952789 0.580806
O O13 0.271734 0.284501 0.923648
O O14 0.179441 0.142083 0.964160
O O15 0.016918 0.170480 0.065602
O O16 0.948763 0.235706 0.184745
#
# Coordination Sequence:
#
# PCOD8247002 Si02
#       8
#     8   8   8   8   8   8   8   4
#     4  11  19  35  62  89 117 161 210 257 305 378
#     4  12  22  40  68  95 127 168 218 269 326 376
#     4  11  21  39  62  91 126 168 211 264 325 385
#     4  11  22  39  62  97 126 166 216 263 314 392
#     4  11  22  38  62  91 129 164 210 266 319 383
#     4  10  22  37  62  89 122 165 215 255 317 387
#     4  11  23  40  64  96 127 170 216 266 324 388
#     4  10  20  38  58  84 120 164 202 254 320 378
#
# _framework density 20.077791999999999
#
# number of rings (size 3 to 8) (size 9 to 14) (size 15 to 20)
#    0.000    1.067    6.000    1.200    1.867    0.000 
#    0.000    1.333    0.000    1.600    0.000    0.000 
#    0.000    0.000    0.000    0.000    0.000    0.000 
#
# Total GULP energy -743339.436804 kJ/mol
# GULP energy per Si atom -12388.990613 kJ/mol
# Density = 2.003209 g / cm^3
# Si number density = 20.077792 Si / 1000 Ang^3
#
#
#
# Elastic Constant Matrix: (Units=GPa)
#
#
# Indices 1 2 3 4 5 6 
#
# 1 116.6359 65.7294 12.5669 0.0000 0.0000 0.0000
# 2 65.7294 119.3137 15.1133 0.0000 0.0000 0.0000
# 3 12.5669 15.1133 81.9249 0.0000 0.0000 0.0000
# 4 0.0000 0.0000 0.0000 32.3211 0.0000 0.0000
# 5 0.0000 0.0000 0.0000 0.0000 24.0706 0.0000
# 6 0.0000 0.0000 0.0000 0.0000 0.0000 -2.0424
#
#
#
# Elastic Compliance Matrix: (Units=1/GPa)
#
#
# Indices 1 2 3 4 5 6 
#
# 1 0.012469 -0.006785 -0.000661 0.000000 0.000000 0.000000
# 2 -0.006785 0.012274 -0.001223 0.000000 0.000000 0.000000
# 3 -0.000661 -0.001223 0.012533 0.000000 0.000000 0.000000
# 4 0.000000 0.000000 0.000000 0.030940 0.000000 0.000000
# 5 0.000000 0.000000 0.000000 0.000000 0.041545 0.000000
# 6 0.000000 0.000000 0.000000 0.000000 0.000000 -0.489610
#
#
# Mechanical properties :
#
#
# Convention : Reuss Voigt Hill
#
# Bulk Modulus (GPa) = 50.15800 56.07707 53.11754
# Shear Modulus (GPa) = -14.05029 25.83417 5.89194
#
# Velocity S-wave (km/s) = -2.64823 3.59096 1.71491
# Velocity P-wave (km/s) = 3.96046 6.72189 5.51675
#
# Compressibility (1/GPa) = 0.01993700
#
# Stress axis : x y z
#
# Youngs Moduli (GPa) = 80.20102 81.47178 79.78687
#
# Poissons Ratio (x) = 0.55280 0.05273
# Poissons Ratio (y) = 0.54418 0.09762
# Poissons Ratio (z) = 0.05301 0.09968
#
# Static dielectric constant tensor:
#      x y z
#    x 3.895740 0.000000 0.000000 
#    y 0.000000 3.986260 0.000000 
#    z 0.000000 0.000000 3.853940 
# 
# 
# High freq. dielectric constant tensor:
#      x y z
#    x 1.760320 0.000000 0.000000 
#    y 0.000000 1.776970 0.000000 
#    z 0.000000 0.000000 1.808180 
# 
# From -- ./inp_files/22728.got.cif
#   From: 2010.03.12/outbox.cif.g09.slc.cpg/sg60_12_cif.got.tgz:22728.got - 2010.04.10 18:46:24.
