data_PCOD8247202
_publ_section_title
;
Structure prediction by ZEFSAII (Michael W. Deem and Ramdas Pophale) SiO2 
 PCOD8247202
Probable space group: P B C N
;
_chemical_formula_sum "Si O2"
_cell_formula_units_Z 24
_cell_length_a 6.051673
_cell_length_b 21.859359
_cell_length_c 7.493216
_cell_angle_alpha 90.000000
_cell_angle_beta 90.000000
_cell_angle_gamma 90.000000
_cell_volume 991.245269
_symmetry_space_group_name_H-M "P B C N"
_symmetry_group_IT_number 60
_symmetry_cell_setting 'orthorhombic'
loop_
_space_group_symop_operation_xyz
x,y,z
1/2-x,1/2-y,1/2+z
1/2+x,1/2-y,-z
-x,y,1/2-z
-x,-y,-z
1/2+x,1/2+y,1/2-z
1/2-x,1/2+y,z
x,-y,1/2+z
loop_
_atom_site_type_symbol
_atom_site_label
_atom_site_fract_x
_atom_site_fract_y
_atom_site_fract_z
Si Si1 0.500000 0.268653 0.750000
Si Si2 0.600389 0.936278 0.436745
Si Si3 0.000000 0.105314 0.750000
Si Si4 0.169890 0.328907 0.511604
O O1 0.290716 0.310957 0.696445
O O2 0.451658 0.229374 0.926632
O O3 0.500000 0.917946 0.250000
O O4 0.511697 0.881425 0.563053
O O5 0.864713 0.936686 0.396222
O O6 0.500000 0.000000 0.500000
O O7 0.844891 0.148393 0.634672
#
# Coordination Sequence:
#
# PCOD8247202 Si02
#       4
#     4   8   4   8
#     4  12  24  43  70  98 147 182 238 300 372 440
#     4  10  23  42  65  97 137 183 244 298 361 437
#     4  10  20  45  66  92 143 180 238 300 362 426
#     4  11  24  43  65 102 134 188 233 301 368 437
#
# _framework density 24.211967999999999
#
# number of rings (size 3 to 8) (size 9 to 14) (size 15 to 20)
#    0.000    1.333    5.000    2.000    0.000    9.333 
#    0.000    0.000    0.000    0.000    0.000    0.000 
#    0.000    0.000    0.000    0.000    0.000    0.000 
#
# Total GULP energy -297379.258188 kJ/mol
# GULP energy per Si atom -12390.802424 kJ/mol
# Density = 2.415686 g / cm^3
# Si number density = 24.211968 Si / 1000 Ang^3
#
#
#
# Elastic Constant Matrix: (Units=GPa)
#
#
# Indices 1 2 3 4 5 6 
#
# 1 130.2153 71.4210 22.0595 0.0000 0.0000 0.0000
# 2 71.4210 160.6670 41.7361 0.0000 0.0000 0.0000
# 3 22.0595 41.7361 48.9490 0.0000 0.0000 0.0000
# 4 0.0000 0.0000 0.0000 23.5997 0.0000 0.0000
# 5 0.0000 0.0000 0.0000 0.0000 52.6393 0.0000
# 6 0.0000 0.0000 0.0000 0.0000 0.0000 31.5080
#
#
#
# Elastic Compliance Matrix: (Units=1/GPa)
#
#
# Indices 1 2 3 4 5 6 
#
# 1 0.010189 -0.004286 -0.000938 0.000000 0.000000 0.000000
# 2 -0.004286 0.009798 -0.006422 0.000000 0.000000 0.000000
# 3 -0.000938 -0.006422 0.026328 0.000000 0.000000 0.000000
# 4 0.000000 0.000000 0.000000 0.042373 0.000000 0.000000
# 5 0.000000 0.000000 0.000000 0.000000 0.018997 0.000000
# 6 0.000000 0.000000 0.000000 0.000000 0.000000 0.031738
#
#
# Mechanical properties :
#
#
# Convention : Reuss Voigt Hill
#
# Bulk Modulus (GPa) = 43.43467 67.80718 55.62093
# Shear Modulus (GPa) = 29.34460 35.19036 32.26748
#
# Velocity S-wave (km/s) = 3.48514 3.81652 3.65459
# Velocity P-wave (km/s) = 5.84578 6.89112 6.38987
#
# Compressibility (1/GPa) = 0.02302308
#
# Stress axis : x y z
#
# Youngs Moduli (GPa) = 98.14397 102.06647 37.98244
#
# Poissons Ratio (x) = 0.43744 0.03561
# Poissons Ratio (y) = 0.42062 0.24394
# Poissons Ratio (z) = 0.09202 0.65551
#
# Static dielectric constant tensor:
#      x y z
#    x 7.909030 0.000000 0.000000 
#    y 0.000000 3.531610 0.000000 
#    z 0.000000 0.000000 5.069780 
# 
# 
# High freq. dielectric constant tensor:
#      x y z
#    x 1.976390 0.000000 0.000000 
#    y 0.000000 1.957210 0.000000 
#    z 0.000000 0.000000 1.946710 
# 
# From -- ./inp_files/2902.got.cif
#   From: 2010.03.12/outbox.cif.g09.slc.cpg/sg60_2_cif.got.tgz:2902.got - 2010.04.10 18:46:24.
