data_PCOD8247383
_publ_section_title
;
Structure prediction by ZEFSAII (Michael W. Deem and Ramdas Pophale) SiO2 
 PCOD8247383
Probable space group: P B C N
;
_chemical_formula_sum "Si O2"
_cell_formula_units_Z 60
_cell_length_a 20.211679
_cell_length_b 16.440491
_cell_length_c 8.831691
_cell_angle_alpha 90.000000
_cell_angle_beta 90.000000
_cell_angle_gamma 90.000000
_cell_volume 2934.681955
_symmetry_space_group_name_H-M "P B C N"
_symmetry_group_IT_number 60
_symmetry_cell_setting 'orthorhombic'
loop_
_space_group_symop_operation_xyz
x,y,z
1/2-x,1/2-y,1/2+z
1/2+x,1/2-y,-z
-x,y,1/2-z
-x,-y,-z
1/2+x,1/2+y,1/2-z
1/2-x,1/2+y,z
x,-y,1/2+z
loop_
_atom_site_type_symbol
_atom_site_label
_atom_site_fract_x
_atom_site_fract_y
_atom_site_fract_z
Si Si1 0.663877 0.710762 0.885800
Si Si2 0.433780 0.403153 0.949849
Si Si3 0.175754 0.839341 0.449374
Si Si4 0.812856 0.324317 0.391111
Si Si5 0.574915 0.436539 0.881328
Si Si6 0.500000 0.994399 0.750000
Si Si7 0.675878 0.126836 0.554021
Si Si8 0.096456 0.458905 0.997516
O O1 0.653021 0.700733 0.707757
O O2 0.734226 0.667640 0.922637
O O3 0.605637 0.672687 0.984827
O O4 0.660602 0.805900 0.926748
O O5 0.509496 0.381582 0.907900
O O6 0.399631 0.431513 0.791983
O O7 0.437406 0.469334 0.083066
O O8 0.169206 0.768473 0.573610
O O9 0.128015 0.910511 0.496654
O O10 0.245470 0.886412 0.446739
O O11 0.839356 0.340673 0.222238
O O12 0.848485 0.388895 0.500807
O O13 0.548695 0.940923 0.645236
O O14 0.451122 0.047631 0.644368
O O15 0.633841 0.046113 0.515973
#
# Coordination Sequence:
#
# PCOD8247383 Si02
#       8
#     8   8   8   8   8   4   8   8
#     4  10  22  39  61  93 121 156 202 255 297 361
#     4  10  21  39  60  85 120 158 199 244 298 356
#     4  10  22  39  61  93 121 156 202 255 297 361
#     4  10  22  41  62  88 124 157 202 248 305 354
#     4  10  21  39  60  85 120 158 199 244 298 356
#     4  10  24  42  64  90 124 154 212 250 304 358
#     4  10  22  41  62  88 124 157 202 248 305 354
#     4  11  22  44  64  90 121 166 200 258 301 372
#
# _framework density 20.445145
#
# number of rings (size 3 to 8) (size 9 to 14) (size 15 to 20)
#    0.000    1.867    1.333    1.600    3.733    2.667 
#    4.800    0.000    0.000    0.000    0.000    0.000 
#    0.000    0.000    0.000    0.000    0.000    0.000 
#
# Total GULP energy -743621.728457 kJ/mol
# GULP energy per Si atom -12393.695474 kJ/mol
# Density = 2.039861 g / cm^3
# Si number density = 20.445145 Si / 1000 Ang^3
#
#
#
# Elastic Constant Matrix: (Units=GPa)
#
#
# Indices 1 2 3 4 5 6 
#
# 1 74.9526 30.9138 42.3780 0.0000 0.0000 0.0000
# 2 30.9138 50.5195 17.4868 0.0000 0.0000 0.0000
# 3 42.3780 17.4868 92.5776 0.0000 0.0000 0.0000
# 4 0.0000 0.0000 0.0000 27.4701 0.0000 0.0000
# 5 0.0000 0.0000 0.0000 0.0000 38.6982 0.0000
# 6 0.0000 0.0000 0.0000 0.0000 0.0000 25.7406
#
#
#
# Elastic Compliance Matrix: (Units=1/GPa)
#
#
# Indices 1 2 3 4 5 6 
#
# 1 0.022503 -0.010918 -0.008239 0.000000 0.000000 0.000000
# 2 -0.010918 0.026477 -0.000003 0.000000 0.000000 0.000000
# 3 -0.008239 -0.000003 0.014574 0.000000 0.000000 0.000000
# 4 0.000000 0.000000 0.000000 0.036403 0.000000 0.000000
# 5 0.000000 0.000000 0.000000 0.000000 0.025841 0.000000
# 6 0.000000 0.000000 0.000000 0.000000 0.000000 0.038849
#
#
# Mechanical properties :
#
#
# Convention : Reuss Voigt Hill
#
# Bulk Modulus (GPa) = 39.63055 44.40078 42.01566
# Shear Modulus (GPa) = 23.65434 26.86651 25.26043
#
# Velocity S-wave (km/s) = 3.40511 3.62895 3.51881
# Velocity P-wave (km/s) = 5.90641 6.27083 6.09134
#
# Compressibility (1/GPa) = 0.02523306
#
# Stress axis : x y z
#
# Youngs Moduli (GPa) = 44.43843 37.76928 68.61716
#
# Poissons Ratio (x) = 0.41238 0.56531
# Poissons Ratio (y) = 0.48519 0.00022
# Poissons Ratio (z) = 0.36611 0.00012
#
# Static dielectric constant tensor:
#      x y z
#    x 3.867600 0.000000 0.000000 
#    y 0.000000 3.352190 0.000000 
#    z 0.000000 0.000000 3.904630 
# 
# 
# High freq. dielectric constant tensor:
#      x y z
#    x 1.805360 0.000000 0.000000 
#    y 0.000000 1.771440 0.000000 
#    z 0.000000 0.000000 1.817090 
# 
# From -- ./inp_files/7960.got.cif
#   From: 2010.03.12/outbox.cif.g09.slc.cpg/sg60_4_cif.got.tgz:7960.got - 2010.04.10 18:46:24.
