data_PCOD8247710
_publ_section_title
;
Structure prediction by ZEFSAII (Michael W. Deem and Ramdas Pophale) SiO2 
 PCOD8247710
Probable space group: P B C N
;
_chemical_formula_sum "Si O2"
_cell_formula_units_Z 40
_cell_length_a 14.067379
_cell_length_b 13.017795
_cell_length_c 11.197729
_cell_angle_alpha 90.000000
_cell_angle_beta 90.000000
_cell_angle_gamma 90.000000
_cell_volume 2050.598188
_symmetry_space_group_name_H-M "P B C N"
_symmetry_group_IT_number 60
_symmetry_cell_setting 'orthorhombic'
loop_
_space_group_symop_operation_xyz
x,y,z
1/2-x,1/2-y,1/2+z
1/2+x,1/2-y,-z
-x,y,1/2-z
-x,-y,-z
1/2+x,1/2+y,1/2-z
1/2-x,1/2+y,z
x,-y,1/2+z
loop_
_atom_site_type_symbol
_atom_site_label
_atom_site_fract_x
_atom_site_fract_y
_atom_site_fract_z
Si Si1 0.520009 0.818983 0.567175
Si Si2 0.003982 0.888200 0.944339
Si Si3 0.647542 0.887605 0.786477
Si Si4 0.090200 0.601549 0.682370
Si Si5 0.640422 0.324753 0.748894
O O1 0.515681 0.696338 0.546412
O O2 0.591034 0.846583 0.672665
O O3 0.412232 0.854731 0.595984
O O4 0.562398 0.877595 0.453567
O O5 0.920520 0.882743 0.847973
O O6 0.106422 0.866896 0.880611
O O7 0.000000 0.000000 0.000000
O O8 0.750093 0.837438 0.778881
O O9 0.666466 0.010351 0.799586
O O10 0.122190 0.703207 0.750918
O O11 0.000000 0.554009 0.750000
#
# Coordination Sequence:
#
# PCOD8247710 Si02
#       5
#     8   8   8   8   8
#     4  10  22  40  60  91 122 159 208 251 306 363
#     4  10  22  41  62  80 126 171 199 254 310 364
#     4  11  24  35  65  99 119 155 212 262 295 366
#     4  11  20  43  65  82 127 171 192 255 317 362
#     4  10  23  41  58  92 122 162 211 246 312 373
#
# _framework density 19.506502000000001
#
# number of rings (size 3 to 8) (size 9 to 14) (size 15 to 20)
#    0.000    1.600    6.000    0.600    0.000   11.200 
#    0.000    0.000    0.000    0.000    0.000    0.000 
#    0.000    0.000    0.000    0.000    0.000    0.000 
#
# Total GULP energy -495841.544080 kJ/mol
# GULP energy per Si atom -12396.038602 kJ/mol
# Density = 1.946210 g / cm^3
# Si number density = 19.506502 Si / 1000 Ang^3
#
#
#
# Elastic Constant Matrix: (Units=GPa)
#
#
# Indices 1 2 3 4 5 6 
#
# 1 110.6251 27.6845 17.4583 0.0000 0.0000 0.0000
# 2 27.6845 155.4021 57.8118 0.0000 0.0000 0.0000
# 3 17.4583 57.8118 73.2454 0.0000 0.0000 0.0000
# 4 0.0000 0.0000 0.0000 21.9220 0.0000 0.0000
# 5 0.0000 0.0000 0.0000 0.0000 11.8532 0.0000
# 6 0.0000 0.0000 0.0000 0.0000 0.0000 -89.1704
#
#
#
# Elastic Compliance Matrix: (Units=1/GPa)
#
#
# Indices 1 2 3 4 5 6 
#
# 1 0.009551 -0.001210 -0.001322 0.000000 0.000000 0.000000
# 2 -0.001210 0.009263 -0.007023 0.000000 0.000000 0.000000
# 3 -0.001322 -0.007023 0.019511 0.000000 0.000000 0.000000
# 4 0.000000 0.000000 0.000000 0.045616 0.000000 0.000000
# 5 0.000000 0.000000 0.000000 0.000000 0.084366 0.000000
# 6 0.000000 0.000000 0.000000 0.000000 0.000000 -0.011214
#
#
# Mechanical properties :
#
#
# Convention : Reuss Voigt Hill
#
# Bulk Modulus (GPa) = 52.03943 60.57574 56.30758
# Shear Modulus (GPa) = 27.38135 4.67549 16.02842
#
# Velocity S-wave (km/s) = 3.75067 1.54987 2.86963
# Velocity P-wave (km/s) = 6.74482 5.85870 6.31731
#
# Compressibility (1/GPa) = 0.01921620
#
# Stress axis : x y z
#
# Youngs Moduli (GPa) = 104.70252 107.95590 51.25371
#
# Poissons Ratio (x) = 0.13061 0.06774
# Poissons Ratio (y) = 0.12667 0.35995
# Poissons Ratio (z) = 0.13837 0.75816
#
# Static dielectric constant tensor:
#      x y z
#    x 4.227770 0.000000 0.000000 
#    y 0.000000 3.621530 0.000000 
#    z 0.000000 0.000000 3.683190 
# 
# 
# High freq. dielectric constant tensor:
#      x y z
#    x 1.745100 0.000000 0.000000 
#    y 0.000000 1.774380 0.000000 
#    z 0.000000 0.000000 1.764340 
# 
# From -- ./inp_files/11662.got.cif
#   From: 2010.03.12/outbox.cif.g09.slc.cpg/sg60_6_cif.got.tgz:11662.got - 2010.04.10 18:46:24.
