data_PCOD8247583
_publ_section_title
;
Structure prediction by ZEFSAII (Michael W. Deem and Ramdas Pophale) SiO2 
 PCOD8247583
Probable space group: P B C N
;
_chemical_formula_sum "Si O2"
_cell_formula_units_Z 40
_cell_length_a 8.768334
_cell_length_b 13.481493
_cell_length_c 14.633418
_cell_angle_alpha 90.000000
_cell_angle_beta 90.000000
_cell_angle_gamma 90.000000
_cell_volume 1729.819758
_symmetry_space_group_name_H-M "P B C N"
_symmetry_group_IT_number 60
_symmetry_cell_setting 'orthorhombic'
loop_
_space_group_symop_operation_xyz
x,y,z
1/2-x,1/2-y,1/2+z
1/2+x,1/2-y,-z
-x,y,1/2-z
-x,-y,-z
1/2+x,1/2+y,1/2-z
1/2-x,1/2+y,z
x,-y,1/2+z
loop_
_atom_site_type_symbol
_atom_site_label
_atom_site_fract_x
_atom_site_fract_y
_atom_site_fract_z
Si Si1 0.489458 0.217367 0.479877
Si Si2 0.696368 0.388849 0.979168
Si Si3 0.580015 0.122858 0.839814
Si Si4 0.656914 0.960190 0.616617
Si Si5 0.160067 0.004129 0.207368
O O1 0.666371 0.191136 0.467684
O O2 0.443297 0.333361 0.466573
O O3 0.437719 0.205702 0.584850
O O4 0.383705 0.149278 0.416467
O O5 0.642196 0.423354 0.879144
O O6 0.740550 0.482934 0.041347
O O7 0.500000 0.166249 0.750000
O O8 0.500869 0.020140 0.872612
O O9 0.757063 0.098155 0.821727
O O10 0.739428 0.944822 0.713140
O O11 0.000000 0.974102 0.250000
#
# Coordination Sequence:
#
# PCOD8247583 Si02
#       5
#     8   8   8   8   8
#     4  11  22  41  67  92 130 170 218 272 326 401
#     4  11  24  42  65 100 127 175 222 265 337 388
#     4   9  18  40  67  85 122 180 218 255 334 393
#     4  10  21  44  68  84 130 179 216 260 337 393
#     4  11  23  38  65  97 130 167 221 274 321 382
#
# _framework density 23.123797
#
# number of rings (size 3 to 8) (size 9 to 14) (size 15 to 20)
#    0.000    1.600    4.000    1.200    2.800    3.200 
#    7.200    0.000    0.000    0.000    0.000    0.000 
#    0.000    0.000    0.000    0.000    0.000    0.000 
#
# Total GULP energy -495966.700161 kJ/mol
# GULP energy per Si atom -12399.167504 kJ/mol
# Density = 2.307117 g / cm^3
# Si number density = 23.123797 Si / 1000 Ang^3
#
#
#
# Elastic Constant Matrix: (Units=GPa)
#
#
# Indices 1 2 3 4 5 6 
#
# 1 86.9102 3.7891 5.2433 0.0000 0.0000 0.0000
# 2 3.7891 23.2743 -0.4937 0.0000 0.0000 0.0000
# 3 5.2433 -0.4937 98.8073 0.0000 0.0000 0.0000
# 4 0.0000 0.0000 0.0000 18.3135 0.0000 0.0000
# 5 0.0000 0.0000 0.0000 0.0000 34.4588 0.0000
# 6 0.0000 0.0000 0.0000 0.0000 0.0000 27.3420
#
#
#
# Elastic Compliance Matrix: (Units=1/GPa)
#
#
# Indices 1 2 3 4 5 6 
#
# 1 0.011627 -0.001906 -0.000627 0.000000 0.000000 0.000000
# 2 -0.001906 0.043283 0.000317 0.000000 0.000000 0.000000
# 3 -0.000627 0.000317 0.010156 0.000000 0.000000 0.000000
# 4 0.000000 0.000000 0.000000 0.054605 0.000000 0.000000
# 5 0.000000 0.000000 0.000000 0.000000 0.029020 0.000000
# 6 0.000000 0.000000 0.000000 0.000000 0.000000 0.036574
#
#
# Mechanical properties :
#
#
# Convention : Reuss Voigt Hill
#
# Bulk Modulus (GPa) = 16.49213 25.11881 20.80547
# Shear Modulus (GPa) = 23.82014 29.38638 26.60326
#
# Velocity S-wave (km/s) = 3.21302 3.56874 3.39554
# Velocity P-wave (km/s) = 4.57299 5.27897 4.93861
#
# Compressibility (1/GPa) = 0.06063497
#
# Stress axis : x y z
#
# Youngs Moduli (GPa) = 86.00649 23.10377 98.46844
#
# Poissons Ratio (x) = 0.04404 0.06169
# Poissons Ratio (y) = 0.16395 -0.03126
# Poissons Ratio (z) = 0.05389 -0.00733
#
# Static dielectric constant tensor:
#      x y z
#    x 4.301380 0.000000 0.000000 
#    y 0.000000 3.686490 0.000000 
#    z 0.000000 0.000000 4.414320 
# 
# 
# High freq. dielectric constant tensor:
#      x y z
#    x 1.916840 0.000000 0.000000 
#    y 0.000000 1.881450 0.000000 
#    z 0.000000 0.000000 1.928820 
# 
# From -- ./inp_files/14637.got.cif
#   From: 2010.03.12/outbox.cif.g09.slc.cpg/sg60_8_cif.got.tgz:14637.got - 2010.04.10 18:46:24.
