data_PCOD8247411
_publ_section_title
;
Structure prediction by ZEFSAII (Michael W. Deem and Ramdas Pophale) SiO2 
 PCOD8247411
Probable space group: P B C N
;
_chemical_formula_sum "Si O2"
_cell_formula_units_Z 60
_cell_length_a 16.067865
_cell_length_b 11.445110
_cell_length_c 15.160344
_cell_angle_alpha 90.000000
_cell_angle_beta 90.000000
_cell_angle_gamma 90.000000
_cell_volume 2787.964254
_symmetry_space_group_name_H-M "P B C N"
_symmetry_group_IT_number 60
_symmetry_cell_setting 'orthorhombic'
loop_
_space_group_symop_operation_xyz
x,y,z
1/2-x,1/2-y,1/2+z
1/2+x,1/2-y,-z
-x,y,1/2-z
-x,-y,-z
1/2+x,1/2+y,1/2-z
1/2-x,1/2+y,z
x,-y,1/2+z
loop_
_atom_site_type_symbol
_atom_site_label
_atom_site_fract_x
_atom_site_fract_y
_atom_site_fract_z
Si Si1 0.225122 0.304684 0.681421
Si Si2 0.154937 0.535686 0.040712
Si Si3 0.175117 0.945380 0.473783
Si Si4 0.845362 0.132043 0.172365
Si Si5 0.374508 0.768737 0.060442
Si Si6 0.000000 0.980942 0.750000
Si Si7 0.101593 0.116977 0.613166
Si Si8 0.558424 0.220376 0.543866
O O1 0.173393 0.413195 0.639198
O O2 0.256827 0.339592 0.779767
O O3 0.312501 0.279704 0.633646
O O4 0.165596 0.190232 0.676265
O O5 0.153447 0.397470 0.034374
O O6 0.227554 0.582326 0.977714
O O7 0.072830 0.590693 0.995464
O O8 0.128876 0.819243 0.476194
O O9 0.158351 0.013901 0.384664
O O10 0.152510 0.016300 0.563211
O O11 0.869060 0.242500 0.111656
O O12 0.921092 0.103779 0.237426
O O13 0.469882 0.773912 0.093882
O O14 0.025130 0.063180 0.668041
O O15 0.057868 0.195395 0.540046
#
# Coordination Sequence:
#
# PCOD8247411 Si02
#       8
#     8   8   8   8   8   4   8   8
#     4  10  22  40  65  86 127 166 206 250 322 370
#     4  10  21  40  62  89 118 164 205 249 308 375
#     4  10  21  39  63  91 118 161 212 254 300 371
#     4  11  23  38  62  94 125 158 208 261 306 372
#     4  11  20  38  67  86 119 166 200 252 316 364
#     4  12  22  36  62  94 128 162 212 260 324 362
#     4  10  21  41  61  92 126 164 208 257 313 372
#     4  10  22  39  61  92 125 159 207 257 305 375
#
# _framework density 21.521077999999999
#
# number of rings (size 3 to 8) (size 9 to 14) (size 15 to 20)
#    0.000    1.600    1.333    4.400    1.867    3.200 
#    2.400    0.000    0.000    0.000    0.000    0.000 
#    0.000    0.000    0.000    0.000    0.000    0.000 
#
# Total GULP energy -743509.715316 kJ/mol
# GULP energy per Si atom -12391.828589 kJ/mol
# Density = 2.147210 g / cm^3
# Si number density = 21.521078 Si / 1000 Ang^3
#
#
#
# Elastic Constant Matrix: (Units=GPa)
#
#
# Indices 1 2 3 4 5 6 
#
# 1 78.4053 22.4808 16.5687 0.0000 0.0000 0.0000
# 2 22.4808 140.3228 35.7663 0.0000 0.0000 0.0000
# 3 16.5687 35.7663 71.8407 0.0000 0.0000 0.0000
# 4 0.0000 0.0000 0.0000 14.0982 0.0000 0.0000
# 5 0.0000 0.0000 0.0000 0.0000 28.9344 0.0000
# 6 0.0000 0.0000 0.0000 0.0000 0.0000 29.0096
#
#
#
# Elastic Compliance Matrix: (Units=1/GPa)
#
#
# Indices 1 2 3 4 5 6 
#
# 1 0.013712 -0.001593 -0.002369 0.000000 0.000000 0.000000
# 2 -0.001593 0.008347 -0.003788 0.000000 0.000000 0.000000
# 3 -0.002369 -0.003788 0.016352 0.000000 0.000000 0.000000
# 4 0.000000 0.000000 0.000000 0.070931 0.000000 0.000000
# 5 0.000000 0.000000 0.000000 0.000000 0.034561 0.000000
# 6 0.000000 0.000000 0.000000 0.000000 0.000000 0.034471
#
#
# Mechanical properties :
#
#
# Convention : Reuss Voigt Hill
#
# Bulk Modulus (GPa) = 43.64904 48.91118 46.28011
# Shear Modulus (GPa) = 24.81242 28.79197 26.80219
#
# Velocity S-wave (km/s) = 3.39917 3.66163 3.53284
# Velocity P-wave (km/s) = 5.97761 6.37598 6.18001
#
# Compressibility (1/GPa) = 0.02291001
#
# Stress axis : x y z
#
# Youngs Moduli (GPa) = 72.93076 119.80059 61.15389
#
# Poissons Ratio (x) = 0.19082 0.14490
# Poissons Ratio (y) = 0.11616 0.23167
# Poissons Ratio (z) = 0.17280 0.45385
#
# Static dielectric constant tensor:
#      x y z
#    x 3.923520 0.000000 0.000000 
#    y 0.000000 3.986410 0.000000 
#    z 0.000000 0.000000 3.689750 
# 
# 
# High freq. dielectric constant tensor:
#      x y z
#    x 1.849480 0.000000 0.000000 
#    y 0.000000 1.851650 0.000000 
#    z 0.000000 0.000000 1.817450 
# 
# From -- ./inp_files/20628.got.cif
#   From: 2010.03.12/outbox.cif.g09.slc.cpg/sg60_11_cif.got.tgz:20628.got - 2010.04.10 18:46:24.
