data_PCOD8247829
_publ_section_title
;
Structure prediction by ZEFSAII (Michael W. Deem and Ramdas Pophale) SiO2 
 PCOD8247829
Probable space group: P B C N
;
_chemical_formula_sum "Si O2"
_cell_formula_units_Z 56
_cell_length_a 11.140928
_cell_length_b 12.669278
_cell_length_c 17.815765
_cell_angle_alpha 90.000000
_cell_angle_beta 90.000000
_cell_angle_gamma 90.000000
_cell_volume 2514.650940
_symmetry_space_group_name_H-M "P B C N"
_symmetry_group_IT_number 60
_symmetry_cell_setting 'orthorhombic'
loop_
_space_group_symop_operation_xyz
x,y,z
1/2-x,1/2-y,1/2+z
1/2+x,1/2-y,-z
-x,y,1/2-z
-x,-y,-z
1/2+x,1/2+y,1/2-z
1/2-x,1/2+y,z
x,-y,1/2+z
loop_
_atom_site_type_symbol
_atom_site_label
_atom_site_fract_x
_atom_site_fract_y
_atom_site_fract_z
Si Si1 0.745928 0.263026 0.464237
Si Si2 0.846148 0.138726 0.112129
Si Si3 0.921459 0.080975 0.449802
Si Si4 0.729592 0.049979 0.860990
Si Si5 0.875837 0.045591 0.715984
Si Si6 0.650635 0.776297 0.702178
Si Si7 0.922228 0.644113 0.361033
O O1 0.720540 0.341122 0.533351
O O2 0.837673 0.169493 0.489706
O O3 0.799187 0.336857 0.398038
O O4 0.622711 0.209294 0.433945
O O5 0.826957 0.020629 0.145004
O O6 0.788524 0.216867 0.174071
O O7 0.988459 0.152157 0.100871
O O8 0.842983 0.006107 0.398645
O O9 0.000000 0.000000 0.500000
O O10 0.766254 0.059816 0.774162
O O11 0.611124 0.978751 0.869555
O O12 0.000000 0.997041 0.750000
O O13 0.905898 0.162053 0.686487
O O14 0.646835 0.807662 0.789012
O O15 0.565477 0.851469 0.650753
#
# Coordination Sequence:
#
# PCOD8247829 Si02
#       7
#     8   8   8   8   8   8   8
#     4  11  25  43  68 102 141 185 231 296 357 419
#     4  12  27  40  69 109 136 174 244 295 345 432
#     4  11  25  45  71 101 142 186 236 294 352 425
#     4  11  21  43  68  97 136 182 233 278 357 419
#     4  12  22  39  71  98 136 182 234 291 355 421
#     4  11  23  43  68 100 138 183 235 288 350 426
#     4  10  22  42  69  95 137 189 229 281 360 427
#
# _framework density 22.269492
#
# number of rings (size 3 to 8) (size 9 to 14) (size 15 to 20)
#    0.000    0.857    7.143    0.000    4.000    0.000 
#    2.571    0.714    0.000    0.000    0.000    0.000 
#    0.000    0.000    0.000    0.000    0.000    0.000 
#
# Total GULP energy -693955.094595 kJ/mol
# GULP energy per Si atom -12392.055261 kJ/mol
# Density = 2.221881 g / cm^3
# Si number density = 22.269492 Si / 1000 Ang^3
#
#
#
# Elastic Constant Matrix: (Units=GPa)
#
#
# Indices 1 2 3 4 5 6 
#
# 1 84.4580 35.0622 28.0218 0.0000 0.0000 0.0000
# 2 35.0622 97.6536 23.3003 0.0000 0.0000 0.0000
# 3 28.0218 23.3003 66.5246 0.0000 0.0000 0.0000
# 4 0.0000 0.0000 0.0000 35.3492 0.0000 0.0000
# 5 0.0000 0.0000 0.0000 0.0000 34.8635 0.0000
# 6 0.0000 0.0000 0.0000 0.0000 0.0000 31.3404
#
#
#
# Elastic Compliance Matrix: (Units=1/GPa)
#
#
# Indices 1 2 3 4 5 6 
#
# 1 0.015260 -0.004305 -0.004920 0.000000 0.000000 0.000000
# 2 -0.004305 0.012389 -0.002526 0.000000 0.000000 0.000000
# 3 -0.004920 -0.002526 0.017989 0.000000 0.000000 0.000000
# 4 0.000000 0.000000 0.000000 0.028289 0.000000 0.000000
# 5 0.000000 0.000000 0.000000 0.000000 0.028683 0.000000
# 6 0.000000 0.000000 0.000000 0.000000 0.000000 0.031908
#
#
# Mechanical properties :
#
#
# Convention : Reuss Voigt Hill
#
# Bulk Modulus (GPa) = 45.17526 46.82276 45.99901
# Shear Modulus (GPa) = 30.23014 31.12741 30.67877
#
# Velocity S-wave (km/s) = 3.68838 3.74272 3.71565
# Velocity P-wave (km/s) = 6.20231 6.30464 6.25368
#
# Compressibility (1/GPa) = 0.02213601
#
# Stress axis : x y z
#
# Youngs Moduli (GPa) = 65.53172 80.71907 55.58926
#
# Poissons Ratio (x) = 0.34750 0.27350
# Poissons Ratio (y) = 0.28212 0.14040
# Poissons Ratio (z) = 0.32241 0.20388
#
# Static dielectric constant tensor:
#      x y z
#    x 4.066130 0.000000 0.000000 
#    y 0.000000 4.082930 0.000000 
#    z 0.000000 0.000000 3.991670 
# 
# 
# High freq. dielectric constant tensor:
#      x y z
#    x 1.862060 0.000000 0.000000 
#    y 0.000000 1.874210 0.000000 
#    z 0.000000 0.000000 1.873190 
# 
# From -- ./inp_files/22620.got.cif
#   From: 2010.03.12/outbox.cif.g09.slc.cpg/sg60_12_cif.got.tgz:22620.got - 2010.04.10 18:46:24.
