data_PCOD8247774
_publ_section_title
;
Structure prediction by ZEFSAII (Michael W. Deem and Ramdas Pophale) SiO2 
 PCOD8247774
Probable space group: P B C N
;
_chemical_formula_sum "Si O2"
_cell_formula_units_Z 48
_cell_length_a 8.385280
_cell_length_b 29.788543
_cell_length_c 8.707688
_cell_angle_alpha 90.000000
_cell_angle_beta 90.000000
_cell_angle_gamma 90.000000
_cell_volume 2175.052232
_symmetry_space_group_name_H-M "P B C N"
_symmetry_group_IT_number 60
_symmetry_cell_setting 'orthorhombic'
loop_
_space_group_symop_operation_xyz
x,y,z
1/2-x,1/2-y,1/2+z
1/2+x,1/2-y,-z
-x,y,1/2-z
-x,-y,-z
1/2+x,1/2+y,1/2-z
1/2-x,1/2+y,z
x,-y,1/2+z
loop_
_atom_site_type_symbol
_atom_site_label
_atom_site_fract_x
_atom_site_fract_y
_atom_site_fract_z
Si Si1 0.775817 0.610225 0.621038
Si Si2 0.827544 0.021048 0.475401
Si Si3 0.784436 0.783852 0.401932
Si Si4 0.639765 0.873840 0.456307
Si Si5 0.828583 0.548267 0.172035
Si Si6 0.855071 0.798858 0.054657
O O1 0.689222 0.564352 0.581744
O O2 0.756780 0.614843 0.804624
O O3 0.686511 0.649239 0.526160
O O4 0.958582 0.611330 0.568860
O O5 0.803865 0.035596 0.298681
O O6 0.691564 0.985624 0.528432
O O7 0.000000 0.000000 0.500000
O O8 0.661783 0.820065 0.479064
O O9 0.785624 0.786297 0.219818
O O10 0.731666 0.733312 0.434823
O O11 0.957925 0.793297 0.468920
O O12 0.700535 0.901422 0.605287
O O13 0.000000 0.543529 0.250000
#
# Coordination Sequence:
#
# PCOD8247774 Si02
#       6
#     8   8   8   8   8   8
#     4  10  22  42  67  95 133 177 223 276 336 396
#     4  12  27  44  66  98 135 174 224 281 339 398
#     4  10  22  41  66  99 133 175 220 271 331 398
#     4  10  22  41  69  97 131 176 224 274 331 403
#     4  12  25  45  68  97 130 175 224 272 335 404
#     4  10  22  41  66  97 134 173 220 272 333 396
#
# _framework density 22.068435999999998
#
# number of rings (size 3 to 8) (size 9 to 14) (size 15 to 20)
#    0.000    1.333    1.667    3.000    4.667    3.333 
#    6.000    0.000    0.000    0.000    0.000    0.000 
#    0.000    0.000    0.000    0.000    0.000    0.000 
#
# Total GULP energy -595268.812700 kJ/mol
# GULP energy per Si atom -12401.433598 kJ/mol
# Density = 2.201821 g / cm^3
# Si number density = 22.068436 Si / 1000 Ang^3
#
#
#
# Elastic Constant Matrix: (Units=GPa)
#
#
# Indices 1 2 3 4 5 6 
#
# 1 82.6611 40.7444 24.4921 0.0000 0.0000 0.0000
# 2 40.7444 102.1609 9.3041 0.0000 0.0000 0.0000
# 3 24.4921 9.3041 63.0419 0.0000 0.0000 0.0000
# 4 0.0000 0.0000 0.0000 42.7951 0.0000 0.0000
# 5 0.0000 0.0000 0.0000 0.0000 29.6862 0.0000
# 6 0.0000 0.0000 0.0000 0.0000 0.0000 42.2190
#
#
#
# Elastic Compliance Matrix: (Units=1/GPa)
#
#
# Indices 1 2 3 4 5 6 
#
# 1 0.016816 -0.006195 -0.005619 0.000000 0.000000 0.000000
# 2 -0.006195 0.012204 0.000606 0.000000 0.000000 0.000000
# 3 -0.005619 0.000606 0.017956 0.000000 0.000000 0.000000
# 4 0.000000 0.000000 0.000000 0.023367 0.000000 0.000000
# 5 0.000000 0.000000 0.000000 0.000000 0.033686 0.000000
# 6 0.000000 0.000000 0.000000 0.000000 0.000000 0.023686
#
#
# Mechanical properties :
#
#
# Convention : Reuss Voigt Hill
#
# Bulk Modulus (GPa) = 40.71697 44.10501 42.41099
# Shear Modulus (GPa) = 31.58208 34.49494 33.03851
#
# Velocity S-wave (km/s) = 3.78709 3.95788 3.87343
# Velocity P-wave (km/s) = 6.13295 6.39651 6.26612
#
# Compressibility (1/GPa) = 0.02455979
#
# Stress axis : x y z
#
# Youngs Moduli (GPa) = 59.46741 81.94032 55.69159
#
# Poissons Ratio (x) = 0.50761 0.31292
# Poissons Ratio (y) = 0.36839 -0.03373
# Poissons Ratio (z) = 0.33414 -0.04962
#
# Static dielectric constant tensor:
#      x y z
#    x 3.850860 0.000000 0.000000 
#    y 0.000000 4.189160 0.000000 
#    z 0.000000 0.000000 4.062050 
# 
# 
# High freq. dielectric constant tensor:
#      x y z
#    x 1.865870 0.000000 0.000000 
#    y 0.000000 1.881420 0.000000 
#    z 0.000000 0.000000 1.860760 
# 
# From -- ./inp_files/4250.got.cif
#   From: 2010.03.12/outbox.cif.g09.slc.cpg/sg60_3_cif.got.tgz:4250.got - 2010.04.10 18:46:24.
