data_PCOD8247259
_publ_section_title
;
Structure prediction by ZEFSAII (Michael W. Deem and Ramdas Pophale) SiO2 
 PCOD8247259
Probable space group: P B C N
;
_chemical_formula_sum "Si O2"
_cell_formula_units_Z 40
_cell_length_a 7.633041
_cell_length_b 23.547728
_cell_length_c 9.136310
_cell_angle_alpha 90.000000
_cell_angle_beta 90.000000
_cell_angle_gamma 90.000000
_cell_volume 1642.167424
_symmetry_space_group_name_H-M "P B C N"
_symmetry_group_IT_number 60
_symmetry_cell_setting 'orthorhombic'
loop_
_space_group_symop_operation_xyz
x,y,z
1/2-x,1/2-y,1/2+z
1/2+x,1/2-y,-z
-x,y,1/2-z
-x,-y,-z
1/2+x,1/2+y,1/2-z
1/2-x,1/2+y,z
x,-y,1/2+z
loop_
_atom_site_type_symbol
_atom_site_label
_atom_site_fract_x
_atom_site_fract_y
_atom_site_fract_z
Si Si1 0.599132 0.750302 0.899457
Si Si2 0.318201 0.941589 0.950301
Si Si3 0.318205 0.154377 0.672492
Si Si4 0.274729 0.948489 0.615321
Si Si5 0.171411 0.839499 0.466935
O O1 0.500000 0.768518 0.750000
O O2 0.789382 0.720531 0.870344
O O3 0.642831 0.807590 0.989981
O O4 0.488180 0.704199 0.992857
O O5 0.241779 0.947777 0.788284
O O6 0.527149 0.941098 0.938735
O O7 0.271001 0.883150 0.031278
O O8 0.225869 0.990628 0.047389
O O9 0.500000 0.139539 0.750000
O O10 0.173219 0.142407 0.797494
O O11 0.151988 0.897176 0.559067
#
# Coordination Sequence:
#
# PCOD8247259 Si02
#       5
#     8   8   8   8   8
#     4  10  25  41  63  97 131 175 225 273 332 400
#     4  10  21  36  62  98 123 165 215 268 333 401
#     4  11  21  39  64  91 127 166 212 265 329 394
#     4  10  21  36  63  93 130 161 217 272 325 402
#     4  11  22  40  63  91 130 171 215 276 325 393
#
# _framework density 24.358052000000001
#
# number of rings (size 3 to 8) (size 9 to 14) (size 15 to 20)
#    0.000    1.600    2.000    2.400    5.600    1.600 
#    0.000    6.000    0.000    0.000    0.000    0.000 
#    0.000    0.000    0.000    0.000    0.000    0.000 
#
# Total GULP energy -495698.276828 kJ/mol
# GULP energy per Si atom -12392.456921 kJ/mol
# Density = 2.430261 g / cm^3
# Si number density = 24.358052 Si / 1000 Ang^3
#
#
#
# Elastic Constant Matrix: (Units=GPa)
#
#
# Indices 1 2 3 4 5 6 
#
# 1 39.4551 11.3839 5.8206 0.0000 0.0000 0.0000
# 2 11.3839 97.8729 61.3925 0.0000 0.0000 0.0000
# 3 5.8206 61.3925 153.7589 0.0000 0.0000 0.0000
# 4 0.0000 0.0000 0.0000 51.1685 0.0000 0.0000
# 5 0.0000 0.0000 0.0000 0.0000 17.4368 0.0000
# 6 0.0000 0.0000 0.0000 0.0000 0.0000 14.3438
#
#
#
# Elastic Compliance Matrix: (Units=1/GPa)
#
#
# Indices 1 2 3 4 5 6 
#
# 1 0.026236 -0.003240 0.000301 0.000000 0.000000 0.000000
# 2 -0.003240 0.014032 -0.005480 0.000000 0.000000 0.000000
# 3 0.000301 -0.005480 0.008680 0.000000 0.000000 0.000000
# 4 0.000000 0.000000 0.000000 0.019543 0.000000 0.000000
# 5 0.000000 0.000000 0.000000 0.000000 0.057350 0.000000
# 6 0.000000 0.000000 0.000000 0.000000 0.000000 0.069717
#
#
# Mechanical properties :
#
#
# Convention : Reuss Voigt Hill
#
# Bulk Modulus (GPa) = 31.14404 49.80898 40.47651
# Shear Modulus (GPa) = 22.41158 30.75581 26.58369
#
# Velocity S-wave (km/s) = 3.03659 3.55724 3.30718
# Velocity P-wave (km/s) = 5.01081 6.11269 5.58897
#
# Compressibility (1/GPa) = 0.03210887
#
# Stress axis : x y z
#
# Youngs Moduli (GPa) = 38.11584 71.26815 115.20357
#
# Poissons Ratio (x) = 0.23091 -0.03462
# Poissons Ratio (y) = 0.12350 0.63130
# Poissons Ratio (z) = -0.01146 0.39054
#
# Static dielectric constant tensor:
#      x y z
#    x 4.102430 0.000000 0.000000 
#    y 0.000000 4.359150 0.000000 
#    z 0.000000 0.000000 4.462080 
# 
# 
# High freq. dielectric constant tensor:
#      x y z
#    x 1.949560 0.000000 0.000000 
#    y 0.000000 1.966610 0.000000 
#    z 0.000000 0.000000 1.972870 
# 
# From -- ./inp_files/3843.got.cif
#   From: 2010.03.12/outbox.cif.g09.slc.cpg/sg60_2_cif.got.tgz:3843.got - 2010.04.10 18:46:24.
