data_PCOD8247373
_publ_section_title
;
Structure prediction by ZEFSAII (Michael W. Deem and Ramdas Pophale) SiO2 
 PCOD8247373
Probable space group: P B C N
;
_chemical_formula_sum "Si O2"
_cell_formula_units_Z 48
_cell_length_a 9.045405
_cell_length_b 23.305009
_cell_length_c 10.921118
_cell_angle_alpha 90.000000
_cell_angle_beta 90.000000
_cell_angle_gamma 90.000000
_cell_volume 2302.207113
_symmetry_space_group_name_H-M "P B C N"
_symmetry_group_IT_number 60
_symmetry_cell_setting 'orthorhombic'
loop_
_space_group_symop_operation_xyz
x,y,z
1/2-x,1/2-y,1/2+z
1/2+x,1/2-y,-z
-x,y,1/2-z
-x,-y,-z
1/2+x,1/2+y,1/2-z
1/2-x,1/2+y,z
x,-y,1/2+z
loop_
_atom_site_type_symbol
_atom_site_label
_atom_site_fract_x
_atom_site_fract_y
_atom_site_fract_z
Si Si1 0.283519 0.338881 0.680041
Si Si2 0.906083 0.144359 0.063244
Si Si3 0.337902 0.873342 0.274635
Si Si4 0.138014 0.221721 0.668836
Si Si5 0.699932 0.947670 0.455060
Si Si6 0.624952 0.925437 0.967311
O O1 0.427910 0.362739 0.610415
O O2 0.303643 0.334342 0.825557
O O3 0.238754 0.275883 0.633232
O O4 0.156003 0.384621 0.648454
O O5 0.905325 0.192205 0.958318
O O6 0.841228 0.083366 0.016468
O O7 0.500000 0.847203 0.250000
O O8 0.223001 0.823051 0.253716
O O9 0.314163 0.927153 0.184695
O O10 0.314924 0.894758 0.411424
O O11 0.000000 0.242828 0.750000
O O12 0.550928 0.933874 0.530401
O O13 0.718265 0.015974 0.452666
#
# Coordination Sequence:
#
# PCOD8247373 Si02
#       6
#     8   8   8   8   8   8
#     4  11  26  40  63  94 127 166 209 269 319 379
#     4  10  25  44  60  93 132 163 215 262 324 381
#     4   9  20  39  61  90 126 167 210 260 320 378
#     4  11  25  41  66  91 123 173 212 259 319 390
#     4   9  21  40  64  95 125 168 214 267 310 383
#     4  10  21  38  67  94 127 167 217 262 317 375
#
# _framework density 20.849557999999998
#
# number of rings (size 3 to 8) (size 9 to 14) (size 15 to 20)
#    0.000    2.000    0.000    1.000   11.667    2.000 
#    0.000    0.000    0.000    0.000    0.000    0.000 
#    0.000    0.000    0.000    0.000    0.000    0.000 
#
# Total GULP energy -595311.452791 kJ/mol
# GULP energy per Si atom -12402.321933 kJ/mol
# Density = 2.080210 g / cm^3
# Si number density = 20.849558 Si / 1000 Ang^3
#
#
#
# Elastic Constant Matrix: (Units=GPa)
#
#
# Indices 1 2 3 4 5 6 
#
# 1 66.4209 30.7884 33.4820 0.0000 0.0000 0.0000
# 2 30.7884 114.7738 28.9321 0.0000 0.0000 0.0000
# 3 33.4820 28.9321 93.6951 0.0000 0.0000 0.0000
# 4 0.0000 0.0000 0.0000 13.4276 0.0000 0.0000
# 5 0.0000 0.0000 0.0000 0.0000 29.8535 0.0000
# 6 0.0000 0.0000 0.0000 0.0000 0.0000 30.6987
#
#
#
# Elastic Compliance Matrix: (Units=1/GPa)
#
#
# Indices 1 2 3 4 5 6 
#
# 1 0.019800 -0.003826 -0.005894 0.000000 0.000000 0.000000
# 2 -0.003826 0.010187 -0.001779 0.000000 0.000000 0.000000
# 3 -0.005894 -0.001779 0.013328 0.000000 0.000000 0.000000
# 4 0.000000 0.000000 0.000000 0.074474 0.000000 0.000000
# 5 0.000000 0.000000 0.000000 0.000000 0.033497 0.000000
# 6 0.000000 0.000000 0.000000 0.000000 0.000000 0.032575
#
#
# Mechanical properties :
#
#
# Convention : Reuss Voigt Hill
#
# Bulk Modulus (GPa) = 49.21545 51.25499 50.23522
# Shear Modulus (GPa) = 23.40483 26.90844 25.15663
#
# Velocity S-wave (km/s) = 3.35409 3.59639 3.47735
# Velocity P-wave (km/s) = 6.21741 6.47163 6.34579
#
# Compressibility (1/GPa) = 0.02031882
#
# Stress axis : x y z
#
# Youngs Moduli (GPa) = 50.50501 98.16065 75.02740
#
# Poissons Ratio (x) = 0.37552 0.44223
# Poissons Ratio (y) = 0.19321 0.13345
# Poissons Ratio (z) = 0.29769 0.17460
#
# Static dielectric constant tensor:
#      x y z
#    x 3.766040 0.000000 0.000000 
#    y 0.000000 3.653990 0.000000 
#    z 0.000000 0.000000 3.824540 
# 
# 
# High freq. dielectric constant tensor:
#      x y z
#    x 1.814610 0.000000 0.000000 
#    y 0.000000 1.814210 0.000000 
#    z 0.000000 0.000000 1.824960 
# 
# From -- ./inp_files/10076.got.cif
#   From: 2010.03.12/outbox.cif.g09.slc.cpg/sg60_6_cif.got.tgz:10076.got - 2010.04.10 18:46:24.
