data_PCOD8247828
_publ_section_title
;
Structure prediction by ZEFSAII (Michael W. Deem and Ramdas Pophale) SiO2 
 PCOD8247828
Probable space group: P B C N
;
_chemical_formula_sum "Si O2"
_cell_formula_units_Z 36
_cell_length_a 8.199812
_cell_length_b 10.496289
_cell_length_c 17.773135
_cell_angle_alpha 90.000000
_cell_angle_beta 90.000000
_cell_angle_gamma 90.000000
_cell_volume 1529.691012
_symmetry_space_group_name_H-M "P B C N"
_symmetry_group_IT_number 60
_symmetry_cell_setting 'orthorhombic'
loop_
_space_group_symop_operation_xyz
x,y,z
1/2-x,1/2-y,1/2+z
1/2+x,1/2-y,-z
-x,y,1/2-z
-x,-y,-z
1/2+x,1/2+y,1/2-z
1/2-x,1/2+y,z
x,-y,1/2+z
loop_
_atom_site_type_symbol
_atom_site_label
_atom_site_fract_x
_atom_site_fract_y
_atom_site_fract_z
Si Si1 0.500000 0.184741 0.250000
Si Si2 0.745955 0.015133 0.794287
Si Si3 0.623743 0.854496 0.427496
Si Si4 0.724635 0.114573 0.507120
Si Si5 0.911052 0.087650 0.653696
O O1 0.567853 0.268104 0.181553
O O2 0.362944 0.110030 0.203325
O O3 0.649831 0.129978 0.837387
O O4 0.762658 0.036921 0.704772
O O5 0.925481 0.003223 0.832626
O O6 0.435229 0.839821 0.448010
O O7 0.722842 0.730962 0.454045
O O8 0.696047 0.986272 0.460858
O O9 0.867535 0.084193 0.566435
#
# Coordination Sequence:
#
# PCOD8247828 Si02
#       5
#     4   8   8   8   8
#     4  10  22  42  70  92 140 172 230 284 338 400
#     4  10  22  42  69  95 130 182 220 282 334 407
#     4  11  26  44  72  99 143 176 231 282 350 412
#     4  11  26  46  69 105 135 184 225 289 346 413
#     4  10  25  44  65 103 133 175 234 281 338 415
#
# _framework density 23.534162999999999
#
# number of rings (size 3 to 8) (size 9 to 14) (size 15 to 20)
#    0.000    1.778    0.000    2.667   15.556    3.556 
#    4.000    8.889    0.000    0.000    0.000    0.000 
#    0.000    0.000    0.000    0.000    0.000    0.000 
#
# Total GULP energy -446148.118546 kJ/mol
# GULP energy per Si atom -12393.003293 kJ/mol
# Density = 2.348060 g / cm^3
# Si number density = 23.534163 Si / 1000 Ang^3
#
#
#
# Elastic Constant Matrix: (Units=GPa)
#
#
# Indices 1 2 3 4 5 6 
#
# 1 92.0568 28.4361 8.9871 0.0000 0.0000 0.0000
# 2 28.4361 84.7508 -2.6290 0.0000 0.0000 0.0000
# 3 8.9871 -2.6290 46.0769 0.0000 0.0000 0.0000
# 4 0.0000 0.0000 0.0000 24.7379 0.0000 0.0000
# 5 0.0000 0.0000 0.0000 0.0000 41.7683 0.0000
# 6 0.0000 0.0000 0.0000 0.0000 0.0000 -168.6966
#
#
#
# Elastic Compliance Matrix: (Units=1/GPa)
#
#
# Indices 1 2 3 4 5 6 
#
# 1 0.012438 -0.004256 -0.002669 0.000000 0.000000 0.000000
# 2 -0.004256 0.013277 0.001588 0.000000 0.000000 0.000000
# 3 -0.002669 0.001588 0.022314 0.000000 0.000000 0.000000
# 4 0.000000 0.000000 0.000000 0.040424 0.000000 0.000000
# 5 0.000000 0.000000 0.000000 0.000000 0.023942 0.000000
# 6 0.000000 0.000000 0.000000 0.000000 0.000000 -0.005928
#
#
# Mechanical properties :
#
#
# Convention : Reuss Voigt Hill
#
# Bulk Modulus (GPa) = 26.77083 32.49699 29.63391
# Shear Modulus (GPa) = 38.58259 -7.89872 15.34193
#
# Velocity S-wave (km/s) = 4.05338 -1.83400 2.55600
# Velocity P-wave (km/s) = 5.77118 3.05837 4.61845
#
# Compressibility (1/GPa) = 0.03735409
#
# Stress axis : x y z
#
# Youngs Moduli (GPa) = 80.39811 75.32060 44.81499
#
# Poissons Ratio (x) = 0.32057 0.11960
# Poissons Ratio (y) = 0.34218 -0.07115
# Poissons Ratio (z) = 0.21457 -0.11958
#
# Static dielectric constant tensor:
#      x y z
#    x 4.391140 0.000000 0.000000 
#    y 0.000000 4.084840 0.000000 
#    z 0.000000 0.000000 4.416990 
# 
# 
# High freq. dielectric constant tensor:
#      x y z
#    x 1.942590 0.000000 0.000000 
#    y 0.000000 1.923730 0.000000 
#    z 0.000000 0.000000 1.939970 
# 
# From -- ./inp_files/21906.got.cif
#   From: 2010.03.12/outbox.cif.g09.slc.cpg/sg60_11_cif.got.tgz:21906.got - 2010.04.10 18:46:24.
