data_PCOD8247593
_publ_section_title
;
Structure prediction by ZEFSAII (Michael W. Deem and Ramdas Pophale) SiO2 
 PCOD8247593
Probable space group: P B C N
;
_chemical_formula_sum "Si O2"
_cell_formula_units_Z 64
_cell_length_a 21.397489
_cell_length_b 8.964869
_cell_length_c 14.567837
_cell_angle_alpha 90.000000
_cell_angle_beta 90.000000
_cell_angle_gamma 90.000000
_cell_volume 2794.485323
_symmetry_space_group_name_H-M "P B C N"
_symmetry_group_IT_number 60
_symmetry_cell_setting 'orthorhombic'
loop_
_space_group_symop_operation_xyz
x,y,z
1/2-x,1/2-y,1/2+z
1/2+x,1/2-y,-z
-x,y,1/2-z
-x,-y,-z
1/2+x,1/2+y,1/2-z
1/2-x,1/2+y,z
x,-y,1/2+z
loop_
_atom_site_type_symbol
_atom_site_label
_atom_site_fract_x
_atom_site_fract_y
_atom_site_fract_z
Si Si1 0.383058 0.955313 0.983928
Si Si2 0.878343 0.972316 0.288600
Si Si3 0.570009 0.760884 0.366115
Si Si4 0.878048 0.408405 0.201316
Si Si5 0.247204 0.132723 0.451073
Si Si6 0.621623 0.286716 0.457933
Si Si7 0.434995 0.623342 0.370730
Si Si8 0.761290 0.109266 0.681103
O O1 0.312092 0.902580 0.002920
O O2 0.400166 0.968233 0.874866
O O3 0.425813 0.828422 0.031598
O O4 0.396987 0.114301 0.031532
O O5 0.898648 0.838959 0.356337
O O6 0.808656 0.925906 0.262221
O O7 0.879529 0.130548 0.343803
O O8 0.922258 0.982076 0.196784
O O9 0.581037 0.899790 0.294707
O O10 0.502980 0.687847 0.350084
O O11 0.882136 0.246557 0.153088
O O12 0.805731 0.437887 0.222760
O O13 0.196130 0.199208 0.521357
O O14 0.260862 0.223245 0.356834
O O15 0.219971 0.978699 0.411760
O O16 0.579325 0.400102 0.521721
#
# Coordination Sequence:
#
# PCOD8247593 Si02
#       8
#     8   8   8   8   8   8   8   8
#     4  10  24  40  64 101 139 182 233 293 365 420
#     4  11  24  39  69 103 135 195 239 287 358 422
#     4  11  24  43  72 103 136 194 240 291 362 441
#     4   9  19  40  61  94 133 175 230 290 347 423
#     4  11  20  42  64  95 145 185 220 297 355 418
#     4  11  23  42  65 103 145 181 242 301 353 439
#     4  10  21  47  70  95 143 184 235 299 358 418
#     4  11  21  40  67  93 137 189 227 291 357 412
#
# _framework density 22.902249999999999
#
# number of rings (size 3 to 8) (size 9 to 14) (size 15 to 20)
#    0.000    1.500    5.000    2.250    3.500    4.500 
#    2.250    1.250    0.000    6.000    0.000    0.000 
#    0.000    0.000    0.000    0.000    0.000    0.000 
#
# Total GULP energy -792898.431851 kJ/mol
# GULP energy per Si atom -12389.037998 kJ/mol
# Density = 2.285012 g / cm^3
# Si number density = 22.902250 Si / 1000 Ang^3
#
#
#
# Elastic Constant Matrix: (Units=GPa)
#
#
# Indices 1 2 3 4 5 6 
#
# 1 82.4547 40.7583 65.6827 0.0000 0.0000 0.0000
# 2 40.7583 40.9118 24.3721 0.0000 0.0000 0.0000
# 3 65.6827 24.3721 101.9942 0.0000 0.0000 0.0000
# 4 0.0000 0.0000 0.0000 44.0524 0.0000 0.0000
# 5 0.0000 0.0000 0.0000 0.0000 28.1669 0.0000
# 6 0.0000 0.0000 0.0000 0.0000 0.0000 28.0600
#
#
#
# Elastic Compliance Matrix: (Units=1/GPa)
#
#
# Indices 1 2 3 4 5 6 
#
# 1 0.044936 -0.032098 -0.021268 0.000000 0.000000 0.000000
# 2 -0.032098 0.051427 0.008382 0.000000 0.000000 0.000000
# 3 -0.021268 0.008382 0.021498 0.000000 0.000000 0.000000
# 4 0.000000 0.000000 0.000000 0.022700 0.000000 0.000000
# 5 0.000000 0.000000 0.000000 0.000000 0.035503 0.000000
# 6 0.000000 0.000000 0.000000 0.000000 0.000000 0.035638
#
#
# Mechanical properties :
#
#
# Convention : Reuss Voigt Hill
#
# Bulk Modulus (GPa) = 35.85178 54.10964 44.98071
# Shear Modulus (GPa) = 16.07880 26.35903 21.21891
#
# Velocity S-wave (km/s) = 2.65252 3.39623 3.04715
# Velocity P-wave (km/s) = 5.00693 6.24954 5.66243
#
# Compressibility (1/GPa) = 0.02789262
#
# Stress axis : x y z
#
# Youngs Moduli (GPa) = 22.25374 19.44504 46.51569
#
# Poissons Ratio (x) = 0.62414 0.98931
# Poissons Ratio (y) = 0.71429 -0.38988
# Poissons Ratio (z) = 0.47330 -0.16298
#
# Static dielectric constant tensor:
#      x y z
#    x 3.926940 0.000000 0.000000 
#    y 0.000000 4.059700 0.000000 
#    z 0.000000 0.000000 4.320330 
# 
# 
# High freq. dielectric constant tensor:
#      x y z
#    x 1.888960 0.000000 0.000000 
#    y 0.000000 1.883290 0.000000 
#    z 0.000000 0.000000 1.901170 
# 
# From -- ./inp_files/17940.got.cif
#   From: 2010.03.12/outbox.cif.g09.slc.cpg/sg60_9_cif.got.tgz:17940.got - 2010.04.10 18:46:24.
