data_PCOD8247034
_publ_section_title
;
Structure prediction by ZEFSAII (Michael W. Deem and Ramdas Pophale) SiO2 
 PCOD8247034
Probable space group: P B C N
;
_chemical_formula_sum "Si O2"
_cell_formula_units_Z 60
_cell_length_a 9.736000
_cell_length_b 27.875915
_cell_length_c 11.009557
_cell_angle_alpha 90.000000
_cell_angle_beta 90.000000
_cell_angle_gamma 90.000000
_cell_volume 2987.992762
_symmetry_space_group_name_H-M "P B C N"
_symmetry_group_IT_number 60
_symmetry_cell_setting 'orthorhombic'
loop_
_space_group_symop_operation_xyz
x,y,z
1/2-x,1/2-y,1/2+z
1/2+x,1/2-y,-z
-x,y,1/2-z
-x,-y,-z
1/2+x,1/2+y,1/2-z
1/2-x,1/2+y,z
x,-y,1/2+z
loop_
_atom_site_type_symbol
_atom_site_label
_atom_site_fract_x
_atom_site_fract_y
_atom_site_fract_z
Si Si1 0.868967 0.562256 0.594307
Si Si2 0.500000 0.415367 0.750000
Si Si3 0.270490 0.165797 0.907203
Si Si4 0.137087 0.984305 0.568164
Si Si5 0.837778 0.561746 0.866620
Si Si6 0.747370 0.668592 0.867412
Si Si7 0.006648 0.270778 0.113819
Si Si8 0.004257 0.836847 0.949380
O O1 0.865389 0.619448 0.598957
O O2 0.746785 0.543763 0.511717
O O3 0.851327 0.542917 0.729726
O O4 0.025137 0.547530 0.555173
O O5 0.611194 0.451413 0.811654
O O6 0.552591 0.379735 0.642121
O O7 0.212040 0.180038 0.773710
O O8 0.373023 0.207864 0.956436
O O9 0.148336 0.154606 0.000513
O O10 0.200642 0.036136 0.590301
O O11 0.000000 0.000000 0.500000
O O12 0.822188 0.618143 0.878579
O O13 0.846367 0.708540 0.932607
O O14 0.604657 0.666558 0.937407
O O15 0.999258 0.213738 0.118414
O O16 0.000000 0.291637 0.250000
#
# Coordination Sequence:
#
# PCOD8247034 Si02
#       8
#     8   4   8   8   8   8   8   8
#     4  10  20  39  62  86 117 154 202 263 307 364
#     4  12  26  40  58  94 138 166 204 250 330 386
#     4  10  20  38  63  89 120 157 211 260 309 364
#     4  12  24  41  61  91 125 166 209 255 315 385
#     4  10  21  38  63  88 113 155 211 260 311 362
#     4  10  21  37  63  91 117 157 217 264 304 374
#     4  10  20  38  63  91 119 164 209 256 316 380
#     4  12  22  39  59  89 130 166 201 257 324 377
#
# _framework density 20.080369999999998
#
# number of rings (size 3 to 8) (size 9 to 14) (size 15 to 20)
#    0.000    1.333    3.333    3.200    0.000    0.000 
#    0.000    0.000    0.000    3.200    0.000    0.000 
#    0.000    0.000    0.000    0.000    0.000    0.000 
#
# Total GULP energy -743341.437185 kJ/mol
# GULP energy per Si atom -12389.023953 kJ/mol
# Density = 2.003467 g / cm^3
# Si number density = 20.080370 Si / 1000 Ang^3
#
#
#
# Elastic Constant Matrix: (Units=GPa)
#
#
# Indices 1 2 3 4 5 6 
#
# 1 130.1753 35.5570 41.2538 0.0000 0.0000 0.0000
# 2 35.5570 89.2341 23.2462 0.0000 0.0000 0.0000
# 3 41.2538 23.2462 65.7347 0.0000 0.0000 0.0000
# 4 0.0000 0.0000 0.0000 28.2210 0.0000 0.0000
# 5 0.0000 0.0000 0.0000 0.0000 26.4966 0.0000
# 6 0.0000 0.0000 0.0000 0.0000 0.0000 32.7481
#
#
#
# Elastic Compliance Matrix: (Units=1/GPa)
#
#
# Indices 1 2 3 4 5 6 
#
# 1 0.010115 -0.002618 -0.005422 0.000000 0.000000 0.000000
# 2 -0.002618 0.013021 -0.002962 0.000000 0.000000 0.000000
# 3 -0.005422 -0.002962 0.019663 0.000000 0.000000 0.000000
# 4 0.000000 0.000000 0.000000 0.035435 0.000000 0.000000
# 5 0.000000 0.000000 0.000000 0.000000 0.037741 0.000000
# 6 0.000000 0.000000 0.000000 0.000000 0.000000 0.030536
#
#
# Mechanical properties :
#
#
# Convention : Reuss Voigt Hill
#
# Bulk Modulus (GPa) = 48.08780 53.91755 51.00268
# Shear Modulus (GPa) = 28.49854 29.83227 29.16541
#
# Velocity S-wave (km/s) = 3.77135 3.85859 3.81522
# Velocity P-wave (km/s) = 6.55467 6.83818 6.69793
#
# Compressibility (1/GPa) = 0.02079529
#
# Stress axis : x y z
#
# Youngs Moduli (GPa) = 98.85823 76.79740 50.85684
#
# Poissons Ratio (x) = 0.20107 0.27577
# Poissons Ratio (y) = 0.25882 0.15062
# Poissons Ratio (z) = 0.53605 0.22745
#
# Static dielectric constant tensor:
#      x y z
#    x 3.771710 0.000000 0.000000 
#    y 0.000000 3.750060 0.000000 
#    z 0.000000 0.000000 3.586640 
# 
# 
# High freq. dielectric constant tensor:
#      x y z
#    x 1.793110 0.000000 0.000000 
#    y 0.000000 1.796150 0.000000 
#    z 0.000000 0.000000 1.759720 
# 
# From -- ./inp_files/10360.got.cif
#   From: 2010.03.12/outbox.cif.g09.slc.cpg/sg60_6_cif.got.tgz:10360.got - 2010.04.10 18:46:24.
