data_PCOD8247954
_publ_section_title
;
Structure prediction by ZEFSAII (Michael W. Deem and Ramdas Pophale) SiO2 
 PCOD8247954
Probable space group: P B C N
;
_chemical_formula_sum "Si O2"
_cell_formula_units_Z 40
_cell_length_a 8.147744
_cell_length_b 14.396221
_cell_length_c 14.223206
_cell_angle_alpha 90.000000
_cell_angle_beta 90.000000
_cell_angle_gamma 90.000000
_cell_volume 1668.335458
_symmetry_space_group_name_H-M "P B C N"
_symmetry_group_IT_number 60
_symmetry_cell_setting 'orthorhombic'
loop_
_space_group_symop_operation_xyz
x,y,z
1/2-x,1/2-y,1/2+z
1/2+x,1/2-y,-z
-x,y,1/2-z
-x,-y,-z
1/2+x,1/2+y,1/2-z
1/2-x,1/2+y,z
x,-y,1/2+z
loop_
_atom_site_type_symbol
_atom_site_label
_atom_site_fract_x
_atom_site_fract_y
_atom_site_fract_z
Si Si1 0.069306 0.386797 0.349965
Si Si2 0.657132 0.480631 0.691651
Si Si3 0.241680 0.801149 0.495377
Si Si4 0.795558 0.529158 0.384037
Si Si5 0.887550 0.882303 0.498782
O O1 0.251212 0.431294 0.350552
O O2 0.118317 0.297611 0.411926
O O3 0.000000 0.352863 0.250000
O O4 0.951787 0.462544 0.398604
O O5 0.500000 0.513743 0.750000
O O6 0.776651 0.443292 0.774630
O O7 0.619753 0.405515 0.610448
O O8 0.244979 0.693342 0.528948
O O9 0.059740 0.835583 0.470301
O O10 0.323504 0.871889 0.568983
O O11 0.640124 0.474565 0.433990
#
# Coordination Sequence:
#
# PCOD8247954 Si02
#       5
#     8   8   8   8   8
#     4  10  23  41  72  98 137 184 233 285 352 411
#     4  11  22  43  70 100 137 182 235 282 350 414
#     4  12  24  43  70 101 141 180 232 288 348 419
#     4  11  23  46  72  98 140 183 232 289 350 415
#     4  12  26  43  73 105 138 191 230 289 356 420
#
# _framework density 23.975994
#
# number of rings (size 3 to 8) (size 9 to 14) (size 15 to 20)
#    0.000    0.800    4.000    3.600    2.800    0.800 
#    7.200    0.000    0.000    0.000    0.000    0.000 
#    0.000    0.000    0.000    0.000    0.000    0.000 
#
# Total GULP energy -495613.721570 kJ/mol
# GULP energy per Si atom -12390.343039 kJ/mol
# Density = 2.392142 g / cm^3
# Si number density = 23.975994 Si / 1000 Ang^3
#
#
#
# Elastic Constant Matrix: (Units=GPa)
#
#
# Indices 1 2 3 4 5 6 
#
# 1 82.0240 12.1891 17.6058 0.0000 0.0000 0.0000
# 2 12.1891 91.2390 40.3499 0.0000 0.0000 0.0000
# 3 17.6058 40.3499 101.9471 0.0000 0.0000 0.0000
# 4 0.0000 0.0000 0.0000 14.1733 0.0000 0.0000
# 5 0.0000 0.0000 0.0000 0.0000 35.8756 0.0000
# 6 0.0000 0.0000 0.0000 0.0000 0.0000 29.5776
#
#
#
# Elastic Compliance Matrix: (Units=1/GPa)
#
#
# Indices 1 2 3 4 5 6 
#
# 1 0.012719 -0.000882 -0.001847 0.000000 0.000000 0.000000
# 2 -0.000882 0.013347 -0.005130 0.000000 0.000000 0.000000
# 3 -0.001847 -0.005130 0.012159 0.000000 0.000000 0.000000
# 4 0.000000 0.000000 0.000000 0.070555 0.000000 0.000000
# 5 0.000000 0.000000 0.000000 0.000000 0.027874 0.000000
# 6 0.000000 0.000000 0.000000 0.000000 0.000000 0.033809
#
#
# Mechanical properties :
#
#
# Convention : Reuss Voigt Hill
#
# Bulk Modulus (GPa) = 44.43466 46.16662 45.30064
# Shear Modulus (GPa) = 25.81519 29.59633 27.70576
#
# Velocity S-wave (km/s) = 3.28489 3.51724 3.40304
# Velocity P-wave (km/s) = 5.74112 5.98262 5.86312
#
# Compressibility (1/GPa) = 0.02250495
#
# Stress axis : x y z
#
# Youngs Moduli (GPa) = 78.62145 74.92377 82.24666
#
# Poissons Ratio (x) = 0.06610 0.15194
# Poissons Ratio (y) = 0.06936 0.42195
# Poissons Ratio (z) = 0.14524 0.38438
#
# Static dielectric constant tensor:
#      x y z
#    x 4.449940 0.000000 0.000000 
#    y 0.000000 4.119350 0.000000 
#    z 0.000000 0.000000 4.618400 
# 
# 
# High freq. dielectric constant tensor:
#      x y z
#    x 1.970450 0.000000 0.000000 
#    y 0.000000 1.930900 0.000000 
#    z 0.000000 0.000000 1.955790 
# 
# From -- ./inp_files/14656.got.cif
#   From: 2010.03.12/outbox.cif.g09.slc.cpg/sg60_8_cif.got.tgz:14656.got - 2010.04.10 18:46:24.
