data_PCOD8247351
_publ_section_title
;
Structure prediction by ZEFSAII (Michael W. Deem and Ramdas Pophale) SiO2 
 PCOD8247351
Probable space group: P B C N
;
_chemical_formula_sum "Si O2"
_cell_formula_units_Z 44
_cell_length_a 11.037960
_cell_length_b 17.280268
_cell_length_c 11.186271
_cell_angle_alpha 90.000000
_cell_angle_beta 90.000000
_cell_angle_gamma 90.000000
_cell_volume 2133.657104
_symmetry_space_group_name_H-M "P B C N"
_symmetry_group_IT_number 60
_symmetry_cell_setting 'orthorhombic'
loop_
_space_group_symop_operation_xyz
x,y,z
1/2-x,1/2-y,1/2+z
1/2+x,1/2-y,-z
-x,y,1/2-z
-x,-y,-z
1/2+x,1/2+y,1/2-z
1/2-x,1/2+y,z
x,-y,1/2+z
loop_
_atom_site_type_symbol
_atom_site_label
_atom_site_fract_x
_atom_site_fract_y
_atom_site_fract_z
Si Si1 0.151420 0.755256 0.588247
Si Si2 0.500000 0.855935 0.250000
Si Si3 0.639566 0.397865 0.739146
Si Si4 0.166032 0.135843 0.528419
Si Si5 0.570268 0.669228 0.639835
Si Si6 0.260457 0.057544 0.736969
O O1 0.044947 0.701102 0.643621
O O2 0.164587 0.835569 0.658005
O O3 0.282171 0.714336 0.590092
O O4 0.125692 0.766733 0.447581
O O5 0.608917 0.914136 0.214379
O O6 0.500000 0.426646 0.750000
O O7 0.671780 0.358623 0.613421
O O8 0.735234 0.467474 0.744802
O O9 0.246035 0.069020 0.592724
O O10 0.026799 0.121168 0.561869
O O11 0.500000 0.710414 0.750000
O O12 0.665744 0.607916 0.688027
#
# Coordination Sequence:
#
# PCOD8247351 Si02
#       6
#     8   4   8   8   8   8
#     4  11  23  39  70  93 133 181 226 274 338 409
#     4  10  22  50  64  94 140 182 212 274 352 404
#     4  12  23  41  71  99 129 179 229 274 340 395
#     4  10  23  40  59 100 133 165 228 273 333 399
#     4  10  21  38  62  95 129 166 220 282 327 385
#     4  10  25  41  68  92 137 172 220 279 339 400
#
# _framework density 20.621870000000001
#
# number of rings (size 3 to 8) (size 9 to 14) (size 15 to 20)
#    0.000    1.455    2.727    1.636   12.727    1.455 
#    0.000    5.455    0.000    0.000    0.000    0.000 
#    0.000    0.000    0.000    0.000    0.000    0.000 
#
# Total GULP energy -545143.109967 kJ/mol
# GULP energy per Si atom -12389.616136 kJ/mol
# Density = 2.057493 g / cm^3
# Si number density = 20.621870 Si / 1000 Ang^3
#
#
#
# Elastic Constant Matrix: (Units=GPa)
#
#
# Indices 1 2 3 4 5 6 
#
# 1 117.2020 63.9249 35.6812 0.0000 0.0000 0.0000
# 2 63.9249 116.7344 42.3029 0.0000 0.0000 0.0000
# 3 35.6812 42.3029 120.4385 0.0000 0.0000 0.0000
# 4 0.0000 0.0000 0.0000 21.8088 0.0000 0.0000
# 5 0.0000 0.0000 0.0000 0.0000 29.3755 0.0000
# 6 0.0000 0.0000 0.0000 0.0000 0.0000 26.2360
#
#
#
# Elastic Compliance Matrix: (Units=1/GPa)
#
#
# Indices 1 2 3 4 5 6 
#
# 1 0.012391 -0.006251 -0.001475 0.000000 0.000000 0.000000
# 2 -0.006251 0.012969 -0.002703 0.000000 0.000000 0.000000
# 3 -0.001475 -0.002703 0.009690 0.000000 0.000000 0.000000
# 4 0.000000 0.000000 0.000000 0.045853 0.000000 0.000000
# 5 0.000000 0.000000 0.000000 0.000000 0.034042 0.000000
# 6 0.000000 0.000000 0.000000 0.000000 0.000000 0.038116
#
#
# Mechanical properties :
#
#
# Convention : Reuss Voigt Hill
#
# Bulk Modulus (GPa) = 70.46980 70.91032 70.69006
# Shear Modulus (GPa) = 27.98783 29.64844 28.81814
#
# Velocity S-wave (km/s) = 3.68801 3.79584 3.74231
# Velocity P-wave (km/s) = 7.23752 7.32611 7.28195
#
# Compressibility (1/GPa) = 0.01419048
#
# Stress axis : x y z
#
# Youngs Moduli (GPa) = 80.70583 77.10680 103.20279
#
# Poissons Ratio (x) = 0.48196 0.15227
# Poissons Ratio (y) = 0.50446 0.27900
# Poissons Ratio (z) = 0.11907 0.20845
#
# Static dielectric constant tensor:
#      x y z
#    x 3.935350 0.000000 0.000000 
#    y 0.000000 3.528390 0.000000 
#    z 0.000000 0.000000 4.107990 
# 
# 
# High freq. dielectric constant tensor:
#      x y z
#    x 1.807900 0.000000 0.000000 
#    y 0.000000 1.784830 0.000000 
#    z 0.000000 0.000000 1.817730 
# 
# From -- ./inp_files/10950.got.cif
#   From: 2010.03.12/outbox.cif.g09.slc.cpg/sg60_6_cif.got.tgz:10950.got - 2010.04.10 18:46:24.
