data_PCOD8247266
_publ_section_title
;
Structure prediction by ZEFSAII (Michael W. Deem and Ramdas Pophale) SiO2 
 PCOD8247266
Probable space group: P B C N
;
_chemical_formula_sum "Si O2"
_cell_formula_units_Z 48
_cell_length_a 8.343640
_cell_length_b 22.629546
_cell_length_c 11.918118
_cell_angle_alpha 90.000000
_cell_angle_beta 90.000000
_cell_angle_gamma 90.000000
_cell_volume 2250.293054
_symmetry_space_group_name_H-M "P B C N"
_symmetry_group_IT_number 60
_symmetry_cell_setting 'orthorhombic'
loop_
_space_group_symop_operation_xyz
x,y,z
1/2-x,1/2-y,1/2+z
1/2+x,1/2-y,-z
-x,y,1/2-z
-x,-y,-z
1/2+x,1/2+y,1/2-z
1/2-x,1/2+y,z
x,-y,1/2+z
loop_
_atom_site_type_symbol
_atom_site_label
_atom_site_fract_x
_atom_site_fract_y
_atom_site_fract_z
Si Si1 0.810575 0.089788 0.628083
Si Si2 0.166841 0.852060 0.788848
Si Si3 0.688256 0.385534 0.375794
Si Si4 0.835022 0.712450 0.016863
Si Si5 0.650683 0.466903 0.558343
Si Si6 0.190844 0.670781 0.055283
O O1 0.750584 0.108628 0.750064
O O2 0.701682 0.117672 0.532376
O O3 0.995421 0.109402 0.611651
O O4 0.767380 0.020142 0.624635
O O5 0.239695 0.803386 0.870750
O O6 0.124192 0.914744 0.849645
O O7 0.281128 0.856828 0.679166
O O8 0.000000 0.824338 0.750000
O O9 0.758443 0.323247 0.413793
O O10 0.756029 0.437470 0.458110
O O11 0.018136 0.699630 0.044156
O O12 0.822415 0.780807 0.982150
O O13 0.500000 0.500000 0.500000
#
# Coordination Sequence:
#
# PCOD8247266 Si02
#       6
#     8   8   8   8   8   8
#     4  10  21  36  66  97 129 171 216 269 322 388
#     4  11  23  41  70  99 130 167 220 273 331 392
#     4   9  20  39  61  93 133 166 218 267 323 382
#     4  11  25  45  64  95 132 174 219 276 329 399
#     4   9  19  36  65  99 129 166 218 269 320 393
#     4  12  25  42  68  93 132 173 223 271 337 392
#
# _framework density 21.330555
#
# number of rings (size 3 to 8) (size 9 to 14) (size 15 to 20)
#    0.000    1.667    0.000    5.500    9.333    0.667 
#    0.000    3.333    7.333    0.000    0.000    0.000 
#    0.000    0.000    0.000    0.000    0.000    0.000 
#
# Total GULP energy -594751.709280 kJ/mol
# GULP energy per Si atom -12390.660610 kJ/mol
# Density = 2.128201 g / cm^3
# Si number density = 21.330555 Si / 1000 Ang^3
#
#
#
# Elastic Constant Matrix: (Units=GPa)
#
#
# Indices 1 2 3 4 5 6 
#
# 1 64.3810 7.0075 21.9358 0.0000 0.0000 0.0000
# 2 7.0075 82.2026 43.2156 0.0000 0.0000 0.0000
# 3 21.9358 43.2156 175.5160 0.0000 0.0000 0.0000
# 4 0.0000 0.0000 0.0000 27.7745 0.0000 0.0000
# 5 0.0000 0.0000 0.0000 0.0000 28.0456 0.0000
# 6 0.0000 0.0000 0.0000 0.0000 0.0000 20.9839
#
#
#
# Elastic Compliance Matrix: (Units=1/GPa)
#
#
# Indices 1 2 3 4 5 6 
#
# 1 0.016233 -0.000364 -0.001939 0.000000 0.000000 0.000000
# 2 -0.000364 0.013982 -0.003397 0.000000 0.000000 0.000000
# 3 -0.001939 -0.003397 0.006776 0.000000 0.000000 0.000000
# 4 0.000000 0.000000 0.000000 0.036004 0.000000 0.000000
# 5 0.000000 0.000000 0.000000 0.000000 0.035656 0.000000
# 6 0.000000 0.000000 0.000000 0.000000 0.000000 0.047656
#
#
# Mechanical properties :
#
#
# Convention : Reuss Voigt Hill
#
# Bulk Modulus (GPa) = 39.07769 51.82417 45.45093
# Shear Modulus (GPa) = 28.37064 32.02350 30.19707
#
# Velocity S-wave (km/s) = 3.65094 3.87886 3.76662
# Velocity P-wave (km/s) = 6.01101 6.66403 6.34592
#
# Compressibility (1/GPa) = 0.02559005
#
# Stress axis : x y z
#
# Youngs Moduli (GPa) = 61.60345 71.52011 147.57386
#
# Poissons Ratio (x) = 0.02606 0.28615
# Poissons Ratio (y) = 0.02245 0.50133
# Poissons Ratio (z) = 0.11945 0.24296
#
# Static dielectric constant tensor:
#      x y z
#    x 3.554250 0.000000 0.000000 
#    y 0.000000 4.082630 0.000000 
#    z 0.000000 0.000000 4.256660 
# 
# 
# High freq. dielectric constant tensor:
#      x y z
#    x 1.802360 0.000000 0.000000 
#    y 0.000000 1.841930 0.000000 
#    z 0.000000 0.000000 1.861520 
# 
# From -- ./inp_files/10069.got.cif
#   From: 2010.03.12/outbox.cif.g09.slc.cpg/sg60_6_cif.got.tgz:10069.got - 2010.04.10 18:46:24.
