data_PCOD8247571
_publ_section_title
;
Structure prediction by ZEFSAII (Michael W. Deem and Ramdas Pophale) SiO2 
 PCOD8247571
Probable space group: P B C N
;
_chemical_formula_sum "Si O2"
_cell_formula_units_Z 40
_cell_length_a 7.130298
_cell_length_b 24.456855
_cell_length_c 10.761443
_cell_angle_alpha 90.000000
_cell_angle_beta 90.000000
_cell_angle_gamma 90.000000
_cell_volume 1876.630625
_symmetry_space_group_name_H-M "P B C N"
_symmetry_group_IT_number 60
_symmetry_cell_setting 'orthorhombic'
loop_
_space_group_symop_operation_xyz
x,y,z
1/2-x,1/2-y,1/2+z
1/2+x,1/2-y,-z
-x,y,1/2-z
-x,-y,-z
1/2+x,1/2+y,1/2-z
1/2-x,1/2+y,z
x,-y,1/2+z
loop_
_atom_site_type_symbol
_atom_site_label
_atom_site_fract_x
_atom_site_fract_y
_atom_site_fract_z
Si Si1 0.133821 0.050937 0.870582
Si Si2 0.943242 0.784141 0.114476
Si Si3 0.782135 0.326819 0.548930
Si Si4 0.908891 0.069352 0.117375
Si Si5 0.904327 0.355075 0.128235
O O1 0.321640 0.084947 0.843164
O O2 0.000000 0.056324 0.750000
O O3 0.198299 0.988699 0.900711
O O4 0.039091 0.076906 0.995092
O O5 0.896693 0.719690 0.121920
O O6 0.756448 0.815879 0.073308
O O7 0.000000 0.805616 0.250000
O O8 0.111693 0.796718 0.021132
O O9 0.711085 0.375533 0.637096
O O10 0.924718 0.360457 0.464882
O O11 0.000000 0.061500 0.250000
O O12 0.000000 0.328788 0.250000
#
# Coordination Sequence:
#
# PCOD8247571 Si02
#       5
#     8   8   8   8   8
#     4  10  21  43  70  99 136 177 222 276 334 405
#     4  12  25  43  63  96 133 173 231 279 338 397
#     4  12  25  41  66  97 132 176 222 282 338 404
#     4  10  23  42  69  99 138 178 216 278 346 398
#     4  12  23  39  71  98 127 175 232 283 328 401
#
# _framework density 21.314798
#
# number of rings (size 3 to 8) (size 9 to 14) (size 15 to 20)
#    0.000    0.800    6.000    1.800    0.000    4.800 
#    0.000    1.000    0.000    0.000    0.000    0.000 
#    0.000    0.000    0.000    0.000    0.000    0.000 
#
# Total GULP energy -495683.746110 kJ/mol
# GULP energy per Si atom -12392.093653 kJ/mol
# Density = 2.126628 g / cm^3
# Si number density = 21.314798 Si / 1000 Ang^3
#
#
#
# Elastic Constant Matrix: (Units=GPa)
#
#
# Indices 1 2 3 4 5 6 
#
# 1 95.6766 45.1869 12.7051 0.0000 0.0000 0.0000
# 2 45.1869 150.0146 1.6877 0.0000 0.0000 0.0000
# 3 12.7051 1.6877 81.7963 0.0000 0.0000 0.0000
# 4 0.0000 0.0000 0.0000 33.7355 0.0000 0.0000
# 5 0.0000 0.0000 0.0000 0.0000 22.4805 0.0000
# 6 0.0000 0.0000 0.0000 0.0000 0.0000 27.7599
#
#
#
# Elastic Compliance Matrix: (Units=1/GPa)
#
#
# Indices 1 2 3 4 5 6 
#
# 1 0.012462 -0.003733 -0.001859 0.000000 0.000000 0.000000
# 2 -0.003733 0.007786 0.000419 0.000000 0.000000 0.000000
# 3 -0.001859 0.000419 0.012506 0.000000 0.000000 0.000000
# 4 0.000000 0.000000 0.000000 0.029642 0.000000 0.000000
# 5 0.000000 0.000000 0.000000 0.000000 0.044483 0.000000
# 6 0.000000 0.000000 0.000000 0.000000 0.000000 0.036023
#
#
# Mechanical properties :
#
#
# Convention : Reuss Voigt Hill
#
# Bulk Modulus (GPa) = 44.62605 49.62745 47.12675
# Shear Modulus (GPa) = 31.11093 34.65570 32.88332
#
# Velocity S-wave (km/s) = 3.82461 4.03662 3.93204
# Velocity P-wave (km/s) = 6.36283 6.71263 6.54007
#
# Compressibility (1/GPa) = 0.02240844
#
# Stress axis : x y z
#
# Youngs Moduli (GPa) = 80.24641 128.44118 79.96466
#
# Poissons Ratio (x) = 0.47944 0.14862
# Poissons Ratio (y) = 0.29954 -0.03352
# Poissons Ratio (z) = 0.14915 -0.05384
#
# Static dielectric constant tensor:
#      x y z
#    x 3.830470 0.000000 0.000000 
#    y 0.000000 4.084120 0.000000 
#    z 0.000000 0.000000 3.792730 
# 
# 
# High freq. dielectric constant tensor:
#      x y z
#    x 1.823860 0.000000 0.000000 
#    y 0.000000 1.858080 0.000000 
#    z 0.000000 0.000000 1.829370 
# 
# From -- ./inp_files/9049.got.cif
#   From: 2010.03.12/outbox.cif.g09.slc.cpg/sg60_5_cif.got.tgz:9049.got - 2010.04.10 18:46:24.
