data_PCOD8247270
_publ_section_title
;
Structure prediction by ZEFSAII (Michael W. Deem and Ramdas Pophale) SiO2 
 PCOD8247270
Probable space group: P B C N
;
_chemical_formula_sum "Si O2"
_cell_formula_units_Z 60
_cell_length_a 32.597300
_cell_length_b 5.347083
_cell_length_c 15.194820
_cell_angle_alpha 90.000000
_cell_angle_beta 90.000000
_cell_angle_gamma 90.000000
_cell_volume 2648.464247
_symmetry_space_group_name_H-M "P B C N"
_symmetry_group_IT_number 60
_symmetry_cell_setting 'orthorhombic'
loop_
_space_group_symop_operation_xyz
x,y,z
1/2-x,1/2-y,1/2+z
1/2+x,1/2-y,-z
-x,y,1/2-z
-x,-y,-z
1/2+x,1/2+y,1/2-z
1/2-x,1/2+y,z
x,-y,1/2+z
loop_
_atom_site_type_symbol
_atom_site_label
_atom_site_fract_x
_atom_site_fract_y
_atom_site_fract_z
Si Si1 0.000000 0.129917 0.250000
Si Si2 0.228507 0.861079 0.765349
Si Si3 0.135335 0.074762 0.310580
Si Si4 0.428544 0.300156 0.214122
Si Si5 0.639046 0.408769 0.000420
Si Si6 0.062623 0.570598 0.858950
Si Si7 0.906837 0.582224 0.457940
Si Si8 0.729816 0.384662 0.942317
O O1 0.966472 0.980102 0.307232
O O2 0.976959 0.282323 0.174275
O O3 0.252493 0.618909 0.805070
O O4 0.234631 0.871003 0.661751
O O5 0.180642 0.830132 0.788035
O O6 0.115504 0.939469 0.224833
O O7 0.136995 0.886898 0.393843
O O8 0.106556 0.307801 0.335379
O O9 0.438795 0.194951 0.311013
O O10 0.427444 0.086416 0.138992
O O11 0.612940 0.643915 0.966939
O O12 0.624725 0.147084 0.958353
O O13 0.684608 0.457034 0.969727
O O14 0.059811 0.538479 0.964664
O O15 0.757013 0.614611 0.981276
#
# Coordination Sequence:
#
# PCOD8247270 Si02
#       8
#     4   8   8   8   8   8   8   8
#     4  10  24  44  68 102 136 176 216 280 334 412
#     4  10  23  37  58  93 129 172 225 273 330 395
#     4  10  23  40  66  92 134 175 226 284 333 401
#     4  11  23  43  71  97 133 181 220 274 349 396
#     4  11  23  42  62  97 130 171 233 279 332 402
#     4  10  23  45  66 101 138 169 229 276 334 406
#     4  11  25  41  70  99 132 177 224 277 331 404
#     4  10  21  37  56  86 129 171 217 278 333 393
#
# _framework density 22.654640000000001
#
# number of rings (size 3 to 8) (size 9 to 14) (size 15 to 20)
#    0.000    1.600    1.333    2.000    7.467    2.667 
#    0.000    2.667    0.000    0.000    0.000    0.000 
#    0.000    0.000    0.000    0.000    0.000    0.000 
#
# Total GULP energy -743871.618516 kJ/mol
# GULP energy per Si atom -12397.860309 kJ/mol
# Density = 2.260308 g / cm^3
# Si number density = 22.654640 Si / 1000 Ang^3
#
#
#
# Elastic Constant Matrix: (Units=GPa)
#
#
# Indices 1 2 3 4 5 6 
#
# 1 94.6133 30.7123 -18.0191 0.0000 0.0000 0.0000
# 2 30.7123 103.1606 15.4376 0.0000 0.0000 0.0000
# 3 -18.0191 15.4376 30.7733 0.0000 0.0000 0.0000
# 4 0.0000 0.0000 0.0000 315.2909 0.0000 0.0000
# 5 0.0000 0.0000 0.0000 0.0000 24.0215 0.0000
# 6 0.0000 0.0000 0.0000 0.0000 0.0000 -6.2371
#
#
#
# Elastic Compliance Matrix: (Units=1/GPa)
#
#
# Indices 1 2 3 4 5 6 
#
# 1 0.014815 -0.006172 0.011771 0.000000 0.000000 0.000000
# 2 -0.006172 0.013052 -0.010161 0.000000 0.000000 0.000000
# 3 0.011771 -0.010161 0.044485 0.000000 0.000000 0.000000
# 4 0.000000 0.000000 0.000000 0.003172 0.000000 0.000000
# 5 0.000000 0.000000 0.000000 0.000000 0.041629 0.000000
# 6 0.000000 0.000000 0.000000 0.000000 0.000000 -0.160332
#
#
# Mechanical properties :
#
#
# Convention : Reuss Voigt Hill
#
# Bulk Modulus (GPa) = 15.81617 31.64542 23.73079
# Shear Modulus (GPa) = -385.24648 79.97617 -152.63516
#
# Velocity S-wave (km/s) = -13.05454 5.94802 -8.21712
# Velocity P-wave (km/s) = 14.84020 7.82118 8.91798
#
# Compressibility (1/GPa) = 0.06322645
#
# Stress axis : x y z
#
# Youngs Moduli (GPa) = 67.50136 76.61845 22.47929
#
# Poissons Ratio (x) = 0.47288 -0.26460
# Poissons Ratio (y) = 0.41661 0.22842
# Poissons Ratio (z) = -0.79454 0.77855
#
# Static dielectric constant tensor:
#      x y z
#    x 4.020510 0.000000 0.000000 
#    y 0.000000 4.257640 0.000000 
#    z 0.000000 0.000000 4.153480 
# 
# 
# High freq. dielectric constant tensor:
#      x y z
#    x 1.889690 0.000000 0.000000 
#    y 0.000000 1.901070 0.000000 
#    z 0.000000 0.000000 1.889590 
# 
# From -- ./inp_files/21276.got.cif
#   From: 2010.03.12/outbox.cif.g09.slc.cpg/sg60_11_cif.got.tgz:21276.got - 2010.04.10 18:46:24.
