data_PCOD8247895
_publ_section_title
;
Structure prediction by ZEFSAII (Michael W. Deem and Ramdas Pophale) SiO2 
 PCOD8247895
Probable space group: P B C N
;
_chemical_formula_sum "Si O2"
_cell_formula_units_Z 44
_cell_length_a 6.806968
_cell_length_b 12.833650
_cell_length_c 25.107717
_cell_angle_alpha 90.000000
_cell_angle_beta 90.000000
_cell_angle_gamma 90.000000
_cell_volume 2193.366090
_symmetry_space_group_name_H-M "P B C N"
_symmetry_group_IT_number 60
_symmetry_cell_setting 'orthorhombic'
loop_
_space_group_symop_operation_xyz
x,y,z
1/2-x,1/2-y,1/2+z
1/2+x,1/2-y,-z
-x,y,1/2-z
-x,-y,-z
1/2+x,1/2+y,1/2-z
1/2-x,1/2+y,z
x,-y,1/2+z
loop_
_atom_site_type_symbol
_atom_site_label
_atom_site_fract_x
_atom_site_fract_y
_atom_site_fract_z
Si Si1 0.368860 0.864145 0.890340
Si Si2 0.757927 0.753459 0.928224
Si Si3 0.419016 0.389151 0.985399
Si Si4 0.500000 0.595572 0.250000
Si Si5 0.635795 0.986360 0.204178
Si Si6 0.459719 0.762939 0.334318
O O1 0.579819 0.822885 0.907433
O O2 0.248550 0.902741 0.941348
O O3 0.244775 0.776494 0.859474
O O4 0.407888 0.962930 0.852800
O O5 0.881572 0.707130 0.879079
O O6 0.899364 0.820120 0.965925
O O7 0.674181 0.657378 0.961280
O O8 0.500000 0.500000 0.000000
O O9 0.349031 0.514022 0.274454
O O10 0.562063 0.673385 0.298029
O O11 0.500000 0.034923 0.250000
O O12 0.599993 0.863077 0.199993
#
# Coordination Sequence:
#
# PCOD8247895 Si02
#       6
#     8   8   8   4   8   8
#     4  10  24  42  62  96 130 169 221 270 320 391
#     4  11  23  43  63  92 136 166 215 273 321 385
#     4  11  25  41  65  94 130 174 217 267 326 391
#     4  10  22  46  60  96 132 156 220 270 302 400
#     4  11  23  41  69  93 124 174 214 260 338 383
#     4  10  23  42  65  96 131 165 216 267 321 388
#
# _framework density 20.060490999999999
#
# number of rings (size 3 to 8) (size 9 to 14) (size 15 to 20)
#    0.000    1.455    2.727    1.091    5.091    2.182 
#    6.545    0.000    0.000    0.000    0.000    0.000 
#    0.000    0.000    0.000    0.000    0.000    0.000 
#
# Total GULP energy -545583.529326 kJ/mol
# GULP energy per Si atom -12399.625667 kJ/mol
# Density = 2.001483 g / cm^3
# Si number density = 20.060491 Si / 1000 Ang^3
#
#
#
# Elastic Constant Matrix: (Units=GPa)
#
#
# Indices 1 2 3 4 5 6 
#
# 1 94.5297 57.6283 51.7273 0.0000 0.0000 0.0000
# 2 57.6283 122.0225 53.8298 0.0000 0.0000 0.0000
# 3 51.7273 53.8298 111.3034 0.0000 0.0000 0.0000
# 4 0.0000 0.0000 0.0000 41.6337 0.0000 0.0000
# 5 0.0000 0.0000 0.0000 0.0000 42.2108 0.0000
# 6 0.0000 0.0000 0.0000 0.0000 0.0000 22.1182
#
#
#
# Elastic Compliance Matrix: (Units=1/GPa)
#
#
# Indices 1 2 3 4 5 6 
#
# 1 0.016832 -0.005719 -0.005057 0.000000 0.000000 0.000000
# 2 -0.005719 0.012361 -0.003320 0.000000 0.000000 0.000000
# 3 -0.005057 -0.003320 0.012940 0.000000 0.000000 0.000000
# 4 0.000000 0.000000 0.000000 0.024019 0.000000 0.000000
# 5 0.000000 0.000000 0.000000 0.000000 0.023691 0.000000
# 6 0.000000 0.000000 0.000000 0.000000 0.000000 0.045212
#
#
# Mechanical properties :
#
#
# Convention : Reuss Voigt Hill
#
# Bulk Modulus (GPa) = 71.72789 72.69181 72.20985
# Shear Modulus (GPa) = 29.78082 32.17055 30.97569
#
# Velocity S-wave (km/s) = 3.85717 4.00894 3.93378
# Velocity P-wave (km/s) = 7.46126 7.59893 7.53041
#
# Compressibility (1/GPa) = 0.01394158
#
# Stress axis : x y z
#
# Youngs Moduli (GPa) = 59.41039 80.90145 77.27712
#
# Poissons Ratio (x) = 0.46264 0.39078
# Poissons Ratio (y) = 0.33974 0.25659
# Poissons Ratio (z) = 0.30043 0.26862
#
# Static dielectric constant tensor:
#      x y z
#    x 3.642370 0.000000 0.000000 
#    y 0.000000 4.219840 0.000000 
#    z 0.000000 0.000000 3.339130 
# 
# 
# High freq. dielectric constant tensor:
#      x y z
#    x 1.788430 0.000000 0.000000 
#    y 0.000000 1.778020 0.000000 
#    z 0.000000 0.000000 1.806100 
# 
# From -- ./inp_files/24834.got.cif
#   From: 2010.03.12/outbox.cif.g09.slc.cpg/sg60_13_cif.got.tgz:24834.got - 2010.04.10 18:46:24.
