data_PCOD8247739
_publ_section_title
;
Structure prediction by ZEFSAII (Michael W. Deem and Ramdas Pophale) SiO2 
 PCOD8247739
Probable space group: P B C N
;
_chemical_formula_sum "Si O2"
_cell_formula_units_Z 60
_cell_length_a 15.593828
_cell_length_b 12.331507
_cell_length_c 14.453437
_cell_angle_alpha 90.000000
_cell_angle_beta 90.000000
_cell_angle_gamma 90.000000
_cell_volume 2779.329437
_symmetry_space_group_name_H-M "P B C N"
_symmetry_group_IT_number 60
_symmetry_cell_setting 'orthorhombic'
loop_
_space_group_symop_operation_xyz
x,y,z
1/2-x,1/2-y,1/2+z
1/2+x,1/2-y,-z
-x,y,1/2-z
-x,-y,-z
1/2+x,1/2+y,1/2-z
1/2-x,1/2+y,z
x,-y,1/2+z
loop_
_atom_site_type_symbol
_atom_site_label
_atom_site_fract_x
_atom_site_fract_y
_atom_site_fract_z
Si Si1 0.917391 0.260754 0.953050
Si Si2 0.444749 0.857347 0.842816
Si Si3 0.891081 0.413474 0.121361
Si Si4 0.312385 0.759971 0.725152
Si Si5 0.899562 0.013616 0.991480
Si Si6 0.855008 0.125363 0.317054
Si Si7 0.000000 0.737732 0.750000
Si Si8 0.196938 0.956851 0.327616
O O1 0.871311 0.291901 0.859439
O O2 0.018331 0.275939 0.923547
O O3 0.886793 0.143365 0.988488
O O4 0.888158 0.351780 0.024854
O O5 0.500000 0.850121 0.750000
O O6 0.345984 0.828407 0.814944
O O7 0.447853 0.978047 0.885751
O O8 0.932158 0.333412 0.195552
O O9 0.797264 0.448299 0.153387
O O10 0.217968 0.782589 0.684766
O O11 0.327159 0.636878 0.755619
O O12 0.855942 0.957989 0.902201
O O13 0.854275 0.954207 0.076666
O O14 0.000000 0.000000 0.000000
O O15 0.947170 0.184332 0.319045
O O16 0.834502 0.065694 0.221251
#
# Coordination Sequence:
#
# PCOD8247739 Si02
#       8
#     8   8   8   8   8   8   4   8
#     4  11  24  43  68 104 140 182 239 297 362 444
#     4  10  22  40  67  98 141 187 236 295 364 440
#     4  12  23  44  68 105 141 190 245 296 369 441
#     4  11  23  44  70 100 139 189 238 299 369 431
#     4  12  26  45  69 105 140 187 240 298 376 443
#     4  12  24  46  69 102 140 188 240 300 368 445
#     4  12  26  42  72 100 146 190 234 308 370 438
#     4  12  25  45  72 101 143 186 245 305 360 450
#
# _framework density 21.58794
#
# number of rings (size 3 to 8) (size 9 to 14) (size 15 to 20)
#    0.000    0.533    4.667    4.400    0.000    0.000 
#    0.000    1.333    0.000    0.000    0.000    0.000 
#    0.000    0.000    0.000    0.000    0.000    0.000 
#
# Total GULP energy -743619.667575 kJ/mol
# GULP energy per Si atom -12393.661126 kJ/mol
# Density = 2.153880 g / cm^3
# Si number density = 21.587940 Si / 1000 Ang^3
#
#
#
# Elastic Constant Matrix: (Units=GPa)
#
#
# Indices 1 2 3 4 5 6 
#
# 1 102.2812 16.9029 31.0632 0.0000 0.0000 0.0000
# 2 16.9029 83.6438 25.1831 0.0000 0.0000 0.0000
# 3 31.0632 25.1831 95.4229 0.0000 0.0000 0.0000
# 4 0.0000 0.0000 0.0000 43.0085 0.0000 0.0000
# 5 0.0000 0.0000 0.0000 0.0000 27.7869 0.0000
# 6 0.0000 0.0000 0.0000 0.0000 0.0000 27.2868
#
#
#
# Elastic Compliance Matrix: (Units=1/GPa)
#
#
# Indices 1 2 3 4 5 6 
#
# 1 0.010967 -0.001240 -0.003243 0.000000 0.000000 0.000000
# 2 -0.001240 0.013128 -0.003061 0.000000 0.000000 0.000000
# 3 -0.003243 -0.003061 0.012343 0.000000 0.000000 0.000000
# 4 0.000000 0.000000 0.000000 0.023251 0.000000 0.000000
# 5 0.000000 0.000000 0.000000 0.000000 0.035988 0.000000
# 6 0.000000 0.000000 0.000000 0.000000 0.000000 0.036648
#
#
# Mechanical properties :
#
#
# Convention : Reuss Voigt Hill
#
# Bulk Modulus (GPa) = 46.83777 47.51627 47.17702
# Shear Modulus (GPa) = 32.35652 33.49636 32.92644
#
# Velocity S-wave (km/s) = 3.87566 3.94334 3.90965
# Velocity P-wave (km/s) = 6.46305 6.54153 6.50241
#
# Compressibility (1/GPa) = 0.02135029
#
# Stress axis : x y z
#
# Youngs Moduli (GPa) = 91.18503 76.17561 81.01697
#
# Poissons Ratio (x) = 0.09445 0.26272
# Poissons Ratio (y) = 0.11306 0.24798
# Poissons Ratio (z) = 0.29570 0.23316
#
# Static dielectric constant tensor:
#      x y z
#    x 4.127550 0.000000 0.000000 
#    y 0.000000 4.069250 0.000000 
#    z 0.000000 0.000000 3.959520 
# 
# 
# High freq. dielectric constant tensor:
#      x y z
#    x 1.851800 0.000000 0.000000 
#    y 0.000000 1.858770 0.000000 
#    z 0.000000 0.000000 1.849190 
# 
# From -- ./inp_files/17451.got.cif
#   From: 2010.03.12/outbox.cif.g09.slc.cpg/sg60_9_cif.got.tgz:17451.got - 2010.04.10 18:46:24.
