data_PCOD8247106
_publ_section_title
;
Structure prediction by ZEFSAII (Michael W. Deem and Ramdas Pophale) SiO2 
 PCOD8247106
Probable space group: P B C N
;
_chemical_formula_sum "Si O2"
_cell_formula_units_Z 52
_cell_length_a 17.068552
_cell_length_b 16.134924
_cell_length_c 9.219882
_cell_angle_alpha 90.000000
_cell_angle_beta 90.000000
_cell_angle_gamma 90.000000
_cell_volume 2539.153560
_symmetry_space_group_name_H-M "P B C N"
_symmetry_group_IT_number 60
_symmetry_cell_setting 'orthorhombic'
loop_
_space_group_symop_operation_xyz
x,y,z
1/2-x,1/2-y,1/2+z
1/2+x,1/2-y,-z
-x,y,1/2-z
-x,-y,-z
1/2+x,1/2+y,1/2-z
1/2-x,1/2+y,z
x,-y,1/2+z
loop_
_atom_site_type_symbol
_atom_site_label
_atom_site_fract_x
_atom_site_fract_y
_atom_site_fract_z
Si Si1 0.134485 0.680898 0.552744
Si Si2 0.681443 0.364130 0.944478
Si Si3 0.500000 0.489324 0.250000
Si Si4 0.985007 0.582760 0.585132
Si Si5 0.104626 0.034111 0.500527
Si Si6 0.755918 0.414031 0.643228
Si Si7 0.315244 0.099627 0.847358
O O1 0.134006 0.779286 0.570155
O O2 0.180989 0.652535 0.409843
O O3 0.176702 0.636774 0.687681
O O4 0.043845 0.655183 0.535538
O O5 0.724142 0.385090 0.795933
O O6 0.619802 0.435498 0.984738
O O7 0.746509 0.352883 0.069253
O O8 0.560260 0.435385 0.351439
O O9 0.549685 0.547328 0.140408
O O10 0.895847 0.613203 0.563198
O O11 0.000000 0.558784 0.750000
O O12 0.000000 0.500000 0.500000
O O13 0.185782 0.082148 0.476294
O O14 0.796585 0.502492 0.663656
#
# Coordination Sequence:
#
# PCOD8247106 Si02
#       7
#     8   8   4   8   8   8   8
#     4  11  23  39  60  92 128 157 203 259 312 363
#     4  11  23  39  60  93 127 158 201 255 316 363
#     4  10  20  40  62  88 112 152 212 250 288 360
#     4  10  21  38  62  89 117 156 208 254 300 363
#     4  10  21  39  63  88 116 161 207 252 299 372
#     4  11  21  38  65  89 118 164 208 255 298 381
#     4  10  21  39  63  88 120 163 213 249 304 374
#
# _framework density 20.479264000000001
#
# number of rings (size 3 to 8) (size 9 to 14) (size 15 to 20)
#    0.000    1.538    3.077    2.769    4.308    0.000 
#    4.154    1.538    1.692    0.000    0.000    0.000 
#    0.000    0.000    0.000    0.000    0.000    0.000 
#
# Total GULP energy -644783.613945 kJ/mol
# GULP energy per Si atom -12399.684884 kJ/mol
# Density = 2.043265 g / cm^3
# Si number density = 20.479264 Si / 1000 Ang^3
#
#
#
# Elastic Constant Matrix: (Units=GPa)
#
#
# Indices 1 2 3 4 5 6 
#
# 1 102.4715 53.6755 28.2196 0.0000 0.0000 0.0000
# 2 53.6755 80.6116 19.3072 0.0000 0.0000 0.0000
# 3 28.2196 19.3072 72.7014 0.0000 0.0000 0.0000
# 4 0.0000 0.0000 0.0000 16.6726 0.0000 0.0000
# 5 0.0000 0.0000 0.0000 0.0000 34.0895 0.0000
# 6 0.0000 0.0000 0.0000 0.0000 0.0000 23.2387
#
#
#
# Elastic Compliance Matrix: (Units=1/GPa)
#
#
# Indices 1 2 3 4 5 6 
#
# 1 0.015807 -0.009671 -0.003567 0.000000 0.000000 0.000000
# 2 -0.009671 0.019164 -0.001336 0.000000 0.000000 0.000000
# 3 -0.003567 -0.001336 0.015494 0.000000 0.000000 0.000000
# 4 0.000000 0.000000 0.000000 0.059979 0.000000 0.000000
# 5 0.000000 0.000000 0.000000 0.000000 0.029335 0.000000
# 6 0.000000 0.000000 0.000000 0.000000 0.000000 0.043032
#
#
# Mechanical properties :
#
#
# Convention : Reuss Voigt Hill
#
# Bulk Modulus (GPa) = 46.90848 50.90990 48.90919
# Shear Modulus (GPa) = 22.82441 25.10562 23.96501
#
# Velocity S-wave (km/s) = 3.34205 3.50509 3.42454
# Velocity P-wave (km/s) = 6.15203 6.42605 6.29053
#
# Compressibility (1/GPa) = 0.02131811
#
# Stress axis : x y z
#
# Youngs Moduli (GPa) = 63.26404 52.18037 64.53982
#
# Poissons Ratio (x) = 0.50462 0.23023
# Poissons Ratio (y) = 0.61180 0.08621
# Poissons Ratio (z) = 0.22568 0.06970
#
# Static dielectric constant tensor:
#      x y z
#    x 4.131340 0.000000 0.000000 
#    y 0.000000 3.719490 0.000000 
#    z 0.000000 0.000000 4.368480 
# 
# 
# High freq. dielectric constant tensor:
#      x y z
#    x 1.821810 0.000000 0.000000 
#    y 0.000000 1.761160 0.000000 
#    z 0.000000 0.000000 1.810470 
# 
# From -- ./inp_files/6866.got.cif
#   From: 2010.03.12/outbox.cif.g09.slc.cpg/sg60_4_cif.got.tgz:6866.got - 2010.04.10 18:46:24.
