data_PCOD8247471
_publ_section_title
;
Structure prediction by ZEFSAII (Michael W. Deem and Ramdas Pophale) SiO2 
 PCOD8247471
Probable space group: P B C N
;
_chemical_formula_sum "Si O2"
_cell_formula_units_Z 52
_cell_length_a 15.454208
_cell_length_b 7.630088
_cell_length_c 20.938418
_cell_angle_alpha 90.000000
_cell_angle_beta 90.000000
_cell_angle_gamma 90.000000
_cell_volume 2468.994745
_symmetry_space_group_name_H-M "P B C N"
_symmetry_group_IT_number 60
_symmetry_cell_setting 'orthorhombic'
loop_
_space_group_symop_operation_xyz
x,y,z
1/2-x,1/2-y,1/2+z
1/2+x,1/2-y,-z
-x,y,1/2-z
-x,-y,-z
1/2+x,1/2+y,1/2-z
1/2-x,1/2+y,z
x,-y,1/2+z
loop_
_atom_site_type_symbol
_atom_site_label
_atom_site_fract_x
_atom_site_fract_y
_atom_site_fract_z
Si Si1 0.660898 0.011469 0.883710
Si Si2 0.158991 0.887629 0.563757
Si Si3 0.149436 0.865249 0.417728
Si Si4 0.000000 0.734274 0.250000
Si Si5 0.206928 0.174760 0.339000
Si Si6 0.154946 0.491832 0.263745
Si Si7 0.039776 0.816642 0.114243
O O1 0.636627 0.184270 0.923574
O O2 0.653296 0.063872 0.809710
O O3 0.757567 0.947618 0.897069
O O4 0.596358 0.854563 0.902185
O O5 0.177412 0.913065 0.489113
O O6 0.078803 0.008562 0.583718
O O7 0.220965 0.735095 0.389654
O O8 0.054191 0.780857 0.416271
O O9 0.144391 0.039734 0.374526
O O10 0.075097 0.616270 0.280858
O O11 0.036089 0.848778 0.191168
O O12 0.146252 0.326819 0.311231
O O13 0.254486 0.087730 0.278287
#
# Coordination Sequence:
#
# PCOD8247471 Si02
#       7
#     8   8   8   4   8   8   8
#     4  11  24  41  69  97 131 175 215 281 331 385
#     4  12  24  44  66  99 134 177 222 260 334 398
#     4  11  24  44  64  97 133 179 219 271 323 396
#     4  10  22  42  64  92 136 160 216 286 332 376
#     4  10  22  40  69  91 129 175 219 269 332 390
#     4  10  21  40  64  95 125 165 223 271 334 391
#     4  11  25  43  67  98 133 171 222 277 326 391
#
# _framework density 21.061204
#
# number of rings (size 3 to 8) (size 9 to 14) (size 15 to 20)
#    0.000    1.231    3.077    2.308    2.154    4.308 
#    0.000    0.769    0.000    0.000    0.000    0.000 
#    0.000    0.000    0.000    0.000    0.000    0.000 
#
# Total GULP energy -645047.073889 kJ/mol
# GULP energy per Si atom -12404.751421 kJ/mol
# Density = 2.101327 g / cm^3
# Si number density = 21.061204 Si / 1000 Ang^3
#
#
#
# Elastic Constant Matrix: (Units=GPa)
#
#
# Indices 1 2 3 4 5 6 
#
# 1 77.7502 17.3558 19.4285 0.0000 0.0000 0.0000
# 2 17.3558 96.4329 19.0279 0.0000 0.0000 0.0000
# 3 19.4285 19.0279 75.4801 0.0000 0.0000 0.0000
# 4 0.0000 0.0000 0.0000 10.8695 0.0000 0.0000
# 5 0.0000 0.0000 0.0000 0.0000 24.4334 0.0000
# 6 0.0000 0.0000 0.0000 0.0000 0.0000 22.4765
#
#
#
# Elastic Compliance Matrix: (Units=1/GPa)
#
#
# Indices 1 2 3 4 5 6 
#
# 1 0.014073 -0.001913 -0.003140 0.000000 0.000000 0.000000
# 2 -0.001913 0.011173 -0.002324 0.000000 0.000000 0.000000
# 3 -0.003140 -0.002324 0.014643 0.000000 0.000000 0.000000
# 4 0.000000 0.000000 0.000000 0.092001 0.000000 0.000000
# 5 0.000000 0.000000 0.000000 0.000000 0.040928 0.000000
# 6 0.000000 0.000000 0.000000 0.000000 0.000000 0.044491
#
#
# Mechanical properties :
#
#
# Convention : Reuss Voigt Hill
#
# Bulk Modulus (GPa) = 39.78694 40.14304 39.96499
# Shear Modulus (GPa) = 20.79508 24.47928 22.63718
#
# Velocity S-wave (km/s) = 3.14564 3.41294 3.28201
# Velocity P-wave (km/s) = 5.66794 5.88493 5.77746
#
# Compressibility (1/GPa) = 0.02513388
#
# Stress axis : x y z
#
# Youngs Moduli (GPa) = 71.05568 89.50276 68.29349
#
# Poissons Ratio (x) = 0.17125 0.21445
# Poissons Ratio (y) = 0.13595 0.15872
# Poissons Ratio (z) = 0.22313 0.20801
#
# Static dielectric constant tensor:
#      x y z
#    x 3.719390 0.000000 0.000000 
#    y 0.000000 3.834450 0.000000 
#    z 0.000000 0.000000 3.837270 
# 
# 
# High freq. dielectric constant tensor:
#      x y z
#    x 1.824810 0.000000 0.000000 
#    y 0.000000 1.825100 0.000000 
#    z 0.000000 0.000000 1.832980 
# 
# From -- ./inp_files/22866.got.cif
#   From: 2010.03.12/outbox.cif.g09.slc.cpg/sg60_12_cif.got.tgz:22866.got - 2010.04.10 18:46:24.
