data_PCOD8247529
_publ_section_title
;
Structure prediction by ZEFSAII (Michael W. Deem and Ramdas Pophale) SiO2 
 PCOD8247529
Probable space group: P B C N
;
_chemical_formula_sum "Si O2"
_cell_formula_units_Z 40
_cell_length_a 14.337985
_cell_length_b 9.633321
_cell_length_c 13.132622
_cell_angle_alpha 90.000000
_cell_angle_beta 90.000000
_cell_angle_gamma 90.000000
_cell_volume 1813.909427
_symmetry_space_group_name_H-M "P B C N"
_symmetry_group_IT_number 60
_symmetry_cell_setting 'orthorhombic'
loop_
_space_group_symop_operation_xyz
x,y,z
1/2-x,1/2-y,1/2+z
1/2+x,1/2-y,-z
-x,y,1/2-z
-x,-y,-z
1/2+x,1/2+y,1/2-z
1/2-x,1/2+y,z
x,-y,1/2+z
loop_
_atom_site_type_symbol
_atom_site_label
_atom_site_fract_x
_atom_site_fract_y
_atom_site_fract_z
Si Si1 0.947496 0.980138 0.656470
Si Si2 0.194648 0.613115 0.579730
Si Si3 0.848131 0.318373 0.990380
Si Si4 0.958929 0.206601 0.508418
Si Si5 0.391491 0.795208 0.282072
O O1 0.000000 0.053398 0.750000
O O2 0.906358 0.103691 0.587898
O O3 0.019195 0.882999 0.592285
O O4 0.872937 0.871365 0.702875
O O5 0.199080 0.447137 0.567669
O O6 0.285503 0.682741 0.530605
O O7 0.181295 0.647961 0.699089
O O8 0.106705 0.666284 0.516490
O O9 0.864067 0.361146 0.108747
O O10 0.947768 0.273118 0.943263
O O11 0.500000 0.826268 0.250000
#
# Coordination Sequence:
#
# PCOD8247529 Si02
#       5
#     8   8   8   8   8
#     4   9  17  36  70  95 123 176 225 270 340 400
#     4  12  25  45  71 100 144 180 233 292 344 415
#     4  11  27  43  70 105 136 186 237 286 353 414
#     4  10  21  41  67  97 137 179 227 283 342 410
#     4  10  21  45  74  94 141 188 223 281 355 410
#
# _framework density 22.051818000000001
#
# number of rings (size 3 to 8) (size 9 to 14) (size 15 to 20)
#    0.000    1.600    6.000    0.600    8.400    1.600 
#    7.200    0.000    0.000    0.000    0.000    0.000 
#    0.000    0.000    0.000    0.000    0.000    0.000 
#
# Total GULP energy -495648.626403 kJ/mol
# GULP energy per Si atom -12391.215660 kJ/mol
# Density = 2.200163 g / cm^3
# Si number density = 22.051818 Si / 1000 Ang^3
#
#
#
# Elastic Constant Matrix: (Units=GPa)
#
#
# Indices 1 2 3 4 5 6 
#
# 1 68.4158 9.2192 1.4258 0.0000 0.0000 0.0000
# 2 9.2192 104.2997 30.5808 0.0000 0.0000 0.0000
# 3 1.4258 30.5808 103.5770 0.0000 0.0000 0.0000
# 4 0.0000 0.0000 0.0000 28.7324 0.0000 0.0000
# 5 0.0000 0.0000 0.0000 0.0000 25.1696 0.0000
# 6 0.0000 0.0000 0.0000 0.0000 0.0000 29.4397
#
#
#
# Elastic Compliance Matrix: (Units=1/GPa)
#
#
# Indices 1 2 3 4 5 6 
#
# 1 0.014796 -0.001366 0.000200 0.000000 0.000000 0.000000
# 2 -0.001366 0.010623 -0.003117 0.000000 0.000000 0.000000
# 3 0.000200 -0.003117 0.010572 0.000000 0.000000 0.000000
# 4 0.000000 0.000000 0.000000 0.034804 0.000000 0.000000
# 5 0.000000 0.000000 0.000000 0.000000 0.039730 0.000000
# 6 0.000000 0.000000 0.000000 0.000000 0.000000 0.033968
#
#
# Mechanical properties :
#
#
# Convention : Reuss Voigt Hill
#
# Bulk Modulus (GPa) = 36.46567 39.86046 38.16306
# Shear Modulus (GPa) = 30.82560 32.33946 31.58253
#
# Velocity S-wave (km/s) = 3.74287 3.83367 3.78854
# Velocity P-wave (km/s) = 5.93725 6.14094 6.03996
#
# Compressibility (1/GPa) = 0.02742305
#
# Stress axis : x y z
#
# Youngs Moduli (GPa) = 67.58365 94.13905 94.58652
#
# Poissons Ratio (x) = 0.12864 -0.01889
# Poissons Ratio (y) = 0.09235 0.29487
# Poissons Ratio (z) = -0.01350 0.29348
#
# Static dielectric constant tensor:
#      x y z
#    x 3.669500 0.000000 0.000000 
#    y 0.000000 3.861490 0.000000 
#    z 0.000000 0.000000 4.270640 
# 
# 
# High freq. dielectric constant tensor:
#      x y z
#    x 1.838020 0.000000 0.000000 
#    y 0.000000 1.859450 0.000000 
#    z 0.000000 0.000000 1.873970 
# 
# From -- ./inp_files/17218.got.cif
#   From: 2010.03.12/outbox.cif.g09.slc.cpg/sg60_9_cif.got.tgz:17218.got - 2010.04.10 18:46:24.
