data_PCOD8247146
_publ_section_title
;
Structure prediction by ZEFSAII (Michael W. Deem and Ramdas Pophale) SiO2 
 PCOD8247146
Probable space group: P B C N
;
_chemical_formula_sum "Si O2"
_cell_formula_units_Z 60
_cell_length_a 13.138258
_cell_length_b 25.191041
_cell_length_c 8.809313
_cell_angle_alpha 90.000000
_cell_angle_beta 90.000000
_cell_angle_gamma 90.000000
_cell_volume 2915.586574
_symmetry_space_group_name_H-M "P B C N"
_symmetry_group_IT_number 60
_symmetry_cell_setting 'orthorhombic'
loop_
_space_group_symop_operation_xyz
x,y,z
1/2-x,1/2-y,1/2+z
1/2+x,1/2-y,-z
-x,y,1/2-z
-x,-y,-z
1/2+x,1/2+y,1/2-z
1/2-x,1/2+y,z
x,-y,1/2+z
loop_
_atom_site_type_symbol
_atom_site_label
_atom_site_fract_x
_atom_site_fract_y
_atom_site_fract_z
Si Si1 0.768691 0.873629 0.886740
Si Si2 0.869162 0.850677 0.413469
Si Si3 0.789276 0.681196 0.681523
Si Si4 0.000000 0.927039 0.250000
Si Si5 0.109267 0.790058 0.801634
Si Si6 0.714151 0.921830 0.589308
Si Si7 0.108505 0.585786 0.693979
Si Si8 0.795882 0.963276 0.122173
O O1 0.856964 0.840797 0.799913
O O2 0.693397 0.899770 0.759309
O O3 0.710908 0.834026 0.002266
O O4 0.810805 0.924659 0.977730
O O5 0.822456 0.831567 0.251693
O O6 0.904199 0.802746 0.520052
O O7 0.779479 0.879009 0.501406
O O8 0.965704 0.888605 0.387412
O O9 0.809083 0.742973 0.710537
O O10 0.879037 0.647798 0.763339
O O11 0.096027 0.963582 0.291901
O O12 0.000000 0.769333 0.750000
O O13 0.610829 0.925109 0.488415
O O14 0.774456 0.976796 0.577489
O O15 0.202935 0.555528 0.772489
O O16 0.000000 0.563760 0.750000
#
# Coordination Sequence:
#
# PCOD8247146 Si02
#       8
#     8   8   8   4   8   8   8   8
#     4  10  21  38  61  88 128 158 213 265 310 384
#     4  10  22  39  60  86 127 159 200 255 314 376
#     4  10  20  41  61  84 118 169 204 258 316 369
#     4  12  20  40  62  88 124 168 204 242 324 376
#     4  11  22  36  60  92 119 161 210 258 313 377
#     4  10  21  40  59  94 123 160 211 256 314 384
#     4  10  21  41  63  84 120 165 207 258 313 372
#     4  11  22  39  62  90 127 165 205 258 320 377
#
# _framework density 20.579049999999999
#
# number of rings (size 3 to 8) (size 9 to 14) (size 15 to 20)
#    0.000    1.600    4.000    2.800    0.000    1.067 
#    4.800    2.667    2.933    0.000    0.000    0.000 
#    0.000    0.000    0.000    0.000    0.000    0.000 
#
# Total GULP energy -743591.650450 kJ/mol
# GULP energy per Si atom -12393.194174 kJ/mol
# Density = 2.053221 g / cm^3
# Si number density = 20.579050 Si / 1000 Ang^3
#
#
#
# Elastic Constant Matrix: (Units=GPa)
#
#
# Indices 1 2 3 4 5 6 
#
# 1 106.1157 22.2484 50.7255 0.0000 0.0000 0.0000
# 2 22.2484 79.2771 41.7999 0.0000 0.0000 0.0000
# 3 50.7255 41.7999 138.5871 0.0000 0.0000 0.0000
# 4 0.0000 0.0000 0.0000 22.9414 0.0000 0.0000
# 5 0.0000 0.0000 0.0000 0.0000 22.2427 0.0000
# 6 0.0000 0.0000 0.0000 0.0000 0.0000 12.2526
#
#
#
# Elastic Compliance Matrix: (Units=1/GPa)
#
#
# Indices 1 2 3 4 5 6 
#
# 1 0.011517 -0.001200 -0.003854 0.000000 0.000000 0.000000
# 2 -0.001200 0.015124 -0.004122 0.000000 0.000000 0.000000
# 3 -0.003854 -0.004122 0.009870 0.000000 0.000000 0.000000
# 4 0.000000 0.000000 0.000000 0.043589 0.000000 0.000000
# 5 0.000000 0.000000 0.000000 0.000000 0.044959 0.000000
# 6 0.000000 0.000000 0.000000 0.000000 0.000000 0.081615
#
#
# Mechanical properties :
#
#
# Convention : Reuss Voigt Hill
#
# Bulk Modulus (GPa) = 55.06999 61.50306 58.28652
# Shear Modulus (GPa) = 21.63749 25.43440 23.53595
#
# Velocity S-wave (km/s) = 3.24610 3.51940 3.38551
# Velocity P-wave (km/s) = 6.39280 6.81660 6.60810
#
# Compressibility (1/GPa) = 0.01815871
#
# Stress axis : x y z
#
# Youngs Moduli (GPa) = 86.82491 66.11814 101.32210
#
# Poissons Ratio (x) = 0.07937 0.39045
# Poissons Ratio (y) = 0.10423 0.41769
# Poissons Ratio (z) = 0.33458 0.27256
#
# Static dielectric constant tensor:
#      x y z
#    x 3.478810 0.000000 0.000000 
#    y 0.000000 3.729850 0.000000 
#    z 0.000000 0.000000 4.320000 
# 
# 
# High freq. dielectric constant tensor:
#      x y z
#    x 1.776110 0.000000 0.000000 
#    y 0.000000 1.803470 0.000000 
#    z 0.000000 0.000000 1.818650 
# 
# From -- ./inp_files/5233.got.cif
#   From: 2010.03.12/outbox.cif.g09.slc.cpg/sg60_3_cif.got.tgz:5233.got - 2010.04.10 18:46:24.
