data_PCOD8247584
_publ_section_title
;
Structure prediction by ZEFSAII (Michael W. Deem and Ramdas Pophale) SiO2 
 PCOD8247584
Probable space group: P B C N
;
_chemical_formula_sum "Si O2"
_cell_formula_units_Z 48
_cell_length_a 8.559249
_cell_length_b 14.355750
_cell_length_c 18.142813
_cell_angle_alpha 90.000000
_cell_angle_beta 90.000000
_cell_angle_gamma 90.000000
_cell_volume 2229.287966
_symmetry_space_group_name_H-M "P B C N"
_symmetry_group_IT_number 60
_symmetry_cell_setting 'orthorhombic'
loop_
_space_group_symop_operation_xyz
x,y,z
1/2-x,1/2-y,1/2+z
1/2+x,1/2-y,-z
-x,y,1/2-z
-x,-y,-z
1/2+x,1/2+y,1/2-z
1/2-x,1/2+y,z
x,-y,1/2+z
loop_
_atom_site_type_symbol
_atom_site_label
_atom_site_fract_x
_atom_site_fract_y
_atom_site_fract_z
Si Si1 0.655867 0.373468 0.445947
Si Si2 0.088732 0.123882 0.385193
Si Si3 0.344615 0.949487 0.525689
Si Si4 0.334837 0.586122 0.880551
Si Si5 0.747573 0.301169 0.872362
Si Si6 0.678262 0.773706 0.223429
O O1 0.612189 0.356768 0.529684
O O2 0.731564 0.474751 0.436901
O O3 0.502457 0.366732 0.394944
O O4 0.774449 0.292418 0.421019
O O5 0.190794 0.197219 0.340217
O O6 0.907976 0.137908 0.367462
O O7 0.144047 0.022027 0.361057
O O8 0.267353 0.901570 0.454497
O O9 0.375595 0.869091 0.587795
O O10 0.500000 0.000000 0.500000
O O11 0.251205 0.631891 0.809802
O O12 0.786655 0.265522 0.789951
O O13 0.500000 0.792981 0.250000
#
# Coordination Sequence:
#
# PCOD8247584 Si02
#       6
#     8   8   8   8   8   8
#     4  11  23  39  73  98 128 183 237 287 344 415
#     4  10  21  44  68  94 137 185 222 292 344 417
#     4  11  24  40  69 105 137 180 235 299 343 412
#     4  11  22  46  68  97 137 182 237 282 356 414
#     4  11  23  42  65 103 137 177 242 273 357 422
#     4  10  25  42  67 101 141 185 224 290 353 423
#
# _framework density 21.53154
#
# number of rings (size 3 to 8) (size 9 to 14) (size 15 to 20)
#    0.000    1.333    3.333    2.000    7.000    3.333 
#    3.000    0.000    0.000    0.000    0.000    0.000 
#    0.000    0.000    0.000    0.000    0.000    0.000 
#
# Total GULP energy -595121.357998 kJ/mol
# GULP energy per Si atom -12398.361625 kJ/mol
# Density = 2.148253 g / cm^3
# Si number density = 21.531540 Si / 1000 Ang^3
#
#
#
# Elastic Constant Matrix: (Units=GPa)
#
#
# Indices 1 2 3 4 5 6 
#
# 1 74.5608 32.2487 44.1464 0.0000 0.0000 0.0000
# 2 32.2487 107.8270 76.6091 0.0000 0.0000 0.0000
# 3 44.1464 76.6091 98.2061 0.0000 0.0000 0.0000
# 4 0.0000 0.0000 0.0000 40.8201 0.0000 0.0000
# 5 0.0000 0.0000 0.0000 0.0000 25.8067 0.0000
# 6 0.0000 0.0000 0.0000 0.0000 0.0000 30.9499
#
#
#
# Elastic Compliance Matrix: (Units=1/GPa)
#
#
# Indices 1 2 3 4 5 6 
#
# 1 0.018310 0.000834 -0.008881 0.000000 0.000000 0.000000
# 2 0.000834 0.020843 -0.016634 0.000000 0.000000 0.000000
# 3 -0.008881 -0.016634 0.027151 0.000000 0.000000 0.000000
# 4 0.000000 0.000000 0.000000 0.024498 0.000000 0.000000
# 5 0.000000 0.000000 0.000000 0.000000 0.038750 0.000000
# 6 0.000000 0.000000 0.000000 0.000000 0.000000 0.032310
#
#
# Mechanical properties :
#
#
# Convention : Reuss Voigt Hill
#
# Bulk Modulus (GPa) = 59.02917 65.17803 62.10360
# Shear Modulus (GPa) = 23.05514 28.02133 25.53823
#
# Velocity S-wave (km/s) = 3.27580 3.61142 3.44769
# Velocity P-wave (km/s) = 6.46394 6.90843 6.68988
#
# Compressibility (1/GPa) = 0.01694078
#
# Stress axis : x y z
#
# Youngs Moduli (GPa) = 54.61602 47.97772 36.83085
#
# Poissons Ratio (x) = -0.04001 0.32710
# Poissons Ratio (y) = -0.04555 0.61265
# Poissons Ratio (z) = 0.48506 0.79807
#
# Static dielectric constant tensor:
#      x y z
#    x 3.847720 0.000000 0.000000 
#    y 0.000000 4.156900 0.000000 
#    z 0.000000 0.000000 4.134520 
# 
# 
# High freq. dielectric constant tensor:
#      x y z
#    x 1.826540 0.000000 0.000000 
#    y 0.000000 1.859880 0.000000 
#    z 0.000000 0.000000 1.846920 
# 
# From -- ./inp_files/19314.got.cif
#   From: 2010.03.12/outbox.cif.g09.slc.cpg/sg60_10_cif.got.tgz:19314.got - 2010.04.10 18:46:24.
