data_PCOD8247197
_publ_section_title
;
Structure prediction by ZEFSAII (Michael W. Deem and Ramdas Pophale) SiO2 
 PCOD8247197
Probable space group: P B C N
;
_chemical_formula_sum "Si O2"
_cell_formula_units_Z 48
_cell_length_a 6.477916
_cell_length_b 13.651634
_cell_length_c 27.023460
_cell_angle_alpha 90.000000
_cell_angle_beta 90.000000
_cell_angle_gamma 90.000000
_cell_volume 2389.796399
_symmetry_space_group_name_H-M "P B C N"
_symmetry_group_IT_number 60
_symmetry_cell_setting 'orthorhombic'
loop_
_space_group_symop_operation_xyz
x,y,z
1/2-x,1/2-y,1/2+z
1/2+x,1/2-y,-z
-x,y,1/2-z
-x,-y,-z
1/2+x,1/2+y,1/2-z
1/2-x,1/2+y,z
x,-y,1/2+z
loop_
_atom_site_type_symbol
_atom_site_label
_atom_site_fract_x
_atom_site_fract_y
_atom_site_fract_z
Si Si1 0.383365 0.599062 0.984468
Si Si2 0.289995 0.143713 0.366430
Si Si3 0.405635 0.765639 0.133077
Si Si4 0.249991 0.922440 0.372716
Si Si5 0.904398 0.284331 0.949738
Si Si6 0.977411 0.206892 0.806820
O O1 0.308352 0.580428 0.929584
O O2 0.525347 0.697070 0.986708
O O3 0.500000 0.500000 0.000000
O O4 0.187969 0.622987 0.020019
O O5 0.403505 0.177378 0.417002
O O6 0.387784 0.197182 0.319025
O O7 0.047197 0.168713 0.369350
O O8 0.311692 0.030093 0.356133
O O9 0.546149 0.860551 0.135975
O O10 0.265949 0.765832 0.084590
O O11 0.261129 0.768807 0.181563
O O12 0.058525 0.883278 0.340318
O O13 0.000000 0.177938 0.750000
#
# Coordination Sequence:
#
# PCOD8247197 Si02
#       6
#     8   8   8   8   8   8
#     4  12  25  39  65  93 135 182 229 276 343 401
#     4  10  23  42  65  94 130 172 218 270 336 398
#     4  10  20  44  68  85 138 168 210 280 327 397
#     4  11  23  42  64  99 128 174 224 271 334 398
#     4  11  24  42  60  96 132 177 227 273 334 399
#     4  10  23  46  68  98 132 168 218 276 342 404
#
# _framework density 20.085393
#
# number of rings (size 3 to 8) (size 9 to 14) (size 15 to 20)
#    0.000    1.333    5.000    2.000    4.667    6.000 
#    6.000    0.000    0.000    0.000    0.000    0.000 
#    0.000    0.000    0.000    0.000    0.000    0.000 
#
# Total GULP energy -595232.575229 kJ/mol
# GULP energy per Si atom -12400.678651 kJ/mol
# Density = 2.003968 g / cm^3
# Si number density = 20.085393 Si / 1000 Ang^3
#
#
#
# Elastic Constant Matrix: (Units=GPa)
#
#
# Indices 1 2 3 4 5 6 
#
# 1 113.9733 22.3117 43.2180 0.0000 0.0000 0.0000
# 2 22.3117 121.3102 15.4530 0.0000 0.0000 0.0000
# 3 43.2180 15.4530 112.0735 0.0000 0.0000 0.0000
# 4 0.0000 0.0000 0.0000 11.7974 0.0000 0.0000
# 5 0.0000 0.0000 0.0000 0.0000 22.7118 0.0000
# 6 0.0000 0.0000 0.0000 0.0000 0.0000 24.3579
#
#
#
# Elastic Compliance Matrix: (Units=1/GPa)
#
#
# Indices 1 2 3 4 5 6 
#
# 1 0.010519 -0.001443 -0.003857 0.000000 0.000000 0.000000
# 2 -0.001443 0.008589 -0.000628 0.000000 0.000000 0.000000
# 3 -0.003857 -0.000628 0.010497 0.000000 0.000000 0.000000
# 4 0.000000 0.000000 0.000000 0.084764 0.000000 0.000000
# 5 0.000000 0.000000 0.000000 0.000000 0.044030 0.000000
# 6 0.000000 0.000000 0.000000 0.000000 0.000000 0.041055
#
#
# Mechanical properties :
#
#
# Convention : Reuss Voigt Hill
#
# Bulk Modulus (GPa) = 56.34477 56.59140 56.46808
# Shear Modulus (GPa) = 23.01745 29.53170 26.27458
#
# Velocity S-wave (km/s) = 3.38890 3.83862 3.62075
# Velocity P-wave (km/s) = 6.58987 6.91977 6.75683
#
# Compressibility (1/GPa) = 0.01774788
#
# Stress axis : x y z
#
# Youngs Moduli (GPa) = 95.06369 116.43144 95.26734
#
# Poissons Ratio (x) = 0.16805 0.36749
# Poissons Ratio (y) = 0.13721 0.05979
# Poissons Ratio (z) = 0.36670 0.07308
#
# Static dielectric constant tensor:
#      x y z
#    x 0.655060 0.000000 0.000000 
#    y 0.000000 4.497430 0.000000 
#    z 0.000000 0.000000 3.931820 
# 
# 
# High freq. dielectric constant tensor:
#      x y z
#    x 1.797460 0.000000 0.000000 
#    y 0.000000 1.783340 0.000000 
#    z 0.000000 0.000000 1.772890 
# 
# From -- ./inp_files/24870.got.cif
#   From: 2010.03.12/outbox.cif.g09.slc.cpg/sg60_13_cif.got.tgz:24870.got - 2010.04.10 18:46:24.
