data_PCOD8247550
_publ_section_title
;
Structure prediction by ZEFSAII (Michael W. Deem and Ramdas Pophale) SiO2 
 PCOD8247550
Probable space group: P B C N
;
_chemical_formula_sum "Si O2"
_cell_formula_units_Z 48
_cell_length_a 17.974841
_cell_length_b 14.742370
_cell_length_c 8.786803
_cell_angle_alpha 90.000000
_cell_angle_beta 90.000000
_cell_angle_gamma 90.000000
_cell_volume 2328.430363
_symmetry_space_group_name_H-M "P B C N"
_symmetry_group_IT_number 60
_symmetry_cell_setting 'orthorhombic'
loop_
_space_group_symop_operation_xyz
x,y,z
1/2-x,1/2-y,1/2+z
1/2+x,1/2-y,-z
-x,y,1/2-z
-x,-y,-z
1/2+x,1/2+y,1/2-z
1/2-x,1/2+y,z
x,-y,1/2+z
loop_
_atom_site_type_symbol
_atom_site_label
_atom_site_fract_x
_atom_site_fract_y
_atom_site_fract_z
Si Si1 0.924079 0.740501 0.949492
Si Si2 0.433092 0.120200 0.923536
Si Si3 0.016740 0.094806 0.426284
Si Si4 0.633498 0.995672 0.339607
Si Si5 0.192305 0.626468 0.403856
Si Si6 0.851646 0.209981 0.130563
O O1 0.873850 0.700309 0.084472
O O2 0.874083 0.767571 0.804476
O O3 0.985696 0.664829 0.906385
O O4 0.964656 0.830856 0.009414
O O5 0.412857 0.071106 0.766223
O O6 0.371495 0.198071 0.960799
O O7 0.428759 0.048258 0.061040
O O8 0.102463 0.125345 0.440532
O O9 0.000000 0.090577 0.250000
O O10 0.000000 0.000000 0.500000
O O11 0.689440 0.937655 0.446461
O O12 0.684280 0.065456 0.245890
O O13 0.266506 0.684879 0.390129
#
# Coordination Sequence:
#
# PCOD8247550 Si02
#       6
#     8   8   8   8   8   8
#     4  10  22  42  67  88 127 175 208 261 334 370
#     4  10  21  42  65  94 130 168 217 260 323 386
#     4   9  20  42  64  88 114 163 216 264 306 370
#     4  10  24  39  64 100 130 169 214 264 322 387
#     4  11  24  40  62  97 133 171 209 266 328 389
#     4  10  22  41  64  87 129 168 210 261 320 382
#
# _framework density 20.614747000000001
#
# number of rings (size 3 to 8) (size 9 to 14) (size 15 to 20)
#    0.000    2.000    1.667    1.500    2.333    7.333 
#    9.000    0.000    0.000    0.000    0.000    0.000 
#    0.000    0.000    0.000    0.000    0.000    0.000 
#
# Total GULP energy -595013.048223 kJ/mol
# GULP energy per Si atom -12396.105171 kJ/mol
# Density = 2.056783 g / cm^3
# Si number density = 20.614747 Si / 1000 Ang^3
#
#
#
# Elastic Constant Matrix: (Units=GPa)
#
#
# Indices 1 2 3 4 5 6 
#
# 1 145.6188 65.9237 42.7793 0.0000 0.0000 0.0000
# 2 65.9237 142.8547 46.5174 0.0000 0.0000 0.0000
# 3 42.7793 46.5174 78.8840 0.0000 0.0000 0.0000
# 4 0.0000 0.0000 0.0000 38.2759 0.0000 0.0000
# 5 0.0000 0.0000 0.0000 0.0000 23.3089 0.0000
# 6 0.0000 0.0000 0.0000 0.0000 0.0000 29.4692
#
#
#
# Elastic Compliance Matrix: (Units=1/GPa)
#
#
# Indices 1 2 3 4 5 6 
#
# 1 0.009253 -0.003263 -0.003094 0.000000 0.000000 0.000000
# 2 -0.003263 0.009814 -0.004018 0.000000 0.000000 0.000000
# 3 -0.003094 -0.004018 0.016724 0.000000 0.000000 0.000000
# 4 0.000000 0.000000 0.000000 0.026126 0.000000 0.000000
# 5 0.000000 0.000000 0.000000 0.000000 0.042902 0.000000
# 6 0.000000 0.000000 0.000000 0.000000 0.000000 0.033934
#
#
# Mechanical properties :
#
#
# Convention : Reuss Voigt Hill
#
# Bulk Modulus (GPa) = 66.48022 75.31091 70.89556
# Shear Modulus (GPa) = 30.39202 32.35328 31.37265
#
# Velocity S-wave (km/s) = 3.84381 3.96589 3.90533
# Velocity P-wave (km/s) = 7.21240 7.58834 7.40276
#
# Compressibility (1/GPa) = 0.01504207
#
# Stress axis : x y z
#
# Youngs Moduli (GPa) = 108.07006 101.89443 59.79358
#
# Poissons Ratio (x) = 0.33244 0.18501
# Poissons Ratio (y) = 0.35259 0.24025
# Poissons Ratio (z) = 0.33439 0.40941
#
# Static dielectric constant tensor:
#      x y z
#    x 3.562100 0.000000 0.000000 
#    y 0.000000 3.854500 0.000000 
#    z 0.000000 0.000000 3.646560 
# 
# 
# High freq. dielectric constant tensor:
#      x y z
#    x 1.793610 0.000000 0.000000 
#    y 0.000000 1.828820 0.000000 
#    z 0.000000 0.000000 1.792800 
# 
# From -- ./inp_files/6691.got.cif
#   From: 2010.03.12/outbox.cif.g09.slc.cpg/sg60_4_cif.got.tgz:6691.got - 2010.04.10 18:46:24.
