data_PCOD8247421
_publ_section_title
;
Structure prediction by ZEFSAII (Michael W. Deem and Ramdas Pophale) SiO2 
 PCOD8247421
Probable space group: P B C N
;
_chemical_formula_sum "Si O2"
_cell_formula_units_Z 60
_cell_length_a 11.313104
_cell_length_b 8.208546
_cell_length_c 29.103859
_cell_angle_alpha 90.000000
_cell_angle_beta 90.000000
_cell_angle_gamma 90.000000
_cell_volume 2702.704679
_symmetry_space_group_name_H-M "P B C N"
_symmetry_group_IT_number 60
_symmetry_cell_setting 'orthorhombic'
loop_
_space_group_symop_operation_xyz
x,y,z
1/2-x,1/2-y,1/2+z
1/2+x,1/2-y,-z
-x,y,1/2-z
-x,-y,-z
1/2+x,1/2+y,1/2-z
1/2-x,1/2+y,z
x,-y,1/2+z
loop_
_atom_site_type_symbol
_atom_site_label
_atom_site_fract_x
_atom_site_fract_y
_atom_site_fract_z
Si Si1 0.107929 0.155884 0.188217
Si Si2 0.000000 0.708507 0.250000
Si Si3 0.370308 0.641461 0.083222
Si Si4 0.199384 0.298558 0.465393
Si Si5 0.379994 0.534401 0.811770
Si Si6 0.612746 0.506900 0.084065
Si Si7 0.296920 0.030955 0.734799
Si Si8 0.683445 0.940987 0.469920
O O1 0.137400 0.199416 0.135833
O O2 0.147024 0.295298 0.223497
O O3 0.184616 0.996450 0.201369
O O4 0.968437 0.119821 0.195542
O O5 0.052564 0.809037 0.292288
O O6 0.102574 0.602057 0.227048
O O7 0.471609 0.504037 0.076565
O O8 0.401142 0.809472 0.055213
O O9 0.248540 0.558228 0.067060
O O10 0.323515 0.382759 0.450509
O O11 0.143789 0.200869 0.422553
O O12 0.121677 0.442552 0.490635
O O13 0.217995 0.163577 0.504045
O O14 0.351429 0.552520 0.865349
O O15 0.253459 0.517301 0.786789
#
# Coordination Sequence:
#
# PCOD8247421 Si02
#       8
#     8   4   8   8   8   8   8   8
#     4  11  22  41  66  93 131 166 227 264 323 384
#     4  12  26  40  64  98 118 178 216 250 342 376
#     4  10  21  39  64  93 122 172 202 267 315 371
#     4   9  20  39  59  95 124 164 207 253 304 385
#     4  11  24  45  64  92 130 175 219 266 324 383
#     4  10  23  40  63  91 128 164 212 260 313 367
#     4  12  24  41  64  92 131 170 209 282 312 390
#     4   9  19  37  64  91 128 160 209 245 321 375
#
# _framework density 22.199981999999999
#
# number of rings (size 3 to 8) (size 9 to 14) (size 15 to 20)
#    0.000    1.600    2.667    0.800    3.733    6.400 
#    2.400    4.000    0.000    0.000    0.000    0.000 
#    0.000    0.000    0.000    0.000    0.000    0.000 
#
# Total GULP energy -743399.846491 kJ/mol
# GULP energy per Si atom -12389.997442 kJ/mol
# Density = 2.214945 g / cm^3
# Si number density = 22.199982 Si / 1000 Ang^3
#
#
#
# Elastic Constant Matrix: (Units=GPa)
#
#
# Indices 1 2 3 4 5 6 
#
# 1 46.6592 15.9256 25.0899 0.0000 0.0000 0.0000
# 2 15.9256 89.9820 37.3558 0.0000 0.0000 0.0000
# 3 25.0899 37.3558 103.1107 0.0000 0.0000 0.0000
# 4 0.0000 0.0000 0.0000 24.7272 0.0000 0.0000
# 5 0.0000 0.0000 0.0000 0.0000 30.1478 0.0000
# 6 0.0000 0.0000 0.0000 0.0000 0.0000 29.5872
#
#
#
# Elastic Compliance Matrix: (Units=1/GPa)
#
#
# Indices 1 2 3 4 5 6 
#
# 1 0.025036 -0.002239 -0.005281 0.000000 0.000000 0.000000
# 2 -0.002239 0.013281 -0.004267 0.000000 0.000000 0.000000
# 3 -0.005281 -0.004267 0.012529 0.000000 0.000000 0.000000
# 4 0.000000 0.000000 0.000000 0.040441 0.000000 0.000000
# 5 0.000000 0.000000 0.000000 0.000000 0.033170 0.000000
# 6 0.000000 0.000000 0.000000 0.000000 0.000000 0.033798
#
#
# Mechanical properties :
#
#
# Convention : Reuss Voigt Hill
#
# Bulk Modulus (GPa) = 36.66615 44.05494 40.36055
# Shear Modulus (GPa) = 26.18911 27.65115 26.92013
#
# Velocity S-wave (km/s) = 3.43839 3.53306 3.48605
# Velocity P-wave (km/s) = 5.68467 6.04409 5.86713
#
# Compressibility (1/GPa) = 0.02727311
#
# Stress axis : x y z
#
# Youngs Moduli (GPa) = 39.94290 75.29617 79.81406
#
# Poissons Ratio (x) = 0.16856 0.42149
# Poissons Ratio (y) = 0.08942 0.34055
# Poissons Ratio (z) = 0.21093 0.32127
#
# Static dielectric constant tensor:
#      x y z
#    x 3.864540 0.000000 0.000000 
#    y 0.000000 4.170910 0.000000 
#    z 0.000000 0.000000 4.076510 
# 
# 
# High freq. dielectric constant tensor:
#      x y z
#    x 1.855320 0.000000 0.000000 
#    y 0.000000 1.878980 0.000000 
#    z 0.000000 0.000000 1.876430 
# 
# From -- ./inp_files/26080.got.cif
#   From: 2010.03.12/outbox.cif.g09.slc.cpg/sg60_14_cif.got.tgz:26080.got - 2010.04.10 18:46:24.
