data_PCOD8247243
_publ_section_title
;
Structure prediction by ZEFSAII (Michael W. Deem and Ramdas Pophale) SiO2 
 PCOD8247243
Probable space group: P B C N
;
_chemical_formula_sum "Si O2"
_cell_formula_units_Z 32
_cell_length_a 8.635147
_cell_length_b 5.314638
_cell_length_c 28.020302
_cell_angle_alpha 90.000000
_cell_angle_beta 90.000000
_cell_angle_gamma 90.000000
_cell_volume 1285.926764
_symmetry_space_group_name_H-M "P B C N"
_symmetry_group_IT_number 60
_symmetry_cell_setting 'orthorhombic'
loop_
_space_group_symop_operation_xyz
x,y,z
1/2-x,1/2-y,1/2+z
1/2+x,1/2-y,-z
-x,y,1/2-z
-x,-y,-z
1/2+x,1/2+y,1/2-z
1/2-x,1/2+y,z
x,-y,1/2+z
loop_
_atom_site_type_symbol
_atom_site_label
_atom_site_fract_x
_atom_site_fract_y
_atom_site_fract_z
Si Si1 0.835939 0.856304 0.726341
Si Si2 0.318839 0.052221 0.993956
Si Si3 0.684838 0.414239 0.901743
Si Si4 0.665167 0.355131 0.613190
O O1 0.767461 0.590946 0.743998
O O2 0.851682 0.864895 0.669760
O O3 0.000000 0.894778 0.750000
O O4 0.276666 0.321914 0.967781
O O5 0.251155 0.117651 0.045362
O O6 0.500000 0.000000 0.000000
O O7 0.754507 0.660327 0.874872
O O8 0.501942 0.424073 0.907451
O O9 0.789079 0.570307 0.596814
#
# Coordination Sequence:
#
# PCOD8247243 Si02
#       4
#     8   8   8   8
#     4  10  21  36  56  84 116 152 192 234 282 332
#     4  10  21  40  60  84 114 145 185 233 283 342
#     4  10  21  38  58  85 112 146 190 231 283 340
#     4  10  21  38  58  83 116 151 190 236 282 334
#
# _framework density 24.884775999999999
#
# number of rings (size 3 to 8) (size 9 to 14) (size 15 to 20)
#    0.000    2.000    0.000    3.000    0.000    2.000 
#    0.000   30.000    0.000    0.000    0.000    0.000 
#    0.000    0.000    0.000    0.000    0.000    0.000 
#
# Total GULP energy -396886.299668 kJ/mol
# GULP energy per Si atom -12402.696865 kJ/mol
# Density = 2.482814 g / cm^3
# Si number density = 24.884776 Si / 1000 Ang^3
#
#
#
# Elastic Constant Matrix: (Units=GPa)
#
#
# Indices 1 2 3 4 5 6 
#
# 1 191.5740 67.7907 13.8807 0.0000 0.0000 0.0000
# 2 67.7907 218.0945 36.4561 0.0000 0.0000 0.0000
# 3 13.8807 36.4561 19.8485 0.0000 0.0000 0.0000
# 4 0.0000 0.0000 0.0000 24.9544 0.0000 0.0000
# 5 0.0000 0.0000 0.0000 0.0000 35.3366 0.0000
# 6 0.0000 0.0000 0.0000 0.0000 0.0000 56.9200
#
#
#
# Elastic Compliance Matrix: (Units=1/GPa)
#
#
# Indices 1 2 3 4 5 6 
#
# 1 0.005881 -0.001646 -0.001090 0.000000 0.000000 0.000000
# 2 -0.001646 0.007077 -0.011848 0.000000 0.000000 0.000000
# 3 -0.001090 -0.011848 0.072905 0.000000 0.000000 0.000000
# 4 0.000000 0.000000 0.000000 0.040073 0.000000 0.000000
# 5 0.000000 0.000000 0.000000 0.000000 0.028299 0.000000
# 6 0.000000 0.000000 0.000000 0.000000 0.000000 0.017569
#
#
# Mechanical properties :
#
#
# Convention : Reuss Voigt Hill
#
# Bulk Modulus (GPa) = 17.63790 73.97467 45.80628
# Shear Modulus (GPa) = 22.74070 44.20151 33.47111
#
# Velocity S-wave (km/s) = 3.02626 4.21913 3.67146
# Velocity P-wave (km/s) = 4.39479 7.31615 6.03491
#
# Compressibility (1/GPa) = 0.05669608
#
# Stress axis : x y z
#
# Youngs Moduli (GPa) = 170.03013 141.29849 13.71652
#
# Poissons Ratio (x) = 0.23256 0.01495
# Poissons Ratio (y) = 0.27985 0.16251
# Poissons Ratio (z) = 0.18532 1.67408
#
# Static dielectric constant tensor:
#      x y z
#    x 3.916800 0.000000 0.000000 
#    y 0.000000 12.806720 0.000000 
#    z 0.000000 0.000000 4.595320 
# 
# 
# High freq. dielectric constant tensor:
#      x y z
#    x 1.990350 0.000000 0.000000 
#    y 0.000000 2.037190 0.000000 
#    z 0.000000 0.000000 1.998220 
# 
# From -- ./inp_files/25861.got.cif
#   From: 2010.03.12/outbox.cif.g09.slc.cpg/sg60_13_cif.got.tgz:25861.got - 2010.04.10 18:46:24.
