data_PCOD8247016
_publ_section_title
;
Structure prediction by ZEFSAII (Michael W. Deem and Ramdas Pophale) SiO2 
 PCOD8247016
Probable space group: P B C N
;
_chemical_formula_sum "Si O2"
_cell_formula_units_Z 64
_cell_length_a 16.142739
_cell_length_b 16.937050
_cell_length_c 10.986811
_cell_angle_alpha 90.000000
_cell_angle_beta 90.000000
_cell_angle_gamma 90.000000
_cell_volume 3003.908144
_symmetry_space_group_name_H-M "P B C N"
_symmetry_group_IT_number 60
_symmetry_cell_setting 'orthorhombic'
loop_
_space_group_symop_operation_xyz
x,y,z
1/2-x,1/2-y,1/2+z
1/2+x,1/2-y,-z
-x,y,1/2-z
-x,-y,-z
1/2+x,1/2+y,1/2-z
1/2-x,1/2+y,z
x,-y,1/2+z
loop_
_atom_site_type_symbol
_atom_site_label
_atom_site_fract_x
_atom_site_fract_y
_atom_site_fract_z
Si Si1 0.716010 0.438467 0.868591
Si Si2 0.733547 0.284519 0.247234
Si Si3 0.830534 0.890103 0.439552
Si Si4 0.447848 0.004942 0.374718
Si Si5 0.800219 0.618030 0.143601
Si Si6 0.661544 0.132577 0.553616
Si Si7 0.614359 0.289571 0.843511
Si Si8 0.942586 0.220490 0.067311
O O1 0.671272 0.517903 0.910342
O O2 0.747865 0.442435 0.729252
O O3 0.643922 0.375188 0.885493
O O4 0.799172 0.417968 0.944611
O O5 0.669814 0.341425 0.314031
O O6 0.690386 0.201938 0.212015
O O7 0.763448 0.329857 0.128003
O O8 0.808366 0.270238 0.344461
O O9 0.751129 0.868600 0.521165
O O10 0.915757 0.861520 0.503052
O O11 0.500000 0.010747 0.250000
O O12 0.390253 0.082413 0.384574
O O13 0.500000 0.000000 0.500000
O O14 0.393142 0.925710 0.363088
O O15 0.603263 0.204307 0.505565
O O16 0.583418 0.290010 0.705949
O O17 0.541675 0.264914 0.937410
#
# Coordination Sequence:
#
# PCOD8247016 Si02
#       8
#     8   8   8   8   8   8   8   8
#     4  11  22  40  66  94 132 170 223 280 338 399
#     4  10  23  39  69  93 123 176 229 270 326 401
#     4  12  22  38  68  94 125 174 221 272 334 405
#     4  12  28  44  66 105 144 184 218 287 362 415
#     4  11  23  45  63  96 133 171 227 274 326 414
#     4  11  22  40  66  95 129 174 229 269 328 420
#     4   9  20  37  61  90 127 161 211 280 328 386
#     4  10  20  38  60  95 124 164 216 276 329 393
#
# _framework density 21.305577
#
# number of rings (size 3 to 8) (size 9 to 14) (size 15 to 20)
#    0.000    1.250    5.000    3.000    5.250    0.500 
#    0.000    0.000    0.000    0.000    0.000    0.000 
#    0.000    0.000    0.000    0.000    0.000    0.000 
#
# Total GULP energy -793383.883595 kJ/mol
# GULP energy per Si atom -12396.623181 kJ/mol
# Density = 2.125709 g / cm^3
# Si number density = 21.305577 Si / 1000 Ang^3
#
#
#
# Elastic Constant Matrix: (Units=GPa)
#
#
# Indices 1 2 3 4 5 6 
#
# 1 71.5914 21.2629 12.3538 0.0000 0.0000 0.0000
# 2 21.2629 96.9782 22.8791 0.0000 0.0000 0.0000
# 3 12.3538 22.8791 60.2687 0.0000 0.0000 0.0000
# 4 0.0000 0.0000 0.0000 35.2332 0.0000 0.0000
# 5 0.0000 0.0000 0.0000 0.0000 16.3529 0.0000
# 6 0.0000 0.0000 0.0000 0.0000 0.0000 28.0547
#
#
#
# Elastic Compliance Matrix: (Units=1/GPa)
#
#
# Indices 1 2 3 4 5 6 
#
# 1 0.015163 -0.002846 -0.002028 0.000000 0.000000 0.000000
# 2 -0.002846 0.011860 -0.003919 0.000000 0.000000 0.000000
# 3 -0.002028 -0.003919 0.018496 0.000000 0.000000 0.000000
# 4 0.000000 0.000000 0.000000 0.028382 0.000000 0.000000
# 5 0.000000 0.000000 0.000000 0.000000 0.061151 0.000000
# 6 0.000000 0.000000 0.000000 0.000000 0.000000 0.035645
#
#
# Mechanical properties :
#
#
# Convention : Reuss Voigt Hill
#
# Bulk Modulus (GPa) = 35.79923 37.98109 36.89016
# Shear Modulus (GPa) = 25.30435 27.41767 26.36101
#
# Velocity S-wave (km/s) = 3.45002 3.59120 3.52132
# Velocity P-wave (km/s) = 5.71922 5.92125 5.82111
#
# Compressibility (1/GPa) = 0.02793356
#
# Stress axis : x y z
#
# Youngs Moduli (GPa) = 65.94821 84.31554 54.06662
#
# Poissons Ratio (x) = 0.23999 0.10963
# Poissons Ratio (y) = 0.18771 0.21188
# Poissons Ratio (z) = 0.13372 0.33043
#
# Static dielectric constant tensor:
#      x y z
#    x 4.074660 0.000000 0.000000 
#    y 0.000000 3.923610 0.000000 
#    z 0.000000 0.000000 3.775200 
# 
# 
# High freq. dielectric constant tensor:
#      x y z
#    x 1.818220 0.000000 0.000000 
#    y 0.000000 1.840810 0.000000 
#    z 0.000000 0.000000 1.831940 
# 
# From -- ./inp_files/12538.got.cif
#   From: 2010.03.12/outbox.cif.g09.slc.cpg/sg60_7_cif.got.tgz:12538.got - 2010.04.10 18:46:24.
