data_PCOD8247869
_publ_section_title
;
Structure prediction by ZEFSAII (Michael W. Deem and Ramdas Pophale) SiO2 
 PCOD8247869
Probable space group: P B C N
;
_chemical_formula_sum "Si O2"
_cell_formula_units_Z 48
_cell_length_a 9.254851
_cell_length_b 11.670526
_cell_length_c 21.828130
_cell_angle_alpha 90.000000
_cell_angle_beta 90.000000
_cell_angle_gamma 90.000000
_cell_volume 2357.634040
_symmetry_space_group_name_H-M "P B C N"
_symmetry_group_IT_number 60
_symmetry_cell_setting 'orthorhombic'
loop_
_space_group_symop_operation_xyz
x,y,z
1/2-x,1/2-y,1/2+z
1/2+x,1/2-y,-z
-x,y,1/2-z
-x,-y,-z
1/2+x,1/2+y,1/2-z
1/2-x,1/2+y,z
x,-y,1/2+z
loop_
_atom_site_type_symbol
_atom_site_label
_atom_site_fract_x
_atom_site_fract_y
_atom_site_fract_z
Si Si1 0.523676 0.862771 0.067029
Si Si2 0.663658 0.270847 0.736384
Si Si3 0.538538 0.488312 0.683836
Si Si4 0.314667 0.686738 0.874881
Si Si5 0.814686 0.815449 0.866460
Si Si6 0.980460 0.376782 0.925077
O O1 0.690781 0.825247 0.074098
O O2 0.419502 0.777805 0.103264
O O3 0.503854 0.991064 0.093097
O O4 0.484048 0.856123 0.995948
O O5 0.500000 0.230736 0.750000
O O6 0.659368 0.392607 0.700329
O O7 0.742711 0.183472 0.692259
O O8 0.748562 0.270540 0.801240
O O9 0.500000 0.546372 0.750000
O O10 0.586440 0.574259 0.630005
O O11 0.401544 0.429717 0.651047
O O12 0.409842 0.798894 0.886569
O O13 0.684451 0.842390 0.912014
#
# Coordination Sequence:
#
# PCOD8247869 Si02
#       6
#     8   8   8   8   8   8
#     4  11  24  46  62  90 134 164 221 265 305 385
#     4   9  19  40  62  94 125 162 197 254 327 375
#     4   9  21  39  63  94 130 159 203 264 319 386
#     4  12  22  41  68  95 127 168 213 266 321 383
#     4  10  22  44  64  92 131 168 207 266 325 373
#     4  11  27  40  66  95 121 175 218 261 316 375
#
# _framework density 20.359394000000002
#
# number of rings (size 3 to 8) (size 9 to 14) (size 15 to 20)
#    0.000    2.000    3.333    2.000    4.667    1.333 
#    0.000    1.667    0.000    0.000    0.000    0.000 
#    0.000    0.000    0.000    0.000    0.000    0.000 
#
# Total GULP energy -594951.078375 kJ/mol
# GULP energy per Si atom -12394.814133 kJ/mol
# Density = 2.031305 g / cm^3
# Si number density = 20.359394 Si / 1000 Ang^3
#
#
#
# Elastic Constant Matrix: (Units=GPa)
#
#
# Indices 1 2 3 4 5 6 
#
# 1 96.4173 63.4186 31.6061 0.0000 0.0000 0.0000
# 2 63.4186 81.5232 34.2677 0.0000 0.0000 0.0000
# 3 31.6061 34.2677 78.6452 0.0000 0.0000 0.0000
# 4 0.0000 0.0000 0.0000 27.1287 0.0000 0.0000
# 5 0.0000 0.0000 0.0000 0.0000 37.0696 0.0000
# 6 0.0000 0.0000 0.0000 0.0000 0.0000 29.6241
#
#
#
# Elastic Compliance Matrix: (Units=1/GPa)
#
#
# Indices 1 2 3 4 5 6 
#
# 1 0.021413 -0.015964 -0.001649 0.000000 0.000000 0.000000
# 2 -0.015964 0.026919 -0.005313 0.000000 0.000000 0.000000
# 3 -0.001649 -0.005313 0.015693 0.000000 0.000000 0.000000
# 4 0.000000 0.000000 0.000000 0.036861 0.000000 0.000000
# 5 0.000000 0.000000 0.000000 0.000000 0.026976 0.000000
# 6 0.000000 0.000000 0.000000 0.000000 0.000000 0.033756
#
#
# Mechanical properties :
#
#
# Convention : Reuss Voigt Hill
#
# Bulk Modulus (GPa) = 55.03314 57.24116 56.13715
# Shear Modulus (GPa) = 23.41599 27.25071 25.33335
#
# Velocity S-wave (km/s) = 3.39504 3.66250 3.53130
# Velocity P-wave (km/s) = 6.51597 6.78687 6.65280
#
# Compressibility (1/GPa) = 0.01817087
#
# Stress axis : x y z
#
# Youngs Moduli (GPa) = 46.70144 37.14897 63.72092
#
# Poissons Ratio (x) = 0.59305 0.10510
# Poissons Ratio (y) = 0.74554 0.33858
# Poissons Ratio (z) = 0.07703 0.19739
#
# Static dielectric constant tensor:
#      x y z
#    x 3.575960 0.000000 0.000000 
#    y 0.000000 3.591570 0.000000 
#    z 0.000000 0.000000 3.802160 
# 
# 
# High freq. dielectric constant tensor:
#      x y z
#    x 1.789020 0.000000 0.000000 
#    y 0.000000 1.791480 0.000000 
#    z 0.000000 0.000000 1.801360 
# 
# From -- ./inp_files/23934.got.cif
#   From: 2010.03.12/outbox.cif.g09.slc.cpg/sg60_12_cif.got.tgz:23934.got - 2010.04.10 18:46:24.
