data_PCOD8247195
_publ_section_title
;
Structure prediction by ZEFSAII (Michael W. Deem and Ramdas Pophale) SiO2 
 PCOD8247195
Probable space group: P B C N
;
_chemical_formula_sum "Si O2"
_cell_formula_units_Z 48
_cell_length_a 22.032223
_cell_length_b 8.236667
_cell_length_c 12.057930
_cell_angle_alpha 90.000000
_cell_angle_beta 90.000000
_cell_angle_gamma 90.000000
_cell_volume 2188.177687
_symmetry_space_group_name_H-M "P B C N"
_symmetry_group_IT_number 60
_symmetry_cell_setting 'orthorhombic'
loop_
_space_group_symop_operation_xyz
x,y,z
1/2-x,1/2-y,1/2+z
1/2+x,1/2-y,-z
-x,y,1/2-z
-x,-y,-z
1/2+x,1/2+y,1/2-z
1/2-x,1/2+y,z
x,-y,1/2+z
loop_
_atom_site_type_symbol
_atom_site_label
_atom_site_fract_x
_atom_site_fract_y
_atom_site_fract_z
Si Si1 0.000000 0.301679 0.250000
Si Si2 0.591849 0.961978 0.676153
Si Si3 0.314885 0.481517 0.274708
Si Si4 0.193505 0.671397 0.710878
Si Si5 0.000000 0.789471 0.250000
Si Si6 0.643697 0.286702 0.020676
Si Si7 0.070134 0.031033 0.134158
O O1 0.963126 0.409778 0.158801
O O2 0.948460 0.202256 0.311990
O O3 0.561604 0.809450 0.737752
O O4 0.618364 0.887939 0.562414
O O5 0.644831 0.036838 0.751440
O O6 0.306542 0.675244 0.296173
O O7 0.258246 0.414860 0.204670
O O8 0.315641 0.379061 0.388761
O O9 0.375774 0.450406 0.205263
O O10 0.181338 0.746627 0.589551
O O11 0.986707 0.906327 0.357848
O O12 0.591042 0.419433 0.989484
#
# Coordination Sequence:
#
# PCOD8247195 Si02
#       7
#     4   8   8   8   4   8   8
#     4  10  20  44  66  94 152 176 218 298 324 388
#     4  11  22  42  67 104 141 179 227 285 338 409
#     4  11  23  45  69  97 139 176 229 296 337 408
#     4  11  26  47  69 101 143 171 236 298 336 418
#     4  10  22  42  70  96 148 180 224 296 328 402
#     4  11  24  45  72 104 129 192 231 267 375 403
#     4  10  22  44  65 100 141 179 230 286 333 408
#
# _framework density 21.936060000000001
#
# number of rings (size 3 to 8) (size 9 to 14) (size 15 to 20)
#    0.000    1.333    5.000    1.000    0.000    6.667 
#    3.000    0.000    0.000    0.000    0.000    0.000 
#    0.000    0.000    0.000    0.000    0.000    0.000 
#
# Total GULP energy -594731.863866 kJ/mol
# GULP energy per Si atom -12390.247164 kJ/mol
# Density = 2.188613 g / cm^3
# Si number density = 21.936060 Si / 1000 Ang^3
#
#
#
# Elastic Constant Matrix: (Units=GPa)
#
#
# Indices 1 2 3 4 5 6 
#
# 1 120.3061 70.1129 45.6047 0.0000 0.0000 0.0000
# 2 70.1129 135.9897 47.7581 0.0000 0.0000 0.0000
# 3 45.6047 47.7581 94.9299 0.0000 0.0000 0.0000
# 4 0.0000 0.0000 0.0000 -41.9906 0.0000 0.0000
# 5 0.0000 0.0000 0.0000 0.0000 28.5077 0.0000
# 6 0.0000 0.0000 0.0000 0.0000 0.0000 43.3607
#
#
#
# Elastic Compliance Matrix: (Units=1/GPa)
#
#
# Indices 1 2 3 4 5 6 
#
# 1 0.012735 -0.005365 -0.003419 0.000000 0.000000 0.000000
# 2 -0.005365 0.011192 -0.003053 0.000000 0.000000 0.000000
# 3 -0.003419 -0.003053 0.013712 0.000000 0.000000 0.000000
# 4 0.000000 0.000000 0.000000 -0.023815 0.000000 0.000000
# 5 0.000000 0.000000 0.000000 0.000000 0.035078 0.000000
# 6 0.000000 0.000000 0.000000 0.000000 0.000000 0.023062
#
#
# Mechanical properties :
#
#
# Convention : Reuss Voigt Hill
#
# Bulk Modulus (GPa) = 71.60631 75.35301 73.47966
# Shear Modulus (GPa) = 49.85362 18.49222 34.17292
#
# Velocity S-wave (km/s) = 4.77243 2.90661 3.95123
# Velocity P-wave (km/s) = 7.94243 6.75946 7.37470
#
# Compressibility (1/GPa) = 0.01396525
#
# Stress axis : x y z
#
# Youngs Moduli (GPa) = 78.52493 89.35093 72.92667
#
# Poissons Ratio (x) = 0.47938 0.24932
# Poissons Ratio (y) = 0.42130 0.22265
# Poissons Ratio (z) = 0.26845 0.27279
#
# Static dielectric constant tensor:
#      x y z
#    x 4.088710 0.000000 0.000000 
#    y 0.000000 4.297980 0.000000 
#    z 0.000000 0.000000 3.618480 
# 
# 
# High freq. dielectric constant tensor:
#      x y z
#    x 1.878790 0.000000 0.000000 
#    y 0.000000 1.885820 0.000000 
#    z 0.000000 0.000000 1.820050 
# 
# From -- ./inp_files/13082.got.cif
#   From: 2010.03.12/outbox.cif.g09.slc.cpg/sg60_7_cif.got.tgz:13082.got - 2010.04.10 18:46:24.
