data_PCOD8247401
_publ_section_title
;
Structure prediction by ZEFSAII (Michael W. Deem and Ramdas Pophale) SiO2 
 PCOD8247401
Probable space group: P B C N
;
_chemical_formula_sum "Si O2"
_cell_formula_units_Z 48
_cell_length_a 15.286237
_cell_length_b 5.102713
_cell_length_c 28.768414
_cell_angle_alpha 90.000000
_cell_angle_beta 90.000000
_cell_angle_gamma 90.000000
_cell_volume 2243.973123
_symmetry_space_group_name_H-M "P B C N"
_symmetry_group_IT_number 60
_symmetry_cell_setting 'orthorhombic'
loop_
_space_group_symop_operation_xyz
x,y,z
1/2-x,1/2-y,1/2+z
1/2+x,1/2-y,-z
-x,y,1/2-z
-x,-y,-z
1/2+x,1/2+y,1/2-z
1/2-x,1/2+y,z
x,-y,1/2+z
loop_
_atom_site_type_symbol
_atom_site_label
_atom_site_fract_x
_atom_site_fract_y
_atom_site_fract_z
Si Si1 0.606698 0.848589 0.130028
Si Si2 0.890521 0.854536 0.080766
Si Si3 0.690989 0.312764 0.982011
Si Si4 0.305154 0.351095 0.677420
Si Si5 0.195087 0.154035 0.283201
Si Si6 0.060053 0.872349 0.599862
O O1 0.654037 0.627910 0.097249
O O2 0.617470 0.753249 0.183206
O O3 0.503598 0.861165 0.117275
O O4 0.643795 0.133406 0.117076
O O5 0.861730 0.776095 0.029526
O O6 0.997025 0.887659 0.083082
O O7 0.732819 0.599345 0.977727
O O8 0.621356 0.270520 0.941305
O O9 0.226865 0.556040 0.667612
O O10 0.339311 0.347441 0.730447
O O11 0.382355 0.448767 0.644286
O O12 0.274485 0.357180 0.292982
#
# Coordination Sequence:
#
# PCOD8247401 Si02
#       6
#     8   8   8   8   8   8
#     4  10  23  38  65  87 122 164 194 255 300 365
#     4  10  24  41  61  92 122 160 201 254 303 361
#     4  12  26  41  65  91 120 162 207 254 305 364
#     4  10  22  39  64  90 120 158 204 251 299 359
#     4  10  21  39  62  90 122 158 202 250 299 357
#     4  10  25  41  64  87 128 157 206 248 310 359
#
# _framework density 21.390629000000001
#
# number of rings (size 3 to 8) (size 9 to 14) (size 15 to 20)
#    1.000    0.667    0.000    3.500    4.667    5.333 
#    0.000    0.000    3.667    0.000    0.000    0.000 
#    0.000    0.000    0.000    0.000    0.000    0.000 
#
# Total GULP energy -594773.697725 kJ/mol
# GULP energy per Si atom -12391.118703 kJ/mol
# Density = 2.134194 g / cm^3
# Si number density = 21.390629 Si / 1000 Ang^3
#
#
#
# Elastic Constant Matrix: (Units=GPa)
#
#
# Indices 1 2 3 4 5 6 
#
# 1 55.8417 10.7646 40.3215 0.0000 0.0000 0.0000
# 2 10.7646 93.1838 10.0667 0.0000 0.0000 0.0000
# 3 40.3215 10.0667 109.0222 0.0000 0.0000 0.0000
# 4 0.0000 0.0000 0.0000 22.0174 0.0000 0.0000
# 5 0.0000 0.0000 0.0000 0.0000 24.4038 0.0000
# 6 0.0000 0.0000 0.0000 0.0000 0.0000 15.3291
#
#
#
# Elastic Compliance Matrix: (Units=1/GPa)
#
#
# Indices 1 2 3 4 5 6 
#
# 1 0.024758 -0.001890 -0.008982 0.000000 0.000000 0.000000
# 2 -0.001890 0.010984 -0.000315 0.000000 0.000000 0.000000
# 3 -0.008982 -0.000315 0.012524 0.000000 0.000000 0.000000
# 4 0.000000 0.000000 0.000000 0.045419 0.000000 0.000000
# 5 0.000000 0.000000 0.000000 0.000000 0.040977 0.000000
# 6 0.000000 0.000000 0.000000 0.000000 0.000000 0.065235
#
#
# Mechanical properties :
#
#
# Convention : Reuss Voigt Hill
#
# Bulk Modulus (GPa) = 38.62353 42.26150 40.44251
# Shear Modulus (GPa) = 21.65434 25.47640 23.56537
#
# Velocity S-wave (km/s) = 3.18516 3.45484 3.32274
# Velocity P-wave (km/s) = 5.62339 5.97616 5.80246
#
# Compressibility (1/GPa) = 0.02589095
#
# Stress axis : x y z
#
# Youngs Moduli (GPa) = 40.39142 91.04288 79.84953
#
# Poissons Ratio (x) = 0.17204 0.71722
# Poissons Ratio (y) = 0.07633 0.02518
# Poissons Ratio (z) = 0.36280 0.02871
#
# Static dielectric constant tensor:
#      x y z
#    x 3.581250 0.000000 0.000000 
#    y 0.000000 3.807260 0.000000 
#    z 0.000000 0.000000 3.929120 
# 
# 
# High freq. dielectric constant tensor:
#      x y z
#    x 1.816770 0.000000 0.000000 
#    y 0.000000 1.844090 0.000000 
#    z 0.000000 0.000000 1.849240 
# 
# From -- ./inp_files/25447.got.cif
#   From: 2010.03.12/outbox.cif.g09.slc.cpg/sg60_13_cif.got.tgz:25447.got - 2010.04.10 18:46:24.
