data_PCOD8247967
_publ_section_title
;
Structure prediction by ZEFSAII (Michael W. Deem and Ramdas Pophale) SiO2 
 PCOD8247967
Probable space group: P B C N
;
_chemical_formula_sum "Si O2"
_cell_formula_units_Z 64
_cell_length_a 8.711693
_cell_length_b 23.109045
_cell_length_c 14.736128
_cell_angle_alpha 90.000000
_cell_angle_beta 90.000000
_cell_angle_gamma 90.000000
_cell_volume 2966.661161
_symmetry_space_group_name_H-M "P B C N"
_symmetry_group_IT_number 60
_symmetry_cell_setting 'orthorhombic'
loop_
_space_group_symop_operation_xyz
x,y,z
1/2-x,1/2-y,1/2+z
1/2+x,1/2-y,-z
-x,y,1/2-z
-x,-y,-z
1/2+x,1/2+y,1/2-z
1/2-x,1/2+y,z
x,-y,1/2+z
loop_
_atom_site_type_symbol
_atom_site_label
_atom_site_fract_x
_atom_site_fract_y
_atom_site_fract_z
Si Si1 0.886607 0.438283 0.436114
Si Si2 0.739665 0.178628 0.965762
Si Si3 0.648135 0.742258 0.621895
Si Si4 0.304917 0.762582 0.679992
Si Si5 0.930975 0.131029 0.524945
Si Si6 0.362780 0.378858 0.679415
Si Si7 0.770363 0.523638 0.571989
Si Si8 0.670291 0.986929 0.769194
O O1 0.888610 0.369786 0.452003
O O2 0.764070 0.467494 0.506398
O O3 0.840513 0.457106 0.334263
O O4 0.064302 0.451220 0.454298
O O5 0.699479 0.228128 0.891560
O O6 0.896995 0.144627 0.942097
O O7 0.734819 0.206902 0.066060
O O8 0.473006 0.762097 0.635480
O O9 0.714773 0.731769 0.722324
O O10 0.672162 0.682618 0.566687
O O11 0.256899 0.828095 0.698461
O O12 0.936185 0.131981 0.417465
O O13 0.867042 0.068902 0.556327
O O14 0.500000 0.379192 0.750000
O O15 0.269866 0.438585 0.680728
O O16 0.749425 0.504605 0.675712
O O17 0.500000 0.962151 0.750000
#
# Coordination Sequence:
#
# PCOD8247967 Si02
#       8
#     8   8   8   8   8   8   8   8
#     4  10  23  42  66  95 126 169 221 259 321 389
#     4  11  24  41  69  95 131 170 216 270 328 387
#     4  10  23  43  67  94 129 180 217 265 332 395
#     4  10  24  43  65  96 132 172 221 264 329 399
#     4  11  24  43  65  94 136 166 219 274 327 385
#     4  12  25  43  65  99 131 165 215 280 324 383
#     4  10  23  42  67  94 128 172 214 270 317 385
#     4  10  24  44  67  95 131 173 218 260 325 395
#
# _framework density 21.573073999999998
#
# number of rings (size 3 to 8) (size 9 to 14) (size 15 to 20)
#    0.000    1.500    2.500    0.750    8.750    1.500 
#    2.250    0.000    0.000    0.000    0.000    0.000 
#    0.000    0.000    0.000    0.000    0.000    0.000 
#
# Total GULP energy -793486.030424 kJ/mol
# GULP energy per Si atom -12398.219225 kJ/mol
# Density = 2.152397 g / cm^3
# Si number density = 21.573074 Si / 1000 Ang^3
#
#
#
# Elastic Constant Matrix: (Units=GPa)
#
#
# Indices 1 2 3 4 5 6 
#
# 1 37.2074 18.2680 15.6060 0.0000 0.0000 0.0000
# 2 18.2680 84.0130 29.6161 0.0000 0.0000 0.0000
# 3 15.6060 29.6161 133.8673 0.0000 0.0000 0.0000
# 4 0.0000 0.0000 0.0000 34.8626 0.0000 0.0000
# 5 0.0000 0.0000 0.0000 0.0000 28.5726 0.0000
# 6 0.0000 0.0000 0.0000 0.0000 0.0000 31.3555
#
#
#
# Elastic Compliance Matrix: (Units=1/GPa)
#
#
# Indices 1 2 3 4 5 6 
#
# 1 0.030718 -0.005875 -0.002281 0.000000 0.000000 0.000000
# 2 -0.005875 0.014033 -0.002420 0.000000 0.000000 0.000000
# 3 -0.002281 -0.002420 0.008271 0.000000 0.000000 0.000000
# 4 0.000000 0.000000 0.000000 0.028684 0.000000 0.000000
# 5 0.000000 0.000000 0.000000 0.000000 0.034999 0.000000
# 6 0.000000 0.000000 0.000000 0.000000 0.000000 0.031892
#
#
# Mechanical properties :
#
#
# Convention : Reuss Voigt Hill
#
# Bulk Modulus (GPa) = 31.37722 42.45198 36.91460
# Shear Modulus (GPa) = 27.72028 31.73130 29.72579
#
# Velocity S-wave (km/s) = 3.58851 3.83936 3.71605
# Velocity P-wave (km/s) = 5.63436 6.27496 5.96327
#
# Compressibility (1/GPa) = 0.03187026
#
# Stress axis : x y z
#
# Youngs Moduli (GPa) = 32.55442 71.25842 120.89908
#
# Poissons Ratio (x) = 0.41865 0.27580
# Poissons Ratio (y) = 0.19126 0.29255
# Poissons Ratio (z) = 0.07426 0.17243
#
# Static dielectric constant tensor:
#      x y z
#    x 3.662210 0.000000 0.000000 
#    y 0.000000 4.007770 0.000000 
#    z 0.000000 0.000000 4.111570 
# 
# 
# High freq. dielectric constant tensor:
#      x y z
#    x 1.831330 0.000000 0.000000 
#    y 0.000000 1.848710 0.000000 
#    z 0.000000 0.000000 1.863150 
# 
# From -- ./inp_files/15428.got.cif
#   From: 2010.03.12/outbox.cif.g09.slc.cpg/sg60_8_cif.got.tgz:15428.got - 2010.04.10 18:46:24.
