data_PCOD8247595
_publ_section_title
;
Structure prediction by ZEFSAII (Michael W. Deem and Ramdas Pophale) SiO2 
 PCOD8247595
Probable space group: P B C N
;
_chemical_formula_sum "Si O2"
_cell_formula_units_Z 28
_cell_length_a 5.250724
_cell_length_b 12.814094
_cell_length_c 14.652746
_cell_angle_alpha 90.000000
_cell_angle_beta 90.000000
_cell_angle_gamma 90.000000
_cell_volume 985.884679
_symmetry_space_group_name_H-M "P B C N"
_symmetry_group_IT_number 60
_symmetry_cell_setting 'orthorhombic'
loop_
_space_group_symop_operation_xyz
x,y,z
1/2-x,1/2-y,1/2+z
1/2+x,1/2-y,-z
-x,y,1/2-z
-x,-y,-z
1/2+x,1/2+y,1/2-z
1/2-x,1/2+y,z
x,-y,1/2+z
loop_
_atom_site_type_symbol
_atom_site_label
_atom_site_fract_x
_atom_site_fract_y
_atom_site_fract_z
Si Si1 0.372953 0.240482 0.140636
Si Si2 0.096209 0.378257 0.014881
Si Si3 0.912668 0.049958 0.598059
Si Si4 0.500000 0.618621 0.250000
O O1 0.540831 0.344941 0.158928
O O2 0.251597 0.191905 0.233490
O O3 0.133884 0.272279 0.074139
O O4 0.535292 0.152701 0.088581
O O5 0.367942 0.441995 0.016749
O O6 0.879551 0.450366 0.061621
O O7 0.955617 0.950005 0.660917
#
# Coordination Sequence:
#
# PCOD8247595 Si02
#       4
#     8   8   8   4
#     4  10  23  48  76 107 145 210 245 316 372 451
#     4  10  21  48  76  96 153 197 256 307 363 449
#     4  10  24  46  68 111 147 190 253 315 358 468
#     4  12  28  44  76 118 150 202 242 322 408 430
#
# _framework density 28.400884999999999
#
# number of rings (size 3 to 8) (size 9 to 14) (size 15 to 20)
#    1.714    0.000    2.857    0.000    4.000    3.429 
#   10.286    0.000    0.000    0.000    0.000    0.000 
#    0.000    0.000    0.000    0.000    0.000    0.000 
#
# Total GULP energy -347301.121379 kJ/mol
# GULP energy per Si atom -12403.611478 kJ/mol
# Density = 2.833624 g / cm^3
# Si number density = 28.400885 Si / 1000 Ang^3
#
#
#
# Elastic Constant Matrix: (Units=GPa)
#
#
# Indices 1 2 3 4 5 6 
#
# 1 194.2127 85.2080 63.5440 0.0000 0.0000 0.0000
# 2 85.2080 173.3165 54.0535 0.0000 0.0000 0.0000
# 3 63.5440 54.0535 142.4260 0.0000 0.0000 0.0000
# 4 0.0000 0.0000 0.0000 63.4768 0.0000 0.0000
# 5 0.0000 0.0000 0.0000 0.0000 46.7865 0.0000
# 6 0.0000 0.0000 0.0000 0.0000 0.0000 72.6225
#
#
#
# Elastic Compliance Matrix: (Units=1/GPa)
#
#
# Indices 1 2 3 4 5 6 
#
# 1 0.007070 -0.002827 -0.002082 0.000000 0.000000 0.000000
# 2 -0.002827 0.007675 -0.001651 0.000000 0.000000 0.000000
# 3 -0.002082 -0.001651 0.008577 0.000000 0.000000 0.000000
# 4 0.000000 0.000000 0.000000 0.015754 0.000000 0.000000
# 5 0.000000 0.000000 0.000000 0.000000 0.021374 0.000000
# 6 0.000000 0.000000 0.000000 0.000000 0.000000 0.013770
#
#
# Mechanical properties :
#
#
# Convention : Reuss Voigt Hill
#
# Bulk Modulus (GPa) = 98.02189 101.72958 99.87574
# Shear Modulus (GPa) = 55.10298 57.05381 56.07839
#
# Velocity S-wave (km/s) = 4.40953 4.48691 4.44839
# Velocity P-wave (km/s) = 7.77907 7.92086 7.85029
#
# Compressibility (1/GPa) = 0.01020180
#
# Stress axis : x y z
#
# Youngs Moduli (GPa) = 141.43719 130.30024 116.59515
#
# Poissons Ratio (x) = 0.36833 0.24271
# Poissons Ratio (y) = 0.39981 0.19255
# Poissons Ratio (z) = 0.29442 0.21519
#
# Static dielectric constant tensor:
#      x y z
#    x 5.273790 0.000000 0.000000 
#    y 0.000000 5.552660 0.000000 
#    z 0.000000 0.000000 4.821180 
# 
# 
# High freq. dielectric constant tensor:
#      x y z
#    x 2.168810 0.000000 0.000000 
#    y 0.000000 2.205320 0.000000 
#    z 0.000000 0.000000 2.147590 
# 
# From -- ./inp_files/14473.got.cif
#   From: 2010.03.12/outbox.cif.g09.slc.cpg/sg60_8_cif.got.tgz:14473.got - 2010.04.10 18:46:24.
