data_PCOD8247839
_publ_section_title
;
Structure prediction by ZEFSAII (Michael W. Deem and Ramdas Pophale) SiO2 
 PCOD8247839
Probable space group: P B C N
;
_chemical_formula_sum "Si O2"
_cell_formula_units_Z 40
_cell_length_a 8.755934
_cell_length_b 18.785948
_cell_length_c 11.319874
_cell_angle_alpha 90.000000
_cell_angle_beta 90.000000
_cell_angle_gamma 90.000000
_cell_volume 1861.989330
_symmetry_space_group_name_H-M "P B C N"
_symmetry_group_IT_number 60
_symmetry_cell_setting 'orthorhombic'
loop_
_space_group_symop_operation_xyz
x,y,z
1/2-x,1/2-y,1/2+z
1/2+x,1/2-y,-z
-x,y,1/2-z
-x,-y,-z
1/2+x,1/2+y,1/2-z
1/2-x,1/2+y,z
x,-y,1/2+z
loop_
_atom_site_type_symbol
_atom_site_label
_atom_site_fract_x
_atom_site_fract_y
_atom_site_fract_z
Si Si1 0.736291 0.197704 0.900103
Si Si2 0.319143 0.361332 0.620622
Si Si3 0.500000 0.886464 0.250000
Si Si4 0.740681 0.550809 0.597255
Si Si5 0.676313 0.389690 0.617257
Si Si6 0.500000 0.367810 0.250000
O O1 0.715248 0.281123 0.915850
O O2 0.589083 0.165588 0.837137
O O3 0.888317 0.182105 0.825098
O O4 0.743670 0.166362 0.031330
O O5 0.231061 0.411872 0.528713
O O6 0.496905 0.377834 0.614059
O O7 0.257129 0.377384 0.751692
O O8 0.612005 0.937919 0.178433
O O9 0.716401 0.468098 0.571996
O O10 0.590348 0.581746 0.660143
#
# Coordination Sequence:
#
# PCOD8247839 Si02
#       6
#     8   8   4   8   8   4
#     4  11  25  44  69 102 140 183 227 285 341 404
#     4  11  25  42  72 102 136 175 234 282 337 414
#     4  10  26  44  68  96 148 174 232 288 342 390
#     4  11  24  45  70 100 137 185 229 284 338 411
#     4  11  25  44  72  99 135 180 234 277 347 411
#     4  10  22  42  74  96 138 188 234 270 342 410
#
# _framework density 21.482399000000001
#
# number of rings (size 3 to 8) (size 9 to 14) (size 15 to 20)
#    0.000    1.200    2.000    3.000   14.000    0.800 
#    0.000    0.000    0.000    0.000    0.000    0.000 
#    0.000    0.000    0.000    0.000    0.000    0.000 
#
# Total GULP energy -496297.171315 kJ/mol
# GULP energy per Si atom -12407.429283 kJ/mol
# Density = 2.143350 g / cm^3
# Si number density = 21.482399 Si / 1000 Ang^3
#
#
#
# Elastic Constant Matrix: (Units=GPa)
#
#
# Indices 1 2 3 4 5 6 
#
# 1 77.2135 34.1737 28.3900 0.0000 0.0000 0.0000
# 2 34.1737 192.7168 69.0016 0.0000 0.0000 0.0000
# 3 28.3900 69.0016 164.5217 0.0000 0.0000 0.0000
# 4 0.0000 0.0000 0.0000 41.6919 0.0000 0.0000
# 5 0.0000 0.0000 0.0000 0.0000 -90.1896 0.0000
# 6 0.0000 0.0000 0.0000 0.0000 0.0000 26.0379
#
#
#
# Elastic Compliance Matrix: (Units=1/GPa)
#
#
# Indices 1 2 3 4 5 6 
#
# 1 0.014433 -0.001962 -0.001668 0.000000 0.000000 0.000000
# 2 -0.001962 0.006373 -0.002334 0.000000 0.000000 0.000000
# 3 -0.001668 -0.002334 0.007345 0.000000 0.000000 0.000000
# 4 0.000000 0.000000 0.000000 0.023985 0.000000 0.000000
# 5 0.000000 0.000000 0.000000 0.000000 -0.011088 0.000000
# 6 0.000000 0.000000 0.000000 0.000000 0.000000 0.038406
#
#
# Mechanical properties :
#
#
# Convention : Reuss Voigt Hill
#
# Bulk Modulus (GPa) = 61.64296 77.50916 69.57606
# Shear Modulus (GPa) = 51.65886 15.70050 33.67968
#
# Velocity S-wave (km/s) = 4.90910 2.70636 3.96382
# Velocity P-wave (km/s) = 7.80316 6.77676 7.30800
#
# Compressibility (1/GPa) = 0.01622245
#
# Stress axis : x y z
#
# Youngs Moduli (GPa) = 69.28723 156.92079 136.14844
#
# Poissons Ratio (x) = 0.30791 0.22703
# Poissons Ratio (y) = 0.13596 0.31779
# Poissons Ratio (z) = 0.11554 0.36627
#
# Static dielectric constant tensor:
#      x y z
#    x 3.702620 0.000000 0.000000 
#    y 0.000000 3.793430 0.000000 
#    z 0.000000 0.000000 4.312980 
# 
# 
# High freq. dielectric constant tensor:
#      x y z
#    x 1.837360 0.000000 0.000000 
#    y 0.000000 1.849440 0.000000 
#    z 0.000000 0.000000 1.864710 
# 
# From -- ./inp_files/9796.got.cif
#   From: 2010.03.12/outbox.cif.g09.slc.cpg/sg60_5_cif.got.tgz:9796.got - 2010.04.10 18:46:24.
