data_PCOD8247065
_publ_section_title
;
Structure prediction by ZEFSAII (Michael W. Deem and Ramdas Pophale) SiO2 
 PCOD8247065
Probable space group: P B C N
;
_chemical_formula_sum "Si O2"
_cell_formula_units_Z 64
_cell_length_a 23.008375
_cell_length_b 15.071033
_cell_length_c 8.948043
_cell_angle_alpha 90.000000
_cell_angle_beta 90.000000
_cell_angle_gamma 90.000000
_cell_volume 3102.823202
_symmetry_space_group_name_H-M "P B C N"
_symmetry_group_IT_number 60
_symmetry_cell_setting 'orthorhombic'
loop_
_space_group_symop_operation_xyz
x,y,z
1/2-x,1/2-y,1/2+z
1/2+x,1/2-y,-z
-x,y,1/2-z
-x,-y,-z
1/2+x,1/2+y,1/2-z
1/2-x,1/2+y,z
x,-y,1/2+z
loop_
_atom_site_type_symbol
_atom_site_label
_atom_site_fract_x
_atom_site_fract_y
_atom_site_fract_z
Si Si1 0.141678 0.397257 0.336693
Si Si2 0.238419 0.807152 0.318874
Si Si3 0.393514 0.426578 0.962985
Si Si4 0.380109 0.732733 0.958934
Si Si5 0.270720 0.638197 0.481420
Si Si6 0.434821 0.409794 0.287374
Si Si7 0.647783 0.072944 0.001399
Si Si8 0.067041 0.763475 0.782019
O O1 0.209895 0.375287 0.362688
O O2 0.122278 0.482517 0.431980
O O3 0.099164 0.314638 0.376050
O O4 0.127940 0.423777 0.168106
O O5 0.180612 0.818955 0.421323
O O6 0.262943 0.709608 0.350301
O O7 0.222686 0.814390 0.143370
O O8 0.413704 0.523031 0.914194
O O9 0.432449 0.351976 0.881966
O O10 0.325866 0.417035 0.927425
O O11 0.396871 0.419164 0.140429
O O12 0.429718 0.689152 0.855632
O O13 0.375671 0.837217 0.917950
O O14 0.395829 0.719339 0.132117
O O15 0.217363 0.570140 0.484451
O O16 0.500000 0.432860 0.250000
O O17 0.000000 0.737961 0.750000
#
# Coordination Sequence:
#
# PCOD8247065 Si02
#       8
#     8   8   8   8   8   8   8   8
#     4  10  21  40  61  93 126 165 204 258 319 377
#     4  10  20  39  61  92 129 161 208 257 321 386
#     4  12  24  40  61  94 123 167 215 257 327 378
#     4  10  22  43  63  89 127 165 212 270 316 377
#     4  10  21  37  60  94 124 165 204 256 320 394
#     4  12  25  42  63  90 128 169 217 264 311 383
#     4   9  22  37  60  89 129 155 203 259 319 377
#     4  11  23  44  67  90 126 175 221 267 321 380
#
# _framework density 20.626376
#
# number of rings (size 3 to 8) (size 9 to 14) (size 15 to 20)
#    0.000    1.500    2.500    3.000    1.750    3.000 
#    0.000    3.125    0.000    0.000    0.000    0.000 
#    0.000    0.000    0.000    0.000    0.000    0.000 
#
# Total GULP energy -793554.350349 kJ/mol
# GULP energy per Si atom -12399.286724 kJ/mol
# Density = 2.057943 g / cm^3
# Si number density = 20.626376 Si / 1000 Ang^3
#
#
#
# Elastic Constant Matrix: (Units=GPa)
#
#
# Indices 1 2 3 4 5 6 
#
# 1 80.5439 26.3013 11.9643 0.0000 0.0000 0.0000
# 2 26.3013 87.9986 31.7178 0.0000 0.0000 0.0000
# 3 11.9643 31.7178 62.2808 0.0000 0.0000 0.0000
# 4 0.0000 0.0000 0.0000 31.0101 0.0000 0.0000
# 5 0.0000 0.0000 0.0000 0.0000 28.3653 0.0000
# 6 0.0000 0.0000 0.0000 0.0000 0.0000 30.6679
#
#
#
# Elastic Compliance Matrix: (Units=1/GPa)
#
#
# Indices 1 2 3 4 5 6 
#
# 1 0.013781 -0.003876 -0.000673 0.000000 0.000000 0.000000
# 2 -0.003876 0.015009 -0.006899 0.000000 0.000000 0.000000
# 3 -0.000673 -0.006899 0.019699 0.000000 0.000000 0.000000
# 4 0.000000 0.000000 0.000000 0.032248 0.000000 0.000000
# 5 0.000000 0.000000 0.000000 0.000000 0.035254 0.000000
# 6 0.000000 0.000000 0.000000 0.000000 0.000000 0.032607
#
#
# Mechanical properties :
#
#
# Convention : Reuss Voigt Hill
#
# Bulk Modulus (GPa) = 39.07440 41.19891 40.13666
# Shear Modulus (GPa) = 27.77362 28.73133 28.25248
#
# Velocity S-wave (km/s) = 3.67346 3.73626 3.70500
# Velocity P-wave (km/s) = 6.08091 6.21531 6.14848
#
# Compressibility (1/GPa) = 0.02559220
#
# Stress axis : x y z
#
# Youngs Moduli (GPa) = 72.56153 66.62653 50.76368
#
# Poissons Ratio (x) = 0.25827 0.03418
# Poissons Ratio (y) = 0.28127 0.35022
# Poissons Ratio (z) = 0.04886 0.45966
#
# Static dielectric constant tensor:
#      x y z
#    x 3.812560 0.000000 0.000000 
#    y 0.000000 3.756650 0.000000 
#    z 0.000000 0.000000 3.779490 
# 
# 
# High freq. dielectric constant tensor:
#      x y z
#    x 1.803330 0.000000 0.000000 
#    y 0.000000 1.803280 0.000000 
#    z 0.000000 0.000000 1.803220 
# 
# From -- ./inp_files/7967.got.cif
#   From: 2010.03.12/outbox.cif.g09.slc.cpg/sg60_4_cif.got.tgz:7967.got - 2010.04.10 18:46:24.
