data_PCOD8247217
_publ_section_title
;
Structure prediction by ZEFSAII (Michael W. Deem and Ramdas Pophale) SiO2 
 PCOD8247217
Probable space group: P B C N
;
_chemical_formula_sum "Si O2"
_cell_formula_units_Z 60
_cell_length_a 14.537253
_cell_length_b 24.720848
_cell_length_c 8.996385
_cell_angle_alpha 90.000000
_cell_angle_beta 90.000000
_cell_angle_gamma 90.000000
_cell_volume 3233.059862
_symmetry_space_group_name_H-M "P B C N"
_symmetry_group_IT_number 60
_symmetry_cell_setting 'orthorhombic'
loop_
_space_group_symop_operation_xyz
x,y,z
1/2-x,1/2-y,1/2+z
1/2+x,1/2-y,-z
-x,y,1/2-z
-x,-y,-z
1/2+x,1/2+y,1/2-z
1/2-x,1/2+y,z
x,-y,1/2+z
loop_
_atom_site_type_symbol
_atom_site_label
_atom_site_fract_x
_atom_site_fract_y
_atom_site_fract_z
Si Si1 0.591332 0.826272 0.669853
Si Si2 0.286738 0.633026 0.305371
Si Si3 0.000000 0.016416 0.750000
Si Si4 0.074146 0.069225 0.473516
Si Si5 0.322646 0.734466 0.483575
Si Si6 0.675716 0.288027 0.197180
Si Si7 0.589230 0.346691 0.956375
Si Si8 0.016671 0.270106 0.088220
O O1 0.500000 0.848973 0.750000
O O2 0.675241 0.868229 0.698832
O O3 0.615377 0.765886 0.724322
O O4 0.572981 0.817732 0.494161
O O5 0.324712 0.590374 0.427444
O O6 0.321110 0.692212 0.350159
O O7 0.331407 0.623804 0.141867
O O8 0.068826 0.052617 0.647538
O O9 0.941491 0.981717 0.634050
O O10 0.001254 0.116926 0.441914
O O11 0.288818 0.702706 0.634074
O O12 0.253288 0.781412 0.430637
O O13 0.422951 0.760031 0.503021
O O14 0.617650 0.339080 0.131408
O O15 0.571741 0.286111 0.896828
O O16 0.000000 0.294233 0.250000
#
# Coordination Sequence:
#
# PCOD8247217 Si02
#       8
#     8   8   4   8   8   8   8   8
#     4  10  21  34  49  73 107 145 190 228 259 302
#     4  11  21  35  55  76 106 147 186 222 271 336
#     4  10  24  38  60  86 116 136 170 228 292 352
#     4  11  21  40  59  85 115 141 174 221 287 348
#     4  11  20  33  49  71 108 147 194 229 260 303
#     4  10  22  31  48  75 105 148 194 228 259 308
#     4  11  20  34  53  76 106 144 184 217 269 328
#     4  11  20  32  47  69 105 150 185 224 259 296
#
# _framework density 18.558271000000001
#
# number of rings (size 3 to 8) (size 9 to 14) (size 15 to 20)
#    0.000    1.333    5.333    1.600    5.600    0.000 
#    0.000    0.000    0.000    0.000    0.000    0.933 
#    0.000    0.000    0.000    0.000    0.000    0.000 
#
# Total GULP energy -743409.771284 kJ/mol
# GULP energy per Si atom -12390.162855 kJ/mol
# Density = 1.851603 g / cm^3
# Si number density = 18.558271 Si / 1000 Ang^3
#
#
#
# Elastic Constant Matrix: (Units=GPa)
#
#
# Indices 1 2 3 4 5 6 
#
# 1 117.0627 24.9790 38.7497 0.0000 0.0000 0.0000
# 2 24.9790 37.7649 18.8247 0.0000 0.0000 0.0000
# 3 38.7497 18.8247 119.5156 0.0000 0.0000 0.0000
# 4 0.0000 0.0000 0.0000 22.4104 0.0000 0.0000
# 5 0.0000 0.0000 0.0000 0.0000 27.2297 0.0000
# 6 0.0000 0.0000 0.0000 0.0000 0.0000 12.8117
#
#
#
# Elastic Compliance Matrix: (Units=1/GPa)
#
#
# Indices 1 2 3 4 5 6 
#
# 1 0.010609 -0.005754 -0.002533 0.000000 0.000000 0.000000
# 2 -0.005754 0.031857 -0.003152 0.000000 0.000000 0.000000
# 3 -0.002533 -0.003152 0.009685 0.000000 0.000000 0.000000
# 4 0.000000 0.000000 0.000000 0.044622 0.000000 0.000000
# 5 0.000000 0.000000 0.000000 0.000000 0.036725 0.000000
# 6 0.000000 0.000000 0.000000 0.000000 0.000000 0.078054
#
#
# Mechanical properties :
#
#
# Convention : Reuss Voigt Hill
#
# Bulk Modulus (GPa) = 34.16300 48.82778 41.49539
# Shear Modulus (GPa) = 20.47604 25.27633 22.87618
#
# Velocity S-wave (km/s) = 3.32526 3.69453 3.51475
# Velocity P-wave (km/s) = 5.76121 6.67585 6.23533
#
# Compressibility (1/GPa) = 0.02927143
#
# Stress axis : x y z
#
# Youngs Moduli (GPa) = 94.26094 31.39034 103.25322
#
# Poissons Ratio (x) = 0.18063 0.26157
# Poissons Ratio (y) = 0.54241 0.32546
# Poissons Ratio (z) = 0.23879 0.09894
#
# Static dielectric constant tensor:
#      x y z
#    x 3.573080 0.000000 0.000000 
#    y 0.000000 3.019530 0.000000 
#    z 0.000000 0.000000 3.693690 
# 
# 
# High freq. dielectric constant tensor:
#      x y z
#    x 1.710810 0.000000 0.000000 
#    y 0.000000 1.647440 0.000000 
#    z 0.000000 0.000000 1.745910 
# 
# From -- ./inp_files/6372.got.cif
#   From: 2010.03.12/outbox.cif.g09.slc.cpg/sg60_4_cif.got.tgz:6372.got - 2010.04.10 18:46:24.
