data_PCOD8247168
_publ_section_title
;
Structure prediction by ZEFSAII (Michael W. Deem and Ramdas Pophale) SiO2 
 PCOD8247168
Probable space group: P B C N
;
_chemical_formula_sum "Si O2"
_cell_formula_units_Z 36
_cell_length_a 9.235268
_cell_length_b 12.726111
_cell_length_c 14.115097
_cell_angle_alpha 90.000000
_cell_angle_beta 90.000000
_cell_angle_gamma 90.000000
_cell_volume 1658.933880
_symmetry_space_group_name_H-M "P B C N"
_symmetry_group_IT_number 60
_symmetry_cell_setting 'orthorhombic'
loop_
_space_group_symop_operation_xyz
x,y,z
1/2-x,1/2-y,1/2+z
1/2+x,1/2-y,-z
-x,y,1/2-z
-x,-y,-z
1/2+x,1/2+y,1/2-z
1/2-x,1/2+y,z
x,-y,1/2+z
loop_
_atom_site_type_symbol
_atom_site_label
_atom_site_fract_x
_atom_site_fract_y
_atom_site_fract_z
Si Si1 0.417181 0.167825 0.544327
Si Si2 0.093250 0.842909 0.387311
Si Si3 0.183638 0.778463 0.192704
Si Si4 0.500000 0.905072 0.750000
Si Si5 0.162898 0.518078 0.914570
O O1 0.414422 0.267650 0.477360
O O2 0.336100 0.205315 0.640644
O O3 0.580137 0.128510 0.564362
O O4 0.341443 0.066355 0.498263
O O5 0.197457 0.792277 0.305737
O O6 0.166789 0.954278 0.410806
O O7 0.930677 0.863339 0.349861
O O8 0.103276 0.664524 0.179938
O O9 0.602311 0.975503 0.684704
#
# Coordination Sequence:
#
# PCOD8247168 Si02
#       5
#     8   8   8   4   8
#     4  11  22  37  63  96 116 161 207 250 307 368
#     4  10  21  40  61  88 127 155 199 260 309 356
#     4  10  21  40  61  84 129 158 191 268 309 346
#     4  10  20  42  64  90 120 172 204 250 306 378
#     4  11  22  38  68  89 119 164 212 245 304 386
#
# _framework density 21.700685
#
# number of rings (size 3 to 8) (size 9 to 14) (size 15 to 20)
#    0.000    1.778    4.444    2.667    3.111    0.889 
#    0.000    0.000    4.889    0.000    0.000    0.000 
#    0.000    0.000    0.000    0.000    0.000    0.000 
#
# Total GULP energy -446092.166780 kJ/mol
# GULP energy per Si atom -12391.449077 kJ/mol
# Density = 2.165129 g / cm^3
# Si number density = 21.700685 Si / 1000 Ang^3
#
#
#
# Elastic Constant Matrix: (Units=GPa)
#
#
# Indices 1 2 3 4 5 6 
#
# 1 37.2161 16.1958 -0.3221 0.0000 0.0000 0.0000
# 2 16.1958 57.0212 -2.9598 0.0000 0.0000 0.0000
# 3 -0.3221 -2.9598 69.6527 0.0000 0.0000 0.0000
# 4 0.0000 0.0000 0.0000 27.8353 0.0000 0.0000
# 5 0.0000 0.0000 0.0000 0.0000 36.3066 0.0000
# 6 0.0000 0.0000 0.0000 0.0000 0.0000 36.0424
#
#
#
# Elastic Compliance Matrix: (Units=1/GPa)
#
#
# Indices 1 2 3 4 5 6 
#
# 1 0.030663 -0.008721 -0.000229 0.000000 0.000000 0.000000
# 2 -0.008721 0.020057 0.000812 0.000000 0.000000 0.000000
# 3 -0.000229 0.000812 0.014390 0.000000 0.000000 0.000000
# 4 0.000000 0.000000 0.000000 0.035926 0.000000 0.000000
# 5 0.000000 0.000000 0.000000 0.000000 0.027543 0.000000
# 6 0.000000 0.000000 0.000000 0.000000 0.000000 0.027745
#
#
# Mechanical properties :
#
#
# Convention : Reuss Voigt Hill
#
# Bulk Modulus (GPa) = 20.47742 21.07974 20.77858
# Shear Modulus (GPa) = 26.47203 30.10193 28.28698
#
# Velocity S-wave (km/s) = 3.49645 3.72848 3.61433
# Velocity P-wave (km/s) = 5.07514 5.31698 5.19747
#
# Compressibility (1/GPa) = 0.04883427
#
# Stress axis : x y z
#
# Youngs Moduli (GPa) = 32.61209 49.85896 69.49083
#
# Poissons Ratio (x) = 0.43483 0.01590
# Poissons Ratio (y) = 0.28442 -0.05642
# Poissons Ratio (z) = 0.00746 -0.04048
#
# Static dielectric constant tensor:
#      x y z
#    x 3.833080 0.000000 0.000000 
#    y 0.000000 3.805580 0.000000 
#    z 0.000000 0.000000 4.007520 
# 
# 
# High freq. dielectric constant tensor:
#      x y z
#    x 1.835220 0.000000 0.000000 
#    y 0.000000 1.833020 0.000000 
#    z 0.000000 0.000000 1.864600 
# 
# From -- ./inp_files/14587.got.cif
#   From: 2010.03.12/outbox.cif.g09.slc.cpg/sg60_8_cif.got.tgz:14587.got - 2010.04.10 18:46:24.
