data_PCOD8247920
_publ_section_title
;
Structure prediction by ZEFSAII (Michael W. Deem and Ramdas Pophale) SiO2 
 PCOD8247920
Probable space group: P B C N
;
_chemical_formula_sum "Si O2"
_cell_formula_units_Z 64
_cell_length_a 8.708497
_cell_length_b 15.983644
_cell_length_c 21.962181
_cell_angle_alpha 90.000000
_cell_angle_beta 90.000000
_cell_angle_gamma 90.000000
_cell_volume 3056.993189
_symmetry_space_group_name_H-M "P B C N"
_symmetry_group_IT_number 60
_symmetry_cell_setting 'orthorhombic'
loop_
_space_group_symop_operation_xyz
x,y,z
1/2-x,1/2-y,1/2+z
1/2+x,1/2-y,-z
-x,y,1/2-z
-x,-y,-z
1/2+x,1/2+y,1/2-z
1/2-x,1/2+y,z
x,-y,1/2+z
loop_
_atom_site_type_symbol
_atom_site_label
_atom_site_fract_x
_atom_site_fract_y
_atom_site_fract_z
Si Si1 0.821744 0.095271 0.767252
Si Si2 0.329483 0.665556 0.608493
Si Si3 0.892806 0.344490 0.916234
Si Si4 0.990449 0.689059 0.956392
Si Si5 0.348559 0.896197 0.350218
Si Si6 0.568332 0.625388 0.457857
Si Si7 0.916884 0.034603 0.578001
Si Si8 0.917371 0.527122 0.309480
O O1 0.791338 0.162831 0.820138
O O2 0.727462 0.138480 0.711737
O O3 0.000000 0.082114 0.750000
O O4 0.753039 0.004174 0.789090
O O5 0.432670 0.748398 0.599463
O O6 0.181083 0.665209 0.564420
O O7 0.426621 0.581998 0.595875
O O8 0.709175 0.352624 0.914593
O O9 0.943198 0.406501 0.863125
O O10 0.968492 0.364551 0.982570
O O11 0.013333 0.786792 0.974373
O O12 0.111537 0.672755 0.901505
O O13 0.219358 0.959844 0.374217
O O14 0.504312 0.943043 0.334084
O O15 0.446854 0.564583 0.425510
O O16 0.638531 0.575738 0.515112
O O17 0.000000 0.564876 0.250000
#
# Coordination Sequence:
#
# PCOD8247920 Si02
#       8
#     8   8   8   8   8   8   8   8
#     4  11  22  42  70  91 126 175 221 271 328 394
#     4  11  23  41  68  95 132 178 217 267 332 397
#     4  11  23  41  67  95 136 169 218 275 329 389
#     4  11  23  42  64 100 132 172 216 277 334 386
#     4  11  23  41  67  93 129 169 221 269 331 388
#     4  10  23  38  62  95 136 165 212 267 331 391
#     4  11  21  41  61  96 130 173 212 263 325 400
#     4  10  24  45  65  95 131 167 223 273 323 398
#
# _framework density 20.935604000000001
#
# number of rings (size 3 to 8) (size 9 to 14) (size 15 to 20)
#    0.000    1.250    5.000    0.750    0.000    3.000 
#    2.250    1.250    0.000    0.000    0.000    0.000 
#    0.000    0.000    0.000    0.000    0.000    0.000 
#
# Total GULP energy -793168.173906 kJ/mol
# GULP energy per Si atom -12393.252717 kJ/mol
# Density = 2.088795 g / cm^3
# Si number density = 20.935604 Si / 1000 Ang^3
#
#
#
# Elastic Constant Matrix: (Units=GPa)
#
#
# Indices 1 2 3 4 5 6 
#
# 1 90.7305 32.6244 34.8287 0.0000 0.0000 0.0000
# 2 32.6244 76.5965 45.0862 0.0000 0.0000 0.0000
# 3 34.8287 45.0862 129.6238 0.0000 0.0000 0.0000
# 4 0.0000 0.0000 0.0000 28.7162 0.0000 0.0000
# 5 0.0000 0.0000 0.0000 0.0000 36.6544 0.0000
# 6 0.0000 0.0000 0.0000 0.0000 0.0000 15.2585
#
#
#
# Elastic Compliance Matrix: (Units=1/GPa)
#
#
# Indices 1 2 3 4 5 6 
#
# 1 0.013429 -0.004522 -0.002036 0.000000 0.000000 0.000000
# 2 -0.004522 0.017939 -0.005025 0.000000 0.000000 0.000000
# 3 -0.002036 -0.005025 0.010009 0.000000 0.000000 0.000000
# 4 0.000000 0.000000 0.000000 0.034824 0.000000 0.000000
# 5 0.000000 0.000000 0.000000 0.000000 0.027282 0.000000
# 6 0.000000 0.000000 0.000000 0.000000 0.000000 0.065537
#
#
# Mechanical properties :
#
#
# Convention : Reuss Voigt Hill
#
# Bulk Modulus (GPa) = 54.90421 58.00327 56.45374
# Shear Modulus (GPa) = 25.22015 28.41993 26.82004
#
# Velocity S-wave (km/s) = 3.47458 3.68841 3.58309
# Velocity P-wave (km/s) = 6.50993 6.77532 6.64395
#
# Compressibility (1/GPa) = 0.01821354
#
# Stress axis : x y z
#
# Youngs Moduli (GPa) = 74.46644 55.74481 99.90758
#
# Poissons Ratio (x) = 0.25205 0.20336
# Poissons Ratio (y) = 0.33671 0.50200
# Poissons Ratio (z) = 0.15158 0.28010
#
# Static dielectric constant tensor:
#      x y z
#    x 3.724890 0.000000 0.000000 
#    y 0.000000 3.625880 0.000000 
#    z 0.000000 0.000000 4.144940 
# 
# 
# High freq. dielectric constant tensor:
#      x y z
#    x 1.821450 0.000000 0.000000 
#    y 0.000000 1.792190 0.000000 
#    z 0.000000 0.000000 1.838270 
# 
# From -- ./inp_files/24087.got.cif
#   From: 2010.03.12/outbox.cif.g09.slc.cpg/sg60_13_cif.got.tgz:24087.got - 2010.04.10 18:46:24.
