data_PCOD8247091
_publ_section_title
;
Structure prediction by ZEFSAII (Michael W. Deem and Ramdas Pophale) SiO2 
 PCOD8247091
Probable space group: P B C N
;
_chemical_formula_sum "Si O2"
_cell_formula_units_Z 56
_cell_length_a 8.469105
_cell_length_b 18.911998
_cell_length_c 15.520997
_cell_angle_alpha 90.000000
_cell_angle_beta 90.000000
_cell_angle_gamma 90.000000
_cell_volume 2485.962342
_symmetry_space_group_name_H-M "P B C N"
_symmetry_group_IT_number 60
_symmetry_cell_setting 'orthorhombic'
loop_
_space_group_symop_operation_xyz
x,y,z
1/2-x,1/2-y,1/2+z
1/2+x,1/2-y,-z
-x,y,1/2-z
-x,-y,-z
1/2+x,1/2+y,1/2-z
1/2-x,1/2+y,z
x,-y,1/2+z
loop_
_atom_site_type_symbol
_atom_site_label
_atom_site_fract_x
_atom_site_fract_y
_atom_site_fract_z
Si Si1 0.539617 0.305004 0.064932
Si Si2 0.187308 0.308746 0.314098
Si Si3 0.831137 0.462924 0.249772
Si Si4 0.465816 0.689405 0.133326
Si Si5 0.634383 0.786960 0.808444
Si Si6 0.870640 0.048795 0.113161
Si Si7 0.352278 0.551964 0.577237
O O1 0.720241 0.307235 0.095625
O O2 0.444246 0.238381 0.102881
O O3 0.455006 0.377917 0.089977
O O4 0.552777 0.291543 0.964977
O O5 0.135606 0.387735 0.293984
O O6 0.031627 0.259446 0.319616
O O7 0.313642 0.283161 0.243225
O O8 0.712537 0.507038 0.189972
O O9 0.778526 0.453024 0.348607
O O10 0.000000 0.502899 0.250000
O O11 0.293195 0.667714 0.172322
O O12 0.593278 0.627406 0.148627
O O13 0.500000 0.827568 0.750000
O O14 0.776970 0.050913 0.020511
O O15 0.039707 0.016443 0.090086
#
# Coordination Sequence:
#
# PCOD8247091 Si02
#       7
#     8   8   8   8   8   8   8
#     4  10  20  39  66  96 129 177 227 278 328 402
#     4  11  22  38  65 101 131 175 228 277 329 408
#     4  12  24  41  71 101 135 184 236 284 335 416
#     4  11  23  41  63  98 141 174 217 283 352 402
#     4  10  21  37  63  97 127 171 219 277 326 406
#     4  10  24  43  70  97 134 185 227 286 350 416
#     4  10  21  43  70  98 130 180 240 275 338 415
#
# _framework density 22.526488000000001
#
# number of rings (size 3 to 8) (size 9 to 14) (size 15 to 20)
#    0.000    1.429    2.857    2.571    0.000    2.857 
#    0.000    5.714    0.000    0.000    0.000    0.000 
#    0.000    0.000    0.000    0.000    0.000    0.000 
#
# Total GULP energy -694147.447360 kJ/mol
# GULP energy per Si atom -12395.490131 kJ/mol
# Density = 2.247522 g / cm^3
# Si number density = 22.526488 Si / 1000 Ang^3
#
#
#
# Elastic Constant Matrix: (Units=GPa)
#
#
# Indices 1 2 3 4 5 6 
#
# 1 114.3717 16.2634 62.7560 0.0000 0.0000 0.0000
# 2 16.2634 79.0465 37.3261 0.0000 0.0000 0.0000
# 3 62.7560 37.3261 157.2687 0.0000 0.0000 0.0000
# 4 0.0000 0.0000 0.0000 10.2725 0.0000 0.0000
# 5 0.0000 0.0000 0.0000 0.0000 29.6095 0.0000
# 6 0.0000 0.0000 0.0000 0.0000 0.0000 18.3424
#
#
#
# Elastic Compliance Matrix: (Units=1/GPa)
#
#
# Indices 1 2 3 4 5 6 
#
# 1 0.011198 -0.000218 -0.004417 0.000000 0.000000 0.000000
# 2 -0.000218 0.014252 -0.003295 0.000000 0.000000 0.000000
# 3 -0.004417 -0.003295 0.008903 0.000000 0.000000 0.000000
# 4 0.000000 0.000000 0.000000 0.097348 0.000000 0.000000
# 5 0.000000 0.000000 0.000000 0.000000 0.033773 0.000000
# 6 0.000000 0.000000 0.000000 0.000000 0.000000 0.054519
#
#
# Mechanical properties :
#
#
# Convention : Reuss Voigt Hill
#
# Bulk Modulus (GPa) = 54.07718 64.81977 59.44847
# Shear Modulus (GPa) = 20.65977 27.26764 23.96370
#
# Velocity S-wave (km/s) = 3.03170 3.48296 3.26513
# Velocity P-wave (km/s) = 6.02604 6.70910 6.37672
#
# Compressibility (1/GPa) = 0.01849209
#
# Stress axis : x y z
#
# Youngs Moduli (GPa) = 89.30305 70.16660 112.32153
#
# Poissons Ratio (x) = 0.01532 0.49607
# Poissons Ratio (y) = 0.01950 0.37014
# Poissons Ratio (z) = 0.39441 0.23122
#
# Static dielectric constant tensor:
#      x y z
#    x 4.053830 0.000000 0.000000 
#    y 0.000000 3.830400 0.000000 
#    z 0.000000 0.000000 4.429220 
# 
# 
# High freq. dielectric constant tensor:
#      x y z
#    x 1.877750 0.000000 0.000000 
#    y 0.000000 1.867610 0.000000 
#    z 0.000000 0.000000 1.913380 
# 
# From -- ./inp_files/15254.got.cif
#   From: 2010.03.12/outbox.cif.g09.slc.cpg/sg60_8_cif.got.tgz:15254.got - 2010.04.10 18:46:24.
