data_PCOD8247296
_publ_section_title
;
Structure prediction by ZEFSAII (Michael W. Deem and Ramdas Pophale) SiO2 
 PCOD8247296
Probable space group: P B C N
;
_chemical_formula_sum "Si O2"
_cell_formula_units_Z 60
_cell_length_a 18.765213
_cell_length_b 25.262239
_cell_length_c 5.555154
_cell_angle_alpha 90.000000
_cell_angle_beta 90.000000
_cell_angle_gamma 90.000000
_cell_volume 2633.427951
_symmetry_space_group_name_H-M "P B C N"
_symmetry_group_IT_number 60
_symmetry_cell_setting 'orthorhombic'
loop_
_space_group_symop_operation_xyz
x,y,z
1/2-x,1/2-y,1/2+z
1/2+x,1/2-y,-z
-x,y,1/2-z
-x,-y,-z
1/2+x,1/2+y,1/2-z
1/2-x,1/2+y,z
x,-y,1/2+z
loop_
_atom_site_type_symbol
_atom_site_label
_atom_site_fract_x
_atom_site_fract_y
_atom_site_fract_z
Si Si1 0.043484 0.875377 0.500534
Si Si2 0.321878 0.438526 0.501816
Si Si3 0.000000 0.640159 0.750000
Si Si4 0.641307 0.277175 0.080286
Si Si5 0.267027 0.557017 0.500829
Si Si6 0.213609 0.695105 0.731116
Si Si7 0.399726 0.817856 0.614489
Si Si8 0.130749 0.605021 0.489205
O O1 0.093957 0.927154 0.490598
O O2 0.089965 0.822398 0.518261
O O3 0.000000 0.878957 0.750000
O O4 0.000000 0.874885 0.250000
O O5 0.305111 0.500598 0.510122
O O6 0.286391 0.413919 0.256699
O O7 0.292400 0.413280 0.754113
O O8 0.970076 0.681310 0.552404
O O9 0.934374 0.601822 0.822912
O O10 0.700867 0.302871 0.254812
O O11 0.593305 0.232526 0.210897
O O12 0.683631 0.251646 0.857736
O O13 0.179582 0.551987 0.483512
O O14 0.190689 0.649772 0.544984
O O15 0.176280 0.684212 0.984867
O O16 0.403502 0.875735 0.740699
#
# Coordination Sequence:
#
# PCOD8247296 Si02
#       8
#     8   8   4   8   8   8   8   8
#     4  12  29  46  67 100 144 193 234 286 351 420
#     4  10  23  47  71 103 135 168 231 287 353 411
#     4  10  22  40  60  96 138 184 220 270 342 426
#     4  11  23  39  64  90 135 181 242 288 335 389
#     4  10  22  42  77 105 125 172 225 296 351 413
#     4  10  21  37  62  94 126 170 234 290 333 381
#     4  10  22  39  59  93 133 182 226 275 328 409
#     4  10  22  37  65  96 132 169 223 276 350 416
#
# _framework density 22.783989999999999
#
# number of rings (size 3 to 8) (size 9 to 14) (size 15 to 20)
#    0.000    1.600    1.333    2.000    7.467    3.200 
#    4.800    8.000    0.000    3.200    0.000    0.000 
#    0.000    0.000    0.000    0.000    0.000    0.000 
#
# Total GULP energy -743362.243475 kJ/mol
# GULP energy per Si atom -12389.370725 kJ/mol
# Density = 2.273213 g / cm^3
# Si number density = 22.783990 Si / 1000 Ang^3
#
#
#
# Elastic Constant Matrix: (Units=GPa)
#
#
# Indices 1 2 3 4 5 6 
#
# 1 155.8061 40.9762 58.2649 0.0000 0.0000 0.0000
# 2 40.9762 63.5037 17.3929 0.0000 0.0000 0.0000
# 3 58.2649 17.3929 167.0944 0.0000 0.0000 0.0000
# 4 0.0000 0.0000 0.0000 14.3529 0.0000 0.0000
# 5 0.0000 0.0000 0.0000 0.0000 42.9582 0.0000
# 6 0.0000 0.0000 0.0000 0.0000 0.0000 36.0135
#
#
#
# Elastic Compliance Matrix: (Units=1/GPa)
#
#
# Indices 1 2 3 4 5 6 
#
# 1 0.008641 -0.004890 -0.002504 0.000000 0.000000 0.000000
# 2 -0.004890 0.018976 -0.000270 0.000000 0.000000 0.000000
# 3 -0.002504 -0.000270 0.006886 0.000000 0.000000 0.000000
# 4 0.000000 0.000000 0.000000 0.069672 0.000000 0.000000
# 5 0.000000 0.000000 0.000000 0.000000 0.023278 0.000000
# 6 0.000000 0.000000 0.000000 0.000000 0.000000 0.027767
#
#
# Mechanical properties :
#
#
# Convention : Reuss Voigt Hill
#
# Bulk Modulus (GPa) = 52.15120 68.85248 60.50184
# Shear Modulus (GPa) = 28.25818 36.64960 32.45389
#
# Velocity S-wave (km/s) = 3.52556 4.01505 3.77824
# Velocity P-wave (km/s) = 6.28585 7.19579 6.75616
#
# Compressibility (1/GPa) = 0.01917501
#
# Stress axis : x y z
#
# Youngs Moduli (GPa) = 115.73353 52.69769 145.22449
#
# Poissons Ratio (x) = 0.25767 0.36364
# Poissons Ratio (y) = 0.56589 0.03925
# Poissons Ratio (z) = 0.28979 0.01424
#
# Static dielectric constant tensor:
#      x y z
#    x 4.243700 0.000000 0.000000 
#    y 0.000000 3.787730 0.000000 
#    z 0.000000 0.000000 4.898150 
# 
# 
# High freq. dielectric constant tensor:
#      x y z
#    x 1.903620 0.000000 0.000000 
#    y 0.000000 1.862900 0.000000 
#    z 0.000000 0.000000 1.921350 
# 
# From -- ./inp_files/1859.got.cif
#   From: 2010.03.12/outbox.cif.g09.slc.cpg/sg60_1_cif.got.tgz:1859.got - 2010.04.10 18:46:24.
