data_PCOD8247840
_publ_section_title
;
Structure prediction by ZEFSAII (Michael W. Deem and Ramdas Pophale) SiO2 
 PCOD8247840
Probable space group: P B C N
;
_chemical_formula_sum "Si O2"
_cell_formula_units_Z 40
_cell_length_a 11.334484
_cell_length_b 9.241874
_cell_length_c 16.533931
_cell_angle_alpha 90.000000
_cell_angle_beta 90.000000
_cell_angle_gamma 90.000000
_cell_volume 1731.960240
_symmetry_space_group_name_H-M "P B C N"
_symmetry_group_IT_number 60
_symmetry_cell_setting 'orthorhombic'
loop_
_space_group_symop_operation_xyz
x,y,z
1/2-x,1/2-y,1/2+z
1/2+x,1/2-y,-z
-x,y,1/2-z
-x,-y,-z
1/2+x,1/2+y,1/2-z
1/2-x,1/2+y,z
x,-y,1/2+z
loop_
_atom_site_type_symbol
_atom_site_label
_atom_site_fract_x
_atom_site_fract_y
_atom_site_fract_z
Si Si1 0.831949 0.831874 0.326892
Si Si2 0.756244 0.560873 0.080506
Si Si3 0.505286 0.547054 0.406994
Si Si4 0.210064 0.803062 0.531016
Si Si5 0.134927 0.471925 0.754582
O O1 0.812720 0.767377 0.416333
O O2 0.853532 0.699584 0.265353
O O3 0.949255 0.928980 0.341093
O O4 0.721134 0.931874 0.301035
O O5 0.626181 0.592691 0.118669
O O6 0.834044 0.498950 0.152328
O O7 0.817081 0.707236 0.048204
O O8 0.753500 0.456809 0.002689
O O9 0.500000 0.500000 0.500000
O O10 0.597195 0.680873 0.409070
O O11 0.000000 0.524132 0.750000
#
# Coordination Sequence:
#
# PCOD8247840 Si02
#       5
#     8   8   8   8   8
#     4  12  24  49  70 103 144 184 240 293 357 430
#     4  11  25  44  70 105 142 184 238 288 360 426
#     4  10  22  42  74  99 132 185 232 290 354 414
#     4  11  21  44  73 103 133 182 242 290 345 421
#     4  12  30  47  69 107 149 191 235 297 370 431
#
# _framework density 23.095217000000002
#
# number of rings (size 3 to 8) (size 9 to 14) (size 15 to 20)
#    0.000    0.800    6.000    1.200    8.400    3.200 
#    0.000    3.000    0.000    0.000    0.000    0.000 
#    0.000    0.000    0.000    0.000    0.000    0.000 
#
# Total GULP energy -495848.211134 kJ/mol
# GULP energy per Si atom -12396.205278 kJ/mol
# Density = 2.304265 g / cm^3
# Si number density = 23.095217 Si / 1000 Ang^3
#
#
#
# Elastic Constant Matrix: (Units=GPa)
#
#
# Indices 1 2 3 4 5 6 
#
# 1 96.1436 22.8449 18.8726 0.0000 0.0000 0.0000
# 2 22.8449 86.1053 8.2185 0.0000 0.0000 0.0000
# 3 18.8726 8.2185 64.6906 0.0000 0.0000 0.0000
# 4 0.0000 0.0000 0.0000 42.7807 0.0000 0.0000
# 5 0.0000 0.0000 0.0000 0.0000 41.9766 0.0000
# 6 0.0000 0.0000 0.0000 0.0000 0.0000 20.2740
#
#
#
# Elastic Compliance Matrix: (Units=1/GPa)
#
#
# Indices 1 2 3 4 5 6 
#
# 1 0.011666 -0.002804 -0.003047 0.000000 0.000000 0.000000
# 2 -0.002804 0.012430 -0.000761 0.000000 0.000000 0.000000
# 3 -0.003047 -0.000761 0.016444 0.000000 0.000000 0.000000
# 4 0.000000 0.000000 0.000000 0.023375 0.000000 0.000000
# 5 0.000000 0.000000 0.000000 0.000000 0.023823 0.000000
# 6 0.000000 0.000000 0.000000 0.000000 0.000000 0.049324
#
#
# Mechanical properties :
#
#
# Convention : Reuss Voigt Hill
#
# Bulk Modulus (GPa) = 36.60985 38.53463 37.57224
# Shear Modulus (GPa) = 31.36933 34.13982 32.75457
#
# Velocity S-wave (km/s) = 3.68946 3.84893 3.77004
# Velocity P-wave (km/s) = 5.83400 6.03935 5.93756
#
# Compressibility (1/GPa) = 0.02731505
#
# Stress axis : x y z
#
# Youngs Moduli (GPa) = 85.72261 80.44837 60.81318
#
# Poissons Ratio (x) = 0.22559 0.18530
# Poissons Ratio (y) = 0.24038 0.04628
# Poissons Ratio (z) = 0.26120 0.06123
#
# Static dielectric constant tensor:
#      x y z
#    x 4.984250 0.000000 0.000000 
#    y 0.000000 4.390780 0.000000 
#    z 0.000000 0.000000 4.034050 
# 
# 
# High freq. dielectric constant tensor:
#      x y z
#    x 1.909830 0.000000 0.000000 
#    y 0.000000 1.909460 0.000000 
#    z 0.000000 0.000000 1.915020 
# 
# From -- ./inp_files/19841.got.cif
#   From: 2010.03.12/outbox.cif.g09.slc.cpg/sg60_10_cif.got.tgz:19841.got - 2010.04.10 18:46:24.
