data_PCOD8247815
_publ_section_title
;
Structure prediction by ZEFSAII (Michael W. Deem and Ramdas Pophale) SiO2 
 PCOD8247815
Probable space group: P B C N
;
_chemical_formula_sum "Si O2"
_cell_formula_units_Z 36
_cell_length_a 8.818974
_cell_length_b 21.369168
_cell_length_c 8.584248
_cell_angle_alpha 90.000000
_cell_angle_beta 90.000000
_cell_angle_gamma 90.000000
_cell_volume 1617.737049
_symmetry_space_group_name_H-M "P B C N"
_symmetry_group_IT_number 60
_symmetry_cell_setting 'orthorhombic'
loop_
_space_group_symop_operation_xyz
x,y,z
1/2-x,1/2-y,1/2+z
1/2+x,1/2-y,-z
-x,y,1/2-z
-x,-y,-z
1/2+x,1/2+y,1/2-z
1/2-x,1/2+y,z
x,-y,1/2+z
loop_
_atom_site_type_symbol
_atom_site_label
_atom_site_fract_x
_atom_site_fract_y
_atom_site_fract_z
Si Si1 0.000000 0.016474 0.250000
Si Si2 0.593533 0.809149 0.468970
Si Si3 0.758118 0.706596 0.640492
Si Si4 0.984791 0.567146 0.431380
Si Si5 0.153711 0.919381 0.460766
O O1 0.943894 0.061837 0.387695
O O2 0.870893 0.970565 0.177400
O O3 0.666882 0.770644 0.610781
O O4 0.694570 0.794851 0.319570
O O5 0.415557 0.793012 0.456070
O O6 0.608820 0.883638 0.503717
O O7 0.633311 0.651484 0.602525
O O8 0.823307 0.588766 0.486215
O O9 0.000000 0.563247 0.250000
O O10 0.000000 0.500000 0.500000
#
# Coordination Sequence:
#
# PCOD8247815 Si02
#       5
#     4   8   8   8   8
#     4  10  22  42  66  98 138 180 222 286 344 420
#     4  10  25  44  70  97 138 178 232 289 350 414
#     4  10  24  45  66 100 133 178 232 285 348 415
#     4  11  25  43  72  99 137 183 234 289 350 424
#     4  10  23  42  65  98 134 175 229 280 349 411
#
# _framework density 22.253308000000001
#
# number of rings (size 3 to 8) (size 9 to 14) (size 15 to 20)
#    0.000    1.778    0.000    1.333   15.556    3.556 
#    4.000    0.000    0.000    0.000    0.000    0.000 
#    0.000    0.000    0.000    0.000    0.000    0.000 
#
# Total GULP energy -446043.831273 kJ/mol
# GULP energy per Si atom -12390.106424 kJ/mol
# Density = 2.220266 g / cm^3
# Si number density = 22.253308 Si / 1000 Ang^3
#
#
#
# Elastic Constant Matrix: (Units=GPa)
#
#
# Indices 1 2 3 4 5 6 
#
# 1 65.0444 59.9832 47.1249 0.0000 0.0000 0.0000
# 2 59.9832 182.9448 56.4180 0.0000 0.0000 0.0000
# 3 47.1249 56.4180 114.8249 0.0000 0.0000 0.0000
# 4 0.0000 0.0000 0.0000 40.1957 0.0000 0.0000
# 5 0.0000 0.0000 0.0000 0.0000 37.9721 0.0000
# 6 0.0000 0.0000 0.0000 0.0000 0.0000 42.1869
#
#
#
# Elastic Compliance Matrix: (Units=1/GPa)
#
#
# Indices 1 2 3 4 5 6 
#
# 1 0.027052 -0.006418 -0.007949 0.000000 0.000000 0.000000
# 2 -0.006418 0.007965 -0.001279 0.000000 0.000000 0.000000
# 3 -0.007949 -0.001279 0.012600 0.000000 0.000000 0.000000
# 4 0.000000 0.000000 0.000000 0.024878 0.000000 0.000000
# 5 0.000000 0.000000 0.000000 0.000000 0.026335 0.000000
# 6 0.000000 0.000000 0.000000 0.000000 0.000000 0.023704
#
#
# Mechanical properties :
#
#
# Convention : Reuss Voigt Hill
#
# Bulk Modulus (GPa) = 61.26030 76.65181 68.95606
# Shear Modulus (GPa) = 31.39353 37.35681 34.37517
#
# Velocity S-wave (km/s) = 3.76005 4.10165 3.93456
# Velocity P-wave (km/s) = 6.81462 7.54661 7.18993
#
# Compressibility (1/GPa) = 0.01632378
#
# Stress axis : x y z
#
# Youngs Moduli (GPa) = 36.96595 125.54730 79.36676
#
# Poissons Ratio (x) = 0.80581 0.63086
# Poissons Ratio (y) = 0.23726 0.10154
# Poissons Ratio (z) = 0.29383 0.16063
#
# Static dielectric constant tensor:
#      x y z
#    x 3.871010 0.000000 0.000000 
#    y 0.000000 3.029340 0.000000 
#    z 0.000000 0.000000 4.827770 
# 
# 
# High freq. dielectric constant tensor:
#      x y z
#    x 1.867340 0.000000 0.000000 
#    y 0.000000 1.890940 0.000000 
#    z 0.000000 0.000000 1.883900 
# 
# From -- ./inp_files/3698.got.cif
#   From: 2010.03.12/outbox.cif.g09.slc.cpg/sg60_2_cif.got.tgz:3698.got - 2010.04.10 18:46:24.
