data_PCOD8247831
_publ_section_title
;
Structure prediction by ZEFSAII (Michael W. Deem and Ramdas Pophale) SiO2 
 PCOD8247831
Probable space group: P B C N
;
_chemical_formula_sum "Si O2"
_cell_formula_units_Z 40
_cell_length_a 6.439622
_cell_length_b 10.052208
_cell_length_c 28.875486
_cell_angle_alpha 90.000000
_cell_angle_beta 90.000000
_cell_angle_gamma 90.000000
_cell_volume 1869.180081
_symmetry_space_group_name_H-M "P B C N"
_symmetry_group_IT_number 60
_symmetry_cell_setting 'orthorhombic'
loop_
_space_group_symop_operation_xyz
x,y,z
1/2-x,1/2-y,1/2+z
1/2+x,1/2-y,-z
-x,y,1/2-z
-x,-y,-z
1/2+x,1/2+y,1/2-z
1/2-x,1/2+y,z
x,-y,1/2+z
loop_
_atom_site_type_symbol
_atom_site_label
_atom_site_fract_x
_atom_site_fract_y
_atom_site_fract_z
Si Si1 0.370701 0.325160 0.831805
Si Si2 0.253191 0.545988 0.124584
Si Si3 0.070522 0.950439 0.450698
Si Si4 0.432745 0.952362 0.300412
Si Si5 0.876886 0.328326 0.579556
O O1 0.607709 0.359254 0.843492
O O2 0.263734 0.456641 0.811959
O O3 0.248368 0.273375 0.876553
O O4 0.363529 0.201634 0.796380
O O5 0.398155 0.459190 0.090222
O O6 0.109882 0.460520 0.159697
O O7 0.113361 0.638420 0.091945
O O8 0.272478 0.037582 0.439254
O O9 0.000000 0.000000 0.500000
O O10 0.129332 0.794740 0.456398
O O11 0.500000 0.001509 0.250000
#
# Coordination Sequence:
#
# PCOD8247831 Si02
#       5
#     8   8   8   8   8
#     4  10  22  44  65  93 127 168 215 264 326 387
#     4  10  22  42  70  92 128 172 210 272 337 372
#     4  11  25  41  66  98 131 169 219 269 322 399
#     4  11  25  41  66  98 131 169 219 269 322 399
#     4  10  22  43  65  93 128 168 215 264 326 388
#
# _framework density 21.399757999999999
#
# number of rings (size 3 to 8) (size 9 to 14) (size 15 to 20)
#    0.000    1.600    0.000    4.800    5.600    4.000 
#    0.000    0.000    0.000    0.000    0.000    0.000 
#    0.000    0.000    0.000    0.000    0.000    0.000 
#
# Total GULP energy -495970.569838 kJ/mol
# GULP energy per Si atom -12399.264246 kJ/mol
# Density = 2.135105 g / cm^3
# Si number density = 21.399758 Si / 1000 Ang^3
#
#
#
# Elastic Constant Matrix: (Units=GPa)
#
#
# Indices 1 2 3 4 5 6 
#
# 1 128.6834 58.2062 26.6731 0.0000 0.0000 0.0000
# 2 58.2062 139.3235 19.5006 0.0000 0.0000 0.0000
# 3 26.6731 19.5006 83.6903 0.0000 0.0000 0.0000
# 4 0.0000 0.0000 0.0000 24.6143 0.0000 0.0000
# 5 0.0000 0.0000 0.0000 0.0000 18.3193 0.0000
# 6 0.0000 0.0000 0.0000 0.0000 0.0000 13.8073
#
#
#
# Elastic Compliance Matrix: (Units=1/GPa)
#
#
# Indices 1 2 3 4 5 6 
#
# 1 0.009987 -0.003853 -0.002285 0.000000 0.000000 0.000000
# 2 -0.003853 0.008906 -0.000847 0.000000 0.000000 0.000000
# 3 -0.002285 -0.000847 0.012875 0.000000 0.000000 0.000000
# 4 0.000000 0.000000 0.000000 0.040627 0.000000 0.000000
# 5 0.000000 0.000000 0.000000 0.000000 0.054587 0.000000
# 6 0.000000 0.000000 0.000000 0.000000 0.000000 0.072426
#
#
# Mechanical properties :
#
#
# Convention : Reuss Voigt Hill
#
# Bulk Modulus (GPa) = 56.18878 62.27301 59.23090
# Shear Modulus (GPa) = 22.79877 27.83599 25.31738
#
# Velocity S-wave (km/s) = 3.26755 3.61052 3.44331
# Velocity P-wave (km/s) = 6.36785 6.82233 6.59901
#
# Compressibility (1/GPa) = 0.01779715
#
# Stress axis : x y z
#
# Youngs Moduli (GPa) = 100.12687 112.28828 77.67230
#
# Poissons Ratio (x) = 0.43260 0.17751
# Poissons Ratio (y) = 0.38575 0.06581
# Poissons Ratio (z) = 0.22883 0.09513
#
# Static dielectric constant tensor:
#      x y z
#    x 3.959710 0.000000 0.000000 
#    y 0.000000 3.787870 0.000000 
#    z 0.000000 0.000000 4.587260 
# 
# 
# High freq. dielectric constant tensor:
#      x y z
#    x 1.846330 0.000000 0.000000 
#    y 0.000000 1.846820 0.000000 
#    z 0.000000 0.000000 1.830750 
# 
# From -- ./inp_files/24742.got.cif
#   From: 2010.03.12/outbox.cif.g09.slc.cpg/sg60_13_cif.got.tgz:24742.got - 2010.04.10 18:46:24.
