data_PCOD8247104
_publ_section_title
;
Structure prediction by ZEFSAII (Michael W. Deem and Ramdas Pophale) SiO2 
 PCOD8247104
Probable space group: P B C N
;
_chemical_formula_sum "Si O2"
_cell_formula_units_Z 40
_cell_length_a 9.072018
_cell_length_b 13.886338
_cell_length_c 14.577526
_cell_angle_alpha 90.000000
_cell_angle_beta 90.000000
_cell_angle_gamma 90.000000
_cell_volume 1836.434572
_symmetry_space_group_name_H-M "P B C N"
_symmetry_group_IT_number 60
_symmetry_cell_setting 'orthorhombic'
loop_
_space_group_symop_operation_xyz
x,y,z
1/2-x,1/2-y,1/2+z
1/2+x,1/2-y,-z
-x,y,1/2-z
-x,-y,-z
1/2+x,1/2+y,1/2-z
1/2-x,1/2+y,z
x,-y,1/2+z
loop_
_atom_site_type_symbol
_atom_site_label
_atom_site_fract_x
_atom_site_fract_y
_atom_site_fract_z
Si Si1 0.597114 0.625201 0.841068
Si Si2 0.039999 0.067176 0.353786
Si Si3 0.389470 0.899923 0.083768
Si Si4 0.295888 0.043469 0.932472
Si Si5 0.429263 0.702326 0.993966
O O1 0.500000 0.638546 0.750000
O O2 0.558993 0.522458 0.887668
O O3 0.776078 0.624194 0.831232
O O4 0.551835 0.707541 0.913175
O O5 0.000000 0.095425 0.250000
O O6 0.005387 0.158729 0.415497
O O7 0.208959 0.029446 0.364219
O O8 0.554191 0.922304 0.119527
O O9 0.382853 0.810591 0.013737
O O10 0.332570 0.992220 0.028097
O O11 0.207372 0.140424 0.956477
#
# Coordination Sequence:
#
# PCOD8247104 Si02
#       5
#     8   8   8   8   8
#     4  10  20  40  64  88 125 174 209 257 329 381
#     4  10  20  40  62  85 122 177 212 249 326 386
#     4  11  21  37  66  95 123 159 217 268 312 373
#     4  10  21  38  64  92 126 160 208 270 315 370
#     4  11  20  40  65  89 127 175 213 250 324 385
#
# _framework density 21.781336
#
# number of rings (size 3 to 8) (size 9 to 14) (size 15 to 20)
#    0.000    1.600    4.000    2.400    0.000    0.000 
#    3.600   11.000    0.000    0.000    0.000    0.000 
#    0.000    0.000    0.000    0.000    0.000    0.000 
#
# Total GULP energy -495675.022914 kJ/mol
# GULP energy per Si atom -12391.875573 kJ/mol
# Density = 2.173176 g / cm^3
# Si number density = 21.781336 Si / 1000 Ang^3
#
#
#
# Elastic Constant Matrix: (Units=GPa)
#
#
# Indices 1 2 3 4 5 6 
#
# 1 192.2791 13.5409 58.1902 0.0000 0.0000 0.0000
# 2 13.5409 45.0670 -3.3007 0.0000 0.0000 0.0000
# 3 58.1902 -3.3007 73.0300 0.0000 0.0000 0.0000
# 4 0.0000 0.0000 0.0000 14.8412 0.0000 0.0000
# 5 0.0000 0.0000 0.0000 0.0000 27.5458 0.0000
# 6 0.0000 0.0000 0.0000 0.0000 0.0000 20.0239
#
#
#
# Elastic Compliance Matrix: (Units=1/GPa)
#
#
# Indices 1 2 3 4 5 6 
#
# 1 0.007138 -0.002570 -0.005804 0.000000 0.000000 0.000000
# 2 -0.002570 0.023188 0.003096 0.000000 0.000000 0.000000
# 3 -0.005804 0.003096 0.018457 0.000000 0.000000 0.000000
# 4 0.000000 0.000000 0.000000 0.067380 0.000000 0.000000
# 5 0.000000 0.000000 0.000000 0.000000 0.036303 0.000000
# 6 0.000000 0.000000 0.000000 0.000000 0.000000 0.049940
#
#
# Mechanical properties :
#
#
# Convention : Reuss Voigt Hill
#
# Bulk Modulus (GPa) = 26.15913 49.69299 37.92606
# Shear Modulus (GPa) = 22.15273 28.61189 25.38231
#
# Velocity S-wave (km/s) = 3.19258 3.62829 3.41739
# Velocity P-wave (km/s) = 5.06222 6.35741 5.74642
#
# Compressibility (1/GPa) = 0.03822757
#
# Stress axis : x y z
#
# Youngs Moduli (GPa) = 140.09163 43.12573 54.17878
#
# Poissons Ratio (x) = 0.11083 0.31445
# Poissons Ratio (y) = 0.36001 -0.16772
# Poissons Ratio (z) = 0.81307 -0.13350
#
# Static dielectric constant tensor:
#      x y z
#    x 4.400910 0.000000 0.000000 
#    y 0.000000 3.772820 0.000000 
#    z 0.000000 0.000000 3.497750 
# 
# 
# High freq. dielectric constant tensor:
#      x y z
#    x 1.875070 0.000000 0.000000 
#    y 0.000000 1.841390 0.000000 
#    z 0.000000 0.000000 1.824770 
# 
# From -- ./inp_files/14629.got.cif
#   From: 2010.03.12/outbox.cif.g09.slc.cpg/sg60_8_cif.got.tgz:14629.got - 2010.04.10 18:46:24.
