data_PCOD8247998
_publ_section_title
;
Structure prediction by ZEFSAII (Michael W. Deem and Ramdas Pophale) SiO2 
 PCOD8247998
Probable space group: P B C N
;
_chemical_formula_sum "Si O2"
_cell_formula_units_Z 48
_cell_length_a 8.186082
_cell_length_b 28.613652
_cell_length_c 8.804257
_cell_angle_alpha 90.000000
_cell_angle_beta 90.000000
_cell_angle_gamma 90.000000
_cell_volume 2062.253707
_symmetry_space_group_name_H-M "P B C N"
_symmetry_group_IT_number 60
_symmetry_cell_setting 'orthorhombic'
loop_
_space_group_symop_operation_xyz
x,y,z
1/2-x,1/2-y,1/2+z
1/2+x,1/2-y,-z
-x,y,1/2-z
-x,-y,-z
1/2+x,1/2+y,1/2-z
1/2-x,1/2+y,z
x,-y,1/2+z
loop_
_atom_site_type_symbol
_atom_site_label
_atom_site_fract_x
_atom_site_fract_y
_atom_site_fract_z
Si Si1 0.600353 0.763058 0.403244
Si Si2 0.308852 0.937065 0.071175
Si Si3 0.685925 0.342629 0.300440
Si Si4 0.316997 0.181347 0.010033
Si Si5 0.609334 0.914847 0.892036
Si Si6 0.688947 0.516126 0.238038
O O1 0.500000 0.755585 0.250000
O O2 0.760960 0.795676 0.389790
O O3 0.656319 0.712166 0.459365
O O4 0.478962 0.786880 0.524111
O O5 0.215473 0.887956 0.095789
O O6 0.289347 0.968644 0.222370
O O7 0.501220 0.926073 0.042003
O O8 0.229998 0.964139 0.928195
O O9 0.500000 0.339265 0.250000
O O10 0.802172 0.344213 0.152709
O O11 0.334858 0.138879 0.127062
O O12 0.500000 0.929229 0.750000
O O13 0.769645 0.946994 0.874289
O O14 0.500000 0.503762 0.250000
#
# Coordination Sequence:
#
# PCOD8247998 Si02
#       6
#     8   8   8   8   8   8
#     4  10  23  43  65 102 131 180 231 282 356 417
#     4  11  24  46  68  99 143 180 235 281 355 416
#     4  11  24  42  69 100 134 180 226 288 345 415
#     4  11  23  43  69  96 139 176 227 288 342 420
#     4  10  24  43  65  99 135 182 225 285 348 417
#     4  11  25  43  69 104 134 182 235 292 348 416
#
# _framework density 23.275504999999999
#
# number of rings (size 3 to 8) (size 9 to 14) (size 15 to 20)
#    0.000    1.333    1.667    2.500    4.667    4.000 
#    3.000    0.000    0.000    0.000    0.000    0.000 
#    0.000    0.000    0.000    0.000    0.000    0.000 
#
# Total GULP energy -595120.560795 kJ/mol
# GULP energy per Si atom -12398.345017 kJ/mol
# Density = 2.322253 g / cm^3
# Si number density = 23.275505 Si / 1000 Ang^3
#
#
#
# Elastic Constant Matrix: (Units=GPa)
#
#
# Indices 1 2 3 4 5 6 
#
# 1 109.5233 52.5513 24.7649 0.0000 0.0000 0.0000
# 2 52.5513 150.6867 42.1354 0.0000 0.0000 0.0000
# 3 24.7649 42.1354 55.8109 0.0000 0.0000 0.0000
# 4 0.0000 0.0000 0.0000 38.3516 0.0000 0.0000
# 5 0.0000 0.0000 0.0000 0.0000 32.2020 0.0000
# 6 0.0000 0.0000 0.0000 0.0000 0.0000 41.3680
#
#
#
# Elastic Compliance Matrix: (Units=1/GPa)
#
#
# Indices 1 2 3 4 5 6 
#
# 1 0.011249 -0.003204 -0.002573 0.000000 0.000000 0.000000
# 2 -0.003204 0.009325 -0.005618 0.000000 0.000000 0.000000
# 3 -0.002573 -0.005618 0.023301 0.000000 0.000000 0.000000
# 4 0.000000 0.000000 0.000000 0.026075 0.000000 0.000000
# 5 0.000000 0.000000 0.000000 0.000000 0.031054 0.000000
# 6 0.000000 0.000000 0.000000 0.000000 0.000000 0.024173
#
#
# Mechanical properties :
#
#
# Convention : Reuss Voigt Hill
#
# Bulk Modulus (GPa) = 47.42675 61.65824 54.54249
# Shear Modulus (GPa) = 32.25913 35.48892 33.87402
#
# Velocity S-wave (km/s) = 3.72690 3.90902 3.81904
# Velocity P-wave (km/s) = 6.24021 6.84996 6.55218
#
# Compressibility (1/GPa) = 0.02108515
#
# Stress axis : x y z
#
# Youngs Moduli (GPa) = 88.89299 107.24400 42.91682
#
# Poissons Ratio (x) = 0.34358 0.11043
# Poissons Ratio (y) = 0.28479 0.24111
# Poissons Ratio (z) = 0.22872 0.60251
#
# Static dielectric constant tensor:
#      x y z
#    x 4.204010 0.000000 0.000000 
#    y 0.000000 4.238450 0.000000 
#    z 0.000000 0.000000 4.114920 
# 
# 
# High freq. dielectric constant tensor:
#      x y z
#    x 1.922020 0.000000 0.000000 
#    y 0.000000 1.934030 0.000000 
#    z 0.000000 0.000000 1.905710 
# 
# From -- ./inp_files/4207.got.cif
#   From: 2010.03.12/outbox.cif.g09.slc.cpg/sg60_3_cif.got.tgz:4207.got - 2010.04.10 18:46:24.
