data_PCOD8247664
_publ_section_title
;
Structure prediction by ZEFSAII (Michael W. Deem and Ramdas Pophale) SiO2 
 PCOD8247664
Probable space group: P B C N
;
_chemical_formula_sum "Si O2"
_cell_formula_units_Z 64
_cell_length_a 29.921167
_cell_length_b 9.233115
_cell_length_c 11.490749
_cell_angle_alpha 90.000000
_cell_angle_beta 90.000000
_cell_angle_gamma 90.000000
_cell_volume 3174.498389
_symmetry_space_group_name_H-M "P B C N"
_symmetry_group_IT_number 60
_symmetry_cell_setting 'orthorhombic'
loop_
_space_group_symop_operation_xyz
x,y,z
1/2-x,1/2-y,1/2+z
1/2+x,1/2-y,-z
-x,y,1/2-z
-x,-y,-z
1/2+x,1/2+y,1/2-z
1/2-x,1/2+y,z
x,-y,1/2+z
loop_
_atom_site_type_symbol
_atom_site_label
_atom_site_fract_x
_atom_site_fract_y
_atom_site_fract_z
Si Si1 0.163427 0.148216 0.050162
Si Si2 0.908519 0.651528 0.997000
Si Si3 0.450779 0.790498 0.773410
Si Si4 0.551542 0.880424 0.257668
Si Si5 0.700988 0.243062 0.726435
Si Si6 0.369912 0.361254 0.156662
Si Si7 0.121201 0.656900 0.935928
Si Si8 0.208258 0.080849 0.821838
O O1 0.128848 0.232558 0.969222
O O2 0.185718 0.262499 0.139212
O O3 0.135235 0.027656 0.120092
O O4 0.200360 0.089715 0.960626
O O5 0.926979 0.692308 0.870457
O O6 0.947963 0.675803 0.089217
O O7 0.884037 0.497513 0.003798
O O8 0.500000 0.727764 0.750000
O O9 0.415602 0.672609 0.726141
O O10 0.443206 0.947709 0.715443
O O11 0.500000 0.835351 0.250000
O O12 0.576672 0.819620 0.142984
O O13 0.663780 0.166670 0.647458
O O14 0.744908 0.149400 0.711016
O O15 0.709685 0.410676 0.700733
O O16 0.328127 0.332220 0.243143
O O17 0.371048 0.271920 0.037412
#
# Coordination Sequence:
#
# PCOD8247664 Si02
#       8
#     8   8   8   8   8   8   8   8
#     4  11  24  44  66  89 134 167 212 262 321 384
#     4  11  22  40  66  93 129 172 215 267 320 382
#     4  10  22  38  65  97 130 170 219 268 325 383
#     4  10  22  38  64 101 130 167 219 274 321 374
#     4  11  26  43  65  96 125 165 216 261 324 376
#     4  11  23  44  64  91 134 174 207 265 325 380
#     4  11  23  40  66  93 128 167 215 265 322 383
#     4  11  26  43  66  95 128 169 209 268 317 388
#
# _framework density 20.160665999999999
#
# number of rings (size 3 to 8) (size 9 to 14) (size 15 to 20)
#    0.000    1.250    5.000    0.000    5.250    2.500 
#    0.000    1.250    0.000    0.000    0.000    0.000 
#    0.000    0.000    0.000    0.000    0.000    0.000 
#
# Total GULP energy -793292.776074 kJ/mol
# GULP energy per Si atom -12395.199626 kJ/mol
# Density = 2.011478 g / cm^3
# Si number density = 20.160666 Si / 1000 Ang^3
#
#
#
# Elastic Constant Matrix: (Units=GPa)
#
#
# Indices 1 2 3 4 5 6 
#
# 1 142.6826 38.5100 42.6265 0.0000 0.0000 0.0000
# 2 38.5100 45.8561 24.5774 0.0000 0.0000 0.0000
# 3 42.6265 24.5774 102.8006 0.0000 0.0000 0.0000
# 4 0.0000 0.0000 0.0000 26.7262 0.0000 0.0000
# 5 0.0000 0.0000 0.0000 0.0000 28.3611 0.0000
# 6 0.0000 0.0000 0.0000 0.0000 0.0000 24.8694
#
#
#
# Elastic Compliance Matrix: (Units=1/GPa)
#
#
# Indices 1 2 3 4 5 6 
#
# 1 0.009528 -0.006749 -0.002337 0.000000 0.000000 0.000000
# 2 -0.006749 0.029793 -0.004324 0.000000 0.000000 0.000000
# 3 -0.002337 -0.004324 0.011731 0.000000 0.000000 0.000000
# 4 0.000000 0.000000 0.000000 0.037416 0.000000 0.000000
# 5 0.000000 0.000000 0.000000 0.000000 0.035260 0.000000
# 6 0.000000 0.000000 0.000000 0.000000 0.000000 0.040210
#
#
# Mechanical properties :
#
#
# Convention : Reuss Voigt Hill
#
# Bulk Modulus (GPa) = 41.27066 55.86299 48.56682
# Shear Modulus (GPa) = 25.14624 28.36637 26.75630
#
# Velocity S-wave (km/s) = 3.53553 3.75509 3.64696
# Velocity P-wave (km/s) = 6.09770 6.82422 6.47117
#
# Compressibility (1/GPa) = 0.02423029
#
# Stress axis : x y z
#
# Youngs Moduli (GPa) = 104.94841 33.56486 85.24696
#
# Poissons Ratio (x) = 0.22654 0.19926
# Poissons Ratio (y) = 0.70832 0.36863
# Poissons Ratio (z) = 0.24531 0.14514
#
# Static dielectric constant tensor:
#      x y z
#    x 3.682450 0.000000 0.000000 
#    y 0.000000 3.525670 0.000000 
#    z 0.000000 0.000000 3.813160 
# 
# 
# High freq. dielectric constant tensor:
#      x y z
#    x 1.787760 0.000000 0.000000 
#    y 0.000000 1.772870 0.000000 
#    z 0.000000 0.000000 1.807990 
# 
# From -- ./inp_files/13395.got.cif
#   From: 2010.03.12/outbox.cif.g09.slc.cpg/sg60_7_cif.got.tgz:13395.got - 2010.04.10 18:46:24.
