data_PCOD8247147
_publ_section_title
;
Structure prediction by ZEFSAII (Michael W. Deem and Ramdas Pophale) SiO2 
 PCOD8247147
Probable space group: P B C N
;
_chemical_formula_sum "Si O2"
_cell_formula_units_Z 48
_cell_length_a 15.541908
_cell_length_b 15.450768
_cell_length_c 9.391484
_cell_angle_alpha 90.000000
_cell_angle_beta 90.000000
_cell_angle_gamma 90.000000
_cell_volume 2255.218514
_symmetry_space_group_name_H-M "P B C N"
_symmetry_group_IT_number 60
_symmetry_cell_setting 'orthorhombic'
loop_
_space_group_symop_operation_xyz
x,y,z
1/2-x,1/2-y,1/2+z
1/2+x,1/2-y,-z
-x,y,1/2-z
-x,-y,-z
1/2+x,1/2+y,1/2-z
1/2-x,1/2+y,z
x,-y,1/2+z
loop_
_atom_site_type_symbol
_atom_site_label
_atom_site_fract_x
_atom_site_fract_y
_atom_site_fract_z
Si Si1 0.570683 0.292770 0.133992
Si Si2 0.300905 0.566539 0.469586
Si Si3 0.407741 0.060962 0.715949
Si Si4 0.880440 0.601503 0.100555
Si Si5 0.013883 0.089151 0.416490
Si Si6 0.725313 0.402621 0.211093
O O1 0.500000 0.322421 0.250000
O O2 0.567439 0.190027 0.115097
O O3 0.667130 0.317776 0.185700
O O4 0.547700 0.337286 0.983067
O O5 0.222132 0.620384 0.400937
O O6 0.387220 0.618655 0.432903
O O7 0.301845 0.469223 0.410537
O O8 0.295325 0.554085 0.638286
O O9 0.500000 0.105082 0.750000
O O10 0.401631 0.053538 0.546689
O O11 0.329006 0.116136 0.787731
O O12 0.405823 0.962209 0.771821
O O13 0.000000 0.075333 0.250000
O O14 0.000000 0.000000 0.500000
#
# Coordination Sequence:
#
# PCOD8247147 Si02
#       6
#     8   8   8   8   8   8
#     4  12  24  43  63  97 138 171 221 278 338 394
#     4  10  20  41  61  95 127 172 217 255 328 402
#     4  10  21  44  68  91 123 170 224 267 328 398
#     4  10  24  43  68  95 128 171 226 273 333 395
#     4  12  23  39  67  98 134 178 217 265 334 403
#     4  10  21  38  66  93 128 168 213 267 321 401
#
# _framework density 21.283968000000002
#
# number of rings (size 3 to 8) (size 9 to 14) (size 15 to 20)
#    0.000    1.333    3.333    2.500    0.000    0.667 
#    9.000    0.000    0.000    0.000    0.000    0.000 
#    0.000    0.000    0.000    0.000    0.000    0.000 
#
# Total GULP energy -595115.280004 kJ/mol
# GULP energy per Si atom -12398.235000 kJ/mol
# Density = 2.123552 g / cm^3
# Si number density = 21.283968 Si / 1000 Ang^3
#
#
#
# Elastic Constant Matrix: (Units=GPa)
#
#
# Indices 1 2 3 4 5 6 
#
# 1 171.5628 33.4368 40.0686 0.0000 0.0000 0.0000
# 2 33.4368 89.0604 49.7268 0.0000 0.0000 0.0000
# 3 40.0686 49.7268 134.6552 0.0000 0.0000 0.0000
# 4 0.0000 0.0000 0.0000 18.1754 0.0000 0.0000
# 5 0.0000 0.0000 0.0000 0.0000 24.9336 0.0000
# 6 0.0000 0.0000 0.0000 0.0000 0.0000 30.4414
#
#
#
# Elastic Compliance Matrix: (Units=1/GPa)
#
#
# Indices 1 2 3 4 5 6 
#
# 1 0.006463 -0.001704 -0.001294 0.000000 0.000000 0.000000
# 2 -0.001704 0.014594 -0.004882 0.000000 0.000000 0.000000
# 3 -0.001294 -0.004882 0.009614 0.000000 0.000000 0.000000
# 4 0.000000 0.000000 0.000000 0.055019 0.000000 0.000000
# 5 0.000000 0.000000 0.000000 0.000000 0.040107 0.000000
# 6 0.000000 0.000000 0.000000 0.000000 0.000000 0.032850
#
#
# Mechanical properties :
#
#
# Convention : Reuss Voigt Hill
#
# Bulk Modulus (GPa) = 67.06476 71.30476 69.18476
# Shear Modulus (GPa) = 27.87399 32.84649 30.36024
#
# Velocity S-wave (km/s) = 3.62280 3.93268 3.78092
# Velocity P-wave (km/s) = 7.00553 7.36177 7.18586
#
# Compressibility (1/GPa) = 0.01491096
#
# Stress axis : x y z
#
# Youngs Moduli (GPa) = 154.72516 68.52034 104.01047
#
# Poissons Ratio (x) = 0.11676 0.13458
# Poissons Ratio (y) = 0.26366 0.50782
# Poissons Ratio (z) = 0.20020 0.33455
#
# Static dielectric constant tensor:
#      x y z
#    x 4.614720 0.000000 0.000000 
#    y 0.000000 3.290220 0.000000 
#    z 0.000000 0.000000 3.876040 
# 
# 
# High freq. dielectric constant tensor:
#      x y z
#    x 1.862150 0.000000 0.000000 
#    y 0.000000 1.790610 0.000000 
#    z 0.000000 0.000000 1.842910 
# 
# From -- ./inp_files/6707.got.cif
#   From: 2010.03.12/outbox.cif.g09.slc.cpg/sg60_4_cif.got.tgz:6707.got - 2010.04.10 18:46:24.
