data_PCOD8247704
_publ_section_title
;
Structure prediction by ZEFSAII (Michael W. Deem and Ramdas Pophale) SiO2 
 PCOD8247704
Probable space group: P B C N
;
_chemical_formula_sum "Si O2"
_cell_formula_units_Z 52
_cell_length_a 9.089084
_cell_length_b 24.062559
_cell_length_c 11.772354
_cell_angle_alpha 90.000000
_cell_angle_beta 90.000000
_cell_angle_gamma 90.000000
_cell_volume 2574.691753
_symmetry_space_group_name_H-M "P B C N"
_symmetry_group_IT_number 60
_symmetry_cell_setting 'orthorhombic'
loop_
_space_group_symop_operation_xyz
x,y,z
1/2-x,1/2-y,1/2+z
1/2+x,1/2-y,-z
-x,y,1/2-z
-x,-y,-z
1/2+x,1/2+y,1/2-z
1/2-x,1/2+y,z
x,-y,1/2+z
loop_
_atom_site_type_symbol
_atom_site_label
_atom_site_fract_x
_atom_site_fract_y
_atom_site_fract_z
Si Si1 0.020499 0.064538 0.476137
Si Si2 0.574540 0.932897 0.129096
Si Si3 0.279950 0.818274 0.657720
Si Si4 0.341327 0.951394 0.947395
Si Si5 0.000000 0.228442 0.750000
Si Si6 0.321212 0.649817 0.915234
Si Si7 0.000000 0.599987 0.250000
Si Si8 0.000000 0.870492 0.750000
O O1 0.191801 0.076940 0.485751
O O2 0.973613 0.086909 0.353079
O O3 0.933481 0.099025 0.569533
O O4 0.000000 0.000000 0.500000
O O5 0.500000 0.948316 0.250000
O O6 0.673866 0.877288 0.139931
O O7 0.668306 0.981730 0.065512
O O8 0.444113 0.924173 0.041244
O O9 0.371784 0.762835 0.686108
O O10 0.215581 0.816544 0.530501
O O11 0.402256 0.865977 0.661346
O O12 0.145585 0.830344 0.747913
O O13 0.386257 0.936084 0.820325
O O14 0.904028 0.192424 0.664583
#
# Coordination Sequence:
#
# PCOD8247704 Si02
#       8
#     8   8   8   8   4   8   4   4
#     4  11  23  38  64  99 142 173 208 259 328 411
#     4  11  24  39  62  97 138 174 221 266 328 404
#     4  10  23  46  69  93 124 170 234 282 332 401
#     4  11  22  38  64  98 137 185 208 260 324 404
#     4  11  28  49  70  90 132 173 224 303 346 384
#     4  11  25  46  64 101 129 172 224 277 341 408
#     4  11  18  40  70  94 130 174 224 269 312 406
#     4  10  22  39  68  96 128 175 224 266 326 400
#
# _framework density 20.196593
#
# number of rings (size 3 to 8) (size 9 to 14) (size 15 to 20)
#    0.000    1.231    5.385    0.000    2.154    4.308 
#    4.154    0.000    0.000    0.000    0.000    0.000 
#    0.000    0.000    0.000    0.000    0.000    0.000 
#
# Total GULP energy -644242.806348 kJ/mol
# GULP energy per Si atom -12389.284737 kJ/mol
# Density = 2.015062 g / cm^3
# Si number density = 20.196593 Si / 1000 Ang^3
#
#
#
# Elastic Constant Matrix: (Units=GPa)
#
#
# Indices 1 2 3 4 5 6 
#
# 1 129.3359 58.1837 42.5662 0.0000 0.0000 0.0000
# 2 58.1837 108.2700 45.2838 0.0000 0.0000 0.0000
# 3 42.5662 45.2838 97.5340 0.0000 0.0000 0.0000
# 4 0.0000 0.0000 0.0000 22.8319 0.0000 0.0000
# 5 0.0000 0.0000 0.0000 0.0000 37.0521 0.0000
# 6 0.0000 0.0000 0.0000 0.0000 0.0000 43.5453
#
#
#
# Elastic Compliance Matrix: (Units=1/GPa)
#
#
# Indices 1 2 3 4 5 6 
#
# 1 0.010657 -0.004693 -0.002472 0.000000 0.000000 0.000000
# 2 -0.004693 0.013529 -0.004233 0.000000 0.000000 0.000000
# 3 -0.002472 -0.004233 0.013297 0.000000 0.000000 0.000000
# 4 0.000000 0.000000 0.000000 0.043798 0.000000 0.000000
# 5 0.000000 0.000000 0.000000 0.000000 0.026989 0.000000
# 6 0.000000 0.000000 0.000000 0.000000 0.000000 0.022965
#
#
# Mechanical properties :
#
#
# Convention : Reuss Voigt Hill
#
# Bulk Modulus (GPa) = 68.09033 69.68970 68.89001
# Shear Modulus (GPa) = 31.46136 33.29295 32.37716
#
# Velocity S-wave (km/s) = 3.95112 4.06451 4.00822
# Velocity P-wave (km/s) = 7.38933 7.52380 7.45687
#
# Compressibility (1/GPa) = 0.01468637
#
# Stress axis : x y z
#
# Youngs Moduli (GPa) = 93.83937 73.91767 75.20491
#
# Poissons Ratio (x) = 0.34689 0.18590
# Poissons Ratio (y) = 0.44038 0.31835
# Poissons Ratio (z) = 0.23196 0.31290
#
# Static dielectric constant tensor:
#      x y z
#    x 4.022550 0.000000 0.000000 
#    y 0.000000 3.593540 0.000000 
#    z 0.000000 0.000000 3.595930 
# 
# 
# High freq. dielectric constant tensor:
#      x y z
#    x 1.810950 0.000000 0.000000 
#    y 0.000000 1.774930 0.000000 
#    z 0.000000 0.000000 1.783060 
# 
# From -- ./inp_files/10267.got.cif
#   From: 2010.03.12/outbox.cif.g09.slc.cpg/sg60_6_cif.got.tgz:10267.got - 2010.04.10 18:46:24.
