data_PCOD8247722
_publ_section_title
;
Structure prediction by ZEFSAII (Michael W. Deem and Ramdas Pophale) SiO2 
 PCOD8247722
Probable space group: P B C N
;
_chemical_formula_sum "Si O2"
_cell_formula_units_Z 56
_cell_length_a 13.821838
_cell_length_b 13.423350
_cell_length_c 13.565194
_cell_angle_alpha 90.000000
_cell_angle_beta 90.000000
_cell_angle_gamma 90.000000
_cell_volume 2516.823276
_symmetry_space_group_name_H-M "P B C N"
_symmetry_group_IT_number 60
_symmetry_cell_setting 'orthorhombic'
loop_
_space_group_symop_operation_xyz
x,y,z
1/2-x,1/2-y,1/2+z
1/2+x,1/2-y,-z
-x,y,1/2-z
-x,-y,-z
1/2+x,1/2+y,1/2-z
1/2-x,1/2+y,z
x,-y,1/2+z
loop_
_atom_site_type_symbol
_atom_site_label
_atom_site_fract_x
_atom_site_fract_y
_atom_site_fract_z
Si Si1 0.828242 0.840933 0.375994
Si Si2 0.072421 0.659986 0.436070
Si Si3 0.674596 0.018067 0.652791
Si Si4 0.000000 0.225689 0.750000
Si Si5 0.869941 0.749976 0.872681
Si Si6 0.360381 0.149250 0.017884
Si Si7 0.000000 0.619329 0.750000
Si Si8 0.717374 0.550883 0.337919
O O1 0.915164 0.840169 0.297022
O O2 0.726308 0.803919 0.329019
O O3 0.853065 0.770010 0.469892
O O4 0.816335 0.957072 0.404926
O O5 0.148297 0.570832 0.421970
O O6 0.125064 0.739569 0.508354
O O7 0.050973 0.706656 0.330962
O O8 0.972906 0.618135 0.484500
O O9 0.695880 0.113169 0.581004
O O10 0.583656 0.044958 0.719360
O O11 0.762325 0.987128 0.725620
O O12 0.964962 0.694171 0.834926
O O13 0.867620 0.865918 0.840237
O O14 0.312926 0.100572 0.115387
#
# Coordination Sequence:
#
# PCOD8247722 Si02
#       8
#     8   8   8   4   8   8   4   8
#     4  10  22  43  65  93 140 181 236 289 346 432
#     4  11  21  40  67 102 133 175 233 298 362 429
#     4  12  22  38  72  96 133 178 230 288 361 418
#     4  10  23  43  68  96 142 192 235 289 364 442
#     4  11  24  42  66 101 145 173 237 299 361 424
#     4  10  22  40  62  98 129 178 232 291 359 423
#     4  12  23  41  68 106 142 178 233 307 360 428
#     4  11  24  44  64  98 139 188 233 293 349 439
#
# _framework density 22.250271000000001
#
# number of rings (size 3 to 8) (size 9 to 14) (size 15 to 20)
#    0.000    1.143    2.857    5.143    0.000    2.857 
#    7.714    2.857    0.000    0.000    0.000    0.000 
#    0.000    0.000    0.000    0.000    0.000    0.000 
#
# Total GULP energy -694159.838148 kJ/mol
# GULP energy per Si atom -12395.711395 kJ/mol
# Density = 2.219963 g / cm^3
# Si number density = 22.250271 Si / 1000 Ang^3
#
#
#
# Elastic Constant Matrix: (Units=GPa)
#
#
# Indices 1 2 3 4 5 6 
#
# 1 56.0161 21.1071 22.7556 0.0000 0.0000 0.0000
# 2 21.1071 147.2392 42.2907 0.0000 0.0000 0.0000
# 3 22.7556 42.2907 106.2021 0.0000 0.0000 0.0000
# 4 0.0000 0.0000 0.0000 27.8775 0.0000 0.0000
# 5 0.0000 0.0000 0.0000 0.0000 31.2113 0.0000
# 6 0.0000 0.0000 0.0000 0.0000 0.0000 33.8866
#
#
#
# Elastic Compliance Matrix: (Units=1/GPa)
#
#
# Indices 1 2 3 4 5 6 
#
# 1 0.019989 -0.001846 -0.003548 0.000000 0.000000 0.000000
# 2 -0.001846 0.007839 -0.002726 0.000000 0.000000 0.000000
# 3 -0.003548 -0.002726 0.011262 0.000000 0.000000 0.000000
# 4 0.000000 0.000000 0.000000 0.035871 0.000000 0.000000
# 5 0.000000 0.000000 0.000000 0.000000 0.032040 0.000000
# 6 0.000000 0.000000 0.000000 0.000000 0.000000 0.029510
#
#
# Mechanical properties :
#
#
# Convention : Reuss Voigt Hill
#
# Bulk Modulus (GPa) = 43.76453 53.52936 48.64695
# Shear Modulus (GPa) = 31.17824 33.48198 32.33011
#
# Velocity S-wave (km/s) = 3.74739 3.88337 3.81599
# Velocity P-wave (km/s) = 6.19966 6.64962 6.42858
#
# Compressibility (1/GPa) = 0.02284955
#
# Stress axis : x y z
#
# Youngs Moduli (GPa) = 50.02757 127.56135 88.79644
#
# Poissons Ratio (x) = 0.23554 0.31502
# Poissons Ratio (y) = 0.09238 0.24207
# Poissons Ratio (z) = 0.17748 0.34774
#
# Static dielectric constant tensor:
#      x y z
#    x 3.967450 0.000000 0.000000 
#    y 0.000000 4.095550 0.000000 
#    z 0.000000 0.000000 3.918530 
# 
# 
# High freq. dielectric constant tensor:
#      x y z
#    x 1.860190 0.000000 0.000000 
#    y 0.000000 1.875350 0.000000 
#    z 0.000000 0.000000 1.866500 
# 
# From -- ./inp_files/16888.got.cif
#   From: 2010.03.12/outbox.cif.g09.slc.cpg/sg60_9_cif.got.tgz:16888.got - 2010.04.10 18:46:24.
