data_PCOD8247902
_publ_section_title
;
Structure prediction by ZEFSAII (Michael W. Deem and Ramdas Pophale) SiO2 
 PCOD8247902
Probable space group: P B C N
;
_chemical_formula_sum "Si O2"
_cell_formula_units_Z 36
_cell_length_a 17.543229
_cell_length_b 9.052346
_cell_length_c 9.337568
_cell_angle_alpha 90.000000
_cell_angle_beta 90.000000
_cell_angle_gamma 90.000000
_cell_volume 1482.874699
_symmetry_space_group_name_H-M "P B C N"
_symmetry_group_IT_number 60
_symmetry_cell_setting 'orthorhombic'
loop_
_space_group_symop_operation_xyz
x,y,z
1/2-x,1/2-y,1/2+z
1/2+x,1/2-y,-z
-x,y,1/2-z
-x,-y,-z
1/2+x,1/2+y,1/2-z
1/2-x,1/2+y,z
x,-y,1/2+z
loop_
_atom_site_type_symbol
_atom_site_label
_atom_site_fract_x
_atom_site_fract_y
_atom_site_fract_z
Si Si1 0.881116 0.645395 0.745750
Si Si2 0.000000 0.391363 0.750000
Si Si3 0.917225 0.799700 0.452316
Si Si4 0.630450 0.607700 0.440544
Si Si5 0.796826 0.107055 0.746038
O O1 0.924461 0.490062 0.740508
O O2 0.898126 0.731322 0.602505
O O3 0.910182 0.742151 0.883621
O O4 0.792268 0.623284 0.767327
O O5 0.991699 0.281726 0.886689
O O6 0.844913 0.776997 0.344023
O O7 0.931459 0.977025 0.469988
O O8 0.683931 0.557477 0.305545
O O9 0.681248 0.632631 0.581076
#
# Coordination Sequence:
#
# PCOD8247902 Si02
#       5
#     8   4   8   8   8
#     4  12  25  45  73 110 145 190 241 302 364 426
#     4  12  30  44  70 108 156 188 240 304 360 432
#     4  10  24  48  66 106 142 194 235 293 361 431
#     4  10  22  46  75 106 134 192 241 295 354 439
#     4  10  23  41  80 103 143 178 253 293 356 421
#
# _framework density 24.277170999999999
#
# number of rings (size 3 to 8) (size 9 to 14) (size 15 to 20)
#    1.333    0.000    2.222    2.000    6.222    4.444 
#    0.000    3.333    0.000    0.000    0.000    0.000 
#    0.000    0.000    0.000    0.000    0.000    0.000 
#
# Total GULP energy -446050.867272 kJ/mol
# GULP energy per Si atom -12390.301869 kJ/mol
# Density = 2.422191 g / cm^3
# Si number density = 24.277171 Si / 1000 Ang^3
#
#
#
# Elastic Constant Matrix: (Units=GPa)
#
#
# Indices 1 2 3 4 5 6 
#
# 1 59.7923 3.4410 -3.5783 0.0000 0.0000 0.0000
# 2 3.4410 75.6093 -9.7276 0.0000 0.0000 0.0000
# 3 -3.5783 -9.7276 102.8530 0.0000 0.0000 0.0000
# 4 0.0000 0.0000 0.0000 -10.9930 0.0000 0.0000
# 5 0.0000 0.0000 0.0000 0.0000 22.5053 0.0000
# 6 0.0000 0.0000 0.0000 0.0000 0.0000 25.4991
#
#
#
# Elastic Compliance Matrix: (Units=1/GPa)
#
#
# Indices 1 2 3 4 5 6 
#
# 1 0.016796 -0.000698 0.000518 0.000000 0.000000 0.000000
# 2 -0.000698 0.013418 0.001245 0.000000 0.000000 0.000000
# 3 0.000518 0.001245 0.009858 0.000000 0.000000 0.000000
# 4 0.000000 0.000000 0.000000 -0.090967 0.000000 0.000000
# 5 0.000000 0.000000 0.000000 0.000000 0.044434 0.000000
# 6 0.000000 0.000000 0.000000 0.000000 0.000000 0.039217
#
#
# Mechanical properties :
#
#
# Convention : Reuss Voigt Hill
#
# Bulk Modulus (GPa) = 23.69517 24.28054 23.98786
# Shear Modulus (GPa) = 111.87547 23.94357 67.90952
#
# Velocity S-wave (km/s) = 6.79578 3.14388 5.29465
# Velocity P-wave (km/s) = 8.44738 4.81682 6.87605
#
# Compressibility (1/GPa) = 0.04220269
#
# Stress axis : x y z
#
# Youngs Moduli (GPa) = 59.53893 74.52794 101.43659
#
# Poissons Ratio (x) = 0.05200 -0.05258
# Poissons Ratio (y) = 0.04154 -0.12626
# Poissons Ratio (z) = -0.03086 -0.09277
#
# Static dielectric constant tensor:
#      x y z
#    x 4.864780 0.000000 0.000000 
#    y 0.000000 4.682900 0.000000 
#    z 0.000000 0.000000 4.413140 
# 
# 
# High freq. dielectric constant tensor:
#      x y z
#    x 1.951100 0.000000 0.000000 
#    y 0.000000 1.968900 0.000000 
#    z 0.000000 0.000000 1.977970 
# 
# From -- ./inp_files/7183.got.cif
#   From: 2010.03.12/outbox.cif.g09.slc.cpg/sg60_4_cif.got.tgz:7183.got - 2010.04.10 18:46:24.
