data_PCOD8247930
_publ_section_title
;
Structure prediction by ZEFSAII (Michael W. Deem and Ramdas Pophale) SiO2 
 PCOD8247930
Probable space group: P B C N
;
_chemical_formula_sum "Si O2"
_cell_formula_units_Z 64
_cell_length_a 20.452676
_cell_length_b 27.190850
_cell_length_c 5.587883
_cell_angle_alpha 90.000000
_cell_angle_beta 90.000000
_cell_angle_gamma 90.000000
_cell_volume 3107.565039
_symmetry_space_group_name_H-M "P B C N"
_symmetry_group_IT_number 60
_symmetry_cell_setting 'orthorhombic'
loop_
_space_group_symop_operation_xyz
x,y,z
1/2-x,1/2-y,1/2+z
1/2+x,1/2-y,-z
-x,y,1/2-z
-x,-y,-z
1/2+x,1/2+y,1/2-z
1/2-x,1/2+y,z
x,-y,1/2+z
loop_
_atom_site_type_symbol
_atom_site_label
_atom_site_fract_x
_atom_site_fract_y
_atom_site_fract_z
Si Si1 0.932116 0.608209 0.331043
Si Si2 0.215119 0.868992 0.279342
Si Si3 0.433389 0.797112 0.385571
Si Si4 0.842235 0.786730 0.493047
Si Si5 0.713951 0.475067 0.090863
Si Si6 0.130986 0.524439 0.923120
Si Si7 0.161386 0.649460 0.522453
Si Si8 0.757410 0.702250 0.341826
O O1 0.949158 0.663897 0.408374
O O2 0.899146 0.579315 0.554654
O O3 0.884442 0.608310 0.101075
O O4 0.000000 0.582905 0.250000
O O5 0.154957 0.835240 0.176645
O O6 0.186169 0.919307 0.387645
O O7 0.261277 0.838413 0.454862
O O8 0.271831 0.880925 0.083990
O O9 0.500000 0.784082 0.250000
O O10 0.407834 0.745638 0.503687
O O11 0.376579 0.819947 0.223956
O O12 0.775037 0.757139 0.426119
O O13 0.818678 0.802979 0.757204
O O14 0.688898 0.503079 0.334465
O O15 0.791535 0.473289 0.082876
O O16 0.105859 0.501514 0.671880
O O17 0.182521 0.690503 0.333186
#
# Coordination Sequence:
#
# PCOD8247930 Si02
#       8
#     8   8   8   8   8   8   8   8
#     4  12  25  39  58  75 106 155 212 259 307 359
#     4  11  23  36  61  84 117 151 190 250 300 365
#     4  12  24  39  56  81 117 159 201 246 297 367
#     4  11  21  34  55  88 114 150 193 238 301 359
#     4  10  23  40  61  88 119 154 196 245 316 377
#     4  10  24  40  60  83 112 151 205 272 324 363
#     4  11  21  35  56  79 110 147 201 242 297 355
#     4  11  19  33  56  84 113 146 189 245 293 357
#
# _framework density 20.594902999999999
#
# number of rings (size 3 to 8) (size 9 to 14) (size 15 to 20)
#    0.000    1.000    5.000    2.250   10.500    0.500 
#    0.000    0.000    0.000    0.000    0.000    0.000 
#    0.000    1.000    0.000    0.125    0.000    0.000 
#
# Total GULP energy -792958.560831 kJ/mol
# GULP energy per Si atom -12389.977513 kJ/mol
# Density = 2.054803 g / cm^3
# Si number density = 20.594903 Si / 1000 Ang^3
#
#
#
# Elastic Constant Matrix: (Units=GPa)
#
#
# Indices 1 2 3 4 5 6 
#
# 1 33.7285 14.4017 9.3636 0.0000 0.0000 0.0000
# 2 14.4017 106.5677 36.7947 0.0000 0.0000 0.0000
# 3 9.3636 36.7947 92.8364 0.0000 0.0000 0.0000
# 4 0.0000 0.0000 0.0000 12.1419 0.0000 0.0000
# 5 0.0000 0.0000 0.0000 0.0000 16.3445 0.0000
# 6 0.0000 0.0000 0.0000 0.0000 0.0000 20.0506
#
#
#
# Elastic Compliance Matrix: (Units=1/GPa)
#
#
# Indices 1 2 3 4 5 6 
#
# 1 0.031704 -0.003685 -0.001737 0.000000 0.000000 0.000000
# 2 -0.003685 0.011300 -0.004107 0.000000 0.000000 0.000000
# 3 -0.001737 -0.004107 0.012575 0.000000 0.000000 0.000000
# 4 0.000000 0.000000 0.000000 0.082360 0.000000 0.000000
# 5 0.000000 0.000000 0.000000 0.000000 0.061183 0.000000
# 6 0.000000 0.000000 0.000000 0.000000 0.000000 0.049874
#
#
# Mechanical properties :
#
#
# Convention : Reuss Voigt Hill
#
# Bulk Modulus (GPa) = 27.38178 39.36141 33.37159
# Shear Modulus (GPa) = 17.84274 21.21223 19.52749
#
# Velocity S-wave (km/s) = 2.94660 3.21280 3.08258
# Velocity P-wave (km/s) = 4.99008 5.73729 5.37668
#
# Compressibility (1/GPa) = 0.03652063
#
# Stress axis : x y z
#
# Youngs Moduli (GPa) = 31.54157 88.49846 79.52563
#
# Poissons Ratio (x) = 0.32609 0.13816
# Poissons Ratio (y) = 0.11622 0.32660
# Poissons Ratio (z) = 0.05480 0.36345
#
# Static dielectric constant tensor:
#      x y z
#    x 3.325550 0.000000 0.000000 
#    y 0.000000 3.807290 0.000000 
#    z 0.000000 0.000000 4.183920 
# 
# 
# High freq. dielectric constant tensor:
#      x y z
#    x 1.736900 0.000000 0.000000 
#    y 0.000000 1.797250 0.000000 
#    z 0.000000 0.000000 1.828300 
# 
# From -- ./inp_files/2222.got.cif
#   From: 2010.03.12/outbox.cif.g09.slc.cpg/sg60_2_cif.got.tgz:2222.got - 2010.04.10 18:46:24.
