data_PCOD8247832
_publ_section_title
;
Structure prediction by ZEFSAII (Michael W. Deem and Ramdas Pophale) SiO2 
 PCOD8247832
Probable space group: P B C N
;
_chemical_formula_sum "Si O2"
_cell_formula_units_Z 64
_cell_length_a 24.447781
_cell_length_b 8.508514
_cell_length_c 14.001852
_cell_angle_alpha 90.000000
_cell_angle_beta 90.000000
_cell_angle_gamma 90.000000
_cell_volume 2912.585259
_symmetry_space_group_name_H-M "P B C N"
_symmetry_group_IT_number 60
_symmetry_cell_setting 'orthorhombic'
loop_
_space_group_symop_operation_xyz
x,y,z
1/2-x,1/2-y,1/2+z
1/2+x,1/2-y,-z
-x,y,1/2-z
-x,-y,-z
1/2+x,1/2+y,1/2-z
1/2-x,1/2+y,z
x,-y,1/2+z
loop_
_atom_site_type_symbol
_atom_site_label
_atom_site_fract_x
_atom_site_fract_y
_atom_site_fract_z
Si Si1 0.008003 0.284687 0.645828
Si Si2 0.385357 0.367014 0.694804
Si Si3 0.674666 0.213361 0.633241
Si Si4 0.180334 0.867319 0.511486
Si Si5 0.730205 0.074847 0.061230
Si Si6 0.568607 0.293039 0.526608
Si Si7 0.412363 0.416437 0.365507
Si Si8 0.480273 0.851417 0.148131
O O1 0.054865 0.192698 0.586129
O O2 0.029799 0.462197 0.650707
O O3 0.000000 0.208446 0.750000
O O4 0.945143 0.247111 0.612415
O O5 0.354734 0.247987 0.766722
O O6 0.346713 0.426308 0.609520
O O7 0.405810 0.520265 0.755331
O O8 0.428051 0.260397 0.633512
O O9 0.728898 0.319482 0.624473
O O10 0.631731 0.246918 0.546437
O O11 0.691691 0.029881 0.630795
O O12 0.192276 0.681359 0.507304
O O13 0.146751 0.909892 0.415281
O O14 0.237503 0.958636 0.508535
O O15 0.552137 0.453244 0.578915
O O16 0.526048 0.163720 0.566330
O O17 0.500000 0.790507 0.250000
#
# Coordination Sequence:
#
# PCOD8247832 Si02
#       8
#     8   8   8   8   8   8   8   8
#     4  11  27  37  63 100 129 170 223 263 319 405
#     4  11  24  42  73  97 136 180 219 268 346 398
#     4  10  22  42  70  92 131 174 216 280 332 387
#     4  11  24  44  68  97 129 174 221 277 336 396
#     4  10  23  44  66  95 130 167 228 278 329 390
#     4  11  22  42  66  91 135 177 209 266 343 387
#     4  11  24  42  65  96 131 181 213 275 328 403
#     4  11  22  42  63  97 135 164 220 262 324 403
#
# _framework density 21.973607000000001
#
# number of rings (size 3 to 8) (size 9 to 14) (size 15 to 20)
#    0.000    1.250    5.000    1.500    7.000    1.000 
#    0.000    0.000    0.000    0.000    0.000    0.000 
#    0.000    0.000    0.000    0.000    0.000    0.000 
#
# Total GULP energy -792893.710901 kJ/mol
# GULP energy per Si atom -12388.964233 kJ/mol
# Density = 2.192359 g / cm^3
# Si number density = 21.973607 Si / 1000 Ang^3
#
#
#
# Elastic Constant Matrix: (Units=GPa)
#
#
# Indices 1 2 3 4 5 6 
#
# 1 84.9571 25.7107 25.1469 0.0000 0.0000 0.0000
# 2 25.7107 81.9035 15.9799 0.0000 0.0000 0.0000
# 3 25.1469 15.9799 79.3374 0.0000 0.0000 0.0000
# 4 0.0000 0.0000 0.0000 16.4140 0.0000 0.0000
# 5 0.0000 0.0000 0.0000 0.0000 33.5654 0.0000
# 6 0.0000 0.0000 0.0000 0.0000 0.0000 30.5394
#
#
#
# Elastic Compliance Matrix: (Units=1/GPa)
#
#
# Indices 1 2 3 4 5 6 
#
# 1 0.013972 -0.003666 -0.003690 0.000000 0.000000 0.000000
# 2 -0.003666 0.013671 -0.001592 0.000000 0.000000 0.000000
# 3 -0.003690 -0.001592 0.014095 0.000000 0.000000 0.000000
# 4 0.000000 0.000000 0.000000 0.060924 0.000000 0.000000
# 5 0.000000 0.000000 0.000000 0.000000 0.029793 0.000000
# 6 0.000000 0.000000 0.000000 0.000000 0.000000 0.032745
#
#
# Mechanical properties :
#
#
# Convention : Reuss Voigt Hill
#
# Bulk Modulus (GPa) = 41.94277 42.20811 42.07544
# Shear Modulus (GPa) = 26.17226 28.06113 27.11669
#
# Velocity S-wave (km/s) = 3.45494 3.57744 3.51673
# Velocity P-wave (km/s) = 5.91986 6.02614 5.97324
#
# Compressibility (1/GPa) = 0.02384201
#
# Stress axis : x y z
#
# Youngs Moduli (GPa) = 71.56933 73.14826 70.94899
#
# Poissons Ratio (x) = 0.26817 0.26182
# Poissons Ratio (y) = 0.26238 0.11292
# Poissons Ratio (z) = 0.26411 0.11642
#
# Static dielectric constant tensor:
#      x y z
#    x 4.015070 0.000000 0.000000 
#    y 0.000000 4.006650 0.000000 
#    z 0.000000 0.000000 3.966110 
# 
# 
# High freq. dielectric constant tensor:
#      x y z
#    x 1.862790 0.000000 0.000000 
#    y 0.000000 1.867210 0.000000 
#    z 0.000000 0.000000 1.853220 
# 
# From -- ./inp_files/17952.got.cif
#   From: 2010.03.12/outbox.cif.g09.slc.cpg/sg60_9_cif.got.tgz:17952.got - 2010.04.10 18:46:24.
