data_PCOD8247173
_publ_section_title
;
Structure prediction by ZEFSAII (Michael W. Deem and Ramdas Pophale) SiO2 
 PCOD8247173
Probable space group: P B C N
;
_chemical_formula_sum "Si O2"
_cell_formula_units_Z 48
_cell_length_a 12.324483
_cell_length_b 8.573499
_cell_length_c 21.961842
_cell_angle_alpha 90.000000
_cell_angle_beta 90.000000
_cell_angle_gamma 90.000000
_cell_volume 2320.574814
_symmetry_space_group_name_H-M "P B C N"
_symmetry_group_IT_number 60
_symmetry_cell_setting 'orthorhombic'
loop_
_space_group_symop_operation_xyz
x,y,z
1/2-x,1/2-y,1/2+z
1/2+x,1/2-y,-z
-x,y,1/2-z
-x,-y,-z
1/2+x,1/2+y,1/2-z
1/2-x,1/2+y,z
x,-y,1/2+z
loop_
_atom_site_type_symbol
_atom_site_label
_atom_site_fract_x
_atom_site_fract_y
_atom_site_fract_z
Si Si1 0.489879 0.851090 0.541979
Si Si2 0.660584 0.994285 0.750411
Si Si3 0.883504 0.220771 0.064864
Si Si4 0.382347 0.648575 0.769952
Si Si5 0.839569 0.863419 0.091708
Si Si6 0.505457 0.066693 0.851248
O O1 0.401192 0.741637 0.508145
O O2 0.599567 0.749232 0.544311
O O3 0.500000 0.000000 0.500000
O O4 0.460976 0.913380 0.609212
O O5 0.640747 0.811921 0.763758
O O6 0.789091 0.025527 0.748322
O O7 0.604870 0.094319 0.804650
O O8 0.605700 0.038258 0.686232
O O9 0.787031 0.332660 0.086020
O O10 0.986526 0.282745 0.104998
O O11 0.861718 0.042493 0.077644
O O12 0.500000 0.582242 0.750000
O O13 0.382913 0.676301 0.841691
#
# Coordination Sequence:
#
# PCOD8247173 Si02
#       6
#     8   8   8   8   8   8
#     4  10  21  40  65  90 125 172 220 271 335 389
#     4  11  22  41  67  94 136 172 217 274 345 391
#     4  11  23  38  66  94 127 176 224 273 335 417
#     4  12  24  41  66  98 132 177 221 277 338 413
#     4  12  22  41  62  97 131 171 227 277 341 407
#     4  10  20  42  65  94 131 177 216 280 339 400
#
# _framework density 20.684529999999999
#
# number of rings (size 3 to 8) (size 9 to 14) (size 15 to 20)
#    0.000    1.000    5.000    3.500    0.000    1.333 
#    0.000   11.667    0.000    0.000    0.000    0.000 
#    0.000    0.000    0.000    0.000    0.000    0.000 
#
# Total GULP energy -595012.399378 kJ/mol
# GULP energy per Si atom -12396.091654 kJ/mol
# Density = 2.063745 g / cm^3
# Si number density = 20.684530 Si / 1000 Ang^3
#
#
#
# Elastic Constant Matrix: (Units=GPa)
#
#
# Indices 1 2 3 4 5 6 
#
# 1 135.2443 37.0240 59.7961 0.0000 0.0000 0.0000
# 2 37.0240 113.6194 38.4870 0.0000 0.0000 0.0000
# 3 59.7961 38.4870 114.8260 0.0000 0.0000 0.0000
# 4 0.0000 0.0000 0.0000 29.8352 0.0000 0.0000
# 5 0.0000 0.0000 0.0000 0.0000 32.5190 0.0000
# 6 0.0000 0.0000 0.0000 0.0000 0.0000 47.0391
#
#
#
# Elastic Compliance Matrix: (Units=1/GPa)
#
#
# Indices 1 2 3 4 5 6 
#
# 1 0.009877 -0.001665 -0.004585 0.000000 0.000000 0.000000
# 2 -0.001665 0.010209 -0.002555 0.000000 0.000000 0.000000
# 3 -0.004585 -0.002555 0.011953 0.000000 0.000000 0.000000
# 4 0.000000 0.000000 0.000000 0.033517 0.000000 0.000000
# 5 0.000000 0.000000 0.000000 0.000000 0.030751 0.000000
# 6 0.000000 0.000000 0.000000 0.000000 0.000000 0.021259
#
#
# Mechanical properties :
#
#
# Convention : Reuss Voigt Hill
#
# Bulk Modulus (GPa) = 69.30660 70.47820 69.89240
# Shear Modulus (GPa) = 35.71736 37.10415 36.41075
#
# Velocity S-wave (km/s) = 4.15995 4.23994 4.20013
# Velocity P-wave (km/s) = 7.52680 7.62340 7.57526
#
# Compressibility (1/GPa) = 0.01442864
#
# Stress axis : x y z
#
# Youngs Moduli (GPa) = 101.24206 97.94934 83.66097
#
# Poissons Ratio (x) = 0.16312 0.38362
# Poissons Ratio (y) = 0.16860 0.21373
# Poissons Ratio (z) = 0.46424 0.25023
#
# Static dielectric constant tensor:
#      x y z
#    x 3.527410 0.000000 0.000000 
#    y 0.000000 3.746350 0.000000 
#    z 0.000000 0.000000 4.421440 
# 
# 
# High freq. dielectric constant tensor:
#      x y z
#    x 1.793450 0.000000 0.000000 
#    y 0.000000 1.809700 0.000000 
#    z 0.000000 0.000000 1.815660 
# 
# From -- ./inp_files/24242.got.cif
#   From: 2010.03.12/outbox.cif.g09.slc.cpg/sg60_13_cif.got.tgz:24242.got - 2010.04.10 18:46:24.
