data_PCOD8247282
_publ_section_title
;
Structure prediction by ZEFSAII (Michael W. Deem and Ramdas Pophale) SiO2 
 PCOD8247282
Probable space group: P B C N
;
_chemical_formula_sum "Si O2"
_cell_formula_units_Z 40
_cell_length_a 5.022136
_cell_length_b 26.061556
_cell_length_c 13.591545
_cell_angle_alpha 90.000000
_cell_angle_beta 90.000000
_cell_angle_gamma 90.000000
_cell_volume 1778.924999
_symmetry_space_group_name_H-M "P B C N"
_symmetry_group_IT_number 60
_symmetry_cell_setting 'orthorhombic'
loop_
_space_group_symop_operation_xyz
x,y,z
1/2-x,1/2-y,1/2+z
1/2+x,1/2-y,-z
-x,y,1/2-z
-x,-y,-z
1/2+x,1/2+y,1/2-z
1/2-x,1/2+y,z
x,-y,1/2+z
loop_
_atom_site_type_symbol
_atom_site_label
_atom_site_fract_x
_atom_site_fract_y
_atom_site_fract_z
Si Si1 0.257716 0.146021 0.683129
Si Si2 0.023515 0.374425 0.867016
Si Si3 0.749015 0.033140 0.815368
Si Si4 0.972587 0.933884 0.867112
Si Si5 0.321531 0.783827 0.000306
O O1 0.500000 0.164916 0.750000
O O2 0.324337 0.088683 0.638953
O O3 0.220413 0.182796 0.591200
O O4 0.000000 0.149123 0.750000
O O5 0.735622 0.391739 0.907404
O O6 0.000000 0.370247 0.750000
O O7 0.237111 0.417394 0.905539
O O8 0.096533 0.318890 0.907952
O O9 0.500000 0.011449 0.750000
O O10 0.000000 0.046934 0.750000
O O11 0.850675 0.990399 0.895254
O O12 0.000000 0.934874 0.750000
O O13 0.576755 0.751220 0.033958
#
# Coordination Sequence:
#
# PCOD8247282 Si02
#       5
#     8   8   8   8   8
#     4  10  22  41  64  89 119 158 202 247 301 362
#     4  10  21  37  58  86 119 153 191 238 296 358
#     4   9  16  30  56  87 118 154 192 233 288 356
#     4   9  16  31  56  86 118 152 187 229 287 356
#     4  12  26  43  62  86 119 157 207 265 306 348
#
# _framework density 22.485488
#
# number of rings (size 3 to 8) (size 9 to 14) (size 15 to 20)
#    0.000    2.000    0.000    5.400    0.000    2.400 
#    0.000    2.000    0.000    0.000    0.000    8.400 
#    0.000    0.000    0.000    0.000    0.000    0.000 
#
# Total GULP energy -495627.753932 kJ/mol
# GULP energy per Si atom -12390.693848 kJ/mol
# Density = 2.243431 g / cm^3
# Si number density = 22.485488 Si / 1000 Ang^3
#
#
#
# Elastic Constant Matrix: (Units=GPa)
#
#
# Indices 1 2 3 4 5 6 
#
# 1 140.2076 37.6587 27.7283 0.0000 0.0000 0.0000
# 2 37.6587 130.5256 37.9191 0.0000 0.0000 0.0000
# 3 27.7283 37.9191 52.6267 0.0000 0.0000 0.0000
# 4 0.0000 0.0000 0.0000 -34.2155 0.0000 0.0000
# 5 0.0000 0.0000 0.0000 0.0000 21.2286 0.0000
# 6 0.0000 0.0000 0.0000 0.0000 0.0000 7.9284
#
#
#
# Elastic Compliance Matrix: (Units=1/GPa)
#
#
# Indices 1 2 3 4 5 6 
#
# 1 0.008159 -0.001398 -0.003292 0.000000 0.000000 0.000000
# 2 -0.001398 0.009929 -0.006418 0.000000 0.000000 0.000000
# 3 -0.003292 -0.006418 0.025360 0.000000 0.000000 0.000000
# 4 0.000000 0.000000 0.000000 -0.029227 0.000000 0.000000
# 5 0.000000 0.000000 0.000000 0.000000 0.047106 0.000000
# 6 0.000000 0.000000 0.000000 0.000000 0.000000 0.126130
#
#
# Mechanical properties :
#
#
# Convention : Reuss Voigt Hill
#
# Bulk Modulus (GPa) = 47.09459 58.88578 52.99019
# Shear Modulus (GPa) = 23.06813 13.65855 18.36334
#
# Velocity S-wave (km/s) = 3.20646 2.46730 2.86085
# Velocity P-wave (km/s) = 5.89054 5.86191 5.87624
#
# Compressibility (1/GPa) = 0.02123386
#
# Stress axis : x y z
#
# Youngs Moduli (GPa) = 122.56921 100.71514 39.43177
#
# Poissons Ratio (x) = 0.14076 0.12980
# Poissons Ratio (y) = 0.17131 0.25306
# Poissons Ratio (z) = 0.40346 0.64636
#
# Static dielectric constant tensor:
#      x y z
#    x 4.256830 0.000000 0.000000 
#    y 0.000000 4.430720 0.000000 
#    z 0.000000 0.000000 3.438400 
# 
# 
# High freq. dielectric constant tensor:
#      x y z
#    x 1.911390 0.000000 0.000000 
#    y 0.000000 1.896650 0.000000 
#    z 0.000000 0.000000 1.834160 
# 
# From -- ./inp_files/9083.got.cif
#   From: 2010.03.12/outbox.cif.g09.slc.cpg/sg60_5_cif.got.tgz:9083.got - 2010.04.10 18:46:24.
