data_PCOD8247660
_publ_section_title
;
Structure prediction by ZEFSAII (Michael W. Deem and Ramdas Pophale) SiO2 
 PCOD8247660
Probable space group: P B C N
;
_chemical_formula_sum "Si O2"
_cell_formula_units_Z 52
_cell_length_a 20.246608
_cell_length_b 8.807675
_cell_length_c 13.818707
_cell_angle_alpha 90.000000
_cell_angle_beta 90.000000
_cell_angle_gamma 90.000000
_cell_volume 2464.228431
_symmetry_space_group_name_H-M "P B C N"
_symmetry_group_IT_number 60
_symmetry_cell_setting 'orthorhombic'
loop_
_space_group_symop_operation_xyz
x,y,z
1/2-x,1/2-y,1/2+z
1/2+x,1/2-y,-z
-x,y,1/2-z
-x,-y,-z
1/2+x,1/2+y,1/2-z
1/2-x,1/2+y,z
x,-y,1/2+z
loop_
_atom_site_type_symbol
_atom_site_label
_atom_site_fract_x
_atom_site_fract_y
_atom_site_fract_z
Si Si1 0.500000 0.706710 0.750000
Si Si2 0.420048 0.303438 0.582525
Si Si3 0.303555 0.677890 0.754776
Si Si4 0.567819 0.794403 0.084881
Si Si5 0.596335 0.858157 0.614229
Si Si6 0.099553 0.864090 0.099894
Si Si7 0.666265 0.667213 0.229296
O O1 0.528050 0.804794 0.661633
O O2 0.442794 0.608695 0.699445
O O3 0.493645 0.252867 0.614286
O O4 0.395361 0.197578 0.495610
O O5 0.411002 0.476707 0.543889
O O6 0.373679 0.288957 0.674882
O O7 0.343294 0.797384 0.821420
O O8 0.328173 0.682236 0.641671
O O9 0.227712 0.719814 0.765862
O O10 0.309742 0.503747 0.785333
O O11 0.620281 0.686875 0.136413
O O12 0.589693 0.961800 0.114023
O O13 0.575350 0.770550 0.969345
#
# Coordination Sequence:
#
# PCOD8247660 Si02
#       7
#     4   8   8   8   8   8   8
#     4  10  22  38  62  92 130 168 202 270 316 382
#     4  11  24  40  66  99 129 172 217 270 324 393
#     4  10  24  46  65  96 125 180 216 271 322 383
#     4  12  24  39  66 100 132 173 210 273 323 393
#     4  11  24  40  65  95 136 167 215 264 326 381
#     4  10  23  40  68  91 132 170 218 265 327 381
#     4  11  25  43  68  92 133 170 225 264 323 387
#
# _framework density 21.101939000000002
#
# number of rings (size 3 to 8) (size 9 to 14) (size 15 to 20)
#    0.000    1.231    1.538    3.231    8.615    3.692 
#    0.000    3.077    0.000    0.000    0.000    0.000 
#    0.000    0.000    0.000    0.000    0.000    0.000 
#
# Total GULP energy -644507.186143 kJ/mol
# GULP energy per Si atom -12394.368964 kJ/mol
# Density = 2.105391 g / cm^3
# Si number density = 21.101939 Si / 1000 Ang^3
#
#
#
# Elastic Constant Matrix: (Units=GPa)
#
#
# Indices 1 2 3 4 5 6 
#
# 1 126.8847 53.4298 45.8619 0.0000 0.0000 0.0000
# 2 53.4298 114.6432 37.2545 0.0000 0.0000 0.0000
# 3 45.8619 37.2545 84.2355 0.0000 0.0000 0.0000
# 4 0.0000 0.0000 0.0000 25.9359 0.0000 0.0000
# 5 0.0000 0.0000 0.0000 0.0000 19.2313 0.0000
# 6 0.0000 0.0000 0.0000 0.0000 0.0000 30.3638
#
#
#
# Elastic Compliance Matrix: (Units=1/GPa)
#
#
# Indices 1 2 3 4 5 6 
#
# 1 0.011023 -0.003722 -0.004355 0.000000 0.000000 0.000000
# 2 -0.003722 0.011443 -0.003035 0.000000 0.000000 0.000000
# 3 -0.004355 -0.003035 0.015585 0.000000 0.000000 0.000000
# 4 0.000000 0.000000 0.000000 0.038557 0.000000 0.000000
# 5 0.000000 0.000000 0.000000 0.000000 0.051998 0.000000
# 6 0.000000 0.000000 0.000000 0.000000 0.000000 0.032934
#
#
# Mechanical properties :
#
#
# Convention : Reuss Voigt Hill
#
# Bulk Modulus (GPa) = 63.18168 66.53954 64.86061
# Shear Modulus (GPa) = 26.44957 27.72070 27.08513
#
# Velocity S-wave (km/s) = 3.54421 3.62837 3.58654
# Velocity P-wave (km/s) = 6.83774 7.01101 6.92492
#
# Compressibility (1/GPa) = 0.01582737
#
# Stress axis : x y z
#
# Youngs Moduli (GPa) = 90.72299 87.38624 64.16513
#
# Poissons Ratio (x) = 0.32524 0.27945
# Poissons Ratio (y) = 0.33766 0.19472
# Poissons Ratio (z) = 0.39511 0.26519
#
# Static dielectric constant tensor:
#      x y z
#    x 3.978320 0.000000 0.000000 
#    y 0.000000 4.077280 0.000000 
#    z 0.000000 0.000000 3.794680 
# 
# 
# High freq. dielectric constant tensor:
#      x y z
#    x 1.827850 0.000000 0.000000 
#    y 0.000000 1.831770 0.000000 
#    z 0.000000 0.000000 1.833180 
# 
# From -- ./inp_files/17667.got.cif
#   From: 2010.03.12/outbox.cif.g09.slc.cpg/sg60_9_cif.got.tgz:17667.got - 2010.04.10 18:46:24.
