data_PCOD8247903
_publ_section_title
;
Structure prediction by ZEFSAII (Michael W. Deem and Ramdas Pophale) SiO2 
 PCOD8247903
Probable space group: P B C N
;
_chemical_formula_sum "Si O2"
_cell_formula_units_Z 48
_cell_length_a 22.540555
_cell_length_b 17.097584
_cell_length_c 4.984965
_cell_angle_alpha 90.000000
_cell_angle_beta 90.000000
_cell_angle_gamma 90.000000
_cell_volume 1921.150838
_symmetry_space_group_name_H-M "P B C N"
_symmetry_group_IT_number 60
_symmetry_cell_setting 'orthorhombic'
loop_
_space_group_symop_operation_xyz
x,y,z
1/2-x,1/2-y,1/2+z
1/2+x,1/2-y,-z
-x,y,1/2-z
-x,-y,-z
1/2+x,1/2+y,1/2-z
1/2-x,1/2+y,z
x,-y,1/2+z
loop_
_atom_site_type_symbol
_atom_site_label
_atom_site_fract_x
_atom_site_fract_y
_atom_site_fract_z
Si Si1 0.572277 0.052397 0.455267
Si Si2 0.093118 0.799811 0.554646
Si Si3 0.500000 0.376905 0.250000
Si Si4 0.726670 0.289726 0.055632
Si Si5 0.928496 0.049684 0.137877
Si Si6 0.500000 0.175225 0.750000
Si Si7 0.207411 0.552476 0.980638
O O1 0.525874 0.121772 0.510611
O O2 0.639753 0.083314 0.491637
O O3 0.561269 0.021108 0.154943
O O4 0.059356 0.826309 0.281117
O O5 0.157413 0.772847 0.472090
O O6 0.101043 0.869080 0.774748
O O7 0.055429 0.727421 0.662004
O O8 0.502019 0.428400 0.532160
O O9 0.742188 0.273219 0.363456
O O10 0.746829 0.376771 0.975358
O O11 0.910020 0.978259 0.332934
O O12 0.219935 0.516258 0.690612
#
# Coordination Sequence:
#
# PCOD8247903 Si02
#       7
#     8   8   4   8   8   4   8
#     4  10  23  44  73 105 137 179 233 296 375 449
#     4  12  29  45  73 111 150 196 257 298 383 455
#     4  12  24  45  69 106 148 188 252 302 368 447
#     4  12  29  51  76 107 151 202 252 309 378 453
#     4  12  25  45  71 101 150 199 244 306 366 432
#     4  12  24  45  67 110 148 190 226 310 368 457
#     4  10  22  46  76 105 139 185 248 309 363 431
#
# _framework density 24.985023999999999
#
# number of rings (size 3 to 8) (size 9 to 14) (size 15 to 20)
#    0.000    0.667    3.333    3.000    2.333    6.667 
#    0.000    0.000    0.000    0.000    0.000    0.000 
#    0.000    0.000    0.000    0.000    0.000    0.000 
#
# Total GULP energy -594856.687594 kJ/mol
# GULP energy per Si atom -12392.847658 kJ/mol
# Density = 2.492816 g / cm^3
# Si number density = 24.985024 Si / 1000 Ang^3
#
#
#
# Elastic Constant Matrix: (Units=GPa)
#
#
# Indices 1 2 3 4 5 6 
#
# 1 147.1803 59.5161 28.2690 0.0000 0.0000 0.0000
# 2 59.5161 108.6319 21.3391 0.0000 0.0000 0.0000
# 3 28.2690 21.3391 112.9854 0.0000 0.0000 0.0000
# 4 0.0000 0.0000 0.0000 31.8360 0.0000 0.0000
# 5 0.0000 0.0000 0.0000 0.0000 32.1903 0.0000
# 6 0.0000 0.0000 0.0000 0.0000 0.0000 93.4839
#
#
#
# Elastic Compliance Matrix: (Units=1/GPa)
#
#
# Indices 1 2 3 4 5 6 
#
# 1 0.008925 -0.004622 -0.001360 0.000000 0.000000 0.000000
# 2 -0.004622 0.011954 -0.001101 0.000000 0.000000 0.000000
# 3 -0.001360 -0.001101 0.009399 0.000000 0.000000 0.000000
# 4 0.000000 0.000000 0.000000 0.031411 0.000000 0.000000
# 5 0.000000 0.000000 0.000000 0.000000 0.031065 0.000000
# 6 0.000000 0.000000 0.000000 0.000000 0.000000 0.010697
#
#
# Mechanical properties :
#
#
# Convention : Reuss Voigt Hill
#
# Bulk Modulus (GPa) = 62.07057 65.22732 63.64895
# Shear Modulus (GPa) = 40.65412 48.81361 44.73386
#
# Velocity S-wave (km/s) = 4.03816 4.42488 4.23593
# Velocity P-wave (km/s) = 6.82930 7.22975 7.03238
#
# Compressibility (1/GPa) = 0.01611069
#
# Stress axis : x y z
#
# Youngs Moduli (GPa) = 112.04708 83.65235 106.39499
#
# Poissons Ratio (x) = 0.38668 0.14469
# Poissons Ratio (y) = 0.51794 0.11716
# Poissons Ratio (z) = 0.15238 0.09212
#
# Static dielectric constant tensor:
#      x y z
#    x 4.418310 0.000000 0.000000 
#    y 0.000000 4.502980 0.000000 
#    z 0.000000 0.000000 4.959210 
# 
# 
# High freq. dielectric constant tensor:
#      x y z
#    x 1.979040 0.000000 0.000000 
#    y 0.000000 2.002210 0.000000 
#    z 0.000000 0.000000 2.020700 
# 
# From -- ./inp_files/2353.got.cif
#   From: 2010.03.12/outbox.cif.g09.slc.cpg/sg60_2_cif.got.tgz:2353.got - 2010.04.10 18:46:24.
