data_PCOD8247319
_publ_section_title
;
Structure prediction by ZEFSAII (Michael W. Deem and Ramdas Pophale) SiO2 
 PCOD8247319
Probable space group: P B C N
;
_chemical_formula_sum "Si O2"
_cell_formula_units_Z 56
_cell_length_a 19.553626
_cell_length_b 15.362301
_cell_length_c 8.834131
_cell_angle_alpha 90.000000
_cell_angle_beta 90.000000
_cell_angle_gamma 90.000000
_cell_volume 2653.673023
_symmetry_space_group_name_H-M "P B C N"
_symmetry_group_IT_number 60
_symmetry_cell_setting 'orthorhombic'
loop_
_space_group_symop_operation_xyz
x,y,z
1/2-x,1/2-y,1/2+z
1/2+x,1/2-y,-z
-x,y,1/2-z
-x,-y,-z
1/2+x,1/2+y,1/2-z
1/2-x,1/2+y,z
x,-y,1/2+z
loop_
_atom_site_type_symbol
_atom_site_label
_atom_site_fract_x
_atom_site_fract_y
_atom_site_fract_z
Si Si1 0.162619 0.615909 0.967173
Si Si2 0.826759 0.554950 0.202155
Si Si3 0.036490 0.922699 0.908087
Si Si4 0.673602 0.470046 0.735762
Si Si5 0.053241 0.259212 0.550937
Si Si6 0.094344 0.286405 0.887491
Si Si7 0.817784 0.125043 0.544765
O O1 0.151690 0.543078 0.839578
O O2 0.238973 0.656345 0.966104
O O3 0.148830 0.568992 0.126840
O O4 0.106860 0.692486 0.938827
O O5 0.745792 0.568018 0.178915
O O6 0.862025 0.625805 0.093552
O O7 0.116028 0.934207 0.875059
O O8 0.000000 0.908326 0.750000
O O9 0.032352 0.837913 0.009639
O O10 0.000000 0.000000 0.000000
O O11 0.672639 0.575048 0.706179
O O12 0.662883 0.444001 0.911015
O O13 0.088143 0.257050 0.714184
O O14 0.980393 0.308763 0.546264
O O15 0.133150 0.207929 0.973560
#
# Coordination Sequence:
#
# PCOD8247319 Si02
#       7
#     8   8   8   8   8   8   8
#     4   9  20  42  62  92 121 161 204 258 311 366
#     4   9  20  40  63  88 117 158 206 252 312 363
#     4  12  26  40  62  89 126 166 203 250 306 365
#     4  10  21  38  58  86 120 155 205 247 299 370
#     4  10  23  40  61  89 126 159 208 253 307 375
#     4  10  21  39  63  88 121 164 204 251 314 369
#     4  10  21  38  63  89 123 160 204 251 306 368
#
# _framework density 21.102826
#
# number of rings (size 3 to 8) (size 9 to 14) (size 15 to 20)
#    0.000    2.000    0.000    2.571    8.000    0.571 
#    5.143    0.000    0.000    0.000    0.000    0.000 
#    0.000    0.000    0.000    0.000    0.000    0.000 
#
# Total GULP energy -694175.094854 kJ/mol
# GULP energy per Si atom -12395.983837 kJ/mol
# Density = 2.105480 g / cm^3
# Si number density = 21.102826 Si / 1000 Ang^3
#
#
#
# Elastic Constant Matrix: (Units=GPa)
#
#
# Indices 1 2 3 4 5 6 
#
# 1 115.4528 49.3955 28.4314 0.0000 0.0000 0.0000
# 2 49.3955 83.9213 22.5723 0.0000 0.0000 0.0000
# 3 28.4314 22.5723 43.7240 0.0000 0.0000 0.0000
# 4 0.0000 0.0000 0.0000 29.6851 0.0000 0.0000
# 5 0.0000 0.0000 0.0000 0.0000 25.9863 0.0000
# 6 0.0000 0.0000 0.0000 0.0000 0.0000 41.5675
#
#
#
# Elastic Compliance Matrix: (Units=1/GPa)
#
#
# Indices 1 2 3 4 5 6 
#
# 1 0.012455 -0.005984 -0.005010 0.000000 0.000000 0.000000
# 2 -0.005984 0.016712 -0.004737 0.000000 0.000000 0.000000
# 3 -0.005010 -0.004737 0.028574 0.000000 0.000000 0.000000
# 4 0.000000 0.000000 0.000000 0.033687 0.000000 0.000000
# 5 0.000000 0.000000 0.000000 0.000000 0.038482 0.000000
# 6 0.000000 0.000000 0.000000 0.000000 0.000000 0.024057
#
#
# Mechanical properties :
#
#
# Convention : Reuss Voigt Hill
#
# Bulk Modulus (GPa) = 38.05108 49.32183 43.68646
# Shear Modulus (GPa) = 25.74831 28.96105 27.35468
#
# Velocity S-wave (km/s) = 3.49683 3.70858 3.60426
# Velocity P-wave (km/s) = 5.86295 6.46227 6.16989
#
# Compressibility (1/GPa) = 0.02628046
#
# Stress axis : x y z
#
# Youngs Moduli (GPa) = 80.28688 59.83787 34.99716
#
# Poissons Ratio (x) = 0.35804 0.17534
# Poissons Ratio (y) = 0.48040 0.16577
# Poissons Ratio (z) = 0.40224 0.28343
#
# Static dielectric constant tensor:
#      x y z
#    x 4.178590 0.000000 0.000000 
#    y 0.000000 3.734240 0.000000 
#    z 0.000000 0.000000 3.884900 
# 
# 
# High freq. dielectric constant tensor:
#      x y z
#    x 1.846770 0.000000 0.000000 
#    y 0.000000 1.814020 0.000000 
#    z 0.000000 0.000000 1.810720 
# 
# From -- ./inp_files/7403.got.cif
#   From: 2010.03.12/outbox.cif.g09.slc.cpg/sg60_4_cif.got.tgz:7403.got - 2010.04.10 18:46:24.
