data_PCOD8247032
_publ_section_title
;
Structure prediction by ZEFSAII (Michael W. Deem and Ramdas Pophale) SiO2 
 PCOD8247032
Probable space group: P B C N
;
_chemical_formula_sum "Si O2"
_cell_formula_units_Z 56
_cell_length_a 5.350269
_cell_length_b 22.333954
_cell_length_c 22.451053
_cell_angle_alpha 90.000000
_cell_angle_beta 90.000000
_cell_angle_gamma 90.000000
_cell_volume 2682.736082
_symmetry_space_group_name_H-M "P B C N"
_symmetry_group_IT_number 60
_symmetry_cell_setting 'orthorhombic'
loop_
_space_group_symop_operation_xyz
x,y,z
1/2-x,1/2-y,1/2+z
1/2+x,1/2-y,-z
-x,y,1/2-z
-x,-y,-z
1/2+x,1/2+y,1/2-z
1/2-x,1/2+y,z
x,-y,1/2+z
loop_
_atom_site_type_symbol
_atom_site_label
_atom_site_fract_x
_atom_site_fract_y
_atom_site_fract_z
Si Si1 0.393272 0.073810 0.528849
Si Si2 0.200602 0.121661 0.416534
Si Si3 0.386879 0.374328 0.415950
Si Si4 0.242730 0.749528 0.463392
Si Si5 0.900031 0.956779 0.183799
Si Si6 0.920225 0.433406 0.686186
Si Si7 0.290576 0.536654 0.092291
O O1 0.417340 0.091465 0.458348
O O2 0.664086 0.087862 0.554857
O O3 0.161987 0.113226 0.555918
O O4 0.345440 0.002918 0.541102
O O5 0.182092 0.192429 0.423778
O O6 0.205143 0.106905 0.345158
O O7 0.960218 0.085456 0.441829
O O8 0.331848 0.303964 0.420651
O O9 0.365561 0.391299 0.345440
O O10 0.495353 0.767307 0.498683
O O11 0.000000 0.949180 0.250000
O O12 0.649351 0.996431 0.191174
O O13 0.072414 0.990017 0.136020
O O14 0.000000 0.407102 0.750000
O O15 0.130318 0.423799 0.637354
#
# Coordination Sequence:
#
# PCOD8247032 Si02
#       7
#     8   8   8   8   8   8   8
#     4  11  22  40  62  97 135 161 208 272 337 384
#     4  11  25  37  62  95 130 174 214 272 325 397
#     4  11  22  40  65  96 125 168 220 267 313 391
#     4  12  24  44  66  90 131 176 221 262 324 398
#     4  10  20  38  62  94 126 169 213 268 326 386
#     4  11  22  39  63  90 129 170 217 259 332 398
#     4  10  22  37  61  95 131 163 211 269 329 398
#
# _framework density 20.874210999999999
#
# number of rings (size 3 to 8) (size 9 to 14) (size 15 to 20)
#    0.000    1.143    5.714    0.429    4.000    0.571 
#    0.000    0.714    0.000    0.000   11.143    0.000 
#    0.000    0.000    0.000    0.000    0.000    0.000 
#
# Total GULP energy -693801.266652 kJ/mol
# GULP energy per Si atom -12389.308333 kJ/mol
# Density = 2.082670 g / cm^3
# Si number density = 20.874211 Si / 1000 Ang^3
#
#
#
# Elastic Constant Matrix: (Units=GPa)
#
#
# Indices 1 2 3 4 5 6 
#
# 1 80.9631 9.3266 17.1355 0.0000 0.0000 0.0000
# 2 9.3266 129.4521 32.0042 0.0000 0.0000 0.0000
# 3 17.1355 32.0042 111.3313 0.0000 0.0000 0.0000
# 4 0.0000 0.0000 0.0000 19.2347 0.0000 0.0000
# 5 0.0000 0.0000 0.0000 0.0000 25.3411 0.0000
# 6 0.0000 0.0000 0.0000 0.0000 0.0000 17.2906
#
#
#
# Elastic Compliance Matrix: (Units=1/GPa)
#
#
# Indices 1 2 3 4 5 6 
#
# 1 0.012794 -0.000468 -0.001835 0.000000 0.000000 0.000000
# 2 -0.000468 0.008333 -0.002323 0.000000 0.000000 0.000000
# 3 -0.001835 -0.002323 0.009932 0.000000 0.000000 0.000000
# 4 0.000000 0.000000 0.000000 0.051989 0.000000 0.000000
# 5 0.000000 0.000000 0.000000 0.000000 0.039462 0.000000
# 6 0.000000 0.000000 0.000000 0.000000 0.000000 0.057835
#
#
# Mechanical properties :
#
#
# Convention : Reuss Voigt Hill
#
# Bulk Modulus (GPa) = 45.85736 48.74211 47.29974
# Shear Modulus (GPa) = 25.39796 29.92527 27.66162
#
# Velocity S-wave (km/s) = 3.49193 3.79040 3.64422
# Velocity P-wave (km/s) = 6.18661 6.52359 6.35734
#
# Compressibility (1/GPa) = 0.02180675
#
# Stress axis : x y z
#
# Youngs Moduli (GPa) = 78.16467 120.00462 100.67995
#
# Poissons Ratio (x) = 0.05618 0.18470
# Poissons Ratio (y) = 0.03660 0.23392
# Poissons Ratio (z) = 0.14339 0.27882
#
# Static dielectric constant tensor:
#      x y z
#    x 4.167970 0.000000 0.000000 
#    y 0.000000 3.690620 0.000000 
#    z 0.000000 0.000000 3.827580 
# 
# 
# High freq. dielectric constant tensor:
#      x y z
#    x 1.838320 0.000000 0.000000 
#    y 0.000000 1.795850 0.000000 
#    z 0.000000 0.000000 1.811000 
# 
# From -- ./inp_files/21731.got.cif
#   From: 2010.03.12/outbox.cif.g09.slc.cpg/sg60_11_cif.got.tgz:21731.got - 2010.04.10 18:46:24.
