data_PCOD8247148
_publ_section_title
;
Structure prediction by ZEFSAII (Michael W. Deem and Ramdas Pophale) SiO2 
 PCOD8247148
Probable space group: P B C N
;
_chemical_formula_sum "Si O2"
_cell_formula_units_Z 48
_cell_length_a 28.210791
_cell_length_b 8.608600
_cell_length_c 9.350935
_cell_angle_alpha 90.000000
_cell_angle_beta 90.000000
_cell_angle_gamma 90.000000
_cell_volume 2270.925204
_symmetry_space_group_name_H-M "P B C N"
_symmetry_group_IT_number 60
_symmetry_cell_setting 'orthorhombic'
loop_
_space_group_symop_operation_xyz
x,y,z
1/2-x,1/2-y,1/2+z
1/2+x,1/2-y,-z
-x,y,1/2-z
-x,-y,-z
1/2+x,1/2+y,1/2-z
1/2-x,1/2+y,z
x,-y,1/2+z
loop_
_atom_site_type_symbol
_atom_site_label
_atom_site_fract_x
_atom_site_fract_y
_atom_site_fract_z
Si Si1 0.883611 0.881328 0.981867
Si Si2 0.219958 0.368871 0.748539
Si Si3 0.129261 0.173085 0.703159
Si Si4 0.959607 0.628603 0.364307
Si Si5 0.294598 0.180739 0.580714
Si Si6 0.477234 0.776905 0.104965
O O1 0.848309 0.741958 0.937152
O O2 0.937424 0.843782 0.940667
O O3 0.869581 0.046181 0.919177
O O4 0.881547 0.912590 0.149617
O O5 0.180723 0.246596 0.702862
O O6 0.266582 0.318755 0.660821
O O7 0.205457 0.538269 0.691888
O O8 0.226265 0.366606 0.922751
O O9 0.091049 0.308465 0.681515
O O10 0.952940 0.445879 0.389608
O O11 0.000000 0.660642 0.250000
O O12 0.976994 0.719426 0.503489
O O13 0.500000 0.717055 0.250000
#
# Coordination Sequence:
#
# PCOD8247148 Si02
#       6
#     8   8   8   8   8   8
#     4  11  25  42  60  91 127 164 209 254 311 369
#     4  11  24  44  68  97 128 165 208 257 315 373
#     4  11  25  41  62  90 126 165 207 257 308 370
#     4  10  20  41  63  86 124 160 206 258 309 367
#     4  11  24  44  69  96 129 164 208 259 312 377
#     4  10  22  39  63  91 119 163 210 256 313 371
#
# _framework density 21.136762000000001
#
# number of rings (size 3 to 8) (size 9 to 14) (size 15 to 20)
#    0.000    1.333    1.667    3.000    2.333    6.667 
#    0.000    0.000    0.000    0.000    0.000    0.000 
#    0.000    0.000    0.000    0.000    0.000    0.000 
#
# Total GULP energy -595261.884128 kJ/mol
# GULP energy per Si atom -12401.289253 kJ/mol
# Density = 2.108865 g / cm^3
# Si number density = 21.136762 Si / 1000 Ang^3
#
#
#
# Elastic Constant Matrix: (Units=GPa)
#
#
# Indices 1 2 3 4 5 6 
#
# 1 57.9874 -9.8553 4.1807 0.0000 0.0000 0.0000
# 2 -9.8553 65.0541 9.5444 0.0000 0.0000 0.0000
# 3 4.1807 9.5444 75.1394 0.0000 0.0000 0.0000
# 4 0.0000 0.0000 0.0000 59.3488 0.0000 0.0000
# 5 0.0000 0.0000 0.0000 0.0000 61.2421 0.0000
# 6 0.0000 0.0000 0.0000 0.0000 0.0000 77.2771
#
#
#
# Elastic Compliance Matrix: (Units=1/GPa)
#
#
# Indices 1 2 3 4 5 6 
#
# 1 0.017836 0.002902 -0.001361 0.000000 0.000000 0.000000
# 2 0.002902 0.016136 -0.002211 0.000000 0.000000 0.000000
# 3 -0.001361 -0.002211 0.013665 0.000000 0.000000 0.000000
# 4 0.000000 0.000000 0.000000 0.016850 0.000000 0.000000
# 5 0.000000 0.000000 0.000000 0.000000 0.016329 0.000000
# 6 0.000000 0.000000 0.000000 0.000000 0.000000 0.012940
#
#
# Mechanical properties :
#
#
# Convention : Reuss Voigt Hill
#
# Bulk Modulus (GPa) = 21.59973 22.88005 22.23989
# Shear Modulus (GPa) = 45.23706 52.52768 48.88237
#
# Velocity S-wave (km/s) = 4.63126 4.99052 4.81424
# Velocity P-wave (km/s) = 6.23212 6.63742 6.43796
#
# Compressibility (1/GPa) = 0.04629688
#
# Stress axis : x y z
#
# Youngs Moduli (GPa) = 56.06509 61.97393 73.17873
#
# Poissons Ratio (x) = -0.17984 0.09960
# Poissons Ratio (y) = -0.16269 0.16180
# Poissons Ratio (z) = 0.07630 0.13703
#
# Static dielectric constant tensor:
#      x y z
#    x 4101.967160 0.000000 0.000000 
#    y 0.000000 3.674010 0.000000 
#    z 0.000000 0.000000 4.070470 
# 
# 
# High freq. dielectric constant tensor:
#      x y z
#    x 1.834160 0.000000 0.000000 
#    y 0.000000 1.825860 0.000000 
#    z 0.000000 0.000000 1.844830 
# 
# From -- ./inp_files/8388.got.cif
#   From: 2010.03.12/outbox.cif.g09.slc.cpg/sg60_5_cif.got.tgz:8388.got - 2010.04.10 18:46:24.
