data_PCOD8247324
_publ_section_title
;
Structure prediction by ZEFSAII (Michael W. Deem and Ramdas Pophale) SiO2 
 PCOD8247324
Probable space group: P B C N
;
_chemical_formula_sum "Si O2"
_cell_formula_units_Z 64
_cell_length_a 17.414971
_cell_length_b 14.476225
_cell_length_c 12.405848
_cell_angle_alpha 90.000000
_cell_angle_beta 90.000000
_cell_angle_gamma 90.000000
_cell_volume 3127.551977
_symmetry_space_group_name_H-M "P B C N"
_symmetry_group_IT_number 60
_symmetry_cell_setting 'orthorhombic'
loop_
_space_group_symop_operation_xyz
x,y,z
1/2-x,1/2-y,1/2+z
1/2+x,1/2-y,-z
-x,y,1/2-z
-x,-y,-z
1/2+x,1/2+y,1/2-z
1/2-x,1/2+y,z
x,-y,1/2+z
loop_
_atom_site_type_symbol
_atom_site_label
_atom_site_fract_x
_atom_site_fract_y
_atom_site_fract_z
Si Si1 0.662221 0.982214 0.173486
Si Si2 0.585591 0.809973 0.949112
Si Si3 0.585955 0.167235 0.088956
Si Si4 0.177824 0.730030 0.607803
Si Si5 0.237488 0.593689 0.028717
Si Si6 0.913984 0.173118 0.762014
Si Si7 0.079995 0.695602 0.802393
Si Si8 0.279973 0.564838 0.662777
O O1 0.590904 0.915581 0.203238
O O2 0.716035 0.996504 0.275659
O O3 0.632221 0.078723 0.129699
O O4 0.718942 0.924681 0.095385
O O5 0.504437 0.856642 0.915677
O O6 0.652190 0.884605 0.921086
O O7 0.596559 0.719244 0.878286
O O8 0.586646 0.773667 0.072920
O O9 0.604160 0.253496 0.167364
O O10 0.611437 0.187571 0.967236
O O11 0.207373 0.820265 0.547972
O O12 0.144490 0.746818 0.728401
O O13 0.249203 0.661434 0.617904
O O14 0.289426 0.506153 0.064770
O O15 0.855735 0.085661 0.764944
O O16 0.000000 0.133586 0.750000
O O17 0.000000 0.723967 0.750000
#
# Coordination Sequence:
#
# PCOD8247324 Si02
#       8
#     8   8   8   8   8   8   8   8
#     4  10  23  35  60  96 126 165 203 262 321 391
#     4  10  21  39  65  96 129 164 215 260 325 391
#     4  11  21  39  67  95 129 165 209 266 331 383
#     4  11  22  39  65  91 129 170 209 267 317 385
#     4  11  22  40  60  93 124 164 217 258 317 375
#     4  10  22  40  65  91 123 173 217 264 314 378
#     4  10  21  38  59  93 130 168 204 259 325 381
#     4  11  22  42  61  90 130 162 216 259 317 379
#
# _framework density 20.463287999999999
#
# number of rings (size 3 to 8) (size 9 to 14) (size 15 to 20)
#    0.000    1.500    3.750    1.500    0.000    5.500 
#    2.250    0.625    0.000    2.250    0.000    0.000 
#    0.000    0.000    0.000    0.000    0.000    0.000 
#
# Total GULP energy -793101.226795 kJ/mol
# GULP energy per Si atom -12392.206669 kJ/mol
# Density = 2.041671 g / cm^3
# Si number density = 20.463288 Si / 1000 Ang^3
#
#
#
# Elastic Constant Matrix: (Units=GPa)
#
#
# Indices 1 2 3 4 5 6 
#
# 1 77.7506 33.4681 15.6234 0.0000 0.0000 0.0000
# 2 33.4681 58.4571 9.6263 0.0000 0.0000 0.0000
# 3 15.6234 9.6263 75.1141 0.0000 0.0000 0.0000
# 4 0.0000 0.0000 0.0000 18.3782 0.0000 0.0000
# 5 0.0000 0.0000 0.0000 0.0000 29.1629 0.0000
# 6 0.0000 0.0000 0.0000 0.0000 0.0000 28.5208
#
#
#
# Elastic Compliance Matrix: (Units=1/GPa)
#
#
# Indices 1 2 3 4 5 6 
#
# 1 0.017483 -0.009613 -0.002404 0.000000 0.000000 0.000000
# 2 -0.009613 0.022762 -0.000917 0.000000 0.000000 0.000000
# 3 -0.002404 -0.000917 0.013931 0.000000 0.000000 0.000000
# 4 0.000000 0.000000 0.000000 0.054412 0.000000 0.000000
# 5 0.000000 0.000000 0.000000 0.000000 0.034290 0.000000
# 6 0.000000 0.000000 0.000000 0.000000 0.000000 0.035062
#
#
# Mechanical properties :
#
#
# Convention : Reuss Voigt Hill
#
# Bulk Modulus (GPa) = 35.32983 36.52860 35.92921
# Shear Modulus (GPa) = 23.44716 25.38597 24.41656
#
# Velocity S-wave (km/s) = 3.38866 3.52598 3.45800
# Velocity P-wave (km/s) = 5.71079 5.87080 5.79135
#
# Compressibility (1/GPa) = 0.02830470
#
# Stress axis : x y z
#
# Youngs Moduli (GPa) = 57.19869 43.93371 71.78366
#
# Poissons Ratio (x) = 0.42235 0.17259
# Poissons Ratio (y) = 0.54988 0.06586
# Poissons Ratio (z) = 0.13753 0.04031
#
# Static dielectric constant tensor:
#      x y z
#    x 3.787880 0.000000 0.000000 
#    y 0.000000 3.305160 0.000000 
#    z 0.000000 0.000000 3.883280 
# 
# 
# High freq. dielectric constant tensor:
#      x y z
#    x 1.802650 0.000000 0.000000 
#    y 0.000000 1.766610 0.000000 
#    z 0.000000 0.000000 1.813890 
# 
# From -- ./inp_files/12566.got.cif
#   From: 2010.03.12/outbox.cif.g09.slc.cpg/sg60_7_cif.got.tgz:12566.got - 2010.04.10 18:46:24.
