data_PCOD8247108
_publ_section_title
;
Structure prediction by ZEFSAII (Michael W. Deem and Ramdas Pophale) SiO2 
 PCOD8247108
Probable space group: P B C N
;
_chemical_formula_sum "Si O2"
_cell_formula_units_Z 60
_cell_length_a 21.919813
_cell_length_b 8.745797
_cell_length_c 12.192042
_cell_angle_alpha 90.000000
_cell_angle_beta 90.000000
_cell_angle_gamma 90.000000
_cell_volume 2337.290466
_symmetry_space_group_name_H-M "P B C N"
_symmetry_group_IT_number 60
_symmetry_cell_setting 'orthorhombic'
loop_
_space_group_symop_operation_xyz
x,y,z
1/2-x,1/2-y,1/2+z
1/2+x,1/2-y,-z
-x,y,1/2-z
-x,-y,-z
1/2+x,1/2+y,1/2-z
1/2-x,1/2+y,z
x,-y,1/2+z
loop_
_atom_site_type_symbol
_atom_site_label
_atom_site_fract_x
_atom_site_fract_y
_atom_site_fract_z
Si Si1 0.588408 0.932587 0.868332
Si Si2 0.798842 0.400827 0.261679
Si Si3 0.700597 0.595173 0.971165
Si Si4 0.822856 0.948779 0.726967
Si Si5 0.574532 0.583393 0.890555
Si Si6 0.500000 0.858135 0.250000
Si Si7 0.548939 0.421762 0.648113
Si Si8 0.316809 0.936881 0.486695
O O1 0.651239 0.981981 0.808760
O O2 0.569835 0.757135 0.847858
O O3 0.610380 0.966712 0.994266
O O4 0.531799 0.037073 0.840215
O O5 0.725948 0.436202 0.287519
O O6 0.814208 0.222259 0.275676
O O7 0.800445 0.451157 0.136657
O O8 0.646581 0.519568 0.889205
O O9 0.695989 0.774313 0.957931
O O10 0.771834 0.552514 0.944476
O O11 0.688184 0.546960 0.096085
O O12 0.896799 0.001774 0.725212
O O13 0.520312 0.486450 0.831903
O O14 0.564024 0.573338 0.021153
O O15 0.451119 0.756083 0.315987
#
# Coordination Sequence:
#
# PCOD8247108 Si02
#       8
#     8   8   8   8   8   4   8   8
#     4  11  24  41  62  95 127 170 222 272 330 395
#     4  10  20  40  62  94 129 165 216 271 326 388
#     4   8  16  33  60  90 125 161 213 263 315 392
#     4   9  18  38  63  88 127 170 205 260 332 383
#     4   9  21  42  68  95 128 175 221 270 327 394
#     4  12  26  42  64  92 132 170 216 268 324 402
#     4  10  21  45  66  92 135 174 216 270 330 396
#     4   9  19  36  60  88 127 167 211 270 325 386
#
# _framework density 25.670750999999999
#
# number of rings (size 3 to 8) (size 9 to 14) (size 15 to 20)
#    0.000    2.400    1.333    0.800    0.000    4.267 
#    7.200    2.667    0.000    0.000    0.000    0.000 
#    0.000    0.000    0.000    0.000    0.000    0.000 
#
# Total GULP energy -743466.787436 kJ/mol
# GULP energy per Si atom -12391.113124 kJ/mol
# Density = 2.561232 g / cm^3
# Si number density = 25.670751 Si / 1000 Ang^3
#
#
#
# Elastic Constant Matrix: (Units=GPa)
#
#
# Indices 1 2 3 4 5 6 
#
# 1 153.4846 48.3966 35.8289 0.0000 0.0000 0.0000
# 2 48.3966 75.9324 9.1736 0.0000 0.0000 0.0000
# 3 35.8289 9.1736 55.7505 0.0000 0.0000 0.0000
# 4 0.0000 0.0000 0.0000 69.4698 0.0000 0.0000
# 5 0.0000 0.0000 0.0000 0.0000 44.1559 0.0000
# 6 0.0000 0.0000 0.0000 0.0000 0.0000 84.0365
#
#
#
# Elastic Compliance Matrix: (Units=1/GPa)
#
#
# Indices 1 2 3 4 5 6 
#
# 1 0.009417 -0.005378 -0.005167 0.000000 0.000000 0.000000
# 2 -0.005378 0.016508 0.000740 0.000000 0.000000 0.000000
# 3 -0.005167 0.000740 0.021136 0.000000 0.000000 0.000000
# 4 0.000000 0.000000 0.000000 0.014395 0.000000 0.000000
# 5 0.000000 0.000000 0.000000 0.000000 0.022647 0.000000
# 6 0.000000 0.000000 0.000000 0.000000 0.000000 0.011900
#
#
# Mechanical properties :
#
#
# Convention : Reuss Voigt Hill
#
# Bulk Modulus (GPa) = 36.42889 52.44065 44.43477
# Shear Modulus (GPa) = 40.07575 52.31699 46.19637
#
# Velocity S-wave (km/s) = 3.95542 4.51932 4.24674
# Velocity P-wave (km/s) = 5.92301 6.90687 6.43377
#
# Compressibility (1/GPa) = 0.02745074
#
# Stress axis : x y z
#
# Youngs Moduli (GPa) = 106.18723 60.57685 47.31232
#
# Poissons Ratio (x) = 0.32578 0.24448
# Poissons Ratio (y) = 0.57107 -0.03501
# Poissons Ratio (z) = 0.54870 -0.04482
#
# Static dielectric constant tensor:
#      x y z
#    x 5.642990 0.000000 0.000000 
#    y 0.000000 4.315050 0.000000 
#    z 0.000000 0.000000 5.582850 
# 
# 
# High freq. dielectric constant tensor:
#      x y z
#    x 2.072180 0.000000 0.000000 
#    y 0.000000 1.991340 0.000000 
#    z 0.000000 0.000000 2.101150 
# 
# From -- ./inp_files/17908.got.cif
#   From: 2010.03.12/outbox.cif.g09.slc.cpg/sg60_9_cif.got.tgz:17908.got - 2010.04.10 18:46:24.
