data_PCOD8247931
_publ_section_title
;
Structure prediction by ZEFSAII (Michael W. Deem and Ramdas Pophale) SiO2 
 PCOD8247931
Probable space group: P B C N
;
_chemical_formula_sum "Si O2"
_cell_formula_units_Z 64
_cell_length_a 9.621050
_cell_length_b 14.137014
_cell_length_c 23.291904
_cell_angle_alpha 90.000000
_cell_angle_beta 90.000000
_cell_angle_gamma 90.000000
_cell_volume 3167.999842
_symmetry_space_group_name_H-M "P B C N"
_symmetry_group_IT_number 60
_symmetry_cell_setting 'orthorhombic'
loop_
_space_group_symop_operation_xyz
x,y,z
1/2-x,1/2-y,1/2+z
1/2+x,1/2-y,-z
-x,y,1/2-z
-x,-y,-z
1/2+x,1/2+y,1/2-z
1/2-x,1/2+y,z
x,-y,1/2+z
loop_
_atom_site_type_symbol
_atom_site_label
_atom_site_fract_x
_atom_site_fract_y
_atom_site_fract_z
Si Si1 0.189114 0.490297 0.333492
Si Si2 0.098660 0.575997 0.619199
Si Si3 0.188076 0.254742 0.049440
Si Si4 0.956041 0.004138 0.093971
Si Si5 0.220917 0.093145 0.136381
Si Si6 0.845014 0.338976 0.261102
Si Si7 0.051688 0.856644 0.007639
Si Si8 0.837479 0.658817 0.245380
O O1 0.324789 0.469150 0.370289
O O2 0.189305 0.430611 0.275667
O O3 0.186244 0.599783 0.313336
O O4 0.057382 0.459862 0.371269
O O5 0.103906 0.650949 0.567473
O O6 0.189009 0.484530 0.602066
O O7 0.168670 0.628870 0.673349
O O8 0.232150 0.193724 0.104939
O O9 0.326675 0.280703 0.014857
O O10 0.092376 0.194584 0.007031
O O11 0.060694 0.059037 0.136651
O O12 0.904467 0.072547 0.043157
O O13 0.031773 0.912645 0.067231
O O14 0.278905 0.100461 0.200606
O O15 0.738878 0.258507 0.241941
O O16 0.000000 0.299932 0.250000
O O17 0.000000 0.678630 0.250000
#
# Coordination Sequence:
#
# PCOD8247931 Si02
#       8
#     8   8   8   8   8   8   8   8
#     4  11  24  40  64  95 130 167 208 262 307 384
#     4  11  21  43  64  91 132 170 203 258 327 379
#     4  11  24  42  70  91 125 169 213 270 326 384
#     4  10  24  44  65  88 129 167 217 271 317 375
#     4  11  22  41  66  91 125 175 204 254 334 378
#     4  10  23  40  61  91 131 169 206 250 312 383
#     4  10  24  45  63  94 124 163 221 275 318 374
#     4  12  23  40  61  96 134 162 211 256 307 390
#
# _framework density 20.202023000000001
#
# number of rings (size 3 to 8) (size 9 to 14) (size 15 to 20)
#    0.000    1.250    5.000    0.375    3.500    4.000 
#    0.000    1.250    0.000    0.000    0.000    0.000 
#    0.000    0.000    0.000    0.000    0.000    0.000 
#
# Total GULP energy -793850.450591 kJ/mol
# GULP energy per Si atom -12403.913290 kJ/mol
# Density = 2.015604 g / cm^3
# Si number density = 20.202023 Si / 1000 Ang^3
#
#
#
# Elastic Constant Matrix: (Units=GPa)
#
#
# Indices 1 2 3 4 5 6 
#
# 1 113.5220 37.3943 39.9477 0.0000 0.0000 0.0000
# 2 37.3943 66.3500 -0.2575 0.0000 0.0000 0.0000
# 3 39.9477 -0.2575 41.6423 0.0000 0.0000 0.0000
# 4 0.0000 0.0000 0.0000 10.2438 0.0000 0.0000
# 5 0.0000 0.0000 0.0000 0.0000 28.7662 0.0000
# 6 0.0000 0.0000 0.0000 0.0000 0.0000 42.1878
#
#
#
# Elastic Compliance Matrix: (Units=1/GPa)
#
#
# Indices 1 2 3 4 5 6 
#
# 1 0.018572 -0.010536 -0.017881 0.000000 0.000000 0.000000
# 2 -0.010536 0.021050 0.010238 0.000000 0.000000 0.000000
# 3 -0.017881 0.010238 0.041231 0.000000 0.000000 0.000000
# 4 0.000000 0.000000 0.000000 0.097620 0.000000 0.000000
# 5 0.000000 0.000000 0.000000 0.000000 0.034763 0.000000
# 6 0.000000 0.000000 0.000000 0.000000 0.000000 0.023704
#
#
# Mechanical properties :
#
#
# Convention : Reuss Voigt Hill
#
# Bulk Modulus (GPa) = 22.47562 41.74261 32.10912
# Shear Modulus (GPa) = 17.35330 25.86819 21.61074
#
# Velocity S-wave (km/s) = 2.93403 3.58225 3.27422
# Velocity P-wave (km/s) = 4.75685 6.14959 5.49751
#
# Compressibility (1/GPa) = 0.04449265
#
# Stress axis : x y z
#
# Youngs Moduli (GPa) = 53.84481 47.50700 24.25357
#
# Poissons Ratio (x) = 0.50055 0.43369
# Poissons Ratio (y) = 0.56733 -0.24830
# Poissons Ratio (z) = 0.96282 -0.48637
#
# Static dielectric constant tensor:
#      x y z
#    x 3.652400 0.000000 0.000000 
#    y 0.000000 3.802490 0.000000 
#    z 0.000000 0.000000 3.536880 
# 
# 
# High freq. dielectric constant tensor:
#      x y z
#    x 1.793230 0.000000 0.000000 
#    y 0.000000 1.802100 0.000000 
#    z 0.000000 0.000000 1.774940 
# 
# From -- ./inp_files/24062.got.cif
#   From: 2010.03.12/outbox.cif.g09.slc.cpg/sg60_13_cif.got.tgz:24062.got - 2010.04.10 18:46:24.
