data_PCOD8247386
_publ_section_title
;
Structure prediction by ZEFSAII (Michael W. Deem and Ramdas Pophale) SiO2 
 PCOD8247386
Probable space group: P B C N
;
_chemical_formula_sum "Si O2"
_cell_formula_units_Z 64
_cell_length_a 15.952107
_cell_length_b 12.548696
_cell_length_c 14.852350
_cell_angle_alpha 90.000000
_cell_angle_beta 90.000000
_cell_angle_gamma 90.000000
_cell_volume 2973.115817
_symmetry_space_group_name_H-M "P B C N"
_symmetry_group_IT_number 60
_symmetry_cell_setting 'orthorhombic'
loop_
_space_group_symop_operation_xyz
x,y,z
1/2-x,1/2-y,1/2+z
1/2+x,1/2-y,-z
-x,y,1/2-z
-x,-y,-z
1/2+x,1/2+y,1/2-z
1/2-x,1/2+y,z
x,-y,1/2+z
loop_
_atom_site_type_symbol
_atom_site_label
_atom_site_fract_x
_atom_site_fract_y
_atom_site_fract_z
Si Si1 0.632223 0.495971 0.679015
Si Si2 0.197527 0.398228 0.777389
Si Si3 0.659234 0.968587 0.914493
Si Si4 0.676441 0.378772 0.997737
Si Si5 0.405732 0.704972 0.724349
Si Si6 0.362180 0.846558 0.958961
Si Si7 0.998651 0.096984 0.430546
Si Si8 0.951192 0.718710 0.457790
O O1 0.702388 0.416840 0.720218
O O2 0.660450 0.548126 0.584744
O O3 0.613729 0.583738 0.753635
O O4 0.543179 0.436446 0.662701
O O5 0.152742 0.463581 0.695321
O O6 0.168801 0.275209 0.768059
O O7 0.165699 0.427306 0.878425
O O8 0.750735 0.928878 0.939331
O O9 0.592720 0.895434 0.968642
O O10 0.640220 0.088179 0.947275
O O11 0.599049 0.371664 0.926289
O O12 0.697575 0.257516 0.029275
O O13 0.500000 0.741463 0.750000
O O14 0.400493 0.716353 0.617761
O O15 0.452400 0.800438 0.932139
O O16 0.052659 0.201957 0.457858
O O17 0.000000 0.000000 0.500000
#
# Coordination Sequence:
#
# PCOD8247386 Si02
#       8
#     8   8   8   8   8   8   8   8
#     4  11  22  37  63  93 129 172 213 276 337 386
#     4  11  24  39  63  98 130 168 223 276 336 404
#     4  11  25  37  65  99 123 171 223 272 328 406
#     4  10  21  39  60  88 129 169 210 275 332 393
#     4  11  20  39  65  93 124 172 222 272 328 405
#     4  11  21  45  64  88 137 172 215 275 337 398
#     4   9  20  37  60  91 122 164 213 265 328 387
#     4  10  22  39  65  94 123 172 225 266 327 405
#
# _framework density 21.526237999999999
#
# number of rings (size 3 to 8) (size 9 to 14) (size 15 to 20)
#    0.000    1.500    3.750    1.875    1.750    5.000 
#    0.000    0.000    0.000    0.000    0.000    0.000 
#    0.000    0.000    0.000    0.000    0.000    0.000 
#
# Total GULP energy -792998.134187 kJ/mol
# GULP energy per Si atom -12390.595847 kJ/mol
# Density = 2.147724 g / cm^3
# Si number density = 21.526238 Si / 1000 Ang^3
#
#
#
# Elastic Constant Matrix: (Units=GPa)
#
#
# Indices 1 2 3 4 5 6 
#
# 1 82.4293 40.4733 19.6698 0.0000 0.0000 0.0000
# 2 40.4733 91.7376 34.3322 0.0000 0.0000 0.0000
# 3 19.6698 34.3322 63.6461 0.0000 0.0000 0.0000
# 4 0.0000 0.0000 0.0000 34.1968 0.0000 0.0000
# 5 0.0000 0.0000 0.0000 0.0000 31.4600 0.0000
# 6 0.0000 0.0000 0.0000 0.0000 0.0000 30.6258
#
#
#
# Elastic Compliance Matrix: (Units=1/GPa)
#
#
# Indices 1 2 3 4 5 6 
#
# 1 0.015584 -0.006356 -0.001388 0.000000 0.000000 0.000000
# 2 -0.006356 0.016250 -0.006801 0.000000 0.000000 0.000000
# 3 -0.001388 -0.006801 0.019810 0.000000 0.000000 0.000000
# 4 0.000000 0.000000 0.000000 0.029242 0.000000 0.000000
# 5 0.000000 0.000000 0.000000 0.000000 0.031786 0.000000
# 6 0.000000 0.000000 0.000000 0.000000 0.000000 0.032652
#
#
# Mechanical properties :
#
#
# Convention : Reuss Voigt Hill
#
# Bulk Modulus (GPa) = 44.33913 47.41817 45.87865
# Shear Modulus (GPa) = 27.48279 28.81237 28.14758
#
# Velocity S-wave (km/s) = 3.57699 3.66249 3.61999
# Velocity P-wave (km/s) = 6.14021 6.32147 6.23150
#
# Compressibility (1/GPa) = 0.02255344
#
# Stress axis : x y z
#
# Youngs Moduli (GPa) = 64.17038 61.53767 50.48065
#
# Poissons Ratio (x) = 0.39113 0.07004
# Poissons Ratio (y) = 0.40786 0.34334
# Poissons Ratio (z) = 0.08904 0.41855
#
# Static dielectric constant tensor:
#      x y z
#    x 4.007290 0.000000 0.000000 
#    y 0.000000 3.924800 0.000000 
#    z 0.000000 0.000000 3.938390 
# 
# 
# High freq. dielectric constant tensor:
#      x y z
#    x 1.842540 0.000000 0.000000 
#    y 0.000000 1.835180 0.000000 
#    z 0.000000 0.000000 1.835380 
# 
# From -- ./inp_files/17487.got.cif
#   From: 2010.03.12/outbox.cif.g09.slc.cpg/sg60_9_cif.got.tgz:17487.got - 2010.04.10 18:46:24.
