data_PCOD8247385
_publ_section_title
;
Structure prediction by ZEFSAII (Michael W. Deem and Ramdas Pophale) SiO2 
 PCOD8247385
Probable space group: P B C N
;
_chemical_formula_sum "Si O2"
_cell_formula_units_Z 64
_cell_length_a 21.373115
_cell_length_b 8.850298
_cell_length_c 16.729951
_cell_angle_alpha 90.000000
_cell_angle_beta 90.000000
_cell_angle_gamma 90.000000
_cell_volume 3164.611381
_symmetry_space_group_name_H-M "P B C N"
_symmetry_group_IT_number 60
_symmetry_cell_setting 'orthorhombic'
loop_
_space_group_symop_operation_xyz
x,y,z
1/2-x,1/2-y,1/2+z
1/2+x,1/2-y,-z
-x,y,1/2-z
-x,-y,-z
1/2+x,1/2+y,1/2-z
1/2-x,1/2+y,z
x,-y,1/2+z
loop_
_atom_site_type_symbol
_atom_site_label
_atom_site_fract_x
_atom_site_fract_y
_atom_site_fract_z
Si Si1 0.838869 0.477058 0.682184
Si Si2 0.357493 0.167144 0.670993
Si Si3 0.266935 0.301448 0.551808
Si Si4 0.932434 0.104187 0.222298
Si Si5 0.075309 0.773972 0.245787
Si Si6 0.611474 0.233542 0.579249
Si Si7 0.875805 0.367870 0.909502
Si Si8 0.268044 0.565550 0.439855
O O1 0.820482 0.564277 0.764193
O O2 0.884355 0.335673 0.697441
O O3 0.879900 0.576568 0.623305
O O4 0.773055 0.440420 0.640254
O O5 0.313853 0.290176 0.626698
O O6 0.407014 0.266901 0.719037
O O7 0.390434 0.045026 0.611042
O O8 0.198711 0.346866 0.583244
O O9 0.290204 0.406550 0.477714
O O10 0.270058 0.134654 0.514373
O O11 0.935841 0.162394 0.130284
O O12 0.000000 0.061624 0.250000
O O13 0.899389 0.940572 0.228828
O O14 0.095884 0.744773 0.155238
O O15 0.000000 0.747151 0.250000
O O16 0.589535 0.189109 0.490422
O O17 0.675935 0.324383 0.581080
#
# Coordination Sequence:
#
# PCOD8247385 Si02
#       8
#     8   8   8   8   8   8   8   8
#     4  10  21  39  60  88 125 159 208 239 302 367
#     4  10  22  37  63  89 121 166 203 242 308 359
#     4  11  21  37  58  91 130 157 193 248 304 367
#     4  10  24  44  62  88 121 157 210 263 305 358
#     4  10  24  43  63  87 121 160 209 260 306 359
#     4  10  22  39  62  92 123 162 201 250 305 361
#     4  10  21  40  61  90 125 161 203 247 303 368
#     4  11  21  37  59  90 133 155 194 250 302 366
#
# _framework density 20.223652000000001
#
# number of rings (size 3 to 8) (size 9 to 14) (size 15 to 20)
#    0.000    1.750    3.750    0.000    5.250    9.500 
#    0.000    6.250    0.000    0.000    0.000    0.000 
#    0.000    0.000    0.000    0.000    0.000    0.000 
#
# Total GULP energy -792946.909508 kJ/mol
# GULP energy per Si atom -12389.795461 kJ/mol
# Density = 2.017762 g / cm^3
# Si number density = 20.223652 Si / 1000 Ang^3
#
#
#
# Elastic Constant Matrix: (Units=GPa)
#
#
# Indices 1 2 3 4 5 6 
#
# 1 34.2098 34.7413 36.9042 0.0000 0.0000 0.0000
# 2 34.7413 109.8510 49.6224 0.0000 0.0000 0.0000
# 3 36.9042 49.6224 126.6688 0.0000 0.0000 0.0000
# 4 0.0000 0.0000 0.0000 28.0212 0.0000 0.0000
# 5 0.0000 0.0000 0.0000 0.0000 20.5778 0.0000
# 6 0.0000 0.0000 0.0000 0.0000 0.0000 23.9386
#
#
#
# Elastic Compliance Matrix: (Units=1/GPa)
#
#
# Indices 1 2 3 4 5 6 
#
# 1 0.052890 -0.011866 -0.010761 0.000000 0.000000 0.000000
# 2 -0.011866 0.013723 -0.001919 0.000000 0.000000 0.000000
# 3 -0.010761 -0.001919 0.011781 0.000000 0.000000 0.000000
# 4 0.000000 0.000000 0.000000 0.035687 0.000000 0.000000
# 5 0.000000 0.000000 0.000000 0.000000 0.048596 0.000000
# 6 0.000000 0.000000 0.000000 0.000000 0.000000 0.041774
#
#
# Mechanical properties :
#
#
# Convention : Reuss Voigt Hill
#
# Bulk Modulus (GPa) = 34.12612 57.02950 45.57781
# Shear Modulus (GPa) = 18.98907 24.47164 21.73035
#
# Velocity S-wave (km/s) = 3.06756 3.48235 3.28152
# Velocity P-wave (km/s) = 5.42748 6.66556 6.07813
#
# Compressibility (1/GPa) = 0.02930307
#
# Stress axis : x y z
#
# Youngs Moduli (GPa) = 18.90720 72.87176 84.88018
#
# Poissons Ratio (x) = 0.86470 0.91336
# Poissons Ratio (y) = 0.22435 0.16287
# Poissons Ratio (z) = 0.20345 0.13982
#
# Static dielectric constant tensor:
#      x y z
#    x 3.298120 0.000000 0.000000 
#    y 0.000000 3.993420 0.000000 
#    z 0.000000 0.000000 3.949830 
# 
# 
# High freq. dielectric constant tensor:
#      x y z
#    x 1.750150 0.000000 0.000000 
#    y 0.000000 1.812340 0.000000 
#    z 0.000000 0.000000 1.804270 
# 
# From -- ./inp_files/17946.got.cif
#   From: 2010.03.12/outbox.cif.g09.slc.cpg/sg60_9_cif.got.tgz:17946.got - 2010.04.10 18:46:24.
