data_PCOD8247949
_publ_section_title
;
Structure prediction by ZEFSAII (Michael W. Deem and Ramdas Pophale) SiO2 
 PCOD8247949
Probable space group: P B C N
;
_chemical_formula_sum "Si O2"
_cell_formula_units_Z 48
_cell_length_a 8.581784
_cell_length_b 9.872989
_cell_length_c 25.505178
_cell_angle_alpha 90.000000
_cell_angle_beta 90.000000
_cell_angle_gamma 90.000000
_cell_volume 2160.999126
_symmetry_space_group_name_H-M "P B C N"
_symmetry_group_IT_number 60
_symmetry_cell_setting 'orthorhombic'
loop_
_space_group_symop_operation_xyz
x,y,z
1/2-x,1/2-y,1/2+z
1/2+x,1/2-y,-z
-x,y,1/2-z
-x,-y,-z
1/2+x,1/2+y,1/2-z
1/2-x,1/2+y,z
x,-y,1/2+z
loop_
_atom_site_type_symbol
_atom_site_label
_atom_site_fract_x
_atom_site_fract_y
_atom_site_fract_z
Si Si1 0.339524 0.159006 0.777495
Si Si2 0.610782 0.186596 0.605349
Si Si3 0.793195 0.956538 0.554306
Si Si4 0.677681 0.107659 0.265743
Si Si5 0.729225 0.689620 0.382055
Si Si6 0.632987 0.573495 0.937675
O O1 0.500000 0.201455 0.750000
O O2 0.353416 0.122037 0.838250
O O3 0.233220 0.290545 0.778347
O O4 0.249144 0.040809 0.744847
O O5 0.710176 0.321045 0.590213
O O6 0.430087 0.229024 0.606386
O O7 0.650677 0.060262 0.566665
O O8 0.786723 0.908337 0.494216
O O9 0.951632 0.040004 0.561575
O O10 0.500000 0.079595 0.250000
O O11 0.724875 0.167980 0.321649
O O12 0.860971 0.783004 0.407884
O O13 0.728779 0.542352 0.407631
#
# Coordination Sequence:
#
# PCOD8247949 Si02
#       6
#     8   8   8   8   8   8
#     4  11  23  43  62  93 131 165 218 274 325 395
#     4  11  23  41  66  94 131 171 218 272 329 395
#     4  10  23  42  64  99 131 171 223 272 334 400
#     4  11  25  41  65  93 127 168 217 266 326 393
#     4  11  23  41  65  94 130 173 215 274 332 392
#     4  10  23  41  66  95 135 171 219 276 333 403
#
# _framework density 22.211948
#
# number of rings (size 3 to 8) (size 9 to 14) (size 15 to 20)
#    0.000    1.333    1.667    3.000    4.667    2.667 
#    0.000    0.000    0.000    0.000    0.000    0.000 
#    0.000    0.000    0.000    0.000    0.000    0.000 
#
# Total GULP energy -594933.977172 kJ/mol
# GULP energy per Si atom -12394.457858 kJ/mol
# Density = 2.216139 g / cm^3
# Si number density = 22.211948 Si / 1000 Ang^3
#
#
#
# Elastic Constant Matrix: (Units=GPa)
#
#
# Indices 1 2 3 4 5 6 
#
# 1 35.4455 29.1156 18.5198 0.0000 0.0000 0.0000
# 2 29.1156 104.0993 29.3014 0.0000 0.0000 0.0000
# 3 18.5198 29.3014 114.3246 0.0000 0.0000 0.0000
# 4 0.0000 0.0000 0.0000 51.3691 0.0000 0.0000
# 5 0.0000 0.0000 0.0000 0.0000 27.2760 0.0000
# 6 0.0000 0.0000 0.0000 0.0000 0.0000 29.5773
#
#
#
# Elastic Compliance Matrix: (Units=1/GPa)
#
#
# Indices 1 2 3 4 5 6 
#
# 1 0.038027 -0.009594 -0.003701 0.000000 0.000000 0.000000
# 2 -0.009594 0.012774 -0.001720 0.000000 0.000000 0.000000
# 3 -0.003701 -0.001720 0.009787 0.000000 0.000000 0.000000
# 4 0.000000 0.000000 0.000000 0.019467 0.000000 0.000000
# 5 0.000000 0.000000 0.000000 0.000000 0.036662 0.000000
# 6 0.000000 0.000000 0.000000 0.000000 0.000000 0.033810
#
#
# Mechanical properties :
#
#
# Convention : Reuss Voigt Hill
#
# Bulk Modulus (GPa) = 32.72457 45.30477 39.01467
# Shear Modulus (GPa) = 26.21339 33.43999 29.82669
#
# Velocity S-wave (km/s) = 3.43906 3.88428 3.66843
# Velocity P-wave (km/s) = 5.52579 6.36849 5.96205
#
# Compressibility (1/GPa) = 0.03055808
#
# Stress axis : x y z
#
# Youngs Moduli (GPa) = 26.29729 78.28645 102.17267
#
# Poissons Ratio (x) = 0.75107 0.37816
# Poissons Ratio (y) = 0.25229 0.17571
# Poissons Ratio (z) = 0.09733 0.13463
#
# Static dielectric constant tensor:
#      x y z
#    x 3.816650 0.000000 0.000000 
#    y 0.000000 4.210790 0.000000 
#    z 0.000000 0.000000 4.008200 
# 
# 
# High freq. dielectric constant tensor:
#      x y z
#    x 1.853580 0.000000 0.000000 
#    y 0.000000 1.896320 0.000000 
#    z 0.000000 0.000000 1.882540 
# 
# From -- ./inp_files/25944.got.cif
#   From: 2010.03.12/outbox.cif.g09.slc.cpg/sg60_13_cif.got.tgz:25944.got - 2010.04.10 18:46:24.
