data_PCOD8247792
_publ_section_title
;
Structure prediction by ZEFSAII (Michael W. Deem and Ramdas Pophale) SiO2 
 PCOD8247792
Probable space group: P B C N
;
_chemical_formula_sum "Si O2"
_cell_formula_units_Z 40
_cell_length_a 8.152555
_cell_length_b 19.369156
_cell_length_c 10.932410
_cell_angle_alpha 90.000000
_cell_angle_beta 90.000000
_cell_angle_gamma 90.000000
_cell_volume 1726.316196
_symmetry_space_group_name_H-M "P B C N"
_symmetry_group_IT_number 60
_symmetry_cell_setting 'orthorhombic'
loop_
_space_group_symop_operation_xyz
x,y,z
1/2-x,1/2-y,1/2+z
1/2+x,1/2-y,-z
-x,y,1/2-z
-x,-y,-z
1/2+x,1/2+y,1/2-z
1/2-x,1/2+y,z
x,-y,1/2+z
loop_
_atom_site_type_symbol
_atom_site_label
_atom_site_fract_x
_atom_site_fract_y
_atom_site_fract_z
Si Si1 0.297015 0.250059 0.820927
Si Si2 0.161653 0.370530 0.678699
Si Si3 0.601465 0.489942 0.871164
Si Si4 0.164665 0.385602 0.179233
Si Si5 0.043918 0.708189 0.499234
O O1 0.276910 0.327298 0.770023
O O2 0.259378 0.184207 0.737120
O O3 0.481912 0.246485 0.876188
O O4 0.167619 0.241196 0.931707
O O5 0.260848 0.430945 0.609954
O O6 0.000000 0.399859 0.750000
O O7 0.110058 0.311409 0.583828
O O8 0.500000 0.468491 0.750000
O O9 0.693350 0.558685 0.828339
O O10 0.500000 0.500000 0.000000
O O11 0.122378 0.365359 0.039496
O O12 0.000000 0.411852 0.250000
#
# Coordination Sequence:
#
# PCOD8247792 Si02
#       5
#     8   8   8   8   8
#     4  10  22  42  70 106 136 182 238 300 360 426
#     4  10  24  47  71 102 143 193 242 296 371 441
#     4  12  31  49  72 110 146 195 246 310 358 431
#     4  10  24  47  71 102 143 193 242 296 371 441
#     4  10  22  41  72 103 138 188 232 302 358 435
#
# _framework density 23.170725999999998
#
# number of rings (size 3 to 8) (size 9 to 14) (size 15 to 20)
#    0.000    1.600    0.000    1.800   11.200    8.800 
#    3.600    0.000    0.000    0.000    0.000    0.000 
#    0.000    0.000    0.000    0.000    0.000    0.000 
#
# Total GULP energy -495667.694480 kJ/mol
# GULP energy per Si atom -12391.692362 kJ/mol
# Density = 2.311799 g / cm^3
# Si number density = 23.170726 Si / 1000 Ang^3
#
#
#
# Elastic Constant Matrix: (Units=GPa)
#
#
# Indices 1 2 3 4 5 6 
#
# 1 83.8498 50.2753 15.0757 0.0000 0.0000 0.0000
# 2 50.2753 97.6036 16.7708 0.0000 0.0000 0.0000
# 3 15.0757 16.7708 84.6648 0.0000 0.0000 0.0000
# 4 0.0000 0.0000 0.0000 17.8268 0.0000 0.0000
# 5 0.0000 0.0000 0.0000 0.0000 40.9610 0.0000
# 6 0.0000 0.0000 0.0000 0.0000 0.0000 47.9845
#
#
#
# Elastic Compliance Matrix: (Units=1/GPa)
#
#
# Indices 1 2 3 4 5 6 
#
# 1 0.017408 -0.008731 -0.001370 0.000000 0.000000 0.000000
# 2 -0.008731 0.014986 -0.001414 0.000000 0.000000 0.000000
# 3 -0.001370 -0.001414 0.012335 0.000000 0.000000 0.000000
# 4 0.000000 0.000000 0.000000 0.056095 0.000000 0.000000
# 5 0.000000 0.000000 0.000000 0.000000 0.024413 0.000000
# 6 0.000000 0.000000 0.000000 0.000000 0.000000 0.020840
#
#
# Mechanical properties :
#
#
# Convention : Reuss Voigt Hill
#
# Bulk Modulus (GPa) = 46.08600 47.81797 46.95199
# Shear Modulus (GPa) = 28.35428 33.62089 30.98759
#
# Velocity S-wave (km/s) = 3.50195 3.81334 3.66096
# Velocity P-wave (km/s) = 6.02366 6.33015 6.17881
#
# Compressibility (1/GPa) = 0.02169856
#
# Stress axis : x y z
#
# Youngs Moduli (GPa) = 57.44650 66.72974 81.06818
#
# Poissons Ratio (x) = 0.58263 0.11107
# Poissons Ratio (y) = 0.50157 0.11461
# Poissons Ratio (z) = 0.07871 0.09434
#
# Static dielectric constant tensor:
#      x y z
#    x 4.246020 0.000000 0.000000 
#    y 0.000000 3.820860 0.000000 
#    z 0.000000 0.000000 4.586480 
# 
# 
# High freq. dielectric constant tensor:
#      x y z
#    x 1.925550 0.000000 0.000000 
#    y 0.000000 1.895790 0.000000 
#    z 0.000000 0.000000 1.935240 
# 
# From -- ./inp_files/9777.got.cif
#   From: 2010.03.12/outbox.cif.g09.slc.cpg/sg60_5_cif.got.tgz:9777.got - 2010.04.10 18:46:24.
