data_PCOD8247163
_publ_section_title
;
Structure prediction by ZEFSAII (Michael W. Deem and Ramdas Pophale) SiO2 
 PCOD8247163
Probable space group: P B C N
;
_chemical_formula_sum "Si O2"
_cell_formula_units_Z 60
_cell_length_a 11.456136
_cell_length_b 20.932021
_cell_length_c 12.895956
_cell_angle_alpha 90.000000
_cell_angle_beta 90.000000
_cell_angle_gamma 90.000000
_cell_volume 3092.451272
_symmetry_space_group_name_H-M "P B C N"
_symmetry_group_IT_number 60
_symmetry_cell_setting 'orthorhombic'
loop_
_space_group_symop_operation_xyz
x,y,z
1/2-x,1/2-y,1/2+z
1/2+x,1/2-y,-z
-x,y,1/2-z
-x,-y,-z
1/2+x,1/2+y,1/2-z
1/2-x,1/2+y,z
x,-y,1/2+z
loop_
_atom_site_type_symbol
_atom_site_label
_atom_site_fract_x
_atom_site_fract_y
_atom_site_fract_z
Si Si1 0.623039 0.406498 0.692382
Si Si2 0.388487 0.297844 0.189838
Si Si3 0.000000 0.285430 0.250000
Si Si4 0.198336 0.620691 0.797688
Si Si5 0.794301 0.088412 0.492010
Si Si6 0.221604 0.011189 0.672990
Si Si7 0.690808 0.698652 0.335554
Si Si8 0.446595 0.593458 0.541166
O O1 0.500000 0.399303 0.750000
O O2 0.681237 0.473298 0.724629
O O3 0.698838 0.345924 0.732844
O O4 0.618343 0.404746 0.569083
O O5 0.500000 0.269796 0.250000
O O6 0.317374 0.343017 0.268738
O O7 0.307234 0.240085 0.153921
O O8 0.435013 0.335817 0.089267
O O9 0.090390 0.331644 0.307469
O O10 0.073380 0.242329 0.168974
O O11 0.182580 0.563546 0.711778
O O12 0.208356 0.591415 0.911507
O O13 0.815846 0.156904 0.439027
O O14 0.922720 0.066494 0.528313
O O15 0.731635 0.039073 0.412497
O O16 0.110781 0.044843 0.621433
#
# Coordination Sequence:
#
# PCOD8247163 Si02
#       8
#     8   8   4   8   8   8   8   8
#     4  11  20  34  55  86 117 148 186 242 285 348
#     4  10  21  37  55  81 115 144 190 238 283 349
#     4  10  20  42  60  76 116 166 194 234 280 358
#     4  10  22  37  59  83 113 155 192 237 291 338
#     4  11  20  33  56  87 114 144 191 239 286 349
#     4  10  22  33  56  85 119 146 190 236 298 337
#     4  10  21  37  58  83 114 150 193 232 291 341
#     4  11  20  33  55  86 113 149 186 231 298 343
#
# _framework density 19.402083000000001
#
# number of rings (size 3 to 8) (size 9 to 14) (size 15 to 20)
#    0.000    1.600    4.667    1.200    1.867    3.200 
#    0.000    0.667    5.867    0.000    0.000    0.000 
#    0.000    0.000    0.000    0.000    0.000    0.000 
#
# Total GULP energy -743809.165790 kJ/mol
# GULP energy per Si atom -12396.819430 kJ/mol
# Density = 1.935792 g / cm^3
# Si number density = 19.402083 Si / 1000 Ang^3
#
#
#
# Elastic Constant Matrix: (Units=GPa)
#
#
# Indices 1 2 3 4 5 6 
#
# 1 60.6991 30.1734 25.0556 0.0000 0.0000 0.0000
# 2 30.1734 104.2797 36.8349 0.0000 0.0000 0.0000
# 3 25.0556 36.8349 97.1115 0.0000 0.0000 0.0000
# 4 0.0000 0.0000 0.0000 14.4845 0.0000 0.0000
# 5 0.0000 0.0000 0.0000 0.0000 14.4845 0.0000
# 6 0.0000 0.0000 0.0000 0.0000 0.0000 21.9586
#
#
#
# Elastic Compliance Matrix: (Units=1/GPa)
#
#
# Indices 1 2 3 4 5 6 
#
# 1 0.020201 -0.004623 -0.003458 0.000000 0.000000 0.000000
# 2 -0.004623 0.012131 -0.003409 0.000000 0.000000 0.000000
# 3 -0.003458 -0.003409 0.012483 0.000000 0.000000 0.000000
# 4 0.000000 0.000000 0.000000 0.069039 0.000000 0.000000
# 5 0.000000 0.000000 0.000000 0.000000 0.069039 0.000000
# 6 0.000000 0.000000 0.000000 0.000000 0.000000 0.045540
#
#
# Mechanical properties :
#
#
# Convention : Reuss Voigt Hill
#
# Bulk Modulus (GPa) = 45.80027 49.57981 47.69004
# Shear Modulus (GPa) = 19.32800 21.52062 20.42431
#
# Velocity S-wave (km/s) = 3.15966 3.33407 3.24803
# Velocity P-wave (km/s) = 6.08016 6.35851 6.22089
#
# Compressibility (1/GPa) = 0.02183393
#
# Stress axis : x y z
#
# Youngs Moduli (GPa) = 49.50367 82.43051 80.11158
#
# Poissons Ratio (x) = 0.38112 0.27704
# Poissons Ratio (y) = 0.22888 0.27307
# Poissons Ratio (z) = 0.17119 0.28097
#
# Static dielectric constant tensor:
#      x y z
#    x 3.254840 0.000000 0.000000 
#    y 0.000000 3.828470 0.000000 
#    z 0.000000 0.000000 3.591470 
# 
# 
# High freq. dielectric constant tensor:
#      x y z
#    x 1.713120 0.000000 0.000000 
#    y 0.000000 1.771480 0.000000 
#    z 0.000000 0.000000 1.757420 
# 
# From -- ./inp_files/11248.got.cif
#   From: 2010.03.12/outbox.cif.g09.slc.cpg/sg60_6_cif.got.tgz:11248.got - 2010.04.10 18:46:24.
