data_PCOD8247830
_publ_section_title
;
Structure prediction by ZEFSAII (Michael W. Deem and Ramdas Pophale) SiO2 
 PCOD8247830
Probable space group: P B C N
;
_chemical_formula_sum "Si O2"
_cell_formula_units_Z 40
_cell_length_a 21.815640
_cell_length_b 8.991773
_cell_length_c 8.359125
_cell_angle_alpha 90.000000
_cell_angle_beta 90.000000
_cell_angle_gamma 90.000000
_cell_volume 1639.736682
_symmetry_space_group_name_H-M "P B C N"
_symmetry_group_IT_number 60
_symmetry_cell_setting 'orthorhombic'
loop_
_space_group_symop_operation_xyz
x,y,z
1/2-x,1/2-y,1/2+z
1/2+x,1/2-y,-z
-x,y,1/2-z
-x,-y,-z
1/2+x,1/2+y,1/2-z
1/2-x,1/2+y,z
x,-y,1/2+z
loop_
_atom_site_type_symbol
_atom_site_label
_atom_site_fract_x
_atom_site_fract_y
_atom_site_fract_z
Si Si1 0.797464 0.201939 0.407934
Si Si2 0.000000 0.973122 0.750000
Si Si3 0.377358 0.860223 0.312783
Si Si4 0.000000 0.544858 0.250000
Si Si5 0.744321 0.037638 0.108220
Si Si6 0.049986 0.794508 0.044480
O O1 0.864434 0.251985 0.341147
O O2 0.762213 0.131935 0.260127
O O3 0.762765 0.352229 0.458229
O O4 0.795941 0.084622 0.555568
O O5 0.983297 0.868894 0.605246
O O6 0.054876 0.085241 0.689081
O O7 0.384590 0.760210 0.475121
O O8 0.439774 0.947346 0.279648
O O9 0.320912 0.966314 0.349278
O O10 0.989112 0.649801 0.403954
#
# Coordination Sequence:
#
# PCOD8247830 Si02
#       6
#     8   4   8   4   8   8
#     4  12  25  48  76 108 148 196 257 319 379 450
#     4   9  21  44  64 100 151 191 244 286 364 460
#     4  12  25  44  79 106 150 192 257 312 389 455
#     4  11  25  46  76 112 147 197 246 310 384 462
#     4  12  25  48  75 107 147 197 257 317 382 451
#     4  10  22  42  70 102 147 194 240 300 370 449
#
# _framework density 24.394161
#
# number of rings (size 3 to 8) (size 9 to 14) (size 15 to 20)
#    0.000    0.800    4.000    2.400    0.000    3.200 
#    0.000    6.000    0.000    0.000    0.000    0.000 
#    0.000    0.000    0.000    0.000    0.000    0.000 
#
# Total GULP energy -495573.348370 kJ/mol
# GULP energy per Si atom -12389.333709 kJ/mol
# Density = 2.433864 g / cm^3
# Si number density = 24.394161 Si / 1000 Ang^3
#
#
#
# Elastic Constant Matrix: (Units=GPa)
#
#
# Indices 1 2 3 4 5 6 
#
# 1 91.7469 59.9263 43.3510 0.0000 0.0000 0.0000
# 2 59.9263 135.8548 60.6384 0.0000 0.0000 0.0000
# 3 43.3510 60.6384 102.6452 0.0000 0.0000 0.0000
# 4 0.0000 0.0000 0.0000 42.9410 0.0000 0.0000
# 5 0.0000 0.0000 0.0000 0.0000 44.1319 0.0000
# 6 0.0000 0.0000 0.0000 0.0000 0.0000 -207.9850
#
#
#
# Elastic Compliance Matrix: (Units=1/GPa)
#
#
# Indices 1 2 3 4 5 6 
#
# 1 0.016216 -0.005563 -0.003562 0.000000 0.000000 0.000000
# 2 -0.005563 0.011905 -0.004684 0.000000 0.000000 0.000000
# 3 -0.003562 -0.004684 0.014014 0.000000 0.000000 0.000000
# 4 0.000000 0.000000 0.000000 0.023288 0.000000 0.000000
# 5 0.000000 0.000000 0.000000 0.000000 0.022659 0.000000
# 6 0.000000 0.000000 0.000000 0.000000 0.000000 -0.004808
#
#
# Mechanical properties :
#
#
# Convention : Reuss Voigt Hill
#
# Bulk Modulus (GPa) = 68.88372 73.11980 71.00176
# Shear Modulus (GPa) = 43.20340 -13.09367 15.05487
#
# Velocity S-wave (km/s) = 4.21296 -2.31931 2.48695
# Velocity P-wave (km/s) = 7.20864 4.78196 6.11684
#
# Compressibility (1/GPa) = 0.01451722
#
# Stress axis : x y z
#
# Youngs Moduli (GPa) = 61.66583 83.99678 71.35878
#
# Poissons Ratio (x) = 0.46728 0.25421
# Poissons Ratio (y) = 0.34305 0.33422
# Poissons Ratio (z) = 0.21968 0.39341
#
# Static dielectric constant tensor:
#      x y z
#    x 4.491590 0.000000 0.000000 
#    y 0.000000 5.409620 0.000000 
#    z 0.000000 0.000000 4.855730 
# 
# 
# High freq. dielectric constant tensor:
#      x y z
#    x 1.930420 0.000000 0.000000 
#    y 0.000000 2.006230 0.000000 
#    z 0.000000 0.000000 1.988990 
# 
# From -- ./inp_files/7770.got.cif
#   From: 2010.03.12/outbox.cif.g09.slc.cpg/sg60_4_cif.got.tgz:7770.got - 2010.04.10 18:46:24.
