data_PCOD8247640
_publ_section_title
;
Structure prediction by ZEFSAII (Michael W. Deem and Ramdas Pophale) SiO2 
 PCOD8247640
Probable space group: P B C N
;
_chemical_formula_sum "Si O2"
_cell_formula_units_Z 32
_cell_length_a 15.709966
_cell_length_b 8.904104
_cell_length_c 10.304048
_cell_angle_alpha 90.000000
_cell_angle_beta 90.000000
_cell_angle_gamma 90.000000
_cell_volume 1441.362909
_symmetry_space_group_name_H-M "P B C N"
_symmetry_group_IT_number 60
_symmetry_cell_setting 'orthorhombic'
loop_
_space_group_symop_operation_xyz
x,y,z
1/2-x,1/2-y,1/2+z
1/2+x,1/2-y,-z
-x,y,1/2-z
-x,-y,-z
1/2+x,1/2+y,1/2-z
1/2-x,1/2+y,z
x,-y,1/2+z
loop_
_atom_site_type_symbol
_atom_site_label
_atom_site_fract_x
_atom_site_fract_y
_atom_site_fract_z
Si Si1 0.790196 0.605795 0.963390
Si Si2 0.847664 0.087550 0.566751
Si Si3 0.050109 0.555850 0.123611
Si Si4 0.617137 0.375829 0.351355
O O1 0.745724 0.491932 0.066825
O O2 0.838664 0.735175 0.042298
O O3 0.856481 0.516516 0.873876
O O4 0.716687 0.673836 0.869413
O O5 0.894995 0.065109 0.704161
O O6 0.904461 0.010348 0.452638
O O7 0.055603 0.736566 0.119983
O O8 0.000000 0.500744 0.250000
O O9 0.000000 0.500000 0.000000
#
# Coordination Sequence:
#
# PCOD8247640 Si02
#       4
#     8   8   8   8
#     4  10  22  41  69 102 134 187 242 283 346 423
#     4  10  22  37  75  97 139 168 259 282 337 405
#     4  12  27  45  69 105 152 184 230 302 376 417
#     4  10  23  43  67 105 132 189 238 289 339 436
#
# _framework density 22.20121
#
# number of rings (size 3 to 8) (size 9 to 14) (size 15 to 20)
#    1.500    0.000    2.500    1.500   10.500    2.000 
#    0.000    6.250    0.000    0.000    0.000    0.000 
#    0.000    0.000    0.000    0.000    0.000    0.000 
#
# Total GULP energy -396722.028852 kJ/mol
# GULP energy per Si atom -12397.563402 kJ/mol
# Density = 2.215068 g / cm^3
# Si number density = 22.201210 Si / 1000 Ang^3
#
#
#
# Elastic Constant Matrix: (Units=GPa)
#
#
# Indices 1 2 3 4 5 6 
#
# 1 39.0867 21.8999 20.2394 0.0000 0.0000 0.0000
# 2 21.8999 121.5851 63.9350 0.0000 0.0000 0.0000
# 3 20.2394 63.9350 175.6550 0.0000 0.0000 0.0000
# 4 0.0000 0.0000 0.0000 35.0087 0.0000 0.0000
# 5 0.0000 0.0000 0.0000 0.0000 37.1264 0.0000
# 6 0.0000 0.0000 0.0000 0.0000 0.0000 38.6241
#
#
#
# Elastic Compliance Matrix: (Units=1/GPa)
#
#
# Indices 1 2 3 4 5 6 
#
# 1 0.028896 -0.004272 -0.001775 0.000000 0.000000 0.000000
# 2 -0.004272 0.010803 -0.003440 0.000000 0.000000 0.000000
# 3 -0.001775 -0.003440 0.007150 0.000000 0.000000 0.000000
# 4 0.000000 0.000000 0.000000 0.028564 0.000000 0.000000
# 5 0.000000 0.000000 0.000000 0.000000 0.026935 0.000000
# 6 0.000000 0.000000 0.000000 0.000000 0.000000 0.025891
#
#
# Mechanical properties :
#
#
# Convention : Reuss Voigt Hill
#
# Bulk Modulus (GPa) = 35.87251 60.94171 48.40711
# Shear Modulus (GPa) = 31.94817 37.50199 34.72508
#
# Velocity S-wave (km/s) = 3.79757 4.11443 3.95917
# Velocity P-wave (km/s) = 5.95161 7.07677 6.53844
#
# Compressibility (1/GPa) = 0.02787650
#
# Stress axis : x y z
#
# Youngs Moduli (GPa) = 34.60629 92.56743 139.86957
#
# Poissons Ratio (x) = 0.39541 0.24823
# Poissons Ratio (y) = 0.14782 0.48113
# Poissons Ratio (z) = 0.06142 0.31842
#
# Static dielectric constant tensor:
#      x y z
#    x 3.843990 0.000000 0.000000 
#    y 0.000000 3.863830 0.000000 
#    z 0.000000 0.000000 3.656840 
# 
# 
# High freq. dielectric constant tensor:
#      x y z
#    x 1.869020 0.000000 0.000000 
#    y 0.000000 1.869180 0.000000 
#    z 0.000000 0.000000 1.865480 
# 
# From -- ./inp_files/11534.got.cif
#   From: 2010.03.12/outbox.cif.g09.slc.cpg/sg60_6_cif.got.tgz:11534.got - 2010.04.10 18:46:24.
