data_PCOD8247753
_publ_section_title
;
Structure prediction by ZEFSAII (Michael W. Deem and Ramdas Pophale) SiO2 
 PCOD8247753
Probable space group: P B C N
;
_chemical_formula_sum "Si O2"
_cell_formula_units_Z 64
_cell_length_a 8.719792
_cell_length_b 11.774922
_cell_length_c 29.163456
_cell_angle_alpha 90.000000
_cell_angle_beta 90.000000
_cell_angle_gamma 90.000000
_cell_volume 2994.354073
_symmetry_space_group_name_H-M "P B C N"
_symmetry_group_IT_number 60
_symmetry_cell_setting 'orthorhombic'
loop_
_space_group_symop_operation_xyz
x,y,z
1/2-x,1/2-y,1/2+z
1/2+x,1/2-y,-z
-x,y,1/2-z
-x,-y,-z
1/2+x,1/2+y,1/2-z
1/2-x,1/2+y,z
x,-y,1/2+z
loop_
_atom_site_type_symbol
_atom_site_label
_atom_site_fract_x
_atom_site_fract_y
_atom_site_fract_z
Si Si1 0.465289 0.105483 0.031762
Si Si2 0.234469 0.324896 0.361143
Si Si3 0.986955 0.264911 0.696492
Si Si4 0.242128 0.825982 0.136865
Si Si5 0.488203 0.984445 0.635001
Si Si6 0.007389 0.909746 0.422021
Si Si7 0.627280 0.310370 0.994571
Si Si8 0.516014 0.334687 0.896988
O O1 0.466068 0.066087 0.084312
O O2 0.302005 0.159479 0.017273
O O3 0.603016 0.195619 0.024271
O O4 0.500000 0.000000 0.000000
O O5 0.323997 0.296496 0.313896
O O6 0.141623 0.441702 0.359278
O O7 0.357868 0.335022 0.400963
O O8 0.134063 0.215602 0.373632
O O9 0.000751 0.385033 0.671455
O O10 0.000000 0.285318 0.750000
O O11 0.124466 0.184056 0.679051
O O12 0.337167 0.708981 0.131913
O O13 0.152200 0.844595 0.088478
O O14 0.347164 0.934066 0.147264
O O15 0.045791 0.912820 0.476236
O O16 0.993689 0.030358 0.397073
O O17 0.529829 0.289826 0.948693
#
# Coordination Sequence:
#
# PCOD8247753 Si02
#       8
#     8   8   8   8   8   8   8   8
#     4  12  26  42  63  94 134 181 227 274 326 383
#     4  10  23  41  63  90 121 160 208 256 309 385
#     4  11  24  43  68  96 123 154 200 264 335 398
#     4  10  22  41  63  88 121 161 207 256 313 387
#     4  11  23  43  67  91 128 172 212 261 324 386
#     4  11  21  36  59  87 123 167 211 261 311 359
#     4  12  24  37  58  92 130 171 225 272 312 373
#     4  11  22  39  60  86 124 170 209 254 313 369
#
# _framework density 21.373557999999999
#
# number of rings (size 3 to 8) (size 9 to 14) (size 15 to 20)
#    0.000    1.000    0.000    8.625    0.000    5.000 
#    0.000    1.875    0.000    0.000    0.000    0.000 
#    0.000    0.000    0.000    0.000    0.000    0.000 
#
# Total GULP energy -793509.026431 kJ/mol
# GULP energy per Si atom -12398.578538 kJ/mol
# Density = 2.132491 g / cm^3
# Si number density = 21.373558 Si / 1000 Ang^3
#
#
#
# Elastic Constant Matrix: (Units=GPa)
#
#
# Indices 1 2 3 4 5 6 
#
# 1 136.8520 61.9708 51.2981 0.0000 0.0000 0.0000
# 2 61.9708 122.4431 48.9331 0.0000 0.0000 0.0000
# 3 51.2981 48.9331 134.3932 0.0000 0.0000 0.0000
# 4 0.0000 0.0000 0.0000 25.5243 0.0000 0.0000
# 5 0.0000 0.0000 0.0000 0.0000 17.7587 0.0000
# 6 0.0000 0.0000 0.0000 0.0000 0.0000 26.8281
#
#
#
# Elastic Compliance Matrix: (Units=1/GPa)
#
#
# Indices 1 2 3 4 5 6 
#
# 1 0.010065 -0.004165 -0.002325 0.000000 0.000000 0.000000
# 2 -0.004165 0.011281 -0.002518 0.000000 0.000000 0.000000
# 3 -0.002325 -0.002518 0.009245 0.000000 0.000000 0.000000
# 4 0.000000 0.000000 0.000000 0.039178 0.000000 0.000000
# 5 0.000000 0.000000 0.000000 0.000000 0.056310 0.000000
# 6 0.000000 0.000000 0.000000 0.000000 0.000000 0.037274
#
#
# Mechanical properties :
#
#
# Convention : Reuss Voigt Hill
#
# Bulk Modulus (GPa) = 79.52077 79.78802 79.65440
# Shear Modulus (GPa) = 26.94526 29.45464 28.19995
#
# Velocity S-wave (km/s) = 3.55446 3.71629 3.63627
# Velocity P-wave (km/s) = 7.35742 7.47166 7.41476
#
# Compressibility (1/GPa) = 0.01257533
#
# Stress axis : x y z
#
# Youngs Moduli (GPa) = 99.35737 88.64395 108.16427
#
# Poissons Ratio (x) = 0.36917 0.25152
# Poissons Ratio (y) = 0.41379 0.27234
# Poissons Ratio (z) = 0.23104 0.22319
#
# Static dielectric constant tensor:
#      x y z
#    x 4.419030 0.000000 0.000000 
#    y 0.000000 4.022780 0.000000 
#    z 0.000000 0.000000 2.992550 
# 
# 
# High freq. dielectric constant tensor:
#      x y z
#    x 1.857520 0.000000 0.000000 
#    y 0.000000 1.856350 0.000000 
#    z 0.000000 0.000000 1.806190 
# 
# From -- ./inp_files/26004.got.cif
#   From: 2010.03.12/outbox.cif.g09.slc.cpg/sg60_14_cif.got.tgz:26004.got - 2010.04.10 18:46:24.
