data_PCOD8247626
_publ_section_title
;
Structure prediction by ZEFSAII (Michael W. Deem and Ramdas Pophale) SiO2 
 PCOD8247626
Probable space group: P B C N
;
_chemical_formula_sum "Si O2"
_cell_formula_units_Z 40
_cell_length_a 12.177845
_cell_length_b 16.302084
_cell_length_c 9.785175
_cell_angle_alpha 90.000000
_cell_angle_beta 90.000000
_cell_angle_gamma 90.000000
_cell_volume 1942.594549
_symmetry_space_group_name_H-M "P B C N"
_symmetry_group_IT_number 60
_symmetry_cell_setting 'orthorhombic'
loop_
_space_group_symop_operation_xyz
x,y,z
1/2-x,1/2-y,1/2+z
1/2+x,1/2-y,-z
-x,y,1/2-z
-x,-y,-z
1/2+x,1/2+y,1/2-z
1/2-x,1/2+y,z
x,-y,1/2+z
loop_
_atom_site_type_symbol
_atom_site_label
_atom_site_fract_x
_atom_site_fract_y
_atom_site_fract_z
Si Si1 0.635807 0.039417 0.860426
Si Si2 0.283725 0.698683 0.890178
Si Si3 0.198531 0.173983 0.590021
Si Si4 0.486167 0.416663 0.411694
Si Si5 0.593624 0.915474 0.075985
O O1 0.749792 0.084987 0.882580
O O2 0.537689 0.097044 0.921914
O O3 0.621314 0.021407 0.699576
O O4 0.635932 0.952015 0.933768
O O5 0.309438 0.724065 0.733592
O O6 0.368735 0.627845 0.939812
O O7 0.157221 0.668573 0.898932
O O8 0.278521 0.778810 0.985104
O O9 0.076060 0.151278 0.539258
O O10 0.500000 0.437130 0.250000
O O11 0.500000 0.500000 0.500000
#
# Coordination Sequence:
#
# PCOD8247626 Si02
#       5
#     8   8   8   8   8
#     4   9  18  33  53  77 104 136 176 220 266 322
#     4  10  22  37  55  81 114 147 186 232 279 333
#     4  10  22  37  55  81 114 147 186 232 279 333
#     4  10  22  40  60  86 117 152 195 240 285 344
#     4   9  18  33  53  77 104 136 176 220 266 322
#
# _framework density 20.591017999999998
#
# number of rings (size 3 to 8) (size 9 to 14) (size 15 to 20)
#    0.000    2.400    0.000    1.200    2.800    3.200 
#    0.000    0.000    0.000    0.000    0.000    0.000 
#    0.000    0.000    0.000    0.000    0.000    0.000 
#
# Total GULP energy -495635.846064 kJ/mol
# GULP energy per Si atom -12390.896152 kJ/mol
# Density = 2.054415 g / cm^3
# Si number density = 20.591018 Si / 1000 Ang^3
#
#
#
# Elastic Constant Matrix: (Units=GPa)
#
#
# Indices 1 2 3 4 5 6 
#
# 1 82.7659 17.9167 13.1052 0.0000 0.0000 0.0000
# 2 17.9167 52.0749 32.1838 0.0000 0.0000 0.0000
# 3 13.1052 32.1838 80.2082 0.0000 0.0000 0.0000
# 4 0.0000 0.0000 0.0000 31.7180 0.0000 0.0000
# 5 0.0000 0.0000 0.0000 0.0000 24.1163 0.0000
# 6 0.0000 0.0000 0.0000 0.0000 0.0000 33.5886
#
#
#
# Elastic Compliance Matrix: (Units=1/GPa)
#
#
# Indices 1 2 3 4 5 6 
#
# 1 0.013066 -0.004223 -0.000440 0.000000 0.000000 0.000000
# 2 -0.004223 0.026901 -0.010104 0.000000 0.000000 0.000000
# 3 -0.000440 -0.010104 0.016594 0.000000 0.000000 0.000000
# 4 0.000000 0.000000 0.000000 0.031528 0.000000 0.000000
# 5 0.000000 0.000000 0.000000 0.000000 0.041466 0.000000
# 6 0.000000 0.000000 0.000000 0.000000 0.000000 0.029772
#
#
# Mechanical properties :
#
#
# Convention : Reuss Voigt Hill
#
# Bulk Modulus (GPa) = 37.00212 37.94005 37.47109
# Shear Modulus (GPa) = 25.26911 28.00746 26.63828
#
# Velocity S-wave (km/s) = 3.50693 3.69206 3.60068
# Velocity P-wave (km/s) = 5.86576 6.05315 5.96019
#
# Compressibility (1/GPa) = 0.02702548
#
# Stress axis : x y z
#
# Youngs Moduli (GPa) = 76.53309 37.17369 60.26373
#
# Poissons Ratio (x) = 0.15700 0.02653
# Poissons Ratio (y) = 0.32323 0.60890
# Poissons Ratio (z) = 0.03369 0.37560
#
# Static dielectric constant tensor:
#      x y z
#    x 3.905750 0.000000 0.000000 
#    y 0.000000 3.169890 0.000000 
#    z 0.000000 0.000000 3.920610 
# 
# 
# High freq. dielectric constant tensor:
#      x y z
#    x 1.824040 0.000000 0.000000 
#    y 0.000000 1.761750 0.000000 
#    z 0.000000 0.000000 1.805770 
# 
# From -- ./inp_files/4746.got.cif
#   From: 2010.03.12/outbox.cif.g09.slc.cpg/sg60_3_cif.got.tgz:4746.got - 2010.04.10 18:46:24.
