data_PCOD8247179
_publ_section_title
;
Structure prediction by ZEFSAII (Michael W. Deem and Ramdas Pophale) SiO2 
 PCOD8247179
Probable space group: P B C N
;
_chemical_formula_sum "Si O2"
_cell_formula_units_Z 48
_cell_length_a 17.973360
_cell_length_b 14.585213
_cell_length_c 8.972383
_cell_angle_alpha 90.000000
_cell_angle_beta 90.000000
_cell_angle_gamma 90.000000
_cell_volume 2352.067889
_symmetry_space_group_name_H-M "P B C N"
_symmetry_group_IT_number 60
_symmetry_cell_setting 'orthorhombic'
loop_
_space_group_symop_operation_xyz
x,y,z
1/2-x,1/2-y,1/2+z
1/2+x,1/2-y,-z
-x,y,1/2-z
-x,-y,-z
1/2+x,1/2+y,1/2-z
1/2-x,1/2+y,z
x,-y,1/2+z
loop_
_atom_site_type_symbol
_atom_site_label
_atom_site_fract_x
_atom_site_fract_y
_atom_site_fract_z
Si Si1 0.052132 0.117208 0.386836
Si Si2 0.822506 0.224208 0.598488
Si Si3 0.424651 0.929445 0.165772
Si Si4 0.667293 0.245827 0.756617
Si Si5 0.943439 0.914695 0.121039
Si Si6 0.075505 0.391400 0.826872
O O1 0.117936 0.188488 0.350624
O O2 0.000000 0.104146 0.250000
O O3 0.992145 0.150637 0.510232
O O4 0.082038 0.016014 0.439131
O O5 0.741375 0.225462 0.666304
O O6 0.818257 0.210323 0.419346
O O7 0.868563 0.138631 0.665523
O O8 0.862034 0.315309 0.657152
O O9 0.500000 0.906326 0.250000
O O10 0.367693 0.852263 0.214619
O O11 0.393166 0.027676 0.220532
O O12 0.441238 0.932422 0.989951
O O13 0.000000 0.934849 0.250000
O O14 0.000000 0.352194 0.750000
#
# Coordination Sequence:
#
# PCOD8247179 Si02
#       6
#     8   8   8   8   8   8
#     4  10  20  42  67  90 120 160 206 259 306 361
#     4  11  25  41  58  91 125 164 202 247 312 366
#     4  10  21  38  62  89 115 158 201 245 299 352
#     4  11  25  40  61  87 126 164 200 249 310 368
#     4  10  22  39  67  96 118 155 210 257 306 366
#     4  10  21  39  62  89 118 154 203 249 295 355
#
# _framework density 20.407574
#
# number of rings (size 3 to 8) (size 9 to 14) (size 15 to 20)
#    0.000    1.667    1.667    3.000    4.667    4.000 
#    0.000    3.333    0.000    0.000    0.000    0.000 
#    0.000    0.000    0.000    0.000    0.000    0.000 
#
# Total GULP energy -594738.873181 kJ/mol
# GULP energy per Si atom -12390.393191 kJ/mol
# Density = 2.036113 g / cm^3
# Si number density = 20.407574 Si / 1000 Ang^3
#
#
#
# Elastic Constant Matrix: (Units=GPa)
#
#
# Indices 1 2 3 4 5 6 
#
# 1 114.2312 51.4036 35.5403 0.0000 0.0000 0.0000
# 2 51.4036 65.7083 16.2802 0.0000 0.0000 0.0000
# 3 35.5403 16.2802 84.2610 0.0000 0.0000 0.0000
# 4 0.0000 0.0000 0.0000 28.8601 0.0000 0.0000
# 5 0.0000 0.0000 0.0000 0.0000 33.2275 0.0000
# 6 0.0000 0.0000 0.0000 0.0000 0.0000 9.0527
#
#
#
# Elastic Compliance Matrix: (Units=1/GPa)
#
#
# Indices 1 2 3 4 5 6 
#
# 1 0.014807 -0.010541 -0.004209 0.000000 0.000000 0.000000
# 2 -0.010541 0.023488 -0.000092 0.000000 0.000000 0.000000
# 3 -0.004209 -0.000092 0.013661 0.000000 0.000000 0.000000
# 4 0.000000 0.000000 0.000000 0.034650 0.000000 0.000000
# 5 0.000000 0.000000 0.000000 0.000000 0.030096 0.000000
# 6 0.000000 0.000000 0.000000 0.000000 0.000000 0.110464
#
#
# Mechanical properties :
#
#
# Convention : Reuss Voigt Hill
#
# Bulk Modulus (GPa) = 44.89907 52.29431 48.59669
# Shear Modulus (GPa) = 18.91988 24.95981 21.93985
#
# Velocity S-wave (km/s) = 3.04814 3.50103 3.28240
# Velocity P-wave (km/s) = 5.86831 6.48256 6.18307
#
# Compressibility (1/GPa) = 0.02227218
#
# Stress axis : x y z
#
# Youngs Moduli (GPa) = 67.53606 42.57569 73.20153
#
# Poissons Ratio (x) = 0.44878 0.30809
# Poissons Ratio (y) = 0.71187 0.00675
# Poissons Ratio (z) = 0.28425 0.00392
#
# Static dielectric constant tensor:
#      x y z
#    x 3.524090 0.000000 0.000000 
#    y 0.000000 3.950410 0.000000 
#    z 0.000000 0.000000 3.812720 
# 
# 
# High freq. dielectric constant tensor:
#      x y z
#    x 1.781800 0.000000 0.000000 
#    y 0.000000 1.804730 0.000000 
#    z 0.000000 0.000000 1.811260 
# 
# From -- ./inp_files/6702.got.cif
#   From: 2010.03.12/outbox.cif.g09.slc.cpg/sg60_4_cif.got.tgz:6702.got - 2010.04.10 18:46:24.
