data_PCOD8247531
_publ_section_title
;
Structure prediction by ZEFSAII (Michael W. Deem and Ramdas Pophale) SiO2 
 PCOD8247531
Probable space group: P B C N
;
_chemical_formula_sum "Si O2"
_cell_formula_units_Z 64
_cell_length_a 13.453925
_cell_length_b 23.039872
_cell_length_c 9.221464
_cell_angle_alpha 90.000000
_cell_angle_beta 90.000000
_cell_angle_gamma 90.000000
_cell_volume 2858.439071
_symmetry_space_group_name_H-M "P B C N"
_symmetry_group_IT_number 60
_symmetry_cell_setting 'orthorhombic'
loop_
_space_group_symop_operation_xyz
x,y,z
1/2-x,1/2-y,1/2+z
1/2+x,1/2-y,-z
-x,y,1/2-z
-x,-y,-z
1/2+x,1/2+y,1/2-z
1/2-x,1/2+y,z
x,-y,1/2+z
loop_
_atom_site_type_symbol
_atom_site_label
_atom_site_fract_x
_atom_site_fract_y
_atom_site_fract_z
Si Si1 0.431630 0.389680 0.874201
Si Si2 0.332866 0.006145 0.996363
Si Si3 0.647903 0.720627 0.990781
Si Si4 0.926655 0.107514 0.635503
Si Si5 0.296030 0.713885 0.837584
Si Si6 0.532620 0.790349 0.589771
Si Si7 0.503122 0.916674 0.576474
Si Si8 0.188922 0.998932 0.753853
O O1 0.500000 0.361045 0.750000
O O2 0.367554 0.440963 0.803103
O O3 0.353178 0.342677 0.934839
O O4 0.509577 0.412169 0.996196
O O5 0.229315 0.002149 0.088640
O O6 0.392793 0.065055 0.026439
O O7 0.410863 0.953239 0.004986
O O8 0.293131 0.008260 0.833934
O O9 0.705068 0.716573 0.837000
O O10 0.533377 0.738482 0.973895
O O11 0.688984 0.771967 0.094990
O O12 0.837601 0.152523 0.602036
O O13 0.885829 0.051786 0.720479
O O14 0.000000 0.140129 0.750000
O O15 0.355670 0.767530 0.909208
O O16 0.500000 0.805313 0.750000
O O17 0.523171 0.852443 0.511929
O O18 0.500000 0.923860 0.750000
#
# Coordination Sequence:
#
# PCOD8247531 Si02
#       8
#     8   8   8   8   8   8   8   8
#     4  12  26  46  68  97 136 180 224 283 345 406
#     4  11  24  42  64 102 132 174 226 283 331 409
#     4  11  25  43  70 102 134 176 225 276 337 403
#     4  12  23  47  69  94 139 178 222 286 348 399
#     4  11  24  42  70  99 134 178 224 277 335 401
#     4   9  20  42  67  94 130 174 218 270 335 402
#     4  10  21  41  68  92 141 178 216 273 349 398
#     4  12  26  41  69  99 130 174 236 278 338 406
#
# _framework density 22.389842999999999
#
# number of rings (size 3 to 8) (size 9 to 14) (size 15 to 20)
#    0.000    1.000    3.750    2.625    5.250    1.000 
#    0.000    0.000    2.750    0.000    0.000    0.000 
#    0.000    0.000    0.000    0.000    0.000    0.000 
#
# Total GULP energy -793352.068604 kJ/mol
# GULP energy per Si atom -12396.126072 kJ/mol
# Density = 2.233888 g / cm^3
# Si number density = 22.389843 Si / 1000 Ang^3
#
#
#
# Elastic Constant Matrix: (Units=GPa)
#
#
# Indices 1 2 3 4 5 6 
#
# 1 70.7579 22.0222 27.5756 0.0000 0.0000 0.0000
# 2 22.0222 122.5955 17.5613 0.0000 0.0000 0.0000
# 3 27.5756 17.5613 75.0224 0.0000 0.0000 0.0000
# 4 0.0000 0.0000 0.0000 22.4597 0.0000 0.0000
# 5 0.0000 0.0000 0.0000 0.0000 49.0039 0.0000
# 6 0.0000 0.0000 0.0000 0.0000 0.0000 31.6296
#
#
#
# Elastic Compliance Matrix: (Units=1/GPa)
#
#
# Indices 1 2 3 4 5 6 
#
# 1 0.017072 -0.002243 -0.005750 0.000000 0.000000 0.000000
# 2 -0.002243 0.008735 -0.001220 0.000000 0.000000 0.000000
# 3 -0.005750 -0.001220 0.015728 0.000000 0.000000 0.000000
# 4 0.000000 0.000000 0.000000 0.044524 0.000000 0.000000
# 5 0.000000 0.000000 0.000000 0.000000 0.020407 0.000000
# 6 0.000000 0.000000 0.000000 0.000000 0.000000 0.031616
#
#
# Mechanical properties :
#
#
# Convention : Reuss Voigt Hill
#
# Bulk Modulus (GPa) = 43.27394 44.74377 44.00886
# Shear Modulus (GPa) = 30.44877 34.03309 32.24093
#
# Velocity S-wave (km/s) = 3.69173 3.90298 3.79882
# Velocity P-wave (km/s) = 6.12710 6.35125 6.24018
#
# Compressibility (1/GPa) = 0.02310859
#
# Stress axis : x y z
#
# Youngs Moduli (GPa) = 58.57672 114.48720 63.57915
#
# Poissons Ratio (x) = 0.25679 0.36557
# Poissons Ratio (y) = 0.13139 0.07758
# Poissons Ratio (z) = 0.33681 0.13969
#
# Static dielectric constant tensor:
#      x y z
#    x 3.706470 0.000000 0.000000 
#    y 0.000000 3.946420 0.000000 
#    z 0.000000 0.000000 4.057060 
# 
# 
# High freq. dielectric constant tensor:
#      x y z
#    x 1.885930 0.000000 0.000000 
#    y 0.000000 1.884480 0.000000 
#    z 0.000000 0.000000 1.876730 
# 
# From -- ./inp_files/6309.got.cif
#   From: 2010.03.12/outbox.cif.g09.slc.cpg/sg60_4_cif.got.tgz:6309.got - 2010.04.10 18:46:24.
