data_PCOD8247962
_publ_section_title
;
Structure prediction by ZEFSAII (Michael W. Deem and Ramdas Pophale) SiO2 
 PCOD8247962
Probable space group: P B C N
;
_chemical_formula_sum "Si O2"
_cell_formula_units_Z 32
_cell_length_a 5.141984
_cell_length_b 32.059834
_cell_length_c 8.582738
_cell_angle_alpha 90.000000
_cell_angle_beta 90.000000
_cell_angle_gamma 90.000000
_cell_volume 1414.874259
_symmetry_space_group_name_H-M "P B C N"
_symmetry_group_IT_number 60
_symmetry_cell_setting 'orthorhombic'
loop_
_space_group_symop_operation_xyz
x,y,z
1/2-x,1/2-y,1/2+z
1/2+x,1/2-y,-z
-x,y,1/2-z
-x,-y,-z
1/2+x,1/2+y,1/2-z
1/2-x,1/2+y,z
x,-y,1/2+z
loop_
_atom_site_type_symbol
_atom_site_label
_atom_site_fract_x
_atom_site_fract_y
_atom_site_fract_z
Si Si1 0.484917 0.453881 0.935018
Si Si2 0.249771 0.737033 0.144095
Si Si3 0.525139 0.818006 0.431297
Si Si4 0.991590 0.410638 0.064106
O O1 0.500000 0.453758 0.750000
O O2 0.500000 0.500000 0.000000
O O3 0.704242 0.423687 0.007528
O O4 0.199367 0.440131 0.985195
O O5 0.500000 0.730670 0.250000
O O6 0.253242 0.781759 0.051524
O O7 0.000000 0.732862 0.250000
O O8 0.234334 0.700896 0.012453
O O9 0.500000 0.825347 0.250000
O O10 0.570569 0.864187 0.498770
O O11 0.000000 0.414593 0.250000
#
# Coordination Sequence:
#
# PCOD8247962 Si02
#       4
#     8   8   8   8
#     4  12  26  47  72 100 133 170 214 267 332 398
#     4  11  24  41  64  94 132 177 225 276 326 380
#     4  10  23  42  65  94 132 177 224 270 326 386
#     4  11  25  44  69 100 135 174 219 271 327 392
#
# _framework density 22.616848999999998
#
# number of rings (size 3 to 8) (size 9 to 14) (size 15 to 20)
#    0.000    1.000    0.000    6.750    0.000   13.000 
#    0.000    1.250    0.000    0.000    0.000    0.000 
#    0.000    0.000    0.000    0.000    0.000    0.000 
#
# Total GULP energy -396447.329453 kJ/mol
# GULP energy per Si atom -12388.979045 kJ/mol
# Density = 2.256537 g / cm^3
# Si number density = 22.616849 Si / 1000 Ang^3
#
#
#
# Elastic Constant Matrix: (Units=GPa)
#
#
# Indices 1 2 3 4 5 6 
#
# 1 110.6729 15.2446 44.2218 0.0000 0.0000 0.0000
# 2 15.2446 156.2285 42.2974 0.0000 0.0000 0.0000
# 3 44.2218 42.2974 130.4889 0.0000 0.0000 0.0000
# 4 0.0000 0.0000 0.0000 65.4247 0.0000 0.0000
# 5 0.0000 0.0000 0.0000 0.0000 42.9758 0.0000
# 6 0.0000 0.0000 0.0000 0.0000 0.0000 43.2868
#
#
#
# Elastic Compliance Matrix: (Units=1/GPa)
#
#
# Indices 1 2 3 4 5 6 
#
# 1 0.010451 -0.000067 -0.003520 0.000000 0.000000 0.000000
# 2 -0.000067 0.007017 -0.002252 0.000000 0.000000 0.000000
# 3 -0.003520 -0.002252 0.009586 0.000000 0.000000 0.000000
# 4 0.000000 0.000000 0.000000 0.015285 0.000000 0.000000
# 5 0.000000 0.000000 0.000000 0.000000 0.023269 0.000000
# 6 0.000000 0.000000 0.000000 0.000000 0.000000 0.023102
#
#
# Mechanical properties :
#
#
# Convention : Reuss Voigt Hill
#
# Bulk Modulus (GPa) = 65.03210 66.76865 65.90037
# Shear Modulus (GPa) = 47.38710 50.04589 48.71649
#
# Velocity S-wave (km/s) = 4.58231 4.70911 4.64615
# Velocity P-wave (km/s) = 7.53744 7.69112 7.61467
#
# Compressibility (1/GPa) = 0.01537702
#
# Stress axis : x y z
#
# Youngs Moduli (GPa) = 95.68062 142.50935 104.31404
#
# Poissons Ratio (x) = 0.00951 0.36721
# Poissons Ratio (y) = 0.00639 0.23491
# Poissons Ratio (z) = 0.33682 0.32092
#
# Static dielectric constant tensor:
#      x y z
#    x 4.336760 0.000000 0.000000 
#    y 0.000000 4.712760 0.000000 
#    z 0.000000 0.000000 4.584460 
# 
# 
# High freq. dielectric constant tensor:
#      x y z
#    x 1.892240 0.000000 0.000000 
#    y 0.000000 1.902170 0.000000 
#    z 0.000000 0.000000 1.914950 
# 
# From -- ./inp_files/3030.got.cif
#   From: 2010.03.12/outbox.cif.g09.slc.cpg/sg60_2_cif.got.tgz:3030.got - 2010.04.10 18:46:24.
