data_PCOD8247078
_publ_section_title
;
Structure prediction by ZEFSAII (Michael W. Deem and Ramdas Pophale) SiO2 
 PCOD8247078
Probable space group: P B C N
;
_chemical_formula_sum "Si O2"
_cell_formula_units_Z 40
_cell_length_a 9.464946
_cell_length_b 15.378445
_cell_length_c 13.964160
_cell_angle_alpha 90.000000
_cell_angle_beta 90.000000
_cell_angle_gamma 90.000000
_cell_volume 2032.569388
_symmetry_space_group_name_H-M "P B C N"
_symmetry_group_IT_number 60
_symmetry_cell_setting 'orthorhombic'
loop_
_space_group_symop_operation_xyz
x,y,z
1/2-x,1/2-y,1/2+z
1/2+x,1/2-y,-z
-x,y,1/2-z
-x,-y,-z
1/2+x,1/2+y,1/2-z
1/2-x,1/2+y,z
x,-y,1/2+z
loop_
_atom_site_type_symbol
_atom_site_label
_atom_site_fract_x
_atom_site_fract_y
_atom_site_fract_z
Si Si1 0.838078 0.307001 0.257780
Si Si2 0.276687 0.714388 0.537752
Si Si3 0.938963 0.147986 0.496404
Si Si4 0.334564 0.631362 0.353405
Si Si5 0.371392 0.556966 0.821955
O O1 0.790566 0.323263 0.366259
O O2 0.816946 0.207033 0.225043
O O3 0.746443 0.369512 0.191259
O O4 0.000000 0.335021 0.250000
O O5 0.214481 0.809610 0.517242
O O6 0.448321 0.717490 0.543754
O O7 0.237521 0.651627 0.446948
O O8 0.925819 0.066085 0.568112
O O9 0.001273 0.123301 0.391247
O O10 0.299478 0.537841 0.307257
O O11 0.500000 0.571969 0.750000
#
# Coordination Sequence:
#
# PCOD8247078 Si02
#       5
#     8   8   8   8   8
#     4  12  22  41  62  90 128 163 204 256 317 364
#     4  10  21  39  62  91 123 167 201 250 308 366
#     4  10  20  39  63  89 124 161 207 249 307 364
#     4  10  23  39  65  88 124 160 213 248 314 361
#     4  12  22  39  65  94 121 165 211 257 299 375
#
# _framework density 19.679525999999999
#
# number of rings (size 3 to 8) (size 9 to 14) (size 15 to 20)
#    1.200    0.000    6.000    1.200    0.000    0.000 
#    0.000    4.000    0.000    0.000    0.000    0.000 
#    0.000    0.000    0.000    0.000    0.000    0.000 
#
# Total GULP energy -495571.944589 kJ/mol
# GULP energy per Si atom -12389.298615 kJ/mol
# Density = 1.963473 g / cm^3
# Si number density = 19.679526 Si / 1000 Ang^3
#
#
#
# Elastic Constant Matrix: (Units=GPa)
#
#
# Indices 1 2 3 4 5 6 
#
# 1 54.5636 29.9946 14.9450 0.0000 0.0000 0.0000
# 2 29.9946 112.2358 9.6368 0.0000 0.0000 0.0000
# 3 14.9450 9.6368 65.5253 0.0000 0.0000 0.0000
# 4 0.0000 0.0000 0.0000 18.0675 0.0000 0.0000
# 5 0.0000 0.0000 0.0000 0.0000 26.1702 0.0000
# 6 0.0000 0.0000 0.0000 0.0000 0.0000 22.7313
#
#
#
# Elastic Compliance Matrix: (Units=1/GPa)
#
#
# Indices 1 2 3 4 5 6 
#
# 1 0.022633 -0.005677 -0.004327 0.000000 0.000000 0.000000
# 2 -0.005677 0.010448 -0.000242 0.000000 0.000000 0.000000
# 3 -0.004327 -0.000242 0.016284 0.000000 0.000000 0.000000
# 4 0.000000 0.000000 0.000000 0.055348 0.000000 0.000000
# 5 0.000000 0.000000 0.000000 0.000000 0.038211 0.000000
# 6 0.000000 0.000000 0.000000 0.000000 0.000000 0.043992
#
#
# Mechanical properties :
#
#
# Convention : Reuss Voigt Hill
#
# Bulk Modulus (GPa) = 34.63485 37.94194 36.28839
# Shear Modulus (GPa) = 23.03800 25.24368 24.14084
#
# Velocity S-wave (km/s) = 3.42520 3.58542 3.50622
# Velocity P-wave (km/s) = 5.76891 6.03838 5.90518
#
# Compressibility (1/GPa) = 0.02887265
#
# Stress axis : x y z
#
# Youngs Moduli (GPa) = 44.18277 95.71436 61.41081
#
# Poissons Ratio (x) = 0.54338 0.26574
# Poissons Ratio (y) = 0.25083 0.01484
# Poissons Ratio (z) = 0.19119 0.02314
#
# Static dielectric constant tensor:
#      x y z
#    x 3.424270 0.000000 0.000000 
#    y 0.000000 3.337910 0.000000 
#    z 0.000000 0.000000 3.716030 
# 
# 
# High freq. dielectric constant tensor:
#      x y z
#    x 1.741690 0.000000 0.000000 
#    y 0.000000 1.746370 0.000000 
#    z 0.000000 0.000000 1.783420 
# 
# From -- ./inp_files/14696.got.cif
#   From: 2010.03.12/outbox.cif.g09.slc.cpg/sg60_8_cif.got.tgz:14696.got - 2010.04.10 18:46:24.
