data_PCOD8247643
_publ_section_title
;
Structure prediction by ZEFSAII (Michael W. Deem and Ramdas Pophale) SiO2 
 PCOD8247643
Probable space group: P B C N
;
_chemical_formula_sum "Si O2"
_cell_formula_units_Z 64
_cell_length_a 8.876214
_cell_length_b 14.761584
_cell_length_c 24.437798
_cell_angle_alpha 90.000000
_cell_angle_beta 90.000000
_cell_angle_gamma 90.000000
_cell_volume 3202.010835
_symmetry_space_group_name_H-M "P B C N"
_symmetry_group_IT_number 60
_symmetry_cell_setting 'orthorhombic'
loop_
_space_group_symop_operation_xyz
x,y,z
1/2-x,1/2-y,1/2+z
1/2+x,1/2-y,-z
-x,y,1/2-z
-x,-y,-z
1/2+x,1/2+y,1/2-z
1/2-x,1/2+y,z
x,-y,1/2+z
loop_
_atom_site_type_symbol
_atom_site_label
_atom_site_fract_x
_atom_site_fract_y
_atom_site_fract_z
Si Si1 0.950173 0.718009 0.412091
Si Si2 0.307411 0.017379 0.884436
Si Si3 0.127336 0.473675 0.578743
Si Si4 0.779786 0.816794 0.625025
Si Si5 0.012415 0.237877 0.031085
Si Si6 0.201101 0.655873 0.612524
Si Si7 0.647668 0.558871 0.510821
Si Si8 0.943111 0.326728 0.189141
O O1 0.861645 0.626318 0.394345
O O2 0.933856 0.720028 0.477875
O O3 0.867538 0.803115 0.384452
O O4 0.119043 0.723409 0.391138
O O5 0.184019 0.063550 0.924298
O O6 0.356016 0.084859 0.835270
O O7 0.450193 0.997311 0.923542
O O8 0.236524 0.923710 0.860788
O O9 0.212385 0.546867 0.617219
O O10 0.207561 0.482495 0.519998
O O11 0.889043 0.799996 0.573514
O O12 0.838824 0.762197 0.678741
O O13 0.116101 0.316737 0.056249
O O14 0.121718 0.158396 0.011932
O O15 0.101207 0.695159 0.660832
O O16 0.500000 0.500000 0.500000
O O17 0.000000 0.344048 0.250000
#
# Coordination Sequence:
#
# PCOD8247643 Si02
#       8
#     8   8   8   8   8   8   8   8
#     4  11  21  35  56  87 126 157 197 239 295 373
#     4  10  22  39  62  87 124 162 207 253 311 384
#     4  10  23  34  53  84 123 166 195 240 295 370
#     4  10  22  39  60  90 119 162 205 253 310 370
#     4  11  21  33  53  86 129 165 195 232 296 374
#     4  10  22  38  57  84 117 159 203 248 301 369
#     4  12  21  33  54  89 129 168 196 240 294 375
#     4  10  23  45  67  84 114 158 210 268 322 357
#
# _framework density 19.987438999999998
#
# number of rings (size 3 to 8) (size 9 to 14) (size 15 to 20)
#    0.000    1.500    2.500    2.625    8.750    0.000 
#    0.000    4.375    0.000    0.000    0.000    0.000 
#    0.000    0.000    0.000    0.000    0.000    0.000 
#
# Total GULP energy -793148.824892 kJ/mol
# GULP energy per Si atom -12392.950389 kJ/mol
# Density = 1.994195 g / cm^3
# Si number density = 19.987439 Si / 1000 Ang^3
#
#
#
# Elastic Constant Matrix: (Units=GPa)
#
#
# Indices 1 2 3 4 5 6 
#
# 1 92.5499 52.3723 50.6709 0.0000 0.0000 0.0000
# 2 52.3723 117.6379 45.5500 0.0000 0.0000 0.0000
# 3 50.6709 45.5500 92.0342 0.0000 0.0000 0.0000
# 4 0.0000 0.0000 0.0000 18.2030 0.0000 0.0000
# 5 0.0000 0.0000 0.0000 0.0000 22.1668 0.0000
# 6 0.0000 0.0000 0.0000 0.0000 0.0000 35.1051
#
#
#
# Elastic Compliance Matrix: (Units=1/GPa)
#
#
# Indices 1 2 3 4 5 6 
#
# 1 0.017600 -0.005052 -0.007190 0.000000 0.000000 0.000000
# 2 -0.005052 0.011966 -0.003141 0.000000 0.000000 0.000000
# 3 -0.007190 -0.003141 0.016379 0.000000 0.000000 0.000000
# 4 0.000000 0.000000 0.000000 0.054936 0.000000 0.000000
# 5 0.000000 0.000000 0.000000 0.000000 0.045113 0.000000
# 6 0.000000 0.000000 0.000000 0.000000 0.000000 0.028486
#
#
# Mechanical properties :
#
#
# Convention : Reuss Voigt Hill
#
# Bulk Modulus (GPa) = 65.87761 66.60091 66.23926
# Shear Modulus (GPa) = 23.77520 25.33691 24.55605
#
# Velocity S-wave (km/s) = 3.45266 3.56426 3.50891
# Velocity P-wave (km/s) = 6.99468 7.09453 7.04478
#
# Compressibility (1/GPa) = 0.01517966
#
# Stress axis : x y z
#
# Youngs Moduli (GPa) = 56.81825 83.57145 61.05559
#
# Poissons Ratio (x) = 0.42217 0.43898
# Poissons Ratio (y) = 0.28702 0.19177
# Poissons Ratio (z) = 0.40851 0.26249
#
# Static dielectric constant tensor:
#      x y z
#    x 3.738660 0.000000 0.000000 
#    y 0.000000 4.025060 0.000000 
#    z 0.000000 0.000000 3.190750 
# 
# 
# High freq. dielectric constant tensor:
#      x y z
#    x 1.792580 0.000000 0.000000 
#    y 0.000000 1.800000 0.000000 
#    z 0.000000 0.000000 1.716910 
# 
# From -- ./inp_files/24116.got.cif
#   From: 2010.03.12/outbox.cif.g09.slc.cpg/sg60_13_cif.got.tgz:24116.got - 2010.04.10 18:46:24.
