data_PCOD8247877
_publ_section_title
;
Structure prediction by ZEFSAII (Michael W. Deem and Ramdas Pophale) SiO2 
 PCOD8247877
Probable space group: P B C N
;
_chemical_formula_sum "Si O2"
_cell_formula_units_Z 48
_cell_length_a 12.315441
_cell_length_b 22.802753
_cell_length_c 7.854333
_cell_angle_alpha 90.000000
_cell_angle_beta 90.000000
_cell_angle_gamma 90.000000
_cell_volume 2205.700599
_symmetry_space_group_name_H-M "P B C N"
_symmetry_group_IT_number 60
_symmetry_cell_setting 'orthorhombic'
loop_
_space_group_symop_operation_xyz
x,y,z
1/2-x,1/2-y,1/2+z
1/2+x,1/2-y,-z
-x,y,1/2-z
-x,-y,-z
1/2+x,1/2+y,1/2-z
1/2-x,1/2+y,z
x,-y,1/2+z
loop_
_atom_site_type_symbol
_atom_site_label
_atom_site_fract_x
_atom_site_fract_y
_atom_site_fract_z
Si Si1 0.263576 0.180158 0.400641
Si Si2 0.442785 0.054958 0.079257
Si Si3 0.489186 0.167988 0.562575
Si Si4 0.605589 0.262131 0.338262
Si Si5 0.708672 0.566120 0.316665
Si Si6 0.420247 0.465910 0.382498
O O1 0.363484 0.158231 0.514748
O O2 0.163939 0.195759 0.526089
O O3 0.302841 0.237082 0.292404
O O4 0.220425 0.127766 0.280708
O O5 0.500000 0.078384 0.250000
O O6 0.321565 0.037990 0.126978
O O7 0.449041 0.105904 0.938722
O O8 0.500000 0.000000 0.000000
O O9 0.500000 0.195725 0.750000
O O10 0.551934 0.207128 0.429294
O O11 0.500000 0.294136 0.250000
O O12 0.654871 0.515040 0.205881
O O13 0.645694 0.578799 0.496012
O O14 0.500000 0.431575 0.250000
O O15 0.500000 0.500000 0.500000
#
# Coordination Sequence:
#
# PCOD8247877 Si02
#       6
#     8   8   8   8   8   8
#     4  11  22  43  70  98 136 181 227 282 349 408
#     4  12  22  38  61 104 141 173 221 274 345 428
#     4  11  22  41  64  98 142 177 219 285 340 403
#     4  10  22  44  68  99 134 174 229 287 339 401
#     4  11  21  41  69  96 134 181 226 275 349 417
#     4   9  21  43  65  91 132 174 220 282 333 394
#
# _framework density 21.761793999999998
#
# number of rings (size 3 to 8) (size 9 to 14) (size 15 to 20)
#    0.000    1.333    3.333    3.000    0.000    0.000 
#    3.000   15.000    0.000    0.000    0.000    0.000 
#    0.000    0.000    0.000    0.000    0.000    0.000 
#
# Total GULP energy -594887.003043 kJ/mol
# GULP energy per Si atom -12393.479230 kJ/mol
# Density = 2.171226 g / cm^3
# Si number density = 21.761794 Si / 1000 Ang^3
#
#
#
# Elastic Constant Matrix: (Units=GPa)
#
#
# Indices 1 2 3 4 5 6 
#
# 1 165.2818 48.7271 77.6973 0.0000 0.0000 0.0000
# 2 48.7271 70.7823 34.6748 0.0000 0.0000 0.0000
# 3 77.6973 34.6748 138.2442 0.0000 0.0000 0.0000
# 4 0.0000 0.0000 0.0000 52.4783 0.0000 0.0000
# 5 0.0000 0.0000 0.0000 0.0000 61.1136 0.0000
# 6 0.0000 0.0000 0.0000 0.0000 0.0000 -6.4048
#
#
#
# Elastic Compliance Matrix: (Units=1/GPa)
#
#
# Indices 1 2 3 4 5 6 
#
# 1 0.009273 -0.004367 -0.004116 0.000000 0.000000 0.000000
# 2 -0.004367 0.018164 -0.002101 0.000000 0.000000 0.000000
# 3 -0.004116 -0.002101 0.010074 0.000000 0.000000 0.000000
# 4 0.000000 0.000000 0.000000 0.019055 0.000000 0.000000
# 5 0.000000 0.000000 0.000000 0.000000 0.016363 0.000000
# 6 0.000000 0.000000 0.000000 0.000000 0.000000 -0.156132
#
#
# Mechanical properties :
#
#
# Convention : Reuss Voigt Hill
#
# Bulk Modulus (GPa) = 61.19544 77.38962 69.29253
# Shear Modulus (GPa) = -88.35883 35.65136 -26.35373
#
# Velocity S-wave (km/s) = -6.37894 4.05193 -3.48373
# Velocity P-wave (km/s) = 5.10616 7.58486 3.96594
#
# Compressibility (1/GPa) = 0.01634109
#
# Stress axis : x y z
#
# Youngs Moduli (GPa) = 107.84365 55.05536 99.26452
#
# Poissons Ratio (x) = 0.24042 0.40859
# Poissons Ratio (y) = 0.47095 0.20860
# Poissons Ratio (z) = 0.44390 0.11570
#
# Static dielectric constant tensor:
#      x y z
#    x -2.095460 0.000000 0.000000 
#    y 0.000000 3.482960 0.000000 
#    z 0.000000 0.000000 5.902330 
# 
# 
# High freq. dielectric constant tensor:
#      x y z
#    x 1.874710 0.000000 0.000000 
#    y 0.000000 1.823360 0.000000 
#    z 0.000000 0.000000 1.875250 
# 
# From -- ./inp_files/5069.got.cif
#   From: 2010.03.12/outbox.cif.g09.slc.cpg/sg60_3_cif.got.tgz:5069.got - 2010.04.10 18:46:24.
