data_PCOD8247888
_publ_section_title
;
Structure prediction by ZEFSAII (Michael W. Deem and Ramdas Pophale) SiO2 
 PCOD8247888
Probable space group: P B C N
;
_chemical_formula_sum "Si O2"
_cell_formula_units_Z 36
_cell_length_a 5.150524
_cell_length_b 22.136808
_cell_length_c 13.517114
_cell_angle_alpha 90.000000
_cell_angle_beta 90.000000
_cell_angle_gamma 90.000000
_cell_volume 1541.169445
_symmetry_space_group_name_H-M "P B C N"
_symmetry_group_IT_number 60
_symmetry_cell_setting 'orthorhombic'
loop_
_space_group_symop_operation_xyz
x,y,z
1/2-x,1/2-y,1/2+z
1/2+x,1/2-y,-z
-x,y,1/2-z
-x,-y,-z
1/2+x,1/2+y,1/2-z
1/2-x,1/2+y,z
x,-y,1/2+z
loop_
_atom_site_type_symbol
_atom_site_label
_atom_site_fract_x
_atom_site_fract_y
_atom_site_fract_z
Si Si1 0.090987 0.508021 0.612755
Si Si2 0.108560 0.061986 0.348565
Si Si3 0.500000 0.115379 0.750000
Si Si4 0.789243 0.697760 0.599831
Si Si5 0.708272 0.675762 0.027309
O O1 0.858212 0.479013 0.679103
O O2 0.117672 0.575655 0.658745
O O3 0.000000 0.500000 0.500000
O O4 0.374074 0.478398 0.610648
O O5 0.217492 0.110976 0.422921
O O6 0.000000 0.094265 0.250000
O O7 0.283575 0.161510 0.796034
O O8 0.781333 0.770864 0.610318
O O9 0.553981 0.676734 0.533564
O O10 0.053133 0.680283 0.545523
#
# Coordination Sequence:
#
# PCOD8247888 Si02
#       5
#     8   8   4   8   8
#     4  12  26  43  65  96 135 175 218 277 328 385
#     4  12  23  42  65  94 126 173 217 268 318 402
#     4  12  24  44  66 100 132 174 230 258 338 388
#     4  10  24  41  68  95 130 167 213 280 316 409
#     4  10  22  45  65  96 129 168 217 265 350 370
#
# _framework density 23.358886999999999
#
# number of rings (size 3 to 8) (size 9 to 14) (size 15 to 20)
#    0.000    0.889    2.222    4.667    1.556    4.444 
#    0.000    0.000    0.000    0.000    0.000    0.000 
#    0.000    0.000    0.000    0.000    0.000    0.000 
#
# Total GULP energy -446140.187887 kJ/mol
# GULP energy per Si atom -12392.782997 kJ/mol
# Density = 2.330572 g / cm^3
# Si number density = 23.358887 Si / 1000 Ang^3
#
#
#
# Elastic Constant Matrix: (Units=GPa)
#
#
# Indices 1 2 3 4 5 6 
#
# 1 158.8022 29.9039 13.9484 0.0000 0.0000 0.0000
# 2 29.9039 129.9164 28.8068 0.0000 0.0000 0.0000
# 3 13.9484 28.8068 79.3478 0.0000 0.0000 0.0000
# 4 0.0000 0.0000 0.0000 56.6812 0.0000 0.0000
# 5 0.0000 0.0000 0.0000 0.0000 23.6130 0.0000
# 6 0.0000 0.0000 0.0000 0.0000 0.0000 21.7314
#
#
#
# Elastic Compliance Matrix: (Units=1/GPa)
#
#
# Indices 1 2 3 4 5 6 
#
# 1 0.006614 -0.001375 -0.000663 0.000000 0.000000 0.000000
# 2 -0.001375 0.008657 -0.002901 0.000000 0.000000 0.000000
# 3 -0.000663 -0.002901 0.013773 0.000000 0.000000 0.000000
# 4 0.000000 0.000000 0.000000 0.017643 0.000000 0.000000
# 5 0.000000 0.000000 0.000000 0.000000 0.042350 0.000000
# 6 0.000000 0.000000 0.000000 0.000000 0.000000 0.046016
#
#
# Mechanical properties :
#
#
# Convention : Reuss Voigt Hill
#
# Bulk Modulus (GPa) = 52.18049 57.04274 54.61162
# Shear Modulus (GPa) = 33.04246 40.09895 36.57071
#
# Velocity S-wave (km/s) = 3.76514 4.14774 3.96106
# Velocity P-wave (km/s) = 6.42564 6.88560 6.65959
#
# Compressibility (1/GPa) = 0.01916425
#
# Stress axis : x y z
#
# Youngs Moduli (GPa) = 151.18502 115.51183 72.60795
#
# Poissons Ratio (x) = 0.15887 0.04817
# Poissons Ratio (y) = 0.20794 0.21065
# Poissons Ratio (z) = 0.10030 0.33512
#
# Static dielectric constant tensor:
#      x y z
#    x 4.322800 0.000000 0.000000 
#    y 0.000000 4.537190 0.000000 
#    z 0.000000 0.000000 4.294330 
# 
# 
# High freq. dielectric constant tensor:
#      x y z
#    x 1.937540 0.000000 0.000000 
#    y 0.000000 1.930680 0.000000 
#    z 0.000000 0.000000 1.926530 
# 
# From -- ./inp_files/13706.got.cif
#   From: 2010.03.12/outbox.cif.g09.slc.cpg/sg60_7_cif.got.tgz:13706.got - 2010.04.10 18:46:24.
