data_PCOD8247372
_publ_section_title
;
Structure prediction by ZEFSAII (Michael W. Deem and Ramdas Pophale) SiO2 
 PCOD8247372
Probable space group: P B C N
;
_chemical_formula_sum "Si O2"
_cell_formula_units_Z 40
_cell_length_a 9.810670
_cell_length_b 22.079270
_cell_length_c 8.774848
_cell_angle_alpha 90.000000
_cell_angle_beta 90.000000
_cell_angle_gamma 90.000000
_cell_volume 1900.741164
_symmetry_space_group_name_H-M "P B C N"
_symmetry_group_IT_number 60
_symmetry_cell_setting 'orthorhombic'
loop_
_space_group_symop_operation_xyz
x,y,z
1/2-x,1/2-y,1/2+z
1/2+x,1/2-y,-z
-x,y,1/2-z
-x,-y,-z
1/2+x,1/2+y,1/2-z
1/2-x,1/2+y,z
x,-y,1/2+z
loop_
_atom_site_type_symbol
_atom_site_label
_atom_site_fract_x
_atom_site_fract_y
_atom_site_fract_z
Si Si1 0.274577 0.994333 0.008631
Si Si2 0.150482 0.806288 0.318965
Si Si3 0.346154 0.580643 0.239001
Si Si4 0.352038 0.710852 0.173271
Si Si5 0.142495 0.412697 0.278488
O O1 0.201093 0.949379 0.893867
O O2 0.373775 0.040668 0.919910
O O3 0.351983 0.953080 0.127508
O O4 0.165702 0.035392 0.097581
O O5 0.242251 0.759918 0.225155
O O6 0.132421 0.784415 0.491452
O O7 0.226680 0.870943 0.305486
O O8 0.000000 0.813349 0.250000
O O9 0.500000 0.600082 0.250000
O O10 0.278308 0.646602 0.213527
O O11 0.500000 0.722389 0.250000
O O12 0.000000 0.376047 0.250000
#
# Coordination Sequence:
#
# PCOD8247372 Si02
#       5
#     8   8   8   8   8
#     4  10  22  40  64  99 133 180 219 273 325 409
#     4  12  27  46  72 101 133 178 229 285 345 403
#     4  10  21  38  66  98 138 170 219 269 340 395
#     4  11  25  47  70  99 139 175 229 280 340 409
#     4  11  24  43  68  98 138 178 226 272 337 398
#
# _framework density 21.044422000000001
#
# number of rings (size 3 to 8) (size 9 to 14) (size 15 to 20)
#    0.000    1.200    2.000    3.000    8.400    3.200 
#    0.000    1.000    0.000    0.000    0.000    0.000 
#    0.000    0.000    0.000    0.000    0.000    0.000 
#
# Total GULP energy -495701.584222 kJ/mol
# GULP energy per Si atom -12392.539606 kJ/mol
# Density = 2.099652 g / cm^3
# Si number density = 21.044422 Si / 1000 Ang^3
#
#
#
# Elastic Constant Matrix: (Units=GPa)
#
#
# Indices 1 2 3 4 5 6 
#
# 1 132.0154 45.2767 50.5175 0.0000 0.0000 0.0000
# 2 45.2767 105.1928 45.9074 0.0000 0.0000 0.0000
# 3 50.5175 45.9074 162.8840 0.0000 0.0000 0.0000
# 4 0.0000 0.0000 0.0000 269.2940 0.0000 0.0000
# 5 0.0000 0.0000 0.0000 0.0000 14.1026 0.0000
# 6 0.0000 0.0000 0.0000 0.0000 0.0000 34.6939
#
#
#
# Elastic Compliance Matrix: (Units=1/GPa)
#
#
# Indices 1 2 3 4 5 6 
#
# 1 0.009442 -0.003177 -0.002033 0.000000 0.000000 0.000000
# 2 -0.003177 0.011908 -0.002371 0.000000 0.000000 0.000000
# 3 -0.002033 -0.002371 0.007438 0.000000 0.000000 0.000000
# 4 0.000000 0.000000 0.000000 0.003713 0.000000 0.000000
# 5 0.000000 0.000000 0.000000 0.000000 0.070909 0.000000
# 6 0.000000 0.000000 0.000000 0.000000 0.000000 0.028824
#
#
# Mechanical properties :
#
#
# Convention : Reuss Voigt Hill
#
# Bulk Modulus (GPa) = 73.38374 75.94394 74.66384
# Shear Modulus (GPa) = 32.90788 80.84414 56.87601
#
# Velocity S-wave (km/s) = 3.95870 6.20478 5.20436
# Velocity P-wave (km/s) = 7.47273 9.35405 8.46581
#
# Compressibility (1/GPa) = 0.01362700
#
# Stress axis : x y z
#
# Youngs Moduli (GPa) = 105.90475 83.97386 134.44200
#
# Poissons Ratio (x) = 0.26678 0.27334
# Poissons Ratio (y) = 0.33645 0.31876
# Poissons Ratio (z) = 0.21532 0.19910
#
# Static dielectric constant tensor:
#      x y z
#    x 2.511960 0.000000 0.000000 
#    y 0.000000 3.899400 0.000000 
#    z 0.000000 0.000000 2.594880 
# 
# 
# High freq. dielectric constant tensor:
#      x y z
#    x 1.816460 0.000000 0.000000 
#    y 0.000000 1.837770 0.000000 
#    z 0.000000 0.000000 1.843900 
# 
# From -- ./inp_files/3811.got.cif
#   From: 2010.03.12/outbox.cif.g09.slc.cpg/sg60_2_cif.got.tgz:3811.got - 2010.04.10 18:46:24.
