data_PCOD8247126
_publ_section_title
;
Structure prediction by ZEFSAII (Michael W. Deem and Ramdas Pophale) SiO2 
 PCOD8247126
Probable space group: P B C N
;
_chemical_formula_sum "Si O2"
_cell_formula_units_Z 48
_cell_length_a 8.409418
_cell_length_b 9.695451
_cell_length_c 29.646220
_cell_angle_alpha 90.000000
_cell_angle_beta 90.000000
_cell_angle_gamma 90.000000
_cell_volume 2417.148225
_symmetry_space_group_name_H-M "P B C N"
_symmetry_group_IT_number 60
_symmetry_cell_setting 'orthorhombic'
loop_
_space_group_symop_operation_xyz
x,y,z
1/2-x,1/2-y,1/2+z
1/2+x,1/2-y,-z
-x,y,1/2-z
-x,-y,-z
1/2+x,1/2+y,1/2-z
1/2-x,1/2+y,z
x,-y,1/2+z
loop_
_atom_site_type_symbol
_atom_site_label
_atom_site_fract_x
_atom_site_fract_y
_atom_site_fract_z
Si Si1 0.625302 0.255234 0.156506
Si Si2 0.943256 0.732206 0.700523
Si Si3 0.927138 0.500860 0.360369
Si Si4 0.085959 0.455712 0.455061
Si Si5 0.336007 0.333699 0.925504
Si Si6 0.443775 0.467713 0.644516
O O1 0.500289 0.376464 0.150260
O O2 0.751567 0.285468 0.196722
O O3 0.528128 0.116231 0.166377
O O4 0.724162 0.239891 0.110879
O O5 0.036917 0.641934 0.663930
O O6 0.000000 0.690344 0.750000
O O7 0.991760 0.888626 0.688773
O O8 0.744252 0.539340 0.357814
O O9 0.976017 0.490980 0.412402
O O10 0.248706 0.543570 0.452208
O O11 0.000000 0.500000 0.500000
O O12 0.115431 0.290885 0.458853
O O13 0.488573 0.400409 0.901250
#
# Coordination Sequence:
#
# PCOD8247126 Si02
#       6
#     8   8   8   8   8   8
#     4  10  20  40  67  87 124 172 208 259 322 376
#     4  11  23  41  64  91 125 170 215 262 327 393
#     4  11  23  40  64  95 130 168 215 269 318 386
#     4  11  23  42  66  94 130 172 224 260 324 383
#     4  10  20  42  63  90 124 174 208 264 320 375
#     4  11  21  39  65  91 128 165 214 263 327 380
#
# _framework density 19.858111000000001
#
# number of rings (size 3 to 8) (size 9 to 14) (size 15 to 20)
#    0.000    1.333    5.000    3.000    0.000    4.000 
#    3.000    4.167    0.000    0.000    0.000    0.000 
#    0.000    0.000    0.000    0.000    0.000    0.000 
#
# Total GULP energy -595296.148332 kJ/mol
# GULP energy per Si atom -12402.003090 kJ/mol
# Density = 1.981291 g / cm^3
# Si number density = 19.858111 Si / 1000 Ang^3
#
#
#
# Elastic Constant Matrix: (Units=GPa)
#
#
# Indices 1 2 3 4 5 6 
#
# 1 131.3896 22.1156 38.6225 0.0000 0.0000 0.0000
# 2 22.1156 81.1851 18.1075 0.0000 0.0000 0.0000
# 3 38.6225 18.1075 90.9276 0.0000 0.0000 0.0000
# 4 0.0000 0.0000 0.0000 11.8280 0.0000 0.0000
# 5 0.0000 0.0000 0.0000 0.0000 24.4501 0.0000
# 6 0.0000 0.0000 0.0000 0.0000 0.0000 33.2706
#
#
#
# Elastic Compliance Matrix: (Units=1/GPa)
#
#
# Indices 1 2 3 4 5 6 
#
# 1 0.008905 -0.001656 -0.003453 0.000000 0.000000 0.000000
# 2 -0.001656 0.013198 -0.001925 0.000000 0.000000 0.000000
# 3 -0.003453 -0.001925 0.012848 0.000000 0.000000 0.000000
# 4 0.000000 0.000000 0.000000 0.084545 0.000000 0.000000
# 5 0.000000 0.000000 0.000000 0.000000 0.040900 0.000000
# 6 0.000000 0.000000 0.000000 0.000000 0.000000 0.030057
#
#
# Mechanical properties :
#
#
# Convention : Reuss Voigt Hill
#
# Bulk Modulus (GPa) = 47.88442 51.24371 49.56407
# Shear Modulus (GPa) = 23.64304 28.88685 26.26495
#
# Velocity S-wave (km/s) = 3.45425 3.81814 3.64074
# Velocity P-wave (km/s) = 6.33046 6.73042 6.53350
#
# Compressibility (1/GPa) = 0.02088362
#
# Stress axis : x y z
#
# Youngs Moduli (GPa) = 112.30234 75.76967 77.83527
#
# Poissons Ratio (x) = 0.12545 0.26873
# Poissons Ratio (y) = 0.18593 0.14983
# Poissons Ratio (z) = 0.38773 0.14586
#
# Static dielectric constant tensor:
#      x y z
#    x 3.769210 0.000000 0.000000 
#    y 0.000000 3.868780 0.000000 
#    z 0.000000 0.000000 3.391620 
# 
# 
# High freq. dielectric constant tensor:
#      x y z
#    x 1.780880 0.000000 0.000000 
#    y 0.000000 1.795890 0.000000 
#    z 0.000000 0.000000 1.744180 
# 
# From -- ./inp_files/25950.got.cif
#   From: 2010.03.12/outbox.cif.g09.slc.cpg/sg60_13_cif.got.tgz:25950.got - 2010.04.10 18:46:24.
