data_PCOD8247103
_publ_section_title
;
Structure prediction by ZEFSAII (Michael W. Deem and Ramdas Pophale) SiO2 
 PCOD8247103
Probable space group: P B C N
;
_chemical_formula_sum "Si O2"
_cell_formula_units_Z 56
_cell_length_a 11.571492
_cell_length_b 22.074488
_cell_length_c 11.189034
_cell_angle_alpha 90.000000
_cell_angle_beta 90.000000
_cell_angle_gamma 90.000000
_cell_volume 2858.068229
_symmetry_space_group_name_H-M "P B C N"
_symmetry_group_IT_number 60
_symmetry_cell_setting 'orthorhombic'
loop_
_space_group_symop_operation_xyz
x,y,z
1/2-x,1/2-y,1/2+z
1/2+x,1/2-y,-z
-x,y,1/2-z
-x,-y,-z
1/2+x,1/2+y,1/2-z
1/2-x,1/2+y,z
x,-y,1/2+z
loop_
_atom_site_type_symbol
_atom_site_label
_atom_site_fract_x
_atom_site_fract_y
_atom_site_fract_z
Si Si1 0.694348 0.856190 0.397426
Si Si2 0.427348 0.125226 0.945904
Si Si3 0.292092 0.958721 0.279230
Si Si4 0.934314 0.985857 0.626489
Si Si5 0.679370 0.359484 0.637343
Si Si6 0.123657 0.272228 0.292770
Si Si7 0.625339 0.086944 0.295909
O O1 0.566083 0.869447 0.449155
O O2 0.746439 0.914042 0.327244
O O3 0.778377 0.843334 0.506043
O O4 0.707154 0.796667 0.312716
O O5 0.395008 0.073180 0.851241
O O6 0.360722 0.188265 0.913609
O O7 0.368921 0.105248 0.067579
O O8 0.185881 0.976724 0.367643
O O9 0.345097 0.016924 0.216082
O O10 0.912827 0.913704 0.631498
O O11 0.000000 0.003538 0.750000
O O12 0.000000 0.000000 0.500000
O O13 0.622181 0.299068 0.689124
O O14 0.785160 0.373339 0.722834
O O15 0.000000 0.295016 0.250000
O O16 0.500000 0.103248 0.250000
#
# Coordination Sequence:
#
# PCOD8247103 Si02
#       7
#     8   8   8   8   8   8   8
#     4  10  20  40  61  90 121 151 196 250 305 365
#     4  10  21  39  61  87 124 154 191 249 307 362
#     4  10  23  37  63  87 117 159 193 240 314 359
#     4  11  25  43  62  88 126 163 211 262 297 366
#     4  11  23  37  63  87 118 164 202 248 303 360
#     4   9  21  41  59  81 116 164 202 240 292 355
#     4  11  22  34  58  94 121 147 191 248 298 361
#
# _framework density 19.593654000000001
#
# number of rings (size 3 to 8) (size 9 to 14) (size 15 to 20)
#    0.000    1.714    1.429    3.429   10.000    1.143 
#    0.000    1.429    0.000    0.000    0.000    0.000 
#    0.000    0.000    0.000    0.000    0.000    0.000 
#
# Total GULP energy -694079.151290 kJ/mol
# GULP energy per Si atom -12394.270559 kJ/mol
# Density = 1.954906 g / cm^3
# Si number density = 19.593654 Si / 1000 Ang^3
#
#
#
# Elastic Constant Matrix: (Units=GPa)
#
#
# Indices 1 2 3 4 5 6 
#
# 1 50.5827 16.3389 18.3517 0.0000 0.0000 0.0000
# 2 16.3389 117.3052 37.7794 0.0000 0.0000 0.0000
# 3 18.3517 37.7794 113.1762 0.0000 0.0000 0.0000
# 4 0.0000 0.0000 0.0000 18.7626 0.0000 0.0000
# 5 0.0000 0.0000 0.0000 0.0000 34.2057 0.0000
# 6 0.0000 0.0000 0.0000 0.0000 0.0000 21.8611
#
#
#
# Elastic Compliance Matrix: (Units=1/GPa)
#
#
# Indices 1 2 3 4 5 6 
#
# 1 0.021454 -0.002093 -0.002780 0.000000 0.000000 0.000000
# 2 -0.002093 0.009756 -0.002917 0.000000 0.000000 0.000000
# 3 -0.002780 -0.002917 0.010260 0.000000 0.000000 0.000000
# 4 0.000000 0.000000 0.000000 0.053298 0.000000 0.000000
# 5 0.000000 0.000000 0.000000 0.000000 0.029235 0.000000
# 6 0.000000 0.000000 0.000000 0.000000 0.000000 0.045743
#
#
# Mechanical properties :
#
#
# Convention : Reuss Voigt Hill
#
# Bulk Modulus (GPa) = 38.62514 47.33379 42.97947
# Shear Modulus (GPa) = 25.77890 28.87214 27.32552
#
# Velocity S-wave (km/s) = 3.63116 3.84284 3.73850
# Velocity P-wave (km/s) = 6.11034 6.62571 6.37324
#
# Compressibility (1/GPa) = 0.02588987
#
# Stress axis : x y z
#
# Youngs Moduli (GPa) = 46.61063 102.50315 97.46217
#
# Poissons Ratio (x) = 0.21453 0.27097
# Poissons Ratio (y) = 0.09755 0.28432
# Poissons Ratio (z) = 0.12959 0.29902
#
# Static dielectric constant tensor:
#      x y z
#    x 3.876700 0.000000 0.000000 
#    y 0.000000 3.522130 0.000000 
#    z 0.000000 0.000000 3.766470 
# 
# 
# High freq. dielectric constant tensor:
#      x y z
#    x 1.748900 0.000000 0.000000 
#    y 0.000000 1.765690 0.000000 
#    z 0.000000 0.000000 1.777790 
# 
# From -- ./inp_files/11206.got.cif
#   From: 2010.03.12/outbox.cif.g09.slc.cpg/sg60_6_cif.got.tgz:11206.got - 2010.04.10 18:46:24.
