data_PCOD8247879
_publ_section_title
;
Structure prediction by ZEFSAII (Michael W. Deem and Ramdas Pophale) SiO2 
 PCOD8247879
Probable space group: P B C N
;
_chemical_formula_sum "Si O2"
_cell_formula_units_Z 48
_cell_length_a 13.812126
_cell_length_b 9.129375
_cell_length_c 16.397205
_cell_angle_alpha 90.000000
_cell_angle_beta 90.000000
_cell_angle_gamma 90.000000
_cell_volume 2067.623237
_symmetry_space_group_name_H-M "P B C N"
_symmetry_group_IT_number 60
_symmetry_cell_setting 'orthorhombic'
loop_
_space_group_symop_operation_xyz
x,y,z
1/2-x,1/2-y,1/2+z
1/2+x,1/2-y,-z
-x,y,1/2-z
-x,-y,-z
1/2+x,1/2+y,1/2-z
1/2-x,1/2+y,z
x,-y,1/2+z
loop_
_atom_site_type_symbol
_atom_site_label
_atom_site_fract_x
_atom_site_fract_y
_atom_site_fract_z
Si Si1 0.314671 0.917692 0.952337
Si Si2 0.305292 0.801655 0.550989
Si Si3 0.500000 0.001571 0.250000
Si Si4 0.999385 0.735121 0.123881
Si Si5 0.803964 0.603489 0.701264
Si Si6 0.303409 0.378374 0.709255
Si Si7 0.500000 0.478725 0.250000
O O1 0.412433 0.830913 0.929599
O O2 0.271601 0.022112 0.880813
O O3 0.236927 0.794605 0.976719
O O4 0.331839 0.031806 0.025779
O O5 0.406251 0.719032 0.571984
O O6 0.225128 0.804382 0.623241
O O7 0.543967 0.108393 0.318675
O O8 0.580413 0.898786 0.210595
O O9 0.960641 0.874202 0.176420
O O10 0.757987 0.524158 0.779581
O O11 0.774035 0.772749 0.713299
O O12 0.416742 0.417774 0.713353
#
# Coordination Sequence:
#
# PCOD8247879 Si02
#       7
#     8   8   4   8   8   8   4
#     4  11  26  43  71 103 146 183 238 289 363 423
#     4  12  24  47  69 105 140 193 228 293 360 429
#     4   9  19  38  70  94 128 174 236 286 330 406
#     4  10  22  44  70 100 140 183 233 288 353 418
#     4  11  23  43  69 102 130 186 233 293 339 416
#     4  12  25  43  74  99 141 179 244 288 348 422
#     4  11  25  44  70 108 134 180 240 304 342 408
#
# _framework density 23.215060000000001
#
# number of rings (size 3 to 8) (size 9 to 14) (size 15 to 20)
#    0.000    1.000    1.667    5.000    7.000    0.000 
#    6.000    1.667    0.000    0.000    0.000    0.000 
#    0.000    0.000    0.000    0.000    0.000    0.000 
#
# Total GULP energy -594995.976854 kJ/mol
# GULP energy per Si atom -12395.749518 kJ/mol
# Density = 2.316222 g / cm^3
# Si number density = 23.215060 Si / 1000 Ang^3
#
#
#
# Elastic Constant Matrix: (Units=GPa)
#
#
# Indices 1 2 3 4 5 6 
#
# 1 90.7112 39.3957 50.6088 0.0000 0.0000 0.0000
# 2 39.3957 111.7359 44.0593 0.0000 0.0000 0.0000
# 3 50.6088 44.0593 100.2896 0.0000 0.0000 0.0000
# 4 0.0000 0.0000 0.0000 40.8015 0.0000 0.0000
# 5 0.0000 0.0000 0.0000 0.0000 37.9193 0.0000
# 6 0.0000 0.0000 0.0000 0.0000 0.0000 34.8772
#
#
#
# Elastic Compliance Matrix: (Units=1/GPa)
#
#
# Indices 1 2 3 4 5 6 
#
# 1 0.016133 -0.002997 -0.006824 0.000000 0.000000 0.000000
# 2 -0.002997 0.011382 -0.003488 0.000000 0.000000 0.000000
# 3 -0.006824 -0.003488 0.014947 0.000000 0.000000 0.000000
# 4 0.000000 0.000000 0.000000 0.024509 0.000000 0.000000
# 5 0.000000 0.000000 0.000000 0.000000 0.026372 0.000000
# 6 0.000000 0.000000 0.000000 0.000000 0.000000 0.028672
#
#
# Mechanical properties :
#
#
# Convention : Reuss Voigt Hill
#
# Bulk Modulus (GPa) = 63.11873 63.42937 63.27405
# Shear Modulus (GPa) = 32.48554 33.96445 33.22499
#
# Velocity S-wave (km/s) = 3.74482 3.82911 3.78720
# Velocity P-wave (km/s) = 6.77835 6.85064 6.81459
#
# Compressibility (1/GPa) = 0.01584316
#
# Stress axis : x y z
#
# Youngs Moduli (GPa) = 61.98427 87.86032 66.90223
#
# Poissons Ratio (x) = 0.26333 0.45657
# Poissons Ratio (y) = 0.18578 0.23334
# Poissons Ratio (z) = 0.42301 0.30644
#
# Static dielectric constant tensor:
#      x y z
#    x 3.925170 0.000000 0.000000 
#    y 0.000000 4.226210 0.000000 
#    z 0.000000 0.000000 4.119840 
# 
# 
# High freq. dielectric constant tensor:
#      x y z
#    x 1.912130 0.000000 0.000000 
#    y 0.000000 1.926570 0.000000 
#    z 0.000000 0.000000 1.911580 
# 
# From -- ./inp_files/20562.got.cif
#   From: 2010.03.12/outbox.cif.g09.slc.cpg/sg60_11_cif.got.tgz:20562.got - 2010.04.10 18:46:24.
