data_PCOD8247371
_publ_section_title
;
Structure prediction by ZEFSAII (Michael W. Deem and Ramdas Pophale) SiO2 
 PCOD8247371
Probable space group: P B C N
;
_chemical_formula_sum "Si O2"
_cell_formula_units_Z 64
_cell_length_a 8.711303
_cell_length_b 22.664881
_cell_length_c 15.717053
_cell_angle_alpha 90.000000
_cell_angle_beta 90.000000
_cell_angle_gamma 90.000000
_cell_volume 3103.185095
_symmetry_space_group_name_H-M "P B C N"
_symmetry_group_IT_number 60
_symmetry_cell_setting 'orthorhombic'
loop_
_space_group_symop_operation_xyz
x,y,z
1/2-x,1/2-y,1/2+z
1/2+x,1/2-y,-z
-x,y,1/2-z
-x,-y,-z
1/2+x,1/2+y,1/2-z
1/2-x,1/2+y,z
x,-y,1/2+z
loop_
_atom_site_type_symbol
_atom_site_label
_atom_site_fract_x
_atom_site_fract_y
_atom_site_fract_z
Si Si1 0.089993 0.704691 0.835847
Si Si2 0.177429 0.400800 0.746683
Si Si3 0.165755 0.170788 0.388105
Si Si4 0.823303 0.462677 0.240010
Si Si5 0.296965 0.395081 0.404047
Si Si6 0.202493 0.288220 0.061403
Si Si7 0.602406 0.371841 0.328482
Si Si8 0.816390 0.153044 0.420841
O O1 0.157370 0.770690 0.829713
O O2 0.229026 0.659460 0.848389
O O3 0.000000 0.688890 0.750000
O O4 0.975298 0.700982 0.916246
O O5 0.257182 0.380679 0.833578
O O6 0.204676 0.470061 0.734916
O O7 0.249344 0.367198 0.667716
O O8 0.000000 0.384521 0.750000
O O9 0.269686 0.182079 0.470662
O O10 0.999327 0.149634 0.417327
O O11 0.774576 0.453170 0.140701
O O12 0.719259 0.423845 0.303113
O O13 0.000000 0.444032 0.250000
O O14 0.482055 0.396350 0.398206
O O15 0.254678 0.389624 0.503481
O O16 0.308259 0.315963 0.134648
O O17 0.240095 0.218912 0.057189
O O18 0.500000 0.349719 0.250000
#
# Coordination Sequence:
#
# PCOD8247371 Si02
#       8
#     8   8   8   8   8   8   8   8
#     4  11  22  38  63  95 134 177 208 259 326 379
#     4  11  27  46  67  90 125 173 219 266 322 385
#     4  11  23  42  64  94 137 168 213 260 321 389
#     4  10  23  47  65  91 125 167 219 266 319 381
#     4  11  21  38  66  98 126 163 213 266 310 380
#     4  11  22  39  63  99 134 170 208 258 319 387
#     4  10  21  38  66  96 126 164 211 260 313 375
#     4  11  24  42  64  97 136 167 209 264 324 382
#
# _framework density 20.623972999999999
#
# number of rings (size 3 to 8) (size 9 to 14) (size 15 to 20)
#    0.000    1.250    2.500    4.500    1.750    4.500 
#    2.250    2.500    0.000    0.000    0.000    0.000 
#    0.000    0.000    0.000    0.000    0.000    0.000 
#
# Total GULP energy -793749.254190 kJ/mol
# GULP energy per Si atom -12402.332097 kJ/mol
# Density = 2.057703 g / cm^3
# Si number density = 20.623973 Si / 1000 Ang^3
#
#
#
# Elastic Constant Matrix: (Units=GPa)
#
#
# Indices 1 2 3 4 5 6 
#
# 1 109.1137 44.7857 34.6562 0.0000 0.0000 0.0000
# 2 44.7857 53.7275 40.2783 0.0000 0.0000 0.0000
# 3 34.6562 40.2783 121.8933 0.0000 0.0000 0.0000
# 4 0.0000 0.0000 0.0000 29.0249 0.0000 0.0000
# 5 0.0000 0.0000 0.0000 0.0000 31.2897 0.0000
# 6 0.0000 0.0000 0.0000 0.0000 0.0000 28.0818
#
#
#
# Elastic Compliance Matrix: (Units=1/GPa)
#
#
# Indices 1 2 3 4 5 6 
#
# 1 0.013934 -0.011492 -0.000164 0.000000 0.000000 0.000000
# 2 -0.011492 0.034219 -0.008040 0.000000 0.000000 0.000000
# 3 -0.000164 -0.008040 0.010907 0.000000 0.000000 0.000000
# 4 0.000000 0.000000 0.000000 0.034453 0.000000 0.000000
# 5 0.000000 0.000000 0.000000 0.000000 0.031959 0.000000
# 6 0.000000 0.000000 0.000000 0.000000 0.000000 0.035610
#
#
# Mechanical properties :
#
#
# Convention : Reuss Voigt Hill
#
# Bulk Modulus (GPa) = 50.84360 58.24166 54.54263
# Shear Modulus (GPa) = 24.15105 28.68023 26.41564
#
# Velocity S-wave (km/s) = 3.42573 3.73316 3.58274
# Velocity P-wave (km/s) = 6.35245 6.84712 6.60442
#
# Compressibility (1/GPa) = 0.01966816
#
# Stress axis : x y z
#
# Youngs Moduli (GPa) = 71.76877 29.22365 91.68134
#
# Poissons Ratio (x) = 0.33582 0.01506
# Poissons Ratio (y) = 0.82473 0.73712
# Poissons Ratio (z) = 0.01179 0.23496
#
# Static dielectric constant tensor:
#      x y z
#    x 3.720740 0.000000 0.000000 
#    y 0.000000 3.570420 0.000000 
#    z 0.000000 0.000000 3.740190 
# 
# 
# High freq. dielectric constant tensor:
#      x y z
#    x 1.821500 0.000000 0.000000 
#    y 0.000000 1.790030 0.000000 
#    z 0.000000 0.000000 1.812700 
# 
# From -- ./inp_files/15401.got.cif
#   From: 2010.03.12/outbox.cif.g09.slc.cpg/sg60_8_cif.got.tgz:15401.got - 2010.04.10 18:46:24.
