data_PCOD8247811
_publ_section_title
;
Structure prediction by ZEFSAII (Michael W. Deem and Ramdas Pophale) SiO2 
 PCOD8247811
Probable space group: P B C N
;
_chemical_formula_sum "Si O2"
_cell_formula_units_Z 40
_cell_length_a 10.900187
_cell_length_b 15.986426
_cell_length_c 9.150402
_cell_angle_alpha 90.000000
_cell_angle_beta 90.000000
_cell_angle_gamma 90.000000
_cell_volume 1594.503601
_symmetry_space_group_name_H-M "P B C N"
_symmetry_group_IT_number 60
_symmetry_cell_setting 'orthorhombic'
loop_
_space_group_symop_operation_xyz
x,y,z
1/2-x,1/2-y,1/2+z
1/2+x,1/2-y,-z
-x,y,1/2-z
-x,-y,-z
1/2+x,1/2+y,1/2-z
1/2-x,1/2+y,z
x,-y,1/2+z
loop_
_atom_site_type_symbol
_atom_site_label
_atom_site_fract_x
_atom_site_fract_y
_atom_site_fract_z
Si Si1 0.864601 0.489453 0.813665
Si Si2 0.142439 0.683542 0.294429
Si Si3 0.013118 0.087970 0.922385
Si Si4 0.687782 0.276854 0.468154
Si Si5 0.711306 0.103011 0.581451
O O1 0.802090 0.405305 0.751383
O O2 0.795360 0.572267 0.751981
O O3 0.000000 0.496560 0.750000
O O4 0.849697 0.476106 0.988899
O O5 0.181011 0.695925 0.462622
O O6 0.000000 0.692010 0.250000
O O7 0.209969 0.757951 0.203693
O O8 0.148278 0.121579 0.959922
O O9 0.000000 0.076828 0.750000
O O10 0.916177 0.153253 0.990357
O O11 0.000000 0.000000 0.000000
O O12 0.639429 0.189029 0.543159
#
# Coordination Sequence:
#
# PCOD8247811 Si02
#       5
#     8   8   8   8   8
#     4  10  22  42  66  95 132 176 228 286 347 421
#     4  10  22  43  67  95 138 185 235 295 356 426
#     4  12  26  47  73 106 148 190 239 304 369 436
#     4  11  23  42  68  99 139 186 235 291 358 428
#     4  11  23  42  69 101 137 183 233 288 357 425
#
# _framework density 25.086176999999999
#
# number of rings (size 3 to 8) (size 9 to 14) (size 15 to 20)
#    0.000    1.200    0.000    6.000    0.000    4.000 
#    0.000   14.000    0.000    0.000    0.000    0.000 
#    0.000    0.000    0.000    0.000    0.000    0.000 
#
# Total GULP energy -495610.347656 kJ/mol
# GULP energy per Si atom -12390.258691 kJ/mol
# Density = 2.502908 g / cm^3
# Si number density = 25.086177 Si / 1000 Ang^3
#
#
#
# Elastic Constant Matrix: (Units=GPa)
#
#
# Indices 1 2 3 4 5 6 
#
# 1 134.7988 38.7223 39.5285 0.0000 0.0000 0.0000
# 2 38.7223 149.9326 29.9697 0.0000 0.0000 0.0000
# 3 39.5285 29.9697 98.6268 0.0000 0.0000 0.0000
# 4 0.0000 0.0000 0.0000 37.0652 0.0000 0.0000
# 5 0.0000 0.0000 0.0000 0.0000 35.3841 0.0000
# 6 0.0000 0.0000 0.0000 0.0000 0.0000 28.0355
#
#
#
# Elastic Compliance Matrix: (Units=1/GPa)
#
#
# Indices 1 2 3 4 5 6 
#
# 1 0.008780 -0.001665 -0.003013 0.000000 0.000000 0.000000
# 2 -0.001665 0.007417 -0.001586 0.000000 0.000000 0.000000
# 3 -0.003013 -0.001586 0.011829 0.000000 0.000000 0.000000
# 4 0.000000 0.000000 0.000000 0.026979 0.000000 0.000000
# 5 0.000000 0.000000 0.000000 0.000000 0.028261 0.000000
# 6 0.000000 0.000000 0.000000 0.000000 0.000000 0.035669
#
#
# Mechanical properties :
#
#
# Convention : Reuss Voigt Hill
#
# Bulk Modulus (GPa) = 64.52993 66.64437 65.58715
# Shear Modulus (GPa) = 36.59493 38.43947 37.51720
#
# Velocity S-wave (km/s) = 3.82353 3.91870 3.87141
# Velocity P-wave (km/s) = 6.72842 6.86286 6.79597
#
# Compressibility (1/GPa) = 0.01549668
#
# Stress axis : x y z
#
# Youngs Moduli (GPa) = 113.88992 134.82805 84.53914
#
# Poissons Ratio (x) = 0.22454 0.25472
# Poissons Ratio (y) = 0.18967 0.13410
# Poissons Ratio (z) = 0.34315 0.21388
#
# Static dielectric constant tensor:
#      x y z
#    x 4.327150 0.000000 0.000000 
#    y 0.000000 4.979450 0.000000 
#    z 0.000000 0.000000 4.685210 
# 
# 
# High freq. dielectric constant tensor:
#      x y z
#    x 1.978220 0.000000 0.000000 
#    y 0.000000 2.024880 0.000000 
#    z 0.000000 0.000000 1.999410 
# 
# From -- ./inp_files/4732.got.cif
#   From: 2010.03.12/outbox.cif.g09.slc.cpg/sg60_3_cif.got.tgz:4732.got - 2010.04.10 18:46:24.
