data_PCOD8247870
_publ_section_title
;
Structure prediction by ZEFSAII (Michael W. Deem and Ramdas Pophale) SiO2 
 PCOD8247870
Probable space group: P B C N
;
_chemical_formula_sum "Si O2"
_cell_formula_units_Z 36
_cell_length_a 10.669755
_cell_length_b 14.584768
_cell_length_c 12.311540
_cell_angle_alpha 90.000000
_cell_angle_beta 90.000000
_cell_angle_gamma 90.000000
_cell_volume 1915.871393
_symmetry_space_group_name_H-M "P B C N"
_symmetry_group_IT_number 60
_symmetry_cell_setting 'orthorhombic'
loop_
_space_group_symop_operation_xyz
x,y,z
1/2-x,1/2-y,1/2+z
1/2+x,1/2-y,-z
-x,y,1/2-z
-x,-y,-z
1/2+x,1/2+y,1/2-z
1/2-x,1/2+y,z
x,-y,1/2+z
loop_
_atom_site_type_symbol
_atom_site_label
_atom_site_fract_x
_atom_site_fract_y
_atom_site_fract_z
Si Si1 0.136533 0.493170 0.548493
Si Si2 0.642786 0.830492 0.784135
Si Si3 0.696620 0.360710 0.377178
Si Si4 0.811366 0.080412 0.103204
Si Si5 0.000000 0.981516 0.250000
O O1 0.150782 0.402622 0.618877
O O2 0.170121 0.583606 0.622221
O O3 0.235688 0.492850 0.447877
O O4 0.000000 0.500000 0.500000
O O5 0.500000 0.810897 0.750000
O O6 0.710915 0.739004 0.826078
O O7 0.718762 0.864254 0.680849
O O8 0.648129 0.353390 0.502593
O O9 0.600988 0.419204 0.307122
O O10 0.935894 0.047398 0.162170
#
# Coordination Sequence:
#
# PCOD8247870 Si02
#       5
#     8   8   8   8   4
#     4  10  22  44  64  93 131 170 221 270 335 393
#     4  12  21  42  69  93 133 170 217 270 333 398
#     4  10  24  39  66  96 123 175 214 271 327 390
#     4  10  23  41  64  94 127 171 220 266 331 390
#     4  12  20  44  66  88 134 170 218 270 328 394
#
# _framework density 18.790406000000001
#
# number of rings (size 3 to 8) (size 9 to 14) (size 15 to 20)
#    1.333    0.000    5.556    0.667    0.000    1.778 
#   12.000    0.000    0.000    0.000    0.000    0.000 
#    0.000    0.000    0.000    0.000    0.000    0.000 
#
# Total GULP energy -446100.945896 kJ/mol
# GULP energy per Si atom -12391.692942 kJ/mol
# Density = 1.874764 g / cm^3
# Si number density = 18.790406 Si / 1000 Ang^3
#
#
#
# Elastic Constant Matrix: (Units=GPa)
#
#
# Indices 1 2 3 4 5 6 
#
# 1 51.8170 42.4413 29.1959 0.0000 0.0000 0.0000
# 2 42.4413 109.6726 36.1034 0.0000 0.0000 0.0000
# 3 29.1959 36.1034 99.3988 0.0000 0.0000 0.0000
# 4 0.0000 0.0000 0.0000 34.1651 0.0000 0.0000
# 5 0.0000 0.0000 0.0000 0.0000 46.5294 0.0000
# 6 0.0000 0.0000 0.0000 0.0000 0.0000 16.5376
#
#
#
# Elastic Compliance Matrix: (Units=1/GPa)
#
#
# Indices 1 2 3 4 5 6 
#
# 1 0.030540 -0.010069 -0.005313 0.000000 0.000000 0.000000
# 2 -0.010069 0.013676 -0.002010 0.000000 0.000000 0.000000
# 3 -0.005313 -0.002010 0.012351 0.000000 0.000000 0.000000
# 4 0.000000 0.000000 0.000000 0.029270 0.000000 0.000000
# 5 0.000000 0.000000 0.000000 0.000000 0.021492 0.000000
# 6 0.000000 0.000000 0.000000 0.000000 0.000000 0.060468
#
#
# Mechanical properties :
#
#
# Convention : Reuss Voigt Hill
#
# Bulk Modulus (GPa) = 45.90775 52.92994 49.41884
# Shear Modulus (GPa) = 23.82751 29.65629 26.74190
#
# Velocity S-wave (km/s) = 3.56486 3.97705 3.77658
# Velocity P-wave (km/s) = 6.43652 7.02275 6.73601
#
# Compressibility (1/GPa) = 0.02178282
#
# Stress axis : x y z
#
# Youngs Moduli (GPa) = 32.74440 73.11910 80.96493
#
# Poissons Ratio (x) = 0.73626 0.43016
# Poissons Ratio (y) = 0.32971 0.16273
# Poissons Ratio (z) = 0.17397 0.14696
#
# Static dielectric constant tensor:
#      x y z
#    x 3.390440 0.000000 0.000000 
#    y 0.000000 3.403050 0.000000 
#    z 0.000000 0.000000 3.873580 
# 
# 
# High freq. dielectric constant tensor:
#      x y z
#    x 1.726340 0.000000 0.000000 
#    y 0.000000 1.714950 0.000000 
#    z 0.000000 0.000000 1.748570 
# 
# From -- ./inp_files/14593.got.cif
#   From: 2010.03.12/outbox.cif.g09.slc.cpg/sg60_8_cif.got.tgz:14593.got - 2010.04.10 18:46:24.
