data_PCOD8247224
_publ_section_title
;
Structure prediction by ZEFSAII (Michael W. Deem and Ramdas Pophale) SiO2 
 PCOD8247224
Probable space group: P B C N
;
_chemical_formula_sum "Si O2"
_cell_formula_units_Z 32
_cell_length_a 13.804607
_cell_length_b 12.228409
_cell_length_c 7.810194
_cell_angle_alpha 90.000000
_cell_angle_beta 90.000000
_cell_angle_gamma 90.000000
_cell_volume 1318.426200
_symmetry_space_group_name_H-M "P B C N"
_symmetry_group_IT_number 60
_symmetry_cell_setting 'orthorhombic'
loop_
_space_group_symop_operation_xyz
x,y,z
1/2-x,1/2-y,1/2+z
1/2+x,1/2-y,-z
-x,y,1/2-z
-x,-y,-z
1/2+x,1/2+y,1/2-z
1/2-x,1/2+y,z
x,-y,1/2+z
loop_
_atom_site_type_symbol
_atom_site_label
_atom_site_fract_x
_atom_site_fract_y
_atom_site_fract_z
Si Si1 0.611781 0.855091 0.378310
Si Si2 0.895951 0.133701 0.194193
Si Si3 0.695234 0.057131 0.218619
Si Si4 0.935393 0.707416 0.418047
O O1 0.636846 0.734825 0.313139
O O2 0.676697 0.882727 0.540953
O O3 0.497876 0.855854 0.433213
O O4 0.639208 0.942053 0.230165
O O5 0.812389 0.043019 0.224180
O O6 0.000000 0.083986 0.250000
O O7 0.901660 0.176497 0.997241
O O8 0.656812 0.132893 0.373940
O O9 0.000000 0.728908 0.250000
#
# Coordination Sequence:
#
# PCOD8247224 Si02
#       4
#     8   8   8   8
#     4  10  21  34  56  86 117 150 191 241 290 343
#     4  10  21  38  58  84 115 152 194 238 287 346
#     4  11  20  35  58  86 117 153 191 239 292 345
#     4   9  19  35  57  86 116 147 190 242 292 340
#
# _framework density 24.271362
#
# number of rings (size 3 to 8) (size 9 to 14) (size 15 to 20)
#    0.000    2.000    0.000    3.750    0.000    7.000 
#    0.000    3.750    0.000    4.500    0.000    0.000 
#    0.000    0.000    0.000    0.000    0.000    0.000 
#
# Total GULP energy -396666.946660 kJ/mol
# GULP energy per Si atom -12395.842083 kJ/mol
# Density = 2.421612 g / cm^3
# Si number density = 24.271362 Si / 1000 Ang^3
#
#
#
# Elastic Constant Matrix: (Units=GPa)
#
#
# Indices 1 2 3 4 5 6 
#
# 1 156.6366 30.8538 13.0945 0.0000 0.0000 0.0000
# 2 30.8538 31.2286 12.5390 0.0000 0.0000 0.0000
# 3 13.0945 12.5390 82.9396 0.0000 0.0000 0.0000
# 4 0.0000 0.0000 0.0000 13.6697 0.0000 0.0000
# 5 0.0000 0.0000 0.0000 0.0000 18.9630 0.0000
# 6 0.0000 0.0000 0.0000 0.0000 0.0000 33.2727
#
#
#
# Elastic Compliance Matrix: (Units=1/GPa)
#
#
# Indices 1 2 3 4 5 6 
#
# 1 0.007927 -0.007803 -0.000072 0.000000 0.000000 0.000000
# 2 -0.007803 0.041773 -0.005083 0.000000 0.000000 0.000000
# 3 -0.000072 -0.005083 0.012837 0.000000 0.000000 0.000000
# 4 0.000000 0.000000 0.000000 0.073154 0.000000 0.000000
# 5 0.000000 0.000000 0.000000 0.000000 0.052734 0.000000
# 6 0.000000 0.000000 0.000000 0.000000 0.000000 0.030055
#
#
# Mechanical properties :
#
#
# Convention : Reuss Voigt Hill
#
# Bulk Modulus (GPa) = 27.30759 42.64215 34.97487
# Shear Modulus (GPa) = 19.48531 27.46891 23.47711
#
# Velocity S-wave (km/s) = 2.83647 3.36779 3.11348
# Velocity P-wave (km/s) = 4.69071 5.72099 5.23127
#
# Compressibility (1/GPa) = 0.03661985
#
# Stress axis : x y z
#
# Youngs Moduli (GPa) = 126.14679 23.93915 77.90092
#
# Poissons Ratio (x) = 0.18680 0.00560
# Poissons Ratio (y) = 0.98436 0.39599
# Poissons Ratio (z) = 0.00906 0.12169
#
# Static dielectric constant tensor:
#      x y z
#    x 4.403130 0.000000 0.000000 
#    y 0.000000 3.728810 0.000000 
#    z 0.000000 0.000000 4.794230 
# 
# 
# High freq. dielectric constant tensor:
#      x y z
#    x 1.968870 0.000000 0.000000 
#    y 0.000000 1.911210 0.000000 
#    z 0.000000 0.000000 1.985020 
# 
# From -- ./inp_files/4515.got.cif
#   From: 2010.03.12/outbox.cif.g09.slc.cpg/sg60_3_cif.got.tgz:4515.got - 2010.04.10 18:46:24.
