data_PCOD8247220
_publ_section_title
;
Structure prediction by ZEFSAII (Michael W. Deem and Ramdas Pophale) SiO2 
 PCOD8247220
Probable space group: P B C N
;
_chemical_formula_sum "Si O2"
_cell_formula_units_Z 48
_cell_length_a 19.172585
_cell_length_b 14.372322
_cell_length_c 9.380433
_cell_angle_alpha 90.000000
_cell_angle_beta 90.000000
_cell_angle_gamma 90.000000
_cell_volume 2584.821137
_symmetry_space_group_name_H-M "P B C N"
_symmetry_group_IT_number 60
_symmetry_cell_setting 'orthorhombic'
loop_
_space_group_symop_operation_xyz
x,y,z
1/2-x,1/2-y,1/2+z
1/2+x,1/2-y,-z
-x,y,1/2-z
-x,-y,-z
1/2+x,1/2+y,1/2-z
1/2-x,1/2+y,z
x,-y,1/2+z
loop_
_atom_site_type_symbol
_atom_site_label
_atom_site_fract_x
_atom_site_fract_y
_atom_site_fract_z
Si Si1 0.560153 0.635440 0.355810
Si Si2 0.784337 0.815289 0.878368
Si Si3 0.222512 0.000657 0.444813
Si Si4 0.063395 0.218850 0.841985
Si Si5 0.869472 0.049623 0.815011
Si Si6 0.193620 0.668011 0.395566
O O1 0.500000 0.673297 0.250000
O O2 0.635896 0.679468 0.322252
O O3 0.538295 0.663997 0.516615
O O4 0.567023 0.523792 0.336664
O O5 0.732755 0.803587 0.748123
O O6 0.764801 0.903302 0.977369
O O7 0.773548 0.724816 0.974146
O O8 0.190571 0.990124 0.288282
O O9 0.166816 0.063159 0.531928
O O10 0.294944 0.058306 0.428386
O O11 0.103921 0.146858 0.742308
O O12 0.112018 0.306862 0.879925
O O13 0.000000 0.259415 0.750000
#
# Coordination Sequence:
#
# PCOD8247220 Si02
#       6
#     8   8   8   8   8   8
#     4  10  21  34  51  81 120 155 185 228 291 361
#     4  10  22  37  55  90 111 155 200 233 301 341
#     4  11  20  36  59  86 121 150 196 238 293 353
#     4  11  24  37  54  84 118 156 201 235 298 353
#     4  11  19  36  55  87 118 153 189 233 291 360
#     4  11  21  38  59  82 122 153 195 250 286 354
#
# _framework density 18.569951
#
# number of rings (size 3 to 8) (size 9 to 14) (size 15 to 20)
#    0.000    1.333    8.333    1.500    2.333    2.667 
#    0.000    0.000    0.000    1.000    0.000    2.333 
#    0.000    0.000    0.000    0.000    0.000    0.000 
#
# Total GULP energy -595018.436247 kJ/mol
# GULP energy per Si atom -12396.217422 kJ/mol
# Density = 1.852768 g / cm^3
# Si number density = 18.569951 Si / 1000 Ang^3
#
#
#
# Elastic Constant Matrix: (Units=GPa)
#
#
# Indices 1 2 3 4 5 6 
#
# 1 73.5502 42.2660 23.4387 0.0000 0.0000 0.0000
# 2 42.2660 50.4364 -0.4367 0.0000 0.0000 0.0000
# 3 23.4387 -0.4367 44.9983 0.0000 0.0000 0.0000
# 4 0.0000 0.0000 0.0000 24.2384 0.0000 0.0000
# 5 0.0000 0.0000 0.0000 0.0000 35.8317 0.0000
# 6 0.0000 0.0000 0.0000 0.0000 0.0000 25.5039
#
#
#
# Elastic Compliance Matrix: (Units=1/GPa)
#
#
# Indices 1 2 3 4 5 6 
#
# 1 0.039159 -0.032995 -0.020717 0.000000 0.000000 0.000000
# 2 -0.032995 0.047629 0.017648 0.000000 0.000000 0.000000
# 3 -0.020717 0.017648 0.033186 0.000000 0.000000 0.000000
# 4 0.000000 0.000000 0.000000 0.041257 0.000000 0.000000
# 5 0.000000 0.000000 0.000000 0.000000 0.027908 0.000000
# 6 0.000000 0.000000 0.000000 0.000000 0.000000 0.039210
#
#
# Mechanical properties :
#
#
# Convention : Reuss Voigt Hill
#
# Bulk Modulus (GPa) = 20.89996 33.28010 27.09003
# Shear Modulus (GPa) = 15.80157 24.02926 19.91541
#
# Velocity S-wave (km/s) = 2.92022 3.60110 3.27839
# Velocity P-wave (km/s) = 4.75914 5.93725 5.38054
#
# Compressibility (1/GPa) = 0.04784698
#
# Stress axis : x y z
#
# Youngs Moduli (GPa) = 25.53708 20.99543 30.13363
#
# Poissons Ratio (x) = 0.69274 0.62429
# Poissons Ratio (y) = 0.84259 -0.53181
# Poissons Ratio (z) = 0.52906 -0.37054
#
# Static dielectric constant tensor:
#      x y z
#    x 3.313130 0.000000 0.000000 
#    y 0.000000 3.261800 0.000000 
#    z 0.000000 0.000000 3.654120 
# 
# 
# High freq. dielectric constant tensor:
#      x y z
#    x 1.697880 0.000000 0.000000 
#    y 0.000000 1.693780 0.000000 
#    z 0.000000 0.000000 1.743440 
# 
# From -- ./inp_files/7305.got.cif
#   From: 2010.03.12/outbox.cif.g09.slc.cpg/sg60_4_cif.got.tgz:7305.got - 2010.04.10 18:46:24.
