data_PCOD8247082
_publ_section_title
;
Structure prediction by ZEFSAII (Michael W. Deem and Ramdas Pophale) SiO2 
 PCOD8247082
Probable space group: P B C N
;
_chemical_formula_sum "Si O2"
_cell_formula_units_Z 64
_cell_length_a 11.161120
_cell_length_b 22.913173
_cell_length_c 13.221872
_cell_angle_alpha 90.000000
_cell_angle_beta 90.000000
_cell_angle_gamma 90.000000
_cell_volume 3381.317562
_symmetry_space_group_name_H-M "P B C N"
_symmetry_group_IT_number 60
_symmetry_cell_setting 'orthorhombic'
loop_
_space_group_symop_operation_xyz
x,y,z
1/2-x,1/2-y,1/2+z
1/2+x,1/2-y,-z
-x,y,1/2-z
-x,-y,-z
1/2+x,1/2+y,1/2-z
1/2-x,1/2+y,z
x,-y,1/2+z
loop_
_atom_site_type_symbol
_atom_site_label
_atom_site_fract_x
_atom_site_fract_y
_atom_site_fract_z
Si Si1 0.701306 0.847501 0.066102
Si Si2 0.226810 0.835277 0.655695
Si Si3 0.970370 0.128992 0.077028
Si Si4 0.177527 0.982667 0.870599
Si Si5 0.861078 0.561427 0.278258
Si Si6 0.372411 0.969140 0.497997
Si Si7 0.883884 0.239068 0.187575
Si Si8 0.056334 0.895260 0.358947
O O1 0.626557 0.908537 0.066460
O O2 0.637084 0.799053 0.131032
O O3 0.826400 0.857033 0.122532
O O4 0.713510 0.821523 0.952517
O O5 0.312648 0.872761 0.730049
O O6 0.212230 0.777685 0.724991
O O7 0.100878 0.868179 0.630343
O O8 0.900598 0.075369 0.127462
O O9 0.898115 0.187725 0.104358
O O10 0.971349 0.119401 0.955375
O O11 0.278417 0.982821 0.783597
O O12 0.262934 0.988638 0.968151
O O13 0.086295 0.036119 0.858341
O O14 0.834488 0.545985 0.391433
O O15 0.000000 0.555603 0.250000
O O16 0.500000 0.000000 0.500000
O O17 0.000000 0.251479 0.250000
O O18 0.000000 0.877828 0.250000
#
# Coordination Sequence:
#
# PCOD8247082 Si02
#       8
#     8   8   8   8   8   8   8   8
#     4   9  21  41  58  83 123 159 193 249 309 349
#     4   9  20  39  62  85 117 151 196 257 287 351
#     4  10  21  39  62  88 116 151 207 251 295 357
#     4  11  22  36  60  90 118 160 195 247 302 362
#     4  11  21  36  59  86 121 159 204 234 295 360
#     4  10  21  40  55  83 129 157 193 249 295 363
#     4  10  20  39  65  88 110 156 210 248 297 359
#     4  10  23  37  56  89 126 153 189 249 313 360
#
# _framework density 18.927533
#
# number of rings (size 3 to 8) (size 9 to 14) (size 15 to 20)
#    0.000    2.000    2.500    1.125    3.500    1.000 
#    4.500   11.875    0.000    0.000    0.000    0.000 
#    0.000    0.000    0.000    0.000    0.000    0.000 
#
# Total GULP energy -792957.363904 kJ/mol
# GULP energy per Si atom -12389.958811 kJ/mol
# Density = 1.888445 g / cm^3
# Si number density = 18.927533 Si / 1000 Ang^3
#
#
#
# Elastic Constant Matrix: (Units=GPa)
#
#
# Indices 1 2 3 4 5 6 
#
# 1 42.5952 27.3476 24.0054 0.0000 0.0000 0.0000
# 2 27.3476 98.7564 45.0797 0.0000 0.0000 0.0000
# 3 24.0054 45.0797 91.0263 0.0000 0.0000 0.0000
# 4 0.0000 0.0000 0.0000 52.4995 0.0000 0.0000
# 5 0.0000 0.0000 0.0000 0.0000 24.6812 0.0000
# 6 0.0000 0.0000 0.0000 0.0000 0.0000 12.0796
#
#
#
# Elastic Compliance Matrix: (Units=1/GPa)
#
#
# Indices 1 2 3 4 5 6 
#
# 1 0.030177 -0.006104 -0.004935 0.000000 0.000000 0.000000
# 2 -0.006104 0.014318 -0.005481 0.000000 0.000000 0.000000
# 3 -0.004935 -0.005481 0.015002 0.000000 0.000000 0.000000
# 4 0.000000 0.000000 0.000000 0.019048 0.000000 0.000000
# 5 0.000000 0.000000 0.000000 0.000000 0.040517 0.000000
# 6 0.000000 0.000000 0.000000 0.000000 0.000000 0.082784
#
#
# Mechanical properties :
#
#
# Convention : Reuss Voigt Hill
#
# Bulk Modulus (GPa) = 37.79808 47.24924 42.52366
# Shear Modulus (GPa) = 20.51652 26.91507 23.71580
#
# Velocity S-wave (km/s) = 3.29591 3.77504 3.54358
# Velocity P-wave (km/s) = 5.87344 6.63466 6.26562
#
# Compressibility (1/GPa) = 0.02645637
#
# Stress axis : x y z
#
# Youngs Moduli (GPa) = 33.13764 69.84111 66.65810
#
# Poissons Ratio (x) = 0.42629 0.32899
# Poissons Ratio (y) = 0.20226 0.36537
# Poissons Ratio (z) = 0.16355 0.38282
#
# Static dielectric constant tensor:
#      x y z
#    x 3.347670 0.000000 0.000000 
#    y 0.000000 4.461440 0.000000 
#    z 0.000000 0.000000 3.697670 
# 
# 
# High freq. dielectric constant tensor:
#      x y z
#    x 1.731050 0.000000 0.000000 
#    y 0.000000 1.722090 0.000000 
#    z 0.000000 0.000000 1.748430 
# 
# From -- ./inp_files/11369.got.cif
#   From: 2010.03.12/outbox.cif.g09.slc.cpg/sg60_6_cif.got.tgz:11369.got - 2010.04.10 18:46:24.
