data_PCOD8247335
_publ_section_title
;
Structure prediction by ZEFSAII (Michael W. Deem and Ramdas Pophale) SiO2 
 PCOD8247335
Probable space group: P B C N
;
_chemical_formula_sum "Si O2"
_cell_formula_units_Z 60
_cell_length_a 10.670218
_cell_length_b 28.555779
_cell_length_c 8.956472
_cell_angle_alpha 90.000000
_cell_angle_beta 90.000000
_cell_angle_gamma 90.000000
_cell_volume 2729.004659
_symmetry_space_group_name_H-M "P B C N"
_symmetry_group_IT_number 60
_symmetry_cell_setting 'orthorhombic'
loop_
_space_group_symop_operation_xyz
x,y,z
1/2-x,1/2-y,1/2+z
1/2+x,1/2-y,-z
-x,y,1/2-z
-x,-y,-z
1/2+x,1/2+y,1/2-z
1/2-x,1/2+y,z
x,-y,1/2+z
loop_
_atom_site_type_symbol
_atom_site_label
_atom_site_fract_x
_atom_site_fract_y
_atom_site_fract_z
Si Si1 0.629077 0.340468 0.058612
Si Si2 0.124812 0.943589 0.549772
Si Si3 0.607777 0.164549 0.071271
Si Si4 0.113936 0.438954 0.991254
Si Si5 0.151605 0.032559 0.370359
Si Si6 0.000000 0.507676 0.750000
Si Si7 0.143769 0.187091 0.611840
Si Si8 0.354671 0.204719 0.109650
O O1 0.485279 0.324884 0.021436
O O2 0.647088 0.342504 0.236219
O O3 0.661573 0.391302 0.993551
O O4 0.730954 0.305147 0.988042
O O5 0.197669 0.960639 0.698832
O O6 0.981513 0.945890 0.595271
O O7 0.157843 0.977406 0.411450
O O8 0.558126 0.111905 0.042148
O O9 0.486572 0.195464 0.022349
O O10 0.643949 0.172252 0.243728
O O11 0.731981 0.175771 0.979365
O O12 0.263615 0.435951 0.978711
O O13 0.077263 0.476278 0.864129
O O14 0.085502 0.456976 0.155931
O O15 0.145510 0.241381 0.657243
#
# Coordination Sequence:
#
# PCOD8247335 Si02
#       8
#     8   8   8   8   8   4   8   8
#     4  11  24  41  66  92 129 165 214 257 312 384
#     4  10  22  38  60  94 121 165 207 256 310 371
#     4  11  24  41  67  93 128 164 214 258 313 384
#     4  11  22  40  59  87 119 165 202 253 305 361
#     4  10  21  38  61  86 126 160 208 257 312 367
#     4  10  24  38  58  84 122 158 208 248 302 366
#     4  11  24  43  65  95 127 165 206 265 321 378
#     4  11  23  44  67  94 125 164 207 265 324 380
#
# _framework density 21.986039999999999
#
# number of rings (size 3 to 8) (size 9 to 14) (size 15 to 20)
#    0.000    1.333    0.000    6.400    0.000   11.733 
#    0.000    2.667    0.000    0.000    0.000    0.000 
#    0.000    0.000    0.000    0.000    0.000    0.000 
#
# Total GULP energy -743842.755221 kJ/mol
# GULP energy per Si atom -12397.379254 kJ/mol
# Density = 2.193600 g / cm^3
# Si number density = 21.986040 Si / 1000 Ang^3
#
#
#
# Elastic Constant Matrix: (Units=GPa)
#
#
# Indices 1 2 3 4 5 6 
#
# 1 119.0398 25.9851 57.8227 0.0000 0.0000 0.0000
# 2 25.9851 123.1083 52.0329 0.0000 0.0000 0.0000
# 3 57.8227 52.0329 120.7953 0.0000 0.0000 0.0000
# 4 0.0000 0.0000 0.0000 32.7204 0.0000 0.0000
# 5 0.0000 0.0000 0.0000 0.0000 41.4846 0.0000
# 6 0.0000 0.0000 0.0000 0.0000 0.0000 67.3945
#
#
#
# Elastic Compliance Matrix: (Units=1/GPa)
#
#
# Indices 1 2 3 4 5 6 
#
# 1 0.010947 -0.000117 -0.005190 0.000000 0.000000 0.000000
# 2 -0.000117 0.009932 -0.004222 0.000000 0.000000 0.000000
# 3 -0.005190 -0.004222 0.012581 0.000000 0.000000 0.000000
# 4 0.000000 0.000000 0.000000 0.030562 0.000000 0.000000
# 5 0.000000 0.000000 0.000000 0.000000 0.024105 0.000000
# 6 0.000000 0.000000 0.000000 0.000000 0.000000 0.014838
#
#
# Mechanical properties :
#
#
# Convention : Reuss Voigt Hill
#
# Bulk Modulus (GPa) = 69.43259 70.51387 69.97323
# Shear Modulus (GPa) = 39.42445 43.46009 41.44227
#
# Velocity S-wave (km/s) = 4.23916 4.45085 4.34629
# Velocity P-wave (km/s) = 7.45718 7.65213 7.55529
#
# Compressibility (1/GPa) = 0.01440246
#
# Stress axis : x y z
#
# Youngs Moduli (GPa) = 91.34952 100.68233 79.48238
#
# Poissons Ratio (x) = 0.01180 0.41249
# Poissons Ratio (y) = 0.01070 0.33559
# Poissons Ratio (z) = 0.47407 0.42511
#
# Static dielectric constant tensor:
#      x y z
#    x 4.270510 0.000000 0.000000 
#    y 0.000000 3.992290 0.000000 
#    z 0.000000 0.000000 4.130240 
# 
# 
# High freq. dielectric constant tensor:
#      x y z
#    x 1.880250 0.000000 0.000000 
#    y 0.000000 1.869360 0.000000 
#    z 0.000000 0.000000 1.857620 
# 
# From -- ./inp_files/5237.got.cif
#   From: 2010.03.12/outbox.cif.g09.slc.cpg/sg60_3_cif.got.tgz:5237.got - 2010.04.10 18:46:24.
