data_PCOD8247264
_publ_section_title
;
Structure prediction by ZEFSAII (Michael W. Deem and Ramdas Pophale) SiO2 
 PCOD8247264
Probable space group: P B C N
;
_chemical_formula_sum "Si O2"
_cell_formula_units_Z 40
_cell_length_a 10.377484
_cell_length_b 16.233119
_cell_length_c 10.228787
_cell_angle_alpha 90.000000
_cell_angle_beta 90.000000
_cell_angle_gamma 90.000000
_cell_volume 1723.130541
_symmetry_space_group_name_H-M "P B C N"
_symmetry_group_IT_number 60
_symmetry_cell_setting 'orthorhombic'
loop_
_space_group_symop_operation_xyz
x,y,z
1/2-x,1/2-y,1/2+z
1/2+x,1/2-y,-z
-x,y,1/2-z
-x,-y,-z
1/2+x,1/2+y,1/2-z
1/2-x,1/2+y,z
x,-y,1/2+z
loop_
_atom_site_type_symbol
_atom_site_label
_atom_site_fract_x
_atom_site_fract_y
_atom_site_fract_z
Si Si1 0.500000 0.475508 0.750000
Si Si2 0.250121 0.185394 0.636876
Si Si3 0.251476 0.064106 0.854485
Si Si4 0.832314 0.141146 0.384238
Si Si5 0.822756 0.609953 0.123161
Si Si6 0.000000 0.726650 0.250000
O O1 0.612962 0.532411 0.695610
O O2 0.539591 0.414322 0.870096
O O3 0.310720 0.121456 0.740802
O O4 0.351991 0.260259 0.619494
O O5 0.234727 0.139488 0.498086
O O6 0.110432 0.216072 0.687517
O O7 0.347786 0.988442 0.889837
O O8 0.238717 0.120370 0.981565
O O9 0.747106 0.118642 0.260358
O O10 0.950244 0.666673 0.132754
#
# Coordination Sequence:
#
# PCOD8247264 Si02
#       6
#     4   8   8   8   8   4
#     4  10  21  36  65  94 120 160 212 264 323 372
#     4  11  23  41  64  92 127 168 210 260 317 379
#     4  11  22  40  61  90 126 164 208 265 316 375
#     4  10  21  37  60  92 125 159 206 264 313 372
#     4  10  22  40  63  91 124 164 209 256 313 378
#     4  10  23  44  69  92 130 174 208 260 329 378
#
# _framework density 23.213563000000001
#
# number of rings (size 3 to 8) (size 9 to 14) (size 15 to 20)
#    0.000    1.600    0.000    6.000    0.000    8.000 
#    0.000   10.000    0.000    0.000    0.000    0.000 
#    0.000    0.000    0.000    0.000    0.000    0.000 
#
# Total GULP energy -495708.480747 kJ/mol
# GULP energy per Si atom -12392.712019 kJ/mol
# Density = 2.316073 g / cm^3
# Si number density = 23.213563 Si / 1000 Ang^3
#
#
#
# Elastic Constant Matrix: (Units=GPa)
#
#
# Indices 1 2 3 4 5 6 
#
# 1 17.6180 19.9134 22.0552 0.0000 0.0000 0.0000
# 2 19.9134 183.2891 67.8013 0.0000 0.0000 0.0000
# 3 22.0552 67.8013 158.9722 0.0000 0.0000 0.0000
# 4 0.0000 0.0000 0.0000 50.8794 0.0000 0.0000
# 5 0.0000 0.0000 0.0000 0.0000 19.8502 0.0000
# 6 0.0000 0.0000 0.0000 0.0000 0.0000 -2.0204
#
#
#
# Elastic Compliance Matrix: (Units=1/GPa)
#
#
# Indices 1 2 3 4 5 6 
#
# 1 0.072239 -0.004917 -0.007925 0.000000 0.000000 0.000000
# 2 -0.004917 0.006813 -0.002223 0.000000 0.000000 0.000000
# 3 -0.007925 -0.002223 0.008338 0.000000 0.000000 0.000000
# 4 0.000000 0.000000 0.000000 0.019654 0.000000 0.000000
# 5 0.000000 0.000000 0.000000 0.000000 0.050377 0.000000
# 6 0.000000 0.000000 0.000000 0.000000 0.000000 -0.494953
#
#
# Mechanical properties :
#
#
# Convention : Reuss Voigt Hill
#
# Bulk Modulus (GPa) = 17.46457 64.37992 40.92225
# Shear Modulus (GPa) = -17.34210 30.41580 6.53685
#
# Velocity S-wave (km/s) = -2.73622 3.62368 1.67990
# Velocity P-wave (km/s) = 1.56293 6.73068 4.62921
#
# Compressibility (1/GPa) = 0.05725877
#
# Stress axis : x y z
#
# Youngs Moduli (GPa) = 13.84301 146.78894 119.93023
#
# Poissons Ratio (x) = 0.72172 0.95046
# Poissons Ratio (y) = 0.06806 0.26665
# Poissons Ratio (z) = 0.10971 0.32637
#
# Static dielectric constant tensor:
#      x y z
#    x 4.154050 0.000000 0.000000 
#    y 0.000000 5.269170 0.000000 
#    z 0.000000 0.000000 4.365700 
# 
# 
# High freq. dielectric constant tensor:
#      x y z
#    x 1.867320 0.000000 0.000000 
#    y 0.000000 1.948800 0.000000 
#    z 0.000000 0.000000 1.929930 
# 
# From -- ./inp_files/4816.got.cif
#   From: 2010.03.12/outbox.cif.g09.slc.cpg/sg60_3_cif.got.tgz:4816.got - 2010.04.10 18:46:24.
