data_PCOD8247827
_publ_section_title
;
Structure prediction by ZEFSAII (Michael W. Deem and Ramdas Pophale) SiO2 
 PCOD8247827
Probable space group: P B C N
;
_chemical_formula_sum "Si O2"
_cell_formula_units_Z 56
_cell_length_a 14.104905
_cell_length_b 17.080794
_cell_length_c 10.920296
_cell_angle_alpha 90.000000
_cell_angle_beta 90.000000
_cell_angle_gamma 90.000000
_cell_volume 2630.950219
_symmetry_space_group_name_H-M "P B C N"
_symmetry_group_IT_number 60
_symmetry_cell_setting 'orthorhombic'
loop_
_space_group_symop_operation_xyz
x,y,z
1/2-x,1/2-y,1/2+z
1/2+x,1/2-y,-z
-x,y,1/2-z
-x,-y,-z
1/2+x,1/2+y,1/2-z
1/2-x,1/2+y,z
x,-y,1/2+z
loop_
_atom_site_type_symbol
_atom_site_label
_atom_site_fract_x
_atom_site_fract_y
_atom_site_fract_z
Si Si1 0.350545 0.693787 0.950852
Si Si2 0.645703 0.869302 0.492770
Si Si3 0.960237 0.592092 0.631301
Si Si4 0.172234 0.462556 0.782369
Si Si5 0.788185 0.895029 0.287276
Si Si6 0.164750 0.339558 0.568107
Si Si7 0.453580 0.314870 0.122061
O O1 0.302564 0.662588 0.826988
O O2 0.458934 0.661820 0.969042
O O3 0.368698 0.786379 0.942922
O O4 0.279035 0.672602 0.061126
O O5 0.545587 0.913485 0.467040
O O6 0.702661 0.920979 0.591397
O O7 0.702281 0.860646 0.366932
O O8 0.923362 0.511743 0.693447
O O9 0.869388 0.628161 0.563701
O O10 0.000000 0.641532 0.750000
O O11 0.262904 0.515759 0.746409
O O12 0.145582 0.400867 0.676222
O O13 0.886116 0.891431 0.365363
O O14 0.111399 0.257536 0.581537
O O15 0.500000 0.289821 0.250000
#
# Coordination Sequence:
#
# PCOD8247827 Si02
#       7
#     8   8   8   8   8   8   8
#     4  11  23  43  70  94 128 178 228 275 328 404
#     4  12  24  40  67  98 136 178 222 280 345 404
#     4  12  25  38  62 100 139 172 215 279 347 407
#     4  12  26  39  66  99 139 177 222 276 356 411
#     4  11  23  42  63  94 135 173 222 279 332 403
#     4  12  24  42  67  97 133 175 226 277 342 411
#     4  10  22  42  69  94 123 176 223 272 330 401
#
# _framework density 21.285087000000001
#
# number of rings (size 3 to 8) (size 9 to 14) (size 15 to 20)
#    0.000    0.571    5.714    3.000    2.000    0.000 
#    0.000    0.714    3.143    0.000    0.000    0.000 
#    0.000    0.000    0.000    0.000    0.000    0.000 
#
# Total GULP energy -693845.840102 kJ/mol
# GULP energy per Si atom -12390.104288 kJ/mol
# Density = 2.123664 g / cm^3
# Si number density = 21.285087 Si / 1000 Ang^3
#
#
#
# Elastic Constant Matrix: (Units=GPa)
#
#
# Indices 1 2 3 4 5 6 
#
# 1 166.8699 56.7357 39.1144 0.0000 0.0000 0.0000
# 2 56.7357 80.0518 48.4258 0.0000 0.0000 0.0000
# 3 39.1144 48.4258 71.3059 0.0000 0.0000 0.0000
# 4 0.0000 0.0000 0.0000 22.0848 0.0000 0.0000
# 5 0.0000 0.0000 0.0000 0.0000 38.1234 0.0000
# 6 0.0000 0.0000 0.0000 0.0000 0.0000 24.3141
#
#
#
# Elastic Compliance Matrix: (Units=1/GPa)
#
#
# Indices 1 2 3 4 5 6 
#
# 1 0.007929 -0.005073 -0.000905 0.000000 0.000000 0.000000
# 2 -0.005073 0.024447 -0.013820 0.000000 0.000000 0.000000
# 3 -0.000905 -0.013820 0.023906 0.000000 0.000000 0.000000
# 4 0.000000 0.000000 0.000000 0.045280 0.000000 0.000000
# 5 0.000000 0.000000 0.000000 0.000000 0.026231 0.000000
# 6 0.000000 0.000000 0.000000 0.000000 0.000000 0.041128
#
#
# Mechanical properties :
#
#
# Convention : Reuss Voigt Hill
#
# Bulk Modulus (GPa) = 59.92454 67.41994 63.67224
# Shear Modulus (GPa) = 23.35578 28.50125 25.92851
#
# Velocity S-wave (km/s) = 3.31612 3.66324 3.49399
# Velocity P-wave (km/s) = 6.54802 7.04528 6.80120
#
# Compressibility (1/GPa) = 0.01668765
#
# Stress axis : x y z
#
# Youngs Moduli (GPa) = 126.11237 40.90408 41.83025
#
# Poissons Ratio (x) = 0.20749 0.03784
# Poissons Ratio (y) = 0.63972 0.57811
# Poissons Ratio (z) = 0.11409 0.56531
#
# Static dielectric constant tensor:
#      x y z
#    x 4.374680 0.000000 0.000000 
#    y 0.000000 3.697250 0.000000 
#    z 0.000000 0.000000 3.970530 
# 
# 
# High freq. dielectric constant tensor:
#      x y z
#    x 1.847650 0.000000 0.000000 
#    y 0.000000 1.808200 0.000000 
#    z 0.000000 0.000000 1.836900 
# 
# From -- ./inp_files/11956.got.cif
#   From: 2010.03.12/outbox.cif.g09.slc.cpg/sg60_6_cif.got.tgz:11956.got - 2010.04.10 18:46:24.
