data_PCOD8247810
_publ_section_title
;
Structure prediction by ZEFSAII (Michael W. Deem and Ramdas Pophale) SiO2 
 PCOD8247810
Probable space group: P B C N
;
_chemical_formula_sum "Si O2"
_cell_formula_units_Z 60
_cell_length_a 12.215260
_cell_length_b 8.352464
_cell_length_c 25.169882
_cell_angle_alpha 90.000000
_cell_angle_beta 90.000000
_cell_angle_gamma 90.000000
_cell_volume 2568.020624
_symmetry_space_group_name_H-M "P B C N"
_symmetry_group_IT_number 60
_symmetry_cell_setting 'orthorhombic'
loop_
_space_group_symop_operation_xyz
x,y,z
1/2-x,1/2-y,1/2+z
1/2+x,1/2-y,-z
-x,y,1/2-z
-x,-y,-z
1/2+x,1/2+y,1/2-z
1/2-x,1/2+y,z
x,-y,1/2+z
loop_
_atom_site_type_symbol
_atom_site_label
_atom_site_fract_x
_atom_site_fract_y
_atom_site_fract_z
Si Si1 0.123786 0.980979 0.750826
Si Si2 0.116922 0.038446 0.977178
Si Si3 0.681136 0.813721 0.792575
Si Si4 0.368820 0.980171 0.597648
Si Si5 0.500000 0.970920 0.250000
Si Si6 0.258915 0.722961 0.535038
Si Si7 0.911035 0.604464 0.639686
Si Si8 0.314847 0.455011 0.867032
O O1 0.147310 0.128425 0.710960
O O2 0.000000 0.922577 0.750000
O O3 0.194994 0.830521 0.729836
O O4 0.149693 0.031797 0.811054
O O5 0.125061 0.058194 0.913289
O O6 0.154938 0.196203 0.007470
O O7 0.195554 0.891105 0.989951
O O8 0.000000 0.000000 0.000000
O O9 0.669589 0.884480 0.850830
O O10 0.604928 0.916388 0.754502
O O11 0.354095 0.849512 0.550715
O O12 0.285057 0.126798 0.586888
O O13 0.492154 0.048592 0.599817
O O14 0.530504 0.870612 0.197282
O O15 0.817614 0.468773 0.632803
O O16 0.854402 0.772291 0.625450
#
# Coordination Sequence:
#
# PCOD8247810 Si02
#       8
#     8   8   8   8   4   8   8   8
#     4  12  27  42  67  98 137 179 228 278 346 424
#     4  11  25  45  70  99 144 181 243 304 357 426
#     4  11  23  43  64  98 136 177 225 277 343 421
#     4  10  23  44  74 100 141 183 235 297 363 427
#     4  10  22  42  66  92 142 176 218 286 334 418
#     4  10  23  45  69 105 133 184 241 297 363 425
#     4  11  25  43  71  99 145 183 236 284 357 421
#     4  12  26  44  68 103 138 191 236 288 357 426
#
# _framework density 23.364298000000002
#
# number of rings (size 3 to 8) (size 9 to 14) (size 15 to 20)
#    0.000    1.067    2.000    3.200    0.933    7.467 
#    0.000    3.333    0.000    0.000    0.000    0.000 
#    0.000    0.000    0.000    0.000    0.000    0.000 
#
# Total GULP energy -743922.248488 kJ/mol
# GULP energy per Si atom -12398.704141 kJ/mol
# Density = 2.331112 g / cm^3
# Si number density = 23.364298 Si / 1000 Ang^3
#
#
#
# Elastic Constant Matrix: (Units=GPa)
#
#
# Indices 1 2 3 4 5 6 
#
# 1 137.3934 18.8165 15.3402 0.0000 0.0000 0.0000
# 2 18.8165 75.4986 3.7327 0.0000 0.0000 0.0000
# 3 15.3402 3.7327 69.8543 0.0000 0.0000 0.0000
# 4 0.0000 0.0000 0.0000 23.0536 0.0000 0.0000
# 5 0.0000 0.0000 0.0000 0.0000 37.0669 0.0000
# 6 0.0000 0.0000 0.0000 0.0000 0.0000 3.3311
#
#
#
# Elastic Compliance Matrix: (Units=1/GPa)
#
#
# Indices 1 2 3 4 5 6 
#
# 1 0.007709 -0.001842 -0.001594 0.000000 0.000000 0.000000
# 2 -0.001842 0.013721 -0.000329 0.000000 0.000000 0.000000
# 3 -0.001594 -0.000329 0.014683 0.000000 0.000000 0.000000
# 4 0.000000 0.000000 0.000000 0.043377 0.000000 0.000000
# 5 0.000000 0.000000 0.000000 0.000000 0.026978 0.000000
# 6 0.000000 0.000000 0.000000 0.000000 0.000000 0.300201
#
#
# Mechanical properties :
#
#
# Convention : Reuss Voigt Hill
#
# Bulk Modulus (GPa) = 34.98726 39.83613 37.41169
# Shear Modulus (GPa) = 11.80004 29.01411 20.40707
#
# Velocity S-wave (km/s) = 2.24976 3.52776 2.95859
# Velocity P-wave (km/s) = 4.66430 5.80349 5.26480
#
# Compressibility (1/GPa) = 0.02858183
#
# Stress axis : x y z
#
# Youngs Moduli (GPa) = 129.72339 72.88252 68.10502
#
# Poissons Ratio (x) = 0.13428 0.10859
# Poissons Ratio (y) = 0.23900 0.02238
# Poissons Ratio (z) = 0.20683 0.02395
#
# Static dielectric constant tensor:
#      x y z
#    x 2.583300 0.000000 0.000000 
#    y 0.000000 4.015690 0.000000 
#    z 0.000000 0.000000 4.187100 
# 
# 
# High freq. dielectric constant tensor:
#      x y z
#    x 1.931330 0.000000 0.000000 
#    y 0.000000 1.925430 0.000000 
#    z 0.000000 0.000000 1.925660 
# 
# From -- ./inp_files/25346.got.cif
#   From: 2010.03.12/outbox.cif.g09.slc.cpg/sg60_13_cif.got.tgz:25346.got - 2010.04.10 18:46:24.
