data_PCOD8247026
_publ_section_title
;
Structure prediction by ZEFSAII (Michael W. Deem and Ramdas Pophale) SiO2 
 PCOD8247026
Probable space group: P B C N
;
_chemical_formula_sum "Si O2"
_cell_formula_units_Z 48
_cell_length_a 15.886936
_cell_length_b 9.560245
_cell_length_c 15.405771
_cell_angle_alpha 90.000000
_cell_angle_beta 90.000000
_cell_angle_gamma 90.000000
_cell_volume 2339.874724
_symmetry_space_group_name_H-M "P B C N"
_symmetry_group_IT_number 60
_symmetry_cell_setting 'orthorhombic'
loop_
_space_group_symop_operation_xyz
x,y,z
1/2-x,1/2-y,1/2+z
1/2+x,1/2-y,-z
-x,y,1/2-z
-x,-y,-z
1/2+x,1/2+y,1/2-z
1/2-x,1/2+y,z
x,-y,1/2+z
loop_
_atom_site_type_symbol
_atom_site_label
_atom_site_fract_x
_atom_site_fract_y
_atom_site_fract_z
Si Si1 0.173640 0.514941 0.097606
Si Si2 0.238327 0.773454 0.315373
Si Si3 0.827326 0.201221 0.342333
Si Si4 0.418985 0.233006 0.190572
Si Si5 0.755434 0.025333 0.066459
Si Si6 0.082379 0.984684 0.057051
O O1 0.181976 0.349930 0.111699
O O2 0.251328 0.596164 0.139266
O O3 0.090305 0.584307 0.139331
O O4 0.178626 0.531908 0.993162
O O5 0.323685 0.733287 0.261489
O O6 0.159412 0.762509 0.252064
O O7 0.231790 0.679844 0.401232
O O8 0.239111 0.932705 0.347189
O O9 0.909545 0.120702 0.378920
O O10 0.500000 0.224840 0.250000
O O11 0.426276 0.349954 0.117255
O O12 0.839847 0.028548 0.009066
O O13 0.000000 0.000000 0.000000
#
# Coordination Sequence:
#
# PCOD8247026 Si02
#       6
#     8   8   8   8   8   8
#     4  10  20  38  62  88 120 159 204 251 301 364
#     4  11  20  35  60  89 117 153 199 250 305 365
#     4  10  20  38  62  89 121 159 201 251 303 363
#     4  11  23  41  59  84 123 166 204 255 314 368
#     4  11  20  35  61  91 116 153 203 253 303 364
#     4  11  23  41  62  89 124 166 209 256 308 368
#
# _framework density 20.513919000000001
#
# number of rings (size 3 to 8) (size 9 to 14) (size 15 to 20)
#    0.000    1.333    0.000   11.000    0.000    0.000 
#    0.000    7.500    0.000    0.000    0.000    0.000 
#    0.000    0.000    0.000    0.000    0.000    0.000 
#
# Total GULP energy -594861.726130 kJ/mol
# GULP energy per Si atom -12392.952628 kJ/mol
# Density = 2.046723 g / cm^3
# Si number density = 20.513919 Si / 1000 Ang^3
#
#
#
# Elastic Constant Matrix: (Units=GPa)
#
#
# Indices 1 2 3 4 5 6 
#
# 1 68.6661 45.1750 57.1481 0.0000 0.0000 0.0000
# 2 45.1750 96.7596 23.0684 0.0000 0.0000 0.0000
# 3 57.1481 23.0684 122.4884 0.0000 0.0000 0.0000
# 4 0.0000 0.0000 0.0000 28.5361 0.0000 0.0000
# 5 0.0000 0.0000 0.0000 0.0000 47.4809 0.0000
# 6 0.0000 0.0000 0.0000 0.0000 0.0000 263.0753
#
#
#
# Elastic Compliance Matrix: (Units=1/GPa)
#
#
# Indices 1 2 3 4 5 6 
#
# 1 0.034259 -0.012757 -0.013581 0.000000 0.000000 0.000000
# 2 -0.012757 0.015571 0.003019 0.000000 0.000000 0.000000
# 3 -0.013581 0.003019 0.013932 0.000000 0.000000 0.000000
# 4 0.000000 0.000000 0.000000 0.035043 0.000000 0.000000
# 5 0.000000 0.000000 0.000000 0.000000 0.021061 0.000000
# 6 0.000000 0.000000 0.000000 0.000000 0.000000 0.003801
#
#
# Mechanical properties :
#
#
# Convention : Reuss Voigt Hill
#
# Bulk Modulus (GPa) = 58.39713 59.85524 59.12619
# Shear Modulus (GPa) = 28.40684 78.65331 53.53007
#
# Velocity S-wave (km/s) = 3.72527 6.19876 5.11382
# Velocity P-wave (km/s) = 6.85802 8.97074 7.98456
#
# Compressibility (1/GPa) = 0.01712413
#
# Stress axis : x y z
#
# Youngs Moduli (GPa) = 29.18918 64.22194 71.77745
#
# Poissons Ratio (x) = 0.81928 0.97484
# Poissons Ratio (y) = 0.37237 -0.21672
# Poissons Ratio (z) = 0.39643 -0.19391
#
# Static dielectric constant tensor:
#      x y z
#    x 1.311620 0.000000 0.000000 
#    y 0.000000 4.060450 0.000000 
#    z 0.000000 0.000000 5.027680 
# 
# 
# High freq. dielectric constant tensor:
#      x y z
#    x 1.759430 0.000000 0.000000 
#    y 0.000000 1.820570 0.000000 
#    z 0.000000 0.000000 1.827410 
# 
# From -- ./inp_files/20812.got.cif
#   From: 2010.03.12/outbox.cif.g09.slc.cpg/sg60_11_cif.got.tgz:20812.got - 2010.04.10 18:46:24.
