data_PCOD8247087
_publ_section_title
;
Structure prediction by ZEFSAII (Michael W. Deem and Ramdas Pophale) SiO2 
 PCOD8247087
Probable space group: P B C N
;
_chemical_formula_sum "Si O2"
_cell_formula_units_Z 48
_cell_length_a 8.646016
_cell_length_b 22.697386
_cell_length_c 11.482310
_cell_angle_alpha 90.000000
_cell_angle_beta 90.000000
_cell_angle_gamma 90.000000
_cell_volume 2253.311049
_symmetry_space_group_name_H-M "P B C N"
_symmetry_group_IT_number 60
_symmetry_cell_setting 'orthorhombic'
loop_
_space_group_symop_operation_xyz
x,y,z
1/2-x,1/2-y,1/2+z
1/2+x,1/2-y,-z
-x,y,1/2-z
-x,-y,-z
1/2+x,1/2+y,1/2-z
1/2-x,1/2+y,z
x,-y,1/2+z
loop_
_atom_site_type_symbol
_atom_site_label
_atom_site_fract_x
_atom_site_fract_y
_atom_site_fract_z
Si Si1 0.847836 0.975690 0.329339
Si Si2 0.180253 0.828348 0.765505
Si Si3 0.830349 0.791691 0.280695
Si Si4 0.718749 0.600068 0.442846
Si Si5 0.656418 0.898417 0.185308
Si Si6 0.883914 0.865704 0.491534
O O1 0.707180 0.961119 0.240811
O O2 0.843822 0.926859 0.429887
O O3 0.000000 0.976213 0.250000
O O4 0.827567 0.036229 0.396219
O O5 0.210510 0.759031 0.753480
O O6 0.281342 0.862222 0.666951
O O7 0.000000 0.840332 0.750000
O O8 0.217505 0.856853 0.891197
O O9 0.788920 0.850220 0.208560
O O10 0.831119 0.809007 0.416495
O O11 0.000000 0.768847 0.250000
O O12 0.850359 0.595570 0.544145
O O13 0.568227 0.634421 0.489843
O O14 0.500000 0.877685 0.250000
#
# Coordination Sequence:
#
# PCOD8247087 Si02
#       6
#     8   8   8   8   8   8
#     4  11  21  39  71  96 124 173 217 268 327 405
#     4  10  24  38  61  98 127 166 213 280 336 391
#     4  11  22  43  65  89 124 174 224 271 329 405
#     4  11  22  40  66  96 130 166 224 271 328 406
#     4  11  24  42  63  92 130 174 216 271 343 395
#     4  10  20  39  65  95 127 164 217 271 324 393
#
# _framework density 21.301984999999998
#
# number of rings (size 3 to 8) (size 9 to 14) (size 15 to 20)
#    0.000    1.333    3.333    3.500    4.667    0.667 
#    6.000    0.833    0.000    0.000    0.000    0.000 
#    0.000    0.000    0.000    0.000    0.000    0.000 
#
# Total GULP energy -594927.074993 kJ/mol
# GULP energy per Si atom -12394.314062 kJ/mol
# Density = 2.125350 g / cm^3
# Si number density = 21.301985 Si / 1000 Ang^3
#
#
#
# Elastic Constant Matrix: (Units=GPa)
#
#
# Indices 1 2 3 4 5 6 
#
# 1 44.0250 14.3131 39.2426 0.0000 0.0000 0.0000
# 2 14.3131 102.8924 65.3678 0.0000 0.0000 0.0000
# 3 39.2426 65.3678 188.5404 0.0000 0.0000 0.0000
# 4 0.0000 0.0000 0.0000 33.6266 0.0000 0.0000
# 5 0.0000 0.0000 0.0000 0.0000 29.4670 0.0000
# 6 0.0000 0.0000 0.0000 0.0000 0.0000 24.9390
#
#
#
# Elastic Compliance Matrix: (Units=1/GPa)
#
#
# Indices 1 2 3 4 5 6 
#
# 1 0.027893 -0.000246 -0.005720 0.000000 0.000000 0.000000
# 2 -0.000246 0.012466 -0.004271 0.000000 0.000000 0.000000
# 3 -0.005720 -0.004271 0.007975 0.000000 0.000000 0.000000
# 4 0.000000 0.000000 0.000000 0.029738 0.000000 0.000000
# 5 0.000000 0.000000 0.000000 0.000000 0.033936 0.000000
# 6 0.000000 0.000000 0.000000 0.000000 0.000000 0.040098
#
#
# Mechanical properties :
#
#
# Convention : Reuss Voigt Hill
#
# Bulk Modulus (GPa) = 35.89327 63.70053 49.79690
# Shear Modulus (GPa) = 27.49230 32.04214 29.76722
#
# Velocity S-wave (km/s) = 3.59639 3.88259 3.74223
# Velocity P-wave (km/s) = 5.84223 7.07586 6.48843
#
# Compressibility (1/GPa) = 0.02786038
#
# Stress axis : x y z
#
# Youngs Moduli (GPa) = 35.85087 80.21508 125.38682
#
# Poissons Ratio (x) = 0.01973 0.71726
# Poissons Ratio (y) = 0.00882 0.53553
# Poissons Ratio (z) = 0.20508 0.34260
#
# Static dielectric constant tensor:
#      x y z
#    x 3.472550 0.000000 0.000000 
#    y 0.000000 3.719420 0.000000 
#    z 0.000000 0.000000 4.513910 
# 
# 
# High freq. dielectric constant tensor:
#      x y z
#    x 1.797090 0.000000 0.000000 
#    y 0.000000 1.832020 0.000000 
#    z 0.000000 0.000000 1.861340 
# 
# From -- ./inp_files/10138.got.cif
#   From: 2010.03.12/outbox.cif.g09.slc.cpg/sg60_6_cif.got.tgz:10138.got - 2010.04.10 18:46:24.
