data_PCOD8247867
_publ_section_title
;
Structure prediction by ZEFSAII (Michael W. Deem and Ramdas Pophale) SiO2 
 PCOD8247867
Probable space group: P B C N
;
_chemical_formula_sum "Si O2"
_cell_formula_units_Z 28
_cell_length_a 11.929369
_cell_length_b 7.711452
_cell_length_c 13.851693
_cell_angle_alpha 90.000000
_cell_angle_beta 90.000000
_cell_angle_gamma 90.000000
_cell_volume 1274.255420
_symmetry_space_group_name_H-M "P B C N"
_symmetry_group_IT_number 60
_symmetry_cell_setting 'orthorhombic'
loop_
_space_group_symop_operation_xyz
x,y,z
1/2-x,1/2-y,1/2+z
1/2+x,1/2-y,-z
-x,y,1/2-z
-x,-y,-z
1/2+x,1/2+y,1/2-z
1/2-x,1/2+y,z
x,-y,1/2+z
loop_
_atom_site_type_symbol
_atom_site_label
_atom_site_fract_x
_atom_site_fract_y
_atom_site_fract_z
Si Si1 0.500000 0.425013 0.250000
Si Si2 0.157125 0.535387 0.975216
Si Si3 0.972418 0.594546 0.350042
Si Si4 0.098020 0.926897 0.933009
O O1 0.433356 0.292140 0.177440
O O2 0.422472 0.543083 0.318399
O O3 0.088849 0.395780 0.911423
O O4 0.109795 0.723085 0.947012
O O5 0.288703 0.525153 0.962471
O O6 0.125974 0.503432 0.088403
O O7 0.000000 0.491247 0.250000
O O8 0.000000 0.000000 0.000000
#
# Coordination Sequence:
#
# PCOD8247867 Si02
#       4
#     4   8   8   8
#     4  10  22  44  62 102 136 166 238 276 334 424
#     4  11  24  43  71  95 142 177 228 287 348 400
#     4   9  21  45  69  97 133 176 228 282 344 406
#     4  12  25  44  67 102 137 182 229 283 345 407
#
# _framework density 21.973616
#
# number of rings (size 3 to 8) (size 9 to 14) (size 15 to 20)
#    0.857    0.571    2.857    1.714    6.000    2.286 
#    0.000    0.000    0.000    0.000    0.000    0.000 
#    0.000    0.000    0.000    0.000    0.000    0.000 
#
# Total GULP energy -346876.611103 kJ/mol
# GULP energy per Si atom -12388.450397 kJ/mol
# Density = 2.192360 g / cm^3
# Si number density = 21.973616 Si / 1000 Ang^3
#
#
#
# Elastic Constant Matrix: (Units=GPa)
#
#
# Indices 1 2 3 4 5 6 
#
# 1 163.9080 25.3985 79.5300 0.0000 0.0000 0.0000
# 2 25.3985 64.1529 35.9865 0.0000 0.0000 0.0000
# 3 79.5300 35.9865 193.9809 0.0000 0.0000 0.0000
# 4 0.0000 0.0000 0.0000 28.6053 0.0000 0.0000
# 5 0.0000 0.0000 0.0000 0.0000 33.0129 0.0000
# 6 0.0000 0.0000 0.0000 0.0000 0.0000 33.3393
#
#
#
# Elastic Compliance Matrix: (Units=1/GPa)
#
#
# Indices 1 2 3 4 5 6 
#
# 1 0.007732 -0.001432 -0.002904 0.000000 0.000000 0.000000
# 2 -0.001432 0.017663 -0.002690 0.000000 0.000000 0.000000
# 3 -0.002904 -0.002690 0.006845 0.000000 0.000000 0.000000
# 4 0.000000 0.000000 0.000000 0.034959 0.000000 0.000000
# 5 0.000000 0.000000 0.000000 0.000000 0.030291 0.000000
# 6 0.000000 0.000000 0.000000 0.000000 0.000000 0.029995
#
#
# Mechanical properties :
#
#
# Convention : Reuss Voigt Hill
#
# Bulk Modulus (GPa) = 54.98060 78.20797 66.59428
# Shear Modulus (GPa) = 33.87534 37.73330 35.80432
#
# Velocity S-wave (km/s) = 3.93063 4.14842 4.04099
# Velocity P-wave (km/s) = 6.75835 7.65603 7.22115
#
# Compressibility (1/GPa) = 0.01818823
#
# Stress axis : x y z
#
# Youngs Moduli (GPa) = 129.33035 56.61396 146.09364
#
# Poissons Ratio (x) = 0.08107 0.42432
# Poissons Ratio (y) = 0.18520 0.39296
# Poissons Ratio (z) = 0.37563 0.15228
#
# Static dielectric constant tensor:
#      x y z
#    x 3.768550 0.000000 0.000000 
#    y 0.000000 3.942360 0.000000 
#    z 0.000000 0.000000 4.454410 
# 
# 
# High freq. dielectric constant tensor:
#      x y z
#    x 1.835650 0.000000 0.000000 
#    y 0.000000 1.858330 0.000000 
#    z 0.000000 0.000000 1.886590 
# 
# From -- ./inp_files/15518.got.cif
#   From: 2010.03.12/outbox.cif.g09.slc.cpg/sg60_8_cif.got.tgz:15518.got - 2010.04.10 18:46:24.
