data_PCOD8247813
_publ_section_title
;
Structure prediction by ZEFSAII (Michael W. Deem and Ramdas Pophale) SiO2 
 PCOD8247813
Probable space group: P B C N
;
_chemical_formula_sum "Si O2"
_cell_formula_units_Z 56
_cell_length_a 9.003453
_cell_length_b 14.867550
_cell_length_c 18.421924
_cell_angle_alpha 90.000000
_cell_angle_beta 90.000000
_cell_angle_gamma 90.000000
_cell_volume 2465.945624
_symmetry_space_group_name_H-M "P B C N"
_symmetry_group_IT_number 60
_symmetry_cell_setting 'orthorhombic'
loop_
_space_group_symop_operation_xyz
x,y,z
1/2-x,1/2-y,1/2+z
1/2+x,1/2-y,-z
-x,y,1/2-z
-x,-y,-z
1/2+x,1/2+y,1/2-z
1/2-x,1/2+y,z
x,-y,1/2+z
loop_
_atom_site_type_symbol
_atom_site_label
_atom_site_fract_x
_atom_site_fract_y
_atom_site_fract_z
Si Si1 0.750455 0.348291 0.279171
Si Si2 0.310963 0.439837 0.368749
Si Si3 0.000000 0.779017 0.750000
Si Si4 0.500000 0.228852 0.250000
Si Si5 0.691312 0.646321 0.478253
Si Si6 0.752338 0.636960 0.156282
Si Si7 0.847331 0.029450 0.894306
Si Si8 0.644121 0.314641 0.505106
O O1 0.735030 0.368759 0.193259
O O2 0.603786 0.291395 0.301285
O O3 0.756108 0.438756 0.327298
O O4 0.894245 0.287813 0.296294
O O5 0.264163 0.398300 0.445379
O O6 0.222336 0.531171 0.353982
O O7 0.483443 0.466544 0.368569
O O8 0.899560 0.842800 0.700058
O O9 0.398194 0.169970 0.302543
O O10 0.698789 0.571794 0.414697
O O11 0.529605 0.690634 0.479241
O O12 0.807106 0.726040 0.460050
O O13 0.740036 0.685451 0.078707
O O14 0.820010 0.093607 0.962867
#
# Coordination Sequence:
#
# PCOD8247813 Si02
#       8
#     8   8   4   4   8   8   8   8
#     4  11  23  43  67  97 138 183 225 291 339 418
#     4  11  21  43  70  93 135 182 228 276 347 404
#     4  10  26  40  64 102 136 172 236 282 352 406
#     4  10  22  42  66  96 132 178 236 270 350 406
#     4  11  23  45  70 102 133 185 230 284 349 419
#     4  11  23  43  68  99 133 183 225 292 341 418
#     4  11  22  42  70 103 130 183 239 272 344 429
#     4  11  24  42  70  95 141 179 228 284 350 408
#
# _framework density 22.709340999999998
#
# number of rings (size 3 to 8) (size 9 to 14) (size 15 to 20)
#    0.000    1.143    4.286    2.571    6.000    0.571 
#    2.571    2.143    0.000    0.000    0.000    0.000 
#    0.000    0.000    0.000    0.000    0.000    0.000 
#
# Total GULP energy -694539.843216 kJ/mol
# GULP energy per Si atom -12402.497200 kJ/mol
# Density = 2.265765 g / cm^3
# Si number density = 22.709341 Si / 1000 Ang^3
#
#
#
# Elastic Constant Matrix: (Units=GPa)
#
#
# Indices 1 2 3 4 5 6 
#
# 1 102.1262 57.9435 33.0342 0.0000 0.0000 0.0000
# 2 57.9435 126.2732 9.1535 0.0000 0.0000 0.0000
# 3 33.0342 9.1535 73.9177 0.0000 0.0000 0.0000
# 4 0.0000 0.0000 0.0000 31.0338 0.0000 0.0000
# 5 0.0000 0.0000 0.0000 0.0000 27.8155 0.0000
# 6 0.0000 0.0000 0.0000 0.0000 0.0000 29.4028
#
#
#
# Elastic Compliance Matrix: (Units=1/GPa)
#
#
# Indices 1 2 3 4 5 6 
#
# 1 0.015579 -0.006704 -0.006132 0.000000 0.000000 0.000000
# 2 -0.006704 0.010876 0.001649 0.000000 0.000000 0.000000
# 3 -0.006132 0.001649 0.016065 0.000000 0.000000 0.000000
# 4 0.000000 0.000000 0.000000 0.032223 0.000000 0.000000
# 5 0.000000 0.000000 0.000000 0.000000 0.035951 0.000000
# 6 0.000000 0.000000 0.000000 0.000000 0.000000 0.034010
#
#
# Mechanical properties :
#
#
# Convention : Reuss Voigt Hill
#
# Bulk Modulus (GPa) = 49.63795 55.84215 52.74005
# Shear Modulus (GPa) = 28.76961 31.12949 29.94955
#
# Velocity S-wave (km/s) = 3.56316 3.70642 3.63550
# Velocity P-wave (km/s) = 6.23166 6.55439 6.39506
#
# Compressibility (1/GPa) = 0.02014588
#
# Stress axis : x y z
#
# Youngs Moduli (GPa) = 64.18797 91.94355 62.24776
#
# Poissons Ratio (x) = 0.61643 0.38172
# Poissons Ratio (y) = 0.43034 -0.10267
# Poissons Ratio (z) = 0.39361 -0.15165
#
# Static dielectric constant tensor:
#      x y z
#    x 3.866720 0.000000 0.000000 
#    y 0.000000 4.257100 0.000000 
#    z 0.000000 0.000000 4.034290 
# 
# 
# High freq. dielectric constant tensor:
#      x y z
#    x 1.874760 0.000000 0.000000 
#    y 0.000000 1.911040 0.000000 
#    z 0.000000 0.000000 1.895870 
# 
# From -- ./inp_files/22249.got.cif
#   From: 2010.03.12/outbox.cif.g09.slc.cpg/sg60_12_cif.got.tgz:22249.got - 2010.04.10 18:46:24.
