data_PCOD8247345
_publ_section_title
;
Structure prediction by ZEFSAII (Michael W. Deem and Ramdas Pophale) SiO2 
 PCOD8247345
Probable space group: P B C N
;
_chemical_formula_sum "Si O2"
_cell_formula_units_Z 40
_cell_length_a 8.567077
_cell_length_b 22.596453
_cell_length_c 9.200364
_cell_angle_alpha 90.000000
_cell_angle_beta 90.000000
_cell_angle_gamma 90.000000
_cell_volume 1781.057551
_symmetry_space_group_name_H-M "P B C N"
_symmetry_group_IT_number 60
_symmetry_cell_setting 'orthorhombic'
loop_
_space_group_symop_operation_xyz
x,y,z
1/2-x,1/2-y,1/2+z
1/2+x,1/2-y,-z
-x,y,1/2-z
-x,-y,-z
1/2+x,1/2+y,1/2-z
1/2-x,1/2+y,z
x,-y,1/2+z
loop_
_atom_site_type_symbol
_atom_site_label
_atom_site_fract_x
_atom_site_fract_y
_atom_site_fract_z
Si Si1 0.673081 0.370924 0.785401
Si Si2 0.386780 0.794844 0.879942
Si Si3 0.826409 0.565237 0.713541
Si Si4 0.170622 0.009762 0.061412
Si Si5 0.675041 0.185311 0.562460
O O1 0.500000 0.348570 0.750000
O O2 0.794635 0.356125 0.655108
O O3 0.673854 0.440797 0.812518
O O4 0.727434 0.335594 0.925369
O O5 0.500000 0.775452 0.750000
O O6 0.252566 0.745780 0.886958
O O7 0.491402 0.804197 0.024316
O O8 0.722026 0.549965 0.855258
O O9 0.782153 0.528367 0.569925
O O10 0.812489 0.635706 0.687724
O O11 0.000000 0.545271 0.750000
O O12 0.000000 0.000000 0.000000
#
# Coordination Sequence:
#
# PCOD8247345 Si02
#       5
#     8   8   8   8   8
#     4  10  21  38  62  89 124 169 215 269 331 387
#     4  10  22  40  60  90 127 167 216 272 331 388
#     4  11  25  42  66  98 132 171 218 271 325 388
#     4  11  24  44  67  96 132 175 219 268 327 390
#     4  10  23  40  64  93 126 170 221 270 325 393
#
# _framework density 22.458566999999999
#
# number of rings (size 3 to 8) (size 9 to 14) (size 15 to 20)
#    0.000    1.600    0.000    3.600    0.000   14.400 
#    0.000    0.000    0.000    0.000    0.000    0.000 
#    0.000    0.000    0.000    0.000    0.000    0.000 
#
# Total GULP energy -496031.503647 kJ/mol
# GULP energy per Si atom -12400.787591 kJ/mol
# Density = 2.240745 g / cm^3
# Si number density = 22.458567 Si / 1000 Ang^3
#
#
#
# Elastic Constant Matrix: (Units=GPa)
#
#
# Indices 1 2 3 4 5 6 
#
# 1 183.3595 71.5643 69.5128 0.0000 0.0000 0.0000
# 2 71.5643 132.3779 64.1100 0.0000 0.0000 0.0000
# 3 69.5128 64.1100 77.8542 0.0000 0.0000 0.0000
# 4 0.0000 0.0000 0.0000 25.7598 0.0000 0.0000
# 5 0.0000 0.0000 0.0000 0.0000 45.5725 0.0000
# 6 0.0000 0.0000 0.0000 0.0000 0.0000 33.0609
#
#
#
# Elastic Compliance Matrix: (Units=1/GPa)
#
#
# Indices 1 2 3 4 5 6 
#
# 1 0.008423 -0.001516 -0.006273 0.000000 0.000000 0.000000
# 2 -0.001516 0.012838 -0.009218 0.000000 0.000000 0.000000
# 3 -0.006273 -0.009218 0.026036 0.000000 0.000000 0.000000
# 4 0.000000 0.000000 0.000000 0.038820 0.000000 0.000000
# 5 0.000000 0.000000 0.000000 0.000000 0.021943 0.000000
# 6 0.000000 0.000000 0.000000 0.000000 0.000000 0.030247
#
#
# Mechanical properties :
#
#
# Convention : Reuss Voigt Hill
#
# Bulk Modulus (GPa) = 75.27873 89.32955 82.30414
# Shear Modulus (GPa) = 28.28878 33.43894 30.86386
#
# Velocity S-wave (km/s) = 3.55293 3.86283 3.71112
# Velocity P-wave (km/s) = 7.10090 7.73026 7.42226
#
# Compressibility (1/GPa) = 0.01328396
#
# Stress axis : x y z
#
# Youngs Moduli (GPa) = 118.71670 77.89438 38.40881
#
# Poissons Ratio (x) = 0.11809 0.24092
# Poissons Ratio (y) = 0.17997 0.35405
# Poissons Ratio (z) = 0.74466 0.71803
#
# Static dielectric constant tensor:
#      x y z
#    x 4.201540 0.000000 0.000000 
#    y 0.000000 4.031150 0.000000 
#    z 0.000000 0.000000 4.182920 
# 
# 
# High freq. dielectric constant tensor:
#      x y z
#    x 1.899620 0.000000 0.000000 
#    y 0.000000 1.879920 0.000000 
#    z 0.000000 0.000000 1.887020 
# 
# From -- ./inp_files/3877.got.cif
#   From: 2010.03.12/outbox.cif.g09.slc.cpg/sg60_2_cif.got.tgz:3877.got - 2010.04.10 18:46:24.
