data_PCOD8247318
_publ_section_title
;
Structure prediction by ZEFSAII (Michael W. Deem and Ramdas Pophale) SiO2 
 PCOD8247318
Probable space group: P B C N
;
_chemical_formula_sum "Si O2"
_cell_formula_units_Z 60
_cell_length_a 24.681309
_cell_length_b 11.468268
_cell_length_c 10.652439
_cell_angle_alpha 90.000000
_cell_angle_beta 90.000000
_cell_angle_gamma 90.000000
_cell_volume 3015.192739
_symmetry_space_group_name_H-M "P B C N"
_symmetry_group_IT_number 60
_symmetry_cell_setting 'orthorhombic'
loop_
_space_group_symop_operation_xyz
x,y,z
1/2-x,1/2-y,1/2+z
1/2+x,1/2-y,-z
-x,y,1/2-z
-x,-y,-z
1/2+x,1/2+y,1/2-z
1/2-x,1/2+y,z
x,-y,1/2+z
loop_
_atom_site_type_symbol
_atom_site_label
_atom_site_fract_x
_atom_site_fract_y
_atom_site_fract_z
Si Si1 0.114218 0.910437 0.643375
Si Si2 0.000000 0.499873 0.250000
Si Si3 0.591384 0.845401 0.358099
Si Si4 0.591385 0.154468 0.142032
Si Si5 0.114194 0.089720 0.856228
Si Si6 0.318415 0.000036 0.749897
Si Si7 0.762787 0.159594 0.360916
Si Si8 0.262800 0.340276 0.360617
O O1 0.082498 0.790300 0.674108
O O2 0.101122 0.952710 0.499781
O O3 0.177909 0.891928 0.659099
O O4 0.093522 0.000117 0.749752
O O5 0.036733 0.416981 0.164999
O O6 0.036770 0.582755 0.334921
O O7 0.608367 0.860220 0.500058
O O8 0.643613 0.892121 0.286031
O O9 0.582442 0.290140 0.174340
O O10 0.643642 0.107815 0.214036
O O11 0.177876 0.108364 0.840491
O O12 0.279424 0.051714 0.857762
O O13 0.279490 0.948322 0.641915
O O14 0.758482 0.217881 0.500118
O O15 0.750035 0.249910 0.250098
#
# Coordination Sequence:
#
# PCOD8247318 Si02
#       8
#     8   4   8   8   8   8   8   8
#     4  10  21  38  58  85 122 161 197 240 288 350
#     4  10  22  40  66  86 108 144 194 252 308 360
#     4  10  21  39  60  85 116 150 194 248 300 348
#     4  10  21  39  60  85 116 150 194 248 300 348
#     4  10  21  38  58  85 122 161 197 240 288 350
#     4  11  20  35  56  88 120 159 200 237 288 350
#     4  11  22  34  53  83 123 166 201 238 284 346
#     4  11  22  34  53  83 123 166 201 238 284 346
#
# _framework density 19.899224
#
# number of rings (size 3 to 8) (size 9 to 14) (size 15 to 20)
#    0.000    1.600    4.000    1.200    0.000    2.133 
#    0.000    3.333    0.000    3.200    0.000    0.000 
#    0.000    0.000    0.000    0.000    0.000    0.000 
#
# Total GULP energy -743610.977150 kJ/mol
# GULP energy per Si atom -12393.516286 kJ/mol
# Density = 1.985393 g / cm^3
# Si number density = 19.899224 Si / 1000 Ang^3
#
#
#
# Elastic Constant Matrix: (Units=GPa)
#
#
# Indices 1 2 3 4 5 6 
#
# 1 75.9706 40.0406 13.0428 0.0000 0.0000 0.0000
# 2 40.0406 113.2347 73.1737 0.0000 0.0000 0.0000
# 3 13.0428 73.1737 125.0482 0.0000 0.0000 0.0000
# 4 0.0000 0.0000 0.0000 37.9271 0.0000 0.0000
# 5 0.0000 0.0000 0.0000 0.0000 16.4478 0.0000
# 6 0.0000 0.0000 0.0000 0.0000 0.0000 29.8767
#
#
#
# Elastic Compliance Matrix: (Units=1/GPa)
#
#
# Indices 1 2 3 4 5 6 
#
# 1 0.016752 -0.007710 0.002764 0.000000 0.000000 0.000000
# 2 -0.007710 0.017750 -0.009582 0.000000 0.000000 0.000000
# 3 0.002764 -0.009582 0.013316 0.000000 0.000000 0.000000
# 4 0.000000 0.000000 0.000000 0.026366 0.000000 0.000000
# 5 0.000000 0.000000 0.000000 0.000000 0.060798 0.000000
# 6 0.000000 0.000000 0.000000 0.000000 0.000000 0.033471
#
#
# Mechanical properties :
#
#
# Convention : Reuss Voigt Hill
#
# Bulk Modulus (GPa) = 53.30039 62.97419 58.13729
# Shear Modulus (GPa) = 24.53830 29.38341 26.96086
#
# Velocity S-wave (km/s) = 3.51540 3.84684 3.68485
# Velocity P-wave (km/s) = 6.58185 7.17260 6.88356
#
# Compressibility (1/GPa) = 0.01876159
#
# Stress axis : x y z
#
# Youngs Moduli (GPa) = 59.69443 56.33883 75.09859
#
# Poissons Ratio (x) = 0.43437 -0.20760
# Poissons Ratio (y) = 0.46024 0.71962
# Poissons Ratio (z) = -0.16501 0.53986
#
# Static dielectric constant tensor:
#      x y z
#    x 3.645050 0.000000 0.000000 
#    y 0.000000 3.848710 0.000000 
#    z 0.000000 0.000000 3.835860 
# 
# 
# High freq. dielectric constant tensor:
#      x y z
#    x 1.766030 0.000000 0.000000 
#    y 0.000000 1.777100 0.000000 
#    z 0.000000 0.000000 1.775380 
# 
# From -- ./inp_files/8169.got.cif
#   From: 2010.03.12/outbox.cif.g09.slc.cpg/sg60_5_cif.got.tgz:8169.got - 2010.04.10 18:46:24.
