data_PCOD8247466
_publ_section_title
;
Structure prediction by ZEFSAII (Michael W. Deem and Ramdas Pophale) SiO2 
 PCOD8247466
Probable space group: P B C N
;
_chemical_formula_sum "Si O2"
_cell_formula_units_Z 40
_cell_length_a 14.294870
_cell_length_b 11.630533
_cell_length_c 11.741267
_cell_angle_alpha 90.000000
_cell_angle_beta 90.000000
_cell_angle_gamma 90.000000
_cell_volume 1952.067326
_symmetry_space_group_name_H-M "P B C N"
_symmetry_group_IT_number 60
_symmetry_cell_setting 'orthorhombic'
loop_
_space_group_symop_operation_xyz
x,y,z
1/2-x,1/2-y,1/2+z
1/2+x,1/2-y,-z
-x,y,1/2-z
-x,-y,-z
1/2+x,1/2+y,1/2-z
1/2-x,1/2+y,z
x,-y,1/2+z
loop_
_atom_site_type_symbol
_atom_site_label
_atom_site_fract_x
_atom_site_fract_y
_atom_site_fract_z
Si Si1 0.398806 0.333631 0.701770
Si Si2 0.899871 0.459246 0.691658
Si Si3 0.761301 0.022763 0.836693
Si Si4 0.332294 0.811126 0.003535
Si Si5 0.792702 0.673421 0.646699
O O1 0.500000 0.361586 0.750000
O O2 0.355836 0.449909 0.648337
O O3 0.399456 0.233260 0.605292
O O4 0.336648 0.292395 0.808063
O O5 0.823611 0.440532 0.792241
O O6 0.895492 0.354279 0.601881
O O7 0.875714 0.579716 0.625522
O O8 0.000000 0.466513 0.750000
O O9 0.732458 0.082441 0.955541
O O10 0.778324 0.122606 0.742222
O O11 0.265386 0.704642 0.966551
#
# Coordination Sequence:
#
# PCOD8247466 Si02
#       5
#     8   8   8   8   8
#     4  11  22  41  62  93 127 167 210 255 309 377
#     4  10  21  40  63  93 124 157 211 262 305 374
#     4   9  22  39  64  89 129 163 202 263 306 372
#     4  11  21  40  67  91 125 171 206 254 326 358
#     4   9  19  40  63  87 125 164 204 257 304 381
#
# _framework density 20.491098000000001
#
# number of rings (size 3 to 8) (size 9 to 14) (size 15 to 20)
#    1.200    0.800    2.000    1.800    0.000    0.800 
#    3.600    5.000    0.000    0.000    0.000    0.000 
#    0.000    0.000    0.000    0.000    0.000    0.000 
#
# Total GULP energy -495739.134702 kJ/mol
# GULP energy per Si atom -12393.478368 kJ/mol
# Density = 2.044446 g / cm^3
# Si number density = 20.491098 Si / 1000 Ang^3
#
#
#
# Elastic Constant Matrix: (Units=GPa)
#
#
# Indices 1 2 3 4 5 6 
#
# 1 118.1588 61.2964 49.9358 0.0000 0.0000 0.0000
# 2 61.2964 78.7432 23.5445 0.0000 0.0000 0.0000
# 3 49.9358 23.5445 82.5361 0.0000 0.0000 0.0000
# 4 0.0000 0.0000 0.0000 39.3478 0.0000 0.0000
# 5 0.0000 0.0000 0.0000 0.0000 25.2937 0.0000
# 6 0.0000 0.0000 0.0000 0.0000 0.0000 24.0398
#
#
#
# Elastic Compliance Matrix: (Units=1/GPa)
#
#
# Indices 1 2 3 4 5 6 
#
# 1 0.017479 -0.011418 -0.007318 0.000000 0.000000 0.000000
# 2 -0.011418 0.021343 0.000820 0.000000 0.000000 0.000000
# 3 -0.007318 0.000820 0.016310 0.000000 0.000000 0.000000
# 4 0.000000 0.000000 0.000000 0.025414 0.000000 0.000000
# 5 0.000000 0.000000 0.000000 0.000000 0.039536 0.000000
# 6 0.000000 0.000000 0.000000 0.000000 0.000000 0.041598
#
#
# Mechanical properties :
#
#
# Convention : Reuss Voigt Hill
#
# Bulk Modulus (GPa) = 51.81669 60.99906 56.40787
# Shear Modulus (GPa) = 24.51640 27.38036 25.94838
#
# Velocity S-wave (km/s) = 3.46271 3.65938 3.56241
# Velocity P-wave (km/s) = 6.42880 6.90565 6.67149
#
# Compressibility (1/GPa) = 0.01929880
#
# Stress axis : x y z
#
# Youngs Moduli (GPa) = 57.21037 46.85422 61.31374
#
# Poissons Ratio (x) = 0.53500 0.44870
# Poissons Ratio (y) = 0.65325 -0.05028
# Poissons Ratio (z) = 0.41867 -0.03842
#
# Static dielectric constant tensor:
#      x y z
#    x 3.256270 0.000000 0.000000 
#    y 0.000000 3.573040 0.000000 
#    z 0.000000 0.000000 3.545770 
# 
# 
# High freq. dielectric constant tensor:
#      x y z
#    x 1.763900 0.000000 0.000000 
#    y 0.000000 1.798320 0.000000 
#    z 0.000000 0.000000 1.797510 
# 
# From -- ./inp_files/11715.got.cif
#   From: 2010.03.12/outbox.cif.g09.slc.cpg/sg60_6_cif.got.tgz:11715.got - 2010.04.10 18:46:24.
