data_PCOD8247142
_publ_section_title
;
Structure prediction by ZEFSAII (Michael W. Deem and Ramdas Pophale) SiO2 
 PCOD8247142
Probable space group: P B C N
;
_chemical_formula_sum "Si O2"
_cell_formula_units_Z 52
_cell_length_a 22.809712
_cell_length_b 13.380049
_cell_length_c 9.528519
_cell_angle_alpha 90.000000
_cell_angle_beta 90.000000
_cell_angle_gamma 90.000000
_cell_volume 2908.056968
_symmetry_space_group_name_H-M "P B C N"
_symmetry_group_IT_number 60
_symmetry_cell_setting 'orthorhombic'
loop_
_space_group_symop_operation_xyz
x,y,z
1/2-x,1/2-y,1/2+z
1/2+x,1/2-y,-z
-x,y,1/2-z
-x,-y,-z
1/2+x,1/2+y,1/2-z
1/2-x,1/2+y,z
x,-y,1/2+z
loop_
_atom_site_type_symbol
_atom_site_label
_atom_site_fract_x
_atom_site_fract_y
_atom_site_fract_z
Si Si1 0.309007 0.093789 0.607127
Si Si2 0.104937 0.234325 0.092093
Si Si3 0.883208 0.091629 0.171380
Si Si4 0.000000 0.828785 0.750000
Si Si5 0.158120 0.875063 0.348657
Si Si6 0.214151 0.403132 0.431089
Si Si7 0.810212 0.805423 0.445330
O O1 0.368966 0.154710 0.583754
O O2 0.301140 0.072538 0.770946
O O3 0.256466 0.157778 0.539614
O O4 0.312598 0.989226 0.527854
O O5 0.140541 0.166350 0.206447
O O6 0.036460 0.240000 0.139347
O O7 0.109363 0.180062 0.942018
O O8 0.954176 0.101875 0.163370
O O9 0.866918 0.978769 0.211008
O O10 0.853878 0.119223 0.023999
O O11 0.215645 0.894623 0.444052
O O12 0.172776 0.802874 0.218234
O O13 0.183174 0.302732 0.485101
#
# Coordination Sequence:
#
# PCOD8247142 Si02
#       7
#     8   8   8   4   8   8   8
#     4  11  23  35  61  83 121 158 193 246 292 361
#     4  10  21  40  56  84 112 161 199 234 298 349
#     4  10  20  41  58  86 117 162 201 237 303 347
#     4   8  22  38  66  74 122 164 196 248 290 360
#     4  11  22  33  60  88 122 153 198 247 286 365
#     4  11  23  35  56  90 120 160 191 235 310 349
#     4  11  22  37  56  89 128 152 190 252 296 354
#
# _framework density 17.881356
#
# number of rings (size 3 to 8) (size 9 to 14) (size 15 to 20)
#    0.923    0.615    4.615    0.923    4.308    0.615 
#    0.000    0.000    0.000    3.692    0.000    0.000 
#    0.000    0.000    0.000    0.000    0.000    0.000 
#
# Total GULP energy -644698.186945 kJ/mol
# GULP energy per Si atom -12398.042057 kJ/mol
# Density = 1.784066 g / cm^3
# Si number density = 17.881356 Si / 1000 Ang^3
#
#
#
# Elastic Constant Matrix: (Units=GPa)
#
#
# Indices 1 2 3 4 5 6 
#
# 1 85.7974 27.4108 23.3130 0.0000 0.0000 0.0000
# 2 27.4108 96.8218 43.0952 0.0000 0.0000 0.0000
# 3 23.3130 43.0952 79.7777 0.0000 0.0000 0.0000
# 4 0.0000 0.0000 0.0000 29.4582 0.0000 0.0000
# 5 0.0000 0.0000 0.0000 0.0000 23.9257 0.0000
# 6 0.0000 0.0000 0.0000 0.0000 0.0000 17.5627
#
#
#
# Elastic Compliance Matrix: (Units=1/GPa)
#
#
# Indices 1 2 3 4 5 6 
#
# 1 0.013158 -0.002651 -0.002413 0.000000 0.000000 0.000000
# 2 -0.002651 0.014132 -0.006859 0.000000 0.000000 0.000000
# 3 -0.002413 -0.006859 0.016945 0.000000 0.000000 0.000000
# 4 0.000000 0.000000 0.000000 0.033946 0.000000 0.000000
# 5 0.000000 0.000000 0.000000 0.000000 0.041796 0.000000
# 6 0.000000 0.000000 0.000000 0.000000 0.000000 0.056939
#
#
# Mechanical properties :
#
#
# Convention : Reuss Voigt Hill
#
# Bulk Modulus (GPa) = 49.04718 50.00389 49.52553
# Shear Modulus (GPa) = 24.08956 25.42786 24.75871
#
# Velocity S-wave (km/s) = 3.67439 3.77507 3.72507
# Velocity P-wave (km/s) = 6.74465 6.85759 6.80135
#
# Compressibility (1/GPa) = 0.02038853
#
# Stress axis : x y z
#
# Youngs Moduli (GPa) = 75.99942 70.76240 59.01368
#
# Poissons Ratio (x) = 0.18760 0.14240
# Poissons Ratio (y) = 0.20148 0.40478
# Poissons Ratio (z) = 0.18339 0.48537
#
# Static dielectric constant tensor:
#      x y z
#    x 3.062720 0.000000 0.000000 
#    y 0.000000 3.126230 0.000000 
#    z 0.000000 0.000000 3.249850 
# 
# 
# High freq. dielectric constant tensor:
#      x y z
#    x 1.663140 0.000000 0.000000 
#    y 0.000000 1.684580 0.000000 
#    z 0.000000 0.000000 1.699370 
# 
# From -- ./inp_files/8151.got.cif
#   From: 2010.03.12/outbox.cif.g09.slc.cpg/sg60_5_cif.got.tgz:8151.got - 2010.04.10 18:46:24.
