data_PCOD8247934
_publ_section_title
;
Structure prediction by ZEFSAII (Michael W. Deem and Ramdas Pophale) SiO2 
 PCOD8247934
Probable space group: P B C N
;
_chemical_formula_sum "Si O2"
_cell_formula_units_Z 44
_cell_length_a 11.460634
_cell_length_b 20.147640
_cell_length_c 8.956747
_cell_angle_alpha 90.000000
_cell_angle_beta 90.000000
_cell_angle_gamma 90.000000
_cell_volume 2068.155230
_symmetry_space_group_name_H-M "P B C N"
_symmetry_group_IT_number 60
_symmetry_cell_setting 'orthorhombic'
loop_
_space_group_symop_operation_xyz
x,y,z
1/2-x,1/2-y,1/2+z
1/2+x,1/2-y,-z
-x,y,1/2-z
-x,-y,-z
1/2+x,1/2+y,1/2-z
1/2-x,1/2+y,z
x,-y,1/2+z
loop_
_atom_site_type_symbol
_atom_site_label
_atom_site_fract_x
_atom_site_fract_y
_atom_site_fract_z
Si Si1 0.313598 0.777523 0.097959
Si Si2 0.250443 0.983811 0.511949
Si Si3 0.684826 0.412434 0.716958
Si Si4 0.637967 0.807636 0.732169
Si Si5 0.500000 0.306880 0.750000
Si Si6 0.364023 0.917107 0.234777
O O1 0.197973 0.736211 0.139417
O O2 0.433986 0.740241 0.135108
O O3 0.305103 0.850052 0.172695
O O4 0.314973 0.778506 0.921385
O O5 0.159100 0.945213 0.620385
O O6 0.315498 0.933291 0.400106
O O7 0.174873 0.034804 0.414996
O O8 0.341065 0.022872 0.619287
O O9 0.816704 0.383669 0.736360
O O10 0.595492 0.354343 0.672127
O O11 0.500000 0.806983 0.750000
O O12 0.500000 0.904716 0.250000
#
# Coordination Sequence:
#
# PCOD8247934 Si02
#       6
#     8   8   8   8   4   8
#     4  11  25  43  67 100 131 180 226 281 340 405
#     4  10  23  40  62  95 131 172 218 273 326 407
#     4  10  23  43  66  96 132 170 225 272 338 396
#     4  11  27  43  69  97 140 177 227 279 342 403
#     4  10  24  42  70  90 134 174 226 280 324 392
#     4  11  22  38  64  93 132 169 218 269 333 395
#
# _framework density 21.274999000000001
#
# number of rings (size 3 to 8) (size 9 to 14) (size 15 to 20)
#    0.000    1.455    2.727    0.545   12.727    3.636 
#    0.000    0.000    8.000    0.000    0.000    0.000 
#    0.000    0.000    0.000    0.000    0.000    0.000 
#
# Total GULP energy -545502.811174 kJ/mol
# GULP energy per Si atom -12397.791163 kJ/mol
# Density = 2.122658 g / cm^3
# Si number density = 21.274999 Si / 1000 Ang^3
#
#
#
# Elastic Constant Matrix: (Units=GPa)
#
#
# Indices 1 2 3 4 5 6 
#
# 1 95.1677 31.3645 22.7172 0.0000 0.0000 0.0000
# 2 31.3645 100.3498 35.1072 0.0000 0.0000 0.0000
# 3 22.7172 35.1072 126.4086 0.0000 0.0000 0.0000
# 4 0.0000 0.0000 0.0000 30.7068 0.0000 0.0000
# 5 0.0000 0.0000 0.0000 0.0000 19.5320 0.0000
# 6 0.0000 0.0000 0.0000 0.0000 0.0000 21.6738
#
#
#
# Elastic Compliance Matrix: (Units=1/GPa)
#
#
# Indices 1 2 3 4 5 6 
#
# 1 0.011883 -0.003286 -0.001223 0.000000 0.000000 0.000000
# 2 -0.003286 0.011946 -0.002727 0.000000 0.000000 0.000000
# 3 -0.001223 -0.002727 0.008888 0.000000 0.000000 0.000000
# 4 0.000000 0.000000 0.000000 0.032566 0.000000 0.000000
# 5 0.000000 0.000000 0.000000 0.000000 0.051198 0.000000
# 6 0.000000 0.000000 0.000000 0.000000 0.000000 0.046139
#
#
# Mechanical properties :
#
#
# Convention : Reuss Voigt Hill
#
# Bulk Modulus (GPa) = 54.81070 55.58933 55.20001
# Shear Modulus (GPa) = 27.29645 29.89832 28.59739
#
# Velocity S-wave (km/s) = 3.58583 3.75284 3.67028
# Velocity P-wave (km/s) = 6.55462 6.70552 6.63050
#
# Compressibility (1/GPa) = 0.01824461
#
# Stress axis : x y z
#
# Youngs Moduli (GPa) = 84.15611 83.70747 112.51063
#
# Poissons Ratio (x) = 0.27508 0.13758
# Poissons Ratio (y) = 0.27655 0.30685
# Poissons Ratio (z) = 0.10291 0.22829
#
# Static dielectric constant tensor:
#      x y z
#    x 3.707390 0.000000 0.000000 
#    y 0.000000 4.140960 0.000000 
#    z 0.000000 0.000000 3.949530 
# 
# 
# High freq. dielectric constant tensor:
#      x y z
#    x 1.815630 0.000000 0.000000 
#    y 0.000000 1.853750 0.000000 
#    z 0.000000 0.000000 1.843180 
# 
# From -- ./inp_files/5006.got.cif
#   From: 2010.03.12/outbox.cif.g09.slc.cpg/sg60_3_cif.got.tgz:5006.got - 2010.04.10 18:46:24.
