data_PCOD8247886
_publ_section_title
;
Structure prediction by ZEFSAII (Michael W. Deem and Ramdas Pophale) SiO2 
 PCOD8247886
Probable space group: P B C N
;
_chemical_formula_sum "Si O2"
_cell_formula_units_Z 40
_cell_length_a 13.113334
_cell_length_b 9.416141
_cell_length_c 13.240993
_cell_angle_alpha 90.000000
_cell_angle_beta 90.000000
_cell_angle_gamma 90.000000
_cell_volume 1634.958118
_symmetry_space_group_name_H-M "P B C N"
_symmetry_group_IT_number 60
_symmetry_cell_setting 'orthorhombic'
loop_
_space_group_symop_operation_xyz
x,y,z
1/2-x,1/2-y,1/2+z
1/2+x,1/2-y,-z
-x,y,1/2-z
-x,-y,-z
1/2+x,1/2+y,1/2-z
1/2-x,1/2+y,z
x,-y,1/2+z
loop_
_atom_site_type_symbol
_atom_site_label
_atom_site_fract_x
_atom_site_fract_y
_atom_site_fract_z
Si Si1 0.500000 0.609024 0.750000
Si Si2 0.000000 0.630156 0.750000
Si Si3 0.704524 0.736828 0.695441
Si Si4 0.828579 0.078833 0.502567
Si Si5 0.475728 0.629774 0.398983
Si Si6 0.301429 0.996431 0.187828
O O1 0.585541 0.715087 0.713417
O O2 0.469691 0.501658 0.659882
O O3 0.058056 0.736142 0.829642
O O4 0.923598 0.528171 0.812171
O O5 0.731330 0.675983 0.584764
O O6 0.757380 0.656361 0.787819
O O7 0.730192 0.901682 0.717122
O O8 0.928243 0.172260 0.469683
O O9 0.742049 0.051462 0.418432
O O10 0.872887 0.928473 0.546870
#
# Coordination Sequence:
#
# PCOD8247886 Si02
#       6
#     4   4   8   8   8   8
#     4   9  17  40  68  98 140 174 240 294 364 418
#     4  11  25  46  72 106 158 188 246 306 380 430
#     4  11  25  42  71 105 143 194 244 301 363 440
#     4  10  22  44  75 105 142 190 252 296 376 440
#     4   9  19  42  74 106 133 192 239 305 358 452
#     4  12  26  46  70 106 152 195 242 310 368 440
#
# _framework density 24.465461000000001
#
# number of rings (size 3 to 8) (size 9 to 14) (size 15 to 20)
#    0.000    1.600    2.000    1.800    5.600    3.200 
#    0.000    2.000    0.000    0.000    0.000    0.000 
#    0.000    0.000    0.000    0.000    0.000    0.000 
#
# Total GULP energy -495588.602203 kJ/mol
# GULP energy per Si atom -12389.715055 kJ/mol
# Density = 2.440978 g / cm^3
# Si number density = 24.465461 Si / 1000 Ang^3
#
#
#
# Elastic Constant Matrix: (Units=GPa)
#
#
# Indices 1 2 3 4 5 6 
#
# 1 75.2095 27.0401 49.9995 0.0000 0.0000 0.0000
# 2 27.0401 94.4856 38.4403 0.0000 0.0000 0.0000
# 3 49.9995 38.4403 130.1431 0.0000 0.0000 0.0000
# 4 0.0000 0.0000 0.0000 28.7428 0.0000 0.0000
# 5 0.0000 0.0000 0.0000 0.0000 46.1314 0.0000
# 6 0.0000 0.0000 0.0000 0.0000 0.0000 29.1657
#
#
#
# Elastic Compliance Matrix: (Units=1/GPa)
#
#
# Indices 1 2 3 4 5 6 
#
# 1 0.018454 -0.002724 -0.006285 0.000000 0.000000 0.000000
# 2 -0.002724 0.012431 -0.002625 0.000000 0.000000 0.000000
# 3 -0.006285 -0.002625 0.010874 0.000000 0.000000 0.000000
# 4 0.000000 0.000000 0.000000 0.034791 0.000000 0.000000
# 5 0.000000 0.000000 0.000000 0.000000 0.021677 0.000000
# 6 0.000000 0.000000 0.000000 0.000000 0.000000 0.034287
#
#
# Mechanical properties :
#
#
# Convention : Reuss Voigt Hill
#
# Bulk Modulus (GPa) = 54.08299 58.97754 56.53026
# Shear Modulus (GPa) = 30.87426 33.09852 31.98639
#
# Velocity S-wave (km/s) = 3.55625 3.68212 3.61974
# Velocity P-wave (km/s) = 6.24631 6.49894 6.37388
#
# Compressibility (1/GPa) = 0.01849010
#
# Stress axis : x y z
#
# Youngs Moduli (GPa) = 54.18871 80.44232 91.96279
#
# Poissons Ratio (x) = 0.21914 0.57800
# Poissons Ratio (y) = 0.14762 0.24142
# Poissons Ratio (z) = 0.34059 0.21118
#
# Static dielectric constant tensor:
#      x y z
#    x 4.398330 0.000000 0.000000 
#    y 0.000000 4.408490 0.000000 
#    z 0.000000 0.000000 4.550180 
# 
# 
# High freq. dielectric constant tensor:
#      x y z
#    x 1.972260 0.000000 0.000000 
#    y 0.000000 1.954790 0.000000 
#    z 0.000000 0.000000 1.969560 
# 
# From -- ./inp_files/16638.got.cif
#   From: 2010.03.12/outbox.cif.g09.slc.cpg/sg60_9_cif.got.tgz:16638.got - 2010.04.10 18:46:24.
