data_PCOD8247761
_publ_section_title
;
Structure prediction by ZEFSAII (Michael W. Deem and Ramdas Pophale) SiO2 
 PCOD8247761
Probable space group: P B C N
;
_chemical_formula_sum "Si O2"
_cell_formula_units_Z 48
_cell_length_a 8.540858
_cell_length_b 9.790321
_cell_length_c 29.347225
_cell_angle_alpha 90.000000
_cell_angle_beta 90.000000
_cell_angle_gamma 90.000000
_cell_volume 2453.948672
_symmetry_space_group_name_H-M "P B C N"
_symmetry_group_IT_number 60
_symmetry_cell_setting 'orthorhombic'
loop_
_space_group_symop_operation_xyz
x,y,z
1/2-x,1/2-y,1/2+z
1/2+x,1/2-y,-z
-x,y,1/2-z
-x,-y,-z
1/2+x,1/2+y,1/2-z
1/2-x,1/2+y,z
x,-y,1/2+z
loop_
_atom_site_type_symbol
_atom_site_label
_atom_site_fract_x
_atom_site_fract_y
_atom_site_fract_z
Si Si1 0.402931 0.471895 0.382202
Si Si2 0.403091 0.792820 0.204944
Si Si3 0.067016 0.883586 0.030971
Si Si4 0.097770 0.711446 0.886440
Si Si5 0.066737 0.637664 0.519937
Si Si6 0.598322 0.477261 0.293604
O O1 0.535610 0.423164 0.417113
O O2 0.355388 0.629612 0.389644
O O3 0.250968 0.380050 0.387410
O O4 0.478322 0.447349 0.333671
O O5 0.500000 0.833707 0.250000
O O6 0.504767 0.820140 0.159892
O O7 0.349385 0.635376 0.207755
O O8 0.251313 0.886148 0.201949
O O9 0.248709 0.867584 0.022801
O O10 0.977783 0.746448 0.018218
O O11 0.000000 0.000000 0.000000
O O12 0.995288 0.672550 0.930044
O O13 0.000000 0.500000 0.500000
O O14 0.500000 0.433267 0.250000
#
# Coordination Sequence:
#
# PCOD8247761 Si02
#       6
#     8   8   8   8   8   8
#     4  11  24  41  64  92 128 164 210 263 313 381
#     4  10  22  41  65  93 128 164 209 259 316 379
#     4  12  24  44  63  92 128 164 214 262 315 379
#     4  11  24  42  63  94 126 165 211 259 318 377
#     4  12  26  42  67  92 126 171 210 265 321 377
#     4  10  22  41  64  93 128 164 208 261 315 377
#
# _framework density 19.560310000000001
#
# number of rings (size 3 to 8) (size 9 to 14) (size 15 to 20)
#    0.000    1.000    1.667    5.000    2.333    2.000 
#    0.000    0.000    0.000    0.000    0.000    0.000 
#    0.000    0.000    0.000    0.000    0.000    0.000 
#
# Total GULP energy -595389.129408 kJ/mol
# GULP energy per Si atom -12403.940196 kJ/mol
# Density = 1.951579 g / cm^3
# Si number density = 19.560310 Si / 1000 Ang^3
#
#
#
# Elastic Constant Matrix: (Units=GPa)
#
#
# Indices 1 2 3 4 5 6 
#
# 1 161.7730 73.9781 43.1016 0.0000 0.0000 0.0000
# 2 73.9781 125.0668 43.6752 0.0000 0.0000 0.0000
# 3 43.1016 43.6752 135.1276 0.0000 0.0000 0.0000
# 4 0.0000 0.0000 0.0000 33.0443 0.0000 0.0000
# 5 0.0000 0.0000 0.0000 0.0000 28.0248 0.0000
# 6 0.0000 0.0000 0.0000 0.0000 0.0000 42.5472
#
#
#
# Elastic Compliance Matrix: (Units=1/GPa)
#
#
# Indices 1 2 3 4 5 6 
#
# 1 0.008656 -0.004685 -0.001247 0.000000 0.000000 0.000000
# 2 -0.004685 0.011548 -0.002238 0.000000 0.000000 0.000000
# 3 -0.001247 -0.002238 0.008522 0.000000 0.000000 0.000000
# 4 0.000000 0.000000 0.000000 0.030262 0.000000 0.000000
# 5 0.000000 0.000000 0.000000 0.000000 0.035683 0.000000
# 6 0.000000 0.000000 0.000000 0.000000 0.000000 0.023503
#
#
# Mechanical properties :
#
#
# Convention : Reuss Voigt Hill
#
# Bulk Modulus (GPa) = 80.73463 82.60858 81.67161
# Shear Modulus (GPa) = 36.06388 38.13743 37.10066
#
# Velocity S-wave (km/s) = 4.29852 4.42037 4.35987
# Velocity P-wave (km/s) = 8.12408 8.26906 8.19689
#
# Compressibility (1/GPa) = 0.01238626
#
# Stress axis : x y z
#
# Youngs Moduli (GPa) = 115.52712 86.59195 117.34909
#
# Poissons Ratio (x) = 0.40565 0.14632
# Poissons Ratio (y) = 0.54121 0.26267
# Poissons Ratio (z) = 0.14404 0.19382
#
# Static dielectric constant tensor:
#      x y z
#    x 3.381390 0.000000 0.000000 
#    y 0.000000 3.190040 0.000000 
#    z 0.000000 0.000000 5.571210 
# 
# 
# High freq. dielectric constant tensor:
#      x y z
#    x 1.770430 0.000000 0.000000 
#    y 0.000000 1.776190 0.000000 
#    z 0.000000 0.000000 1.787490 
# 
# From -- ./inp_files/25939.got.cif
#   From: 2010.03.12/outbox.cif.g09.slc.cpg/sg60_13_cif.got.tgz:25939.got - 2010.04.10 18:46:24.
