data_PCOD8247203
_publ_section_title
;
Structure prediction by ZEFSAII (Michael W. Deem and Ramdas Pophale) SiO2 
 PCOD8247203
Probable space group: P B C N
;
_chemical_formula_sum "Si O2"
_cell_formula_units_Z 48
_cell_length_a 8.183278
_cell_length_b 11.797643
_cell_length_c 22.448523
_cell_angle_alpha 90.000000
_cell_angle_beta 90.000000
_cell_angle_gamma 90.000000
_cell_volume 2167.256565
_symmetry_space_group_name_H-M "P B C N"
_symmetry_group_IT_number 60
_symmetry_cell_setting 'orthorhombic'
loop_
_space_group_symop_operation_xyz
x,y,z
1/2-x,1/2-y,1/2+z
1/2+x,1/2-y,-z
-x,y,1/2-z
-x,-y,-z
1/2+x,1/2+y,1/2-z
1/2-x,1/2+y,z
x,-y,1/2+z
loop_
_atom_site_type_symbol
_atom_site_label
_atom_site_fract_x
_atom_site_fract_y
_atom_site_fract_z
Si Si1 0.979863 0.007220 0.395746
Si Si2 0.000000 0.322432 0.250000
Si Si3 0.771469 0.197525 0.938599
Si Si4 0.272798 0.356686 0.335148
Si Si5 0.223372 0.162188 0.174092
Si Si6 0.081946 0.753806 0.940024
Si Si7 0.500000 0.218992 0.250000
O O1 0.860875 0.042979 0.341266
O O2 0.016569 0.117052 0.435678
O O3 0.881898 0.914861 0.434162
O O4 0.151946 0.964345 0.369134
O O5 0.866396 0.395396 0.212773
O O6 0.911705 0.245655 0.299135
O O7 0.807626 0.280264 0.883408
O O8 0.576654 0.170714 0.940612
O O9 0.818751 0.262784 0.999204
O O10 0.198273 0.272583 0.384422
O O11 0.420990 0.296548 0.300990
O O12 0.364267 0.136954 0.221768
#
# Coordination Sequence:
#
# PCOD8247203 Si02
#       7
#     8   4   8   8   8   8   4
#     4  11  23  44  68  99 135 178 226 270 350 391
#     4  10  20  45  67  94 142 168 222 274 336 390
#     4  11  22  44  69  96 133 178 220 285 339 395
#     4  11  22  44  70 100 132 183 217 283 333 398
#     4  10  22  44  66 101 133 175 221 282 327 407
#     4  11  25  46  69  97 138 170 229 285 332 406
#     4  10  22  43  71  94 140 172 224 276 340 392
#
# _framework density 22.147815999999999
#
# number of rings (size 3 to 8) (size 9 to 14) (size 15 to 20)
#    0.000    1.333    5.000    1.500    0.000    2.000 
#    3.000    5.833    0.000    0.000    0.000    0.000 
#    0.000    0.000    0.000    0.000    0.000    0.000 
#
# Total GULP energy -595109.620498 kJ/mol
# GULP energy per Si atom -12398.117094 kJ/mol
# Density = 2.209741 g / cm^3
# Si number density = 22.147816 Si / 1000 Ang^3
#
#
#
# Elastic Constant Matrix: (Units=GPa)
#
#
# Indices 1 2 3 4 5 6 
#
# 1 131.6443 34.4352 51.4572 0.0000 0.0000 0.0000
# 2 34.4352 62.4273 25.8230 0.0000 0.0000 0.0000
# 3 51.4572 25.8230 117.5794 0.0000 0.0000 0.0000
# 4 0.0000 0.0000 0.0000 -3.4165 0.0000 0.0000
# 5 0.0000 0.0000 0.0000 0.0000 54.3671 0.0000
# 6 0.0000 0.0000 0.0000 0.0000 0.0000 40.0968
#
#
#
# Elastic Compliance Matrix: (Units=1/GPa)
#
#
# Indices 1 2 3 4 5 6 
#
# 1 0.010031 -0.004089 -0.003492 0.000000 0.000000 0.000000
# 2 -0.004089 0.019286 -0.002446 0.000000 0.000000 0.000000
# 3 -0.003492 -0.002446 0.010570 0.000000 0.000000 0.000000
# 4 0.000000 0.000000 0.000000 -0.292695 0.000000 0.000000
# 5 0.000000 0.000000 0.000000 0.000000 0.018393 0.000000
# 6 0.000000 0.000000 0.000000 0.000000 0.000000 0.024940
#
#
# Mechanical properties :
#
#
# Convention : Reuss Voigt Hill
#
# Bulk Modulus (GPa) = 50.42000 59.45352 54.93676
# Shear Modulus (GPa) = -27.35076 31.53851 2.09388
#
# Velocity S-wave (km/s) = -3.51795 3.77769 0.97338
# Velocity P-wave (km/s) = 2.51263 6.77718 5.11094
#
# Compressibility (1/GPa) = 0.01983340
#
# Stress axis : x y z
#
# Youngs Moduli (GPa) = 99.69504 51.85162 94.60460
#
# Poissons Ratio (x) = 0.21200 0.33034
# Poissons Ratio (y) = 0.40761 0.23143
# Poissons Ratio (z) = 0.34812 0.12684
#
# Static dielectric constant tensor:
#      x y z
#    x 4.291330 0.000000 0.000000 
#    y 0.000000 3.495500 0.000000 
#    z 0.000000 0.000000 4.139590 
# 
# 
# High freq. dielectric constant tensor:
#      x y z
#    x 1.892250 0.000000 0.000000 
#    y 0.000000 1.828420 0.000000 
#    z 0.000000 0.000000 1.891880 
# 
# From -- ./inp_files/23961.got.cif
#   From: 2010.03.12/outbox.cif.g09.slc.cpg/sg60_12_cif.got.tgz:23961.got - 2010.04.10 18:46:24.
