data_PCOD8247306
_publ_section_title
;
Structure prediction by ZEFSAII (Michael W. Deem and Ramdas Pophale) SiO2 
 PCOD8247306
Probable space group: P B C N
;
_chemical_formula_sum "Si O2"
_cell_formula_units_Z 64
_cell_length_a 29.882676
_cell_length_b 8.587384
_cell_length_c 11.389209
_cell_angle_alpha 90.000000
_cell_angle_beta 90.000000
_cell_angle_gamma 90.000000
_cell_volume 2922.630635
_symmetry_space_group_name_H-M "P B C N"
_symmetry_group_IT_number 60
_symmetry_cell_setting 'orthorhombic'
loop_
_space_group_symop_operation_xyz
x,y,z
1/2-x,1/2-y,1/2+z
1/2+x,1/2-y,-z
-x,y,1/2-z
-x,-y,-z
1/2+x,1/2+y,1/2-z
1/2-x,1/2+y,z
x,-y,1/2+z
loop_
_atom_site_type_symbol
_atom_site_label
_atom_site_fract_x
_atom_site_fract_y
_atom_site_fract_z
Si Si1 0.167102 0.196063 0.039161
Si Si2 0.914163 0.653799 0.022911
Si Si3 0.448708 0.711737 0.754752
Si Si4 0.547396 0.926299 0.297529
Si Si5 0.708691 0.139614 0.753125
Si Si6 0.370058 0.367332 0.099605
Si Si7 0.118982 0.663278 0.876132
Si Si8 0.196974 0.278420 0.780198
O O1 0.204537 0.280412 0.118304
O O2 0.160806 0.014036 0.065157
O O3 0.119455 0.269959 0.070888
O O4 0.173675 0.238954 0.902898
O O5 0.932674 0.786880 0.110029
O O6 0.887128 0.514591 0.084566
O O7 0.953929 0.596794 0.938290
O O8 0.500000 0.650534 0.750000
O O9 0.415325 0.603081 0.677157
O O10 0.444009 0.890769 0.716785
O O11 0.500000 0.873864 0.250000
O O12 0.582815 0.816965 0.227891
O O13 0.668879 0.200842 0.670217
O O14 0.757101 0.184986 0.707254
O O15 0.707721 0.954933 0.751001
O O16 0.336109 0.264975 0.175243
O O17 0.388092 0.280966 0.983599
#
# Coordination Sequence:
#
# PCOD8247306 Si02
#       8
#     8   8   8   8   8   8   8   8
#     4  12  27  46  73  97 142 186 231 284 350 420
#     4  11  20  43  67  95 137 185 236 294 347 414
#     4  10  22  39  68 102 142 184 235 296 354 416
#     4  10  21  37  68 107 135 184 246 294 348 414
#     4  12  27  46  73 103 136 180 235 282 354 407
#     4  12  26  45  68 102 144 188 234 284 354 412
#     4  11  23  40  70  96 139 182 230 295 346 409
#     4  12  28  48  71 105 141 179 233 290 345 422
#
# _framework density 21.89808
#
# number of rings (size 3 to 8) (size 9 to 14) (size 15 to 20)
#    0.000    0.750    5.000    2.250    7.000    1.500 
#    0.000    1.250    0.000    0.000    0.000    0.000 
#    0.000    0.000    0.000    0.000    0.000    0.000 
#
# Total GULP energy -793080.410927 kJ/mol
# GULP energy per Si atom -12391.881421 kJ/mol
# Density = 2.184824 g / cm^3
# Si number density = 21.898080 Si / 1000 Ang^3
#
#
#
# Elastic Constant Matrix: (Units=GPa)
#
#
# Indices 1 2 3 4 5 6 
#
# 1 118.2191 23.1852 24.9793 0.0000 0.0000 0.0000
# 2 23.1852 95.2713 32.0299 0.0000 0.0000 0.0000
# 3 24.9793 32.0299 102.9213 0.0000 0.0000 0.0000
# 4 0.0000 0.0000 0.0000 16.1679 0.0000 0.0000
# 5 0.0000 0.0000 0.0000 0.0000 27.8909 0.0000
# 6 0.0000 0.0000 0.0000 0.0000 0.0000 23.6940
#
#
#
# Elastic Compliance Matrix: (Units=1/GPa)
#
#
# Indices 1 2 3 4 5 6 
#
# 1 0.009143 -0.001652 -0.001705 0.000000 0.000000 0.000000
# 2 -0.001652 0.012021 -0.003340 0.000000 0.000000 0.000000
# 3 -0.001705 -0.003340 0.011169 0.000000 0.000000 0.000000
# 4 0.000000 0.000000 0.000000 0.061851 0.000000 0.000000
# 5 0.000000 0.000000 0.000000 0.000000 0.035854 0.000000
# 6 0.000000 0.000000 0.000000 0.000000 0.000000 0.042205
#
#
# Mechanical properties :
#
#
# Convention : Reuss Voigt Hill
#
# Bulk Modulus (GPa) = 52.79896 52.97781 52.88839
# Shear Modulus (GPa) = 26.04834 29.29839 27.67336
#
# Velocity S-wave (km/s) = 3.45269 3.66176 3.55876
# Velocity P-wave (km/s) = 6.32917 6.49025 6.41022
#
# Compressibility (1/GPa) = 0.01893977
#
# Stress axis : x y z
#
# Youngs Moduli (GPa) = 109.37223 83.18563 89.52975
#
# Poissons Ratio (x) = 0.13741 0.15265
# Poissons Ratio (y) = 0.18067 0.29905
# Poissons Ratio (z) = 0.18648 0.27786
#
# Static dielectric constant tensor:
#      x y z
#    x 4.224950 0.000000 0.000000 
#    y 0.000000 3.687040 0.000000 
#    z 0.000000 0.000000 4.072000 
# 
# 
# High freq. dielectric constant tensor:
#      x y z
#    x 1.872140 0.000000 0.000000 
#    y 0.000000 1.837260 0.000000 
#    z 0.000000 0.000000 1.877250 
# 
# From -- ./inp_files/13394.got.cif
#   From: 2010.03.12/outbox.cif.g09.slc.cpg/sg60_7_cif.got.tgz:13394.got - 2010.04.10 18:46:24.
