data_PCOD8247889
_publ_section_title
;
Structure prediction by ZEFSAII (Michael W. Deem and Ramdas Pophale) SiO2 
 PCOD8247889
Probable space group: P B C N
;
_chemical_formula_sum "Si O2"
_cell_formula_units_Z 40
_cell_length_a 7.683487
_cell_length_b 13.882527
_cell_length_c 16.123451
_cell_angle_alpha 90.000000
_cell_angle_beta 90.000000
_cell_angle_gamma 90.000000
_cell_volume 1719.827503
_symmetry_space_group_name_H-M "P B C N"
_symmetry_group_IT_number 60
_symmetry_cell_setting 'orthorhombic'
loop_
_space_group_symop_operation_xyz
x,y,z
1/2-x,1/2-y,1/2+z
1/2+x,1/2-y,-z
-x,y,1/2-z
-x,-y,-z
1/2+x,1/2+y,1/2-z
1/2-x,1/2+y,z
x,-y,1/2+z
loop_
_atom_site_type_symbol
_atom_site_label
_atom_site_fract_x
_atom_site_fract_y
_atom_site_fract_z
Si Si1 0.923392 0.620931 0.533836
Si Si2 0.381067 0.330641 0.173296
Si Si3 0.703050 0.345807 0.753700
Si Si4 0.669370 0.993936 0.882499
Si Si5 0.834582 0.282722 0.585071
O O1 0.800010 0.567297 0.466996
O O2 0.827234 0.713301 0.569028
O O3 0.980353 0.547570 0.608002
O O4 0.110309 0.651924 0.493083
O O5 0.500000 0.362283 0.250000
O O6 0.226648 0.260621 0.206153
O O7 0.315799 0.426338 0.129425
O O8 0.491882 0.276774 0.104017
O O9 0.500000 0.372910 0.750000
O O10 0.819797 0.421378 0.805293
O O11 0.782607 0.350626 0.661714
#
# Coordination Sequence:
#
# PCOD8247889 Si02
#       5
#     8   8   8   8   8
#     4  11  25  44  72 106 143 188 236 299 367 427
#     4  10  22  45  66 104 140 181 242 292 347 427
#     4  11  24  46  73 103 142 196 242 294 358 427
#     4  11  24  46  68 107 141 184 248 292 358 434
#     4  11  24  47  74  99 149 193 234 302 365 436
#
# _framework density 23.258144999999999
#
# number of rings (size 3 to 8) (size 9 to 14) (size 15 to 20)
#    0.000    1.200    2.000    3.000    2.800    0.800 
#   32.400    0.000    0.000    0.000    0.000    0.000 
#    0.000    0.000    0.000    0.000    0.000    0.000 
#
# Total GULP energy -495934.275932 kJ/mol
# GULP energy per Si atom -12398.356898 kJ/mol
# Density = 2.320521 g / cm^3
# Si number density = 23.258145 Si / 1000 Ang^3
#
#
#
# Elastic Constant Matrix: (Units=GPa)
#
#
# Indices 1 2 3 4 5 6 
#
# 1 98.1014 52.7411 52.8222 0.0000 0.0000 0.0000
# 2 52.7411 113.7198 61.6933 0.0000 0.0000 0.0000
# 3 52.8222 61.6933 106.2566 0.0000 0.0000 0.0000
# 4 0.0000 0.0000 0.0000 34.1869 0.0000 0.0000
# 5 0.0000 0.0000 0.0000 0.0000 23.4312 0.0000
# 6 0.0000 0.0000 0.0000 0.0000 0.0000 13.5667
#
#
#
# Elastic Compliance Matrix: (Units=1/GPa)
#
#
# Indices 1 2 3 4 5 6 
#
# 1 0.015247 -0.004320 -0.005071 0.000000 0.000000 0.000000
# 2 -0.004320 0.014061 -0.006016 0.000000 0.000000 0.000000
# 3 -0.005071 -0.006016 0.015425 0.000000 0.000000 0.000000
# 4 0.000000 0.000000 0.000000 0.029251 0.000000 0.000000
# 5 0.000000 0.000000 0.000000 0.000000 0.042678 0.000000
# 6 0.000000 0.000000 0.000000 0.000000 0.000000 0.073710
#
#
# Mechanical properties :
#
#
# Convention : Reuss Voigt Hill
#
# Bulk Modulus (GPa) = 71.85010 72.51010 72.18010
# Shear Modulus (GPa) = 22.14094 24.29171 23.21632
#
# Velocity S-wave (km/s) = 3.08874 3.23528 3.16286
# Velocity P-wave (km/s) = 6.60908 6.72309 6.66633
#
# Compressibility (1/GPa) = 0.01391786
#
# Stress axis : x y z
#
# Youngs Moduli (GPa) = 65.58857 71.11897 64.82863
#
# Poissons Ratio (x) = 0.30723 0.32876
# Poissons Ratio (y) = 0.28334 0.39003
# Poissons Ratio (z) = 0.33261 0.42788
#
# Static dielectric constant tensor:
#      x y z
#    x 3.988560 0.000000 0.000000 
#    y 0.000000 4.339790 0.000000 
#    z 0.000000 0.000000 4.293480 
# 
# 
# High freq. dielectric constant tensor:
#      x y z
#    x 1.903710 0.000000 0.000000 
#    y 0.000000 1.931460 0.000000 
#    z 0.000000 0.000000 1.925000 
# 
# From -- ./inp_files/19013.got.cif
#   From: 2010.03.12/outbox.cif.g09.slc.cpg/sg60_10_cif.got.tgz:19013.got - 2010.04.10 18:46:24.
