data_PCOD8247741
_publ_section_title
;
Structure prediction by ZEFSAII (Michael W. Deem and Ramdas Pophale) SiO2 
 PCOD8247741
Probable space group: P B C N
;
_chemical_formula_sum "Si O2"
_cell_formula_units_Z 40
_cell_length_a 12.912674
_cell_length_b 9.235512
_cell_length_c 14.231643
_cell_angle_alpha 90.000000
_cell_angle_beta 90.000000
_cell_angle_gamma 90.000000
_cell_volume 1697.196802
_symmetry_space_group_name_H-M "P B C N"
_symmetry_group_IT_number 60
_symmetry_cell_setting 'orthorhombic'
loop_
_space_group_symop_operation_xyz
x,y,z
1/2-x,1/2-y,1/2+z
1/2+x,1/2-y,-z
-x,y,1/2-z
-x,-y,-z
1/2+x,1/2+y,1/2-z
1/2-x,1/2+y,z
x,-y,1/2+z
loop_
_atom_site_type_symbol
_atom_site_label
_atom_site_fract_x
_atom_site_fract_y
_atom_site_fract_z
Si Si1 0.000000 0.378671 0.750000
Si Si2 0.500000 0.370362 0.750000
Si Si3 0.337225 0.874927 0.265427
Si Si4 0.694953 0.653717 0.557863
Si Si5 0.029133 0.121673 0.610969
Si Si6 0.750714 0.094632 0.943002
O O1 0.902848 0.478807 0.720982
O O2 0.024523 0.274496 0.664063
O O3 0.593276 0.267134 0.715150
O O4 0.547451 0.476449 0.828079
O O5 0.241394 0.868653 0.337669
O O6 0.293237 0.875455 0.159997
O O7 0.577025 0.597035 0.554962
O O8 0.761372 0.570855 0.477440
O O9 0.691212 0.818575 0.524418
O O10 0.128909 0.137886 0.545954
#
# Coordination Sequence:
#
# PCOD8247741 Si02
#       6
#     4   4   8   8   8   8
#     4  10  22  40  68  94 128 174 210 266 328 380
#     4  10  22  42  72  96 128 174 214 264 324 382
#     4  11  24  45  66  96 134 169 214 267 324 384
#     4  12  26  43  68  97 130 173 217 266 324 385
#     4  11  23  41  65  98 130 166 220 268 317 384
#     4  12  26  43  68  97 130 173 217 266 324 385
#
# _framework density 23.568273999999999
#
# number of rings (size 3 to 8) (size 9 to 14) (size 15 to 20)
#    0.000    0.800    0.000    7.800    0.000    8.000 
#    0.000    7.000    0.000    0.000    0.000    0.000 
#    0.000    0.000    0.000    0.000    0.000    0.000 
#
# Total GULP energy -495918.227947 kJ/mol
# GULP energy per Si atom -12397.955699 kJ/mol
# Density = 2.351463 g / cm^3
# Si number density = 23.568274 Si / 1000 Ang^3
#
#
#
# Elastic Constant Matrix: (Units=GPa)
#
#
# Indices 1 2 3 4 5 6 
#
# 1 87.3278 17.1506 4.7021 0.0000 0.0000 0.0000
# 2 17.1506 124.2640 9.6859 0.0000 0.0000 0.0000
# 3 4.7021 9.6859 81.7487 0.0000 0.0000 0.0000
# 4 0.0000 0.0000 0.0000 19.4323 0.0000 0.0000
# 5 0.0000 0.0000 0.0000 0.0000 31.7404 0.0000
# 6 0.0000 0.0000 0.0000 0.0000 0.0000 20.3694
#
#
#
# Elastic Compliance Matrix: (Units=1/GPa)
#
#
# Indices 1 2 3 4 5 6 
#
# 1 0.011790 -0.001589 -0.000490 0.000000 0.000000 0.000000
# 2 -0.001589 0.008337 -0.000896 0.000000 0.000000 0.000000
# 3 -0.000490 -0.000896 0.012367 0.000000 0.000000 0.000000
# 4 0.000000 0.000000 0.000000 0.051461 0.000000 0.000000
# 5 0.000000 0.000000 0.000000 0.000000 0.031506 0.000000
# 6 0.000000 0.000000 0.000000 0.000000 0.000000 0.049093
#
#
# Mechanical properties :
#
#
# Convention : Reuss Voigt Hill
#
# Bulk Modulus (GPa) = 37.67509 39.60195 38.63852
# Shear Modulus (GPa) = 27.87835 31.76187 29.82011
#
# Velocity S-wave (km/s) = 3.44303 3.67502 3.56092
# Velocity P-wave (km/s) = 5.64147 5.90316 5.77379
#
# Compressibility (1/GPa) = 0.02654274
#
# Stress axis : x y z
#
# Youngs Moduli (GPa) = 84.82093 119.95357 80.86037
#
# Poissons Ratio (x) = 0.19060 0.03961
# Poissons Ratio (y) = 0.13478 0.07248
# Poissons Ratio (z) = 0.04155 0.10752
#
# Static dielectric constant tensor:
#      x y z
#    x 4.303250 0.000000 0.000000 
#    y 0.000000 4.442690 0.000000 
#    z 0.000000 0.000000 3.970090 
# 
# 
# High freq. dielectric constant tensor:
#      x y z
#    x 1.937930 0.000000 0.000000 
#    y 0.000000 1.957380 0.000000 
#    z 0.000000 0.000000 1.925520 
# 
# From -- ./inp_files/16648.got.cif
#   From: 2010.03.12/outbox.cif.g09.slc.cpg/sg60_9_cif.got.tgz:16648.got - 2010.04.10 18:46:24.
