data_PCOD8247553
_publ_section_title
;
Structure prediction by ZEFSAII (Michael W. Deem and Ramdas Pophale) SiO2 
 PCOD8247553
Probable space group: P B C N
;
_chemical_formula_sum "Si O2"
_cell_formula_units_Z 32
_cell_length_a 6.791176
_cell_length_b 5.240983
_cell_length_c 37.721554
_cell_angle_alpha 90.000000
_cell_angle_beta 90.000000
_cell_angle_gamma 90.000000
_cell_volume 1342.602071
_symmetry_space_group_name_H-M "P B C N"
_symmetry_group_IT_number 60
_symmetry_cell_setting 'orthorhombic'
loop_
_space_group_symop_operation_xyz
x,y,z
1/2-x,1/2-y,1/2+z
1/2+x,1/2-y,-z
-x,y,1/2-z
-x,-y,-z
1/2+x,1/2+y,1/2-z
1/2-x,1/2+y,z
x,-y,1/2+z
loop_
_atom_site_type_symbol
_atom_site_label
_atom_site_fract_x
_atom_site_fract_y
_atom_site_fract_z
Si Si1 0.461799 0.441657 0.321361
Si Si2 0.876573 0.971338 0.535368
Si Si3 0.376423 0.524823 0.105412
Si Si4 0.522967 0.941149 0.208752
O O1 0.461353 0.488226 0.363556
O O2 0.575937 0.177378 0.312332
O O3 0.246108 0.398456 0.304964
O O4 0.578438 0.671941 0.301559
O O5 0.790754 0.686488 0.536657
O O6 0.019467 0.014054 0.568166
O O7 0.000000 0.000000 0.500000
O O8 0.209404 0.309273 0.108791
O O9 0.500000 0.996088 0.250000
#
# Coordination Sequence:
#
# PCOD8247553 Si02
#       4
#     8   8   8   8
#     4  10  23  41  66  94 132 178 236 290 367 422
#     4  12  26  46  79 112 152 195 241 294 357 429
#     4  12  26  47  70 105 150 192 243 301 357 431
#     4  10  21  42  66  92 129 172 235 300 358 438
#
# _framework density 23.834313999999999
#
# number of rings (size 3 to 8) (size 9 to 14) (size 15 to 20)
#    0.000    1.000    0.000    6.000    7.000    0.000 
#   27.000    0.000    0.000    0.000    0.000    0.000 
#    0.000    0.000    0.000    0.000    0.000    0.000 
#
# Total GULP energy -396703.671388 kJ/mol
# GULP energy per Si atom -12396.989731 kJ/mol
# Density = 2.378007 g / cm^3
# Si number density = 23.834314 Si / 1000 Ang^3
#
#
#
# Elastic Constant Matrix: (Units=GPa)
#
#
# Indices 1 2 3 4 5 6 
#
# 1 69.3667 -18.7891 21.9258 0.0000 0.0000 0.0000
# 2 -18.7891 180.4285 2.5084 0.0000 0.0000 0.0000
# 3 21.9258 2.5084 166.5567 0.0000 0.0000 0.0000
# 4 0.0000 0.0000 0.0000 40.1833 0.0000 0.0000
# 5 0.0000 0.0000 0.0000 0.0000 51.5633 0.0000
# 6 0.0000 0.0000 0.0000 0.0000 0.0000 -31.1365
#
#
#
# Elastic Compliance Matrix: (Units=1/GPa)
#
#
# Indices 1 2 3 4 5 6 
#
# 1 0.015515 0.001644 -0.002067 0.000000 0.000000 0.000000
# 2 0.001644 0.005718 -0.000303 0.000000 0.000000 0.000000
# 3 -0.002067 -0.000303 0.006281 0.000000 0.000000 0.000000
# 4 0.000000 0.000000 0.000000 0.024886 0.000000 0.000000
# 5 0.000000 0.000000 0.000000 0.000000 0.019394 0.000000
# 6 0.000000 0.000000 0.000000 0.000000 0.000000 -0.032117
#
#
# Mechanical properties :
#
#
# Convention : Reuss Voigt Hill
#
# Bulk Modulus (GPa) = 38.36903 47.51579 42.94241
# Shear Modulus (GPa) = 100.37202 39.50247 69.93725
#
# Velocity S-wave (km/s) = 6.49645 4.07551 5.42280
# Velocity P-wave (km/s) = 8.50911 6.49042 7.56738
#
# Compressibility (1/GPa) = 0.02606269
#
# Stress axis : x y z
#
# Youngs Moduli (GPa) = 64.45396 174.89216 159.21934
#
# Poissons Ratio (x) = -0.28759 0.32913
# Poissons Ratio (y) = -0.10599 0.04818
# Poissons Ratio (z) = 0.13324 0.05292
#
# Static dielectric constant tensor:
#      x y z
#    x 3.891680 0.000000 0.000000 
#    y 0.000000 5.762320 0.000000 
#    z 0.000000 0.000000 4.330930 
# 
# 
# High freq. dielectric constant tensor:
#      x y z
#    x 1.937170 0.000000 0.000000 
#    y 0.000000 1.987390 0.000000 
#    z 0.000000 0.000000 1.954840 
# 
# From -- ./inp_files/25864.got.cif
#   From: 2010.03.12/outbox.cif.g09.slc.cpg/sg60_13_cif.got.tgz:25864.got - 2010.04.10 18:46:24.
