data_PCOD8247767
_publ_section_title
;
Structure prediction by ZEFSAII (Michael W. Deem and Ramdas Pophale) SiO2 
 PCOD8247767
Probable space group: P B C N
;
_chemical_formula_sum "Si O2"
_cell_formula_units_Z 56
_cell_length_a 5.308895
_cell_length_b 31.785568
_cell_length_c 14.199104
_cell_angle_alpha 90.000000
_cell_angle_beta 90.000000
_cell_angle_gamma 90.000000
_cell_volume 2396.045454
_symmetry_space_group_name_H-M "P B C N"
_symmetry_group_IT_number 60
_symmetry_cell_setting 'orthorhombic'
loop_
_space_group_symop_operation_xyz
x,y,z
1/2-x,1/2-y,1/2+z
1/2+x,1/2-y,-z
-x,y,1/2-z
-x,-y,-z
1/2+x,1/2+y,1/2-z
1/2-x,1/2+y,z
x,-y,1/2+z
loop_
_atom_site_type_symbol
_atom_site_label
_atom_site_fract_x
_atom_site_fract_y
_atom_site_fract_z
Si Si1 0.246840 0.308127 0.793371
Si Si2 0.500000 0.110689 0.250000
Si Si3 0.600648 0.752064 0.553270
Si Si4 0.000000 0.991493 0.250000
Si Si5 0.710040 0.961744 0.417753
Si Si6 0.006559 0.834243 0.359196
Si Si7 0.996707 0.622926 0.861597
Si Si8 0.375291 0.038954 0.377582
O O1 0.500000 0.288567 0.750000
O O2 0.239350 0.358187 0.768368
O O3 0.226351 0.294500 0.902223
O O4 0.000000 0.285365 0.750000
O O5 0.510614 0.082167 0.344324
O O6 0.331697 0.765374 0.509793
O O7 0.534223 0.715333 0.626372
O O8 0.778288 0.021813 0.212644
O O9 0.930252 0.960981 0.338415
O O10 0.509887 0.925842 0.391665
O O11 0.797155 0.954965 0.527316
O O12 0.594908 0.007837 0.407739
O O13 0.247085 0.858018 0.405201
O O14 0.000000 0.844449 0.250000
O O15 0.746920 0.852363 0.404083
O O16 0.000000 0.627529 0.750000
#
# Coordination Sequence:
#
# PCOD8247767 Si02
#       8
#     8   4   8   4   8   8   8   8
#     4  10  24  45  73  99 140 195 243 291 365 444
#     4  10  24  44  70 101 142 190 249 304 372 440
#     4  12  25  43  71 107 144 180 238 303 366 430
#     4  12  22  42  70  95 140 186 241 302 362 444
#     4  11  25  41  69  99 144 185 247 299 371 439
#     4  10  23  42  68  94 135 181 228 276 356 437
#     4  10  22  41  66 102 135 184 229 290 357 423
#     4  11  24  44  66 104 135 194 241 301 369 442
#
# _framework density 23.371845
#
# number of rings (size 3 to 8) (size 9 to 14) (size 15 to 20)
#    0.429    0.857    1.429    3.429    6.000    4.000 
#    0.000    1.429    0.000    0.000    0.000    0.000 
#    0.000    0.000    0.000    0.000    0.000    0.000 
#
# Total GULP energy -693759.654179 kJ/mol
# GULP energy per Si atom -12388.565253 kJ/mol
# Density = 2.331865 g / cm^3
# Si number density = 23.371845 Si / 1000 Ang^3
#
#
#
# Elastic Constant Matrix: (Units=GPa)
#
#
# Indices 1 2 3 4 5 6 
#
# 1 131.0705 33.0706 24.0018 0.0000 0.0000 0.0000
# 2 33.0706 110.6650 33.4918 0.0000 0.0000 0.0000
# 3 24.0018 33.4918 96.8117 0.0000 0.0000 0.0000
# 4 0.0000 0.0000 0.0000 19.4473 0.0000 0.0000
# 5 0.0000 0.0000 0.0000 0.0000 32.4367 0.0000
# 6 0.0000 0.0000 0.0000 0.0000 0.0000 23.4444
#
#
#
# Elastic Compliance Matrix: (Units=1/GPa)
#
#
# Indices 1 2 3 4 5 6 
#
# 1 0.008408 -0.002102 -0.001357 0.000000 0.000000 0.000000
# 2 -0.002102 0.010618 -0.003152 0.000000 0.000000 0.000000
# 3 -0.001357 -0.003152 0.011756 0.000000 0.000000 0.000000
# 4 0.000000 0.000000 0.000000 0.051421 0.000000 0.000000
# 5 0.000000 0.000000 0.000000 0.000000 0.030829 0.000000
# 6 0.000000 0.000000 0.000000 0.000000 0.000000 0.042654
#
#
# Mechanical properties :
#
#
# Convention : Reuss Voigt Hill
#
# Bulk Modulus (GPa) = 56.94808 57.74173 57.34491
# Shear Modulus (GPa) = 28.60994 31.59787 30.10390
#
# Velocity S-wave (km/s) = 3.50254 3.68089 3.59282
# Velocity P-wave (km/s) = 6.38561 6.54405 6.46532
#
# Compressibility (1/GPa) = 0.01755985
#
# Stress axis : x y z
#
# Youngs Moduli (GPa) = 118.92872 94.17599 85.05989
#
# Poissons Ratio (x) = 0.19795 0.11547
# Poissons Ratio (y) = 0.24998 0.26814
# Poissons Ratio (z) = 0.16144 0.29687
#
# Static dielectric constant tensor:
#      x y z
#    x 4.341550 0.000000 0.000000 
#    y 0.000000 4.027050 0.000000 
#    z 0.000000 0.000000 4.371400 
# 
# 
# High freq. dielectric constant tensor:
#      x y z
#    x 1.920500 0.000000 0.000000 
#    y 0.000000 1.920620 0.000000 
#    z 0.000000 0.000000 1.913740 
# 
# From -- ./inp_files/14141.got.cif
#   From: 2010.03.12/outbox.cif.g09.slc.cpg/sg60_8_cif.got.tgz:14141.got - 2010.04.10 18:46:24.
