data_PCOD8247807
_publ_section_title
;
Structure prediction by ZEFSAII (Michael W. Deem and Ramdas Pophale) SiO2 
 PCOD8247807
Probable space group: P B C N
;
_chemical_formula_sum "Si O2"
_cell_formula_units_Z 60
_cell_length_a 16.999678
_cell_length_b 18.308505
_cell_length_c 9.077804
_cell_angle_alpha 90.000000
_cell_angle_beta 90.000000
_cell_angle_gamma 90.000000
_cell_volume 2825.363822
_symmetry_space_group_name_H-M "P B C N"
_symmetry_group_IT_number 60
_symmetry_cell_setting 'orthorhombic'
loop_
_space_group_symop_operation_xyz
x,y,z
1/2-x,1/2-y,1/2+z
1/2+x,1/2-y,-z
-x,y,1/2-z
-x,-y,-z
1/2+x,1/2+y,1/2-z
1/2-x,1/2+y,z
x,-y,1/2+z
loop_
_atom_site_type_symbol
_atom_site_label
_atom_site_fract_x
_atom_site_fract_y
_atom_site_fract_z
Si Si1 0.609360 0.734898 0.314986
Si Si2 0.690406 0.592839 0.383291
Si Si3 0.039454 0.761936 0.991665
Si Si4 0.361050 0.873332 0.561734
Si Si5 0.662109 0.544967 0.700880
Si Si6 0.941489 0.486863 0.370293
Si Si7 0.500000 0.626798 0.750000
Si Si8 0.182224 0.381790 0.226767
O O1 0.631416 0.660417 0.396034
O O2 0.538579 0.769768 0.411431
O O3 0.591062 0.710422 0.146761
O O4 0.677691 0.796087 0.313394
O O5 0.774836 0.632332 0.366588
O O6 0.682298 0.544244 0.528881
O O7 0.669877 0.539332 0.248722
O O8 0.087765 0.700064 0.079778
O O9 0.017021 0.825100 0.105709
O O10 0.402759 0.934753 0.660834
O O11 0.353202 0.895944 0.389980
O O12 0.574943 0.574888 0.727977
O O13 0.726730 0.594803 0.785620
O O14 0.870306 0.428757 0.388516
O O15 0.000000 0.455750 0.250000
O O16 0.000000 0.500000 0.500000
#
# Coordination Sequence:
#
# PCOD8247807 Si02
#       8
#     8   8   8   8   8   8   4   8
#     4  10  22  44  71  92 128 182 228 270 345 415
#     4  11  24  46  68  99 130 181 228 274 346 408
#     4  10  23  43  66  97 133 171 225 282 336 400
#     4  10  22  42  65  96 135 173 220 269 330 414
#     4  11  26  45  67  96 140 174 230 284 332 408
#     4  12  22  36  63  97 132 171 213 267 332 395
#     4  12  26  44  64 102 136 172 226 294 336 388
#     4  10  22  44  67  95 132 182 220 275 339 407
#
# _framework density 21.236201999999999
#
# number of rings (size 3 to 8) (size 9 to 14) (size 15 to 20)
#    0.000    1.333    4.000    0.800    6.533    1.600 
#    0.000    0.000    0.000    0.000    0.000    0.000 
#    0.000    0.000    0.000    0.000    0.000    0.000 
#
# Total GULP energy -743617.907819 kJ/mol
# GULP energy per Si atom -12393.631797 kJ/mol
# Density = 2.118787 g / cm^3
# Si number density = 21.236202 Si / 1000 Ang^3
#
#
#
# Elastic Constant Matrix: (Units=GPa)
#
#
# Indices 1 2 3 4 5 6 
#
# 1 141.5461 62.0556 24.5416 0.0000 0.0000 0.0000
# 2 62.0556 128.5532 33.6120 0.0000 0.0000 0.0000
# 3 24.5416 33.6120 54.2464 0.0000 0.0000 0.0000
# 4 0.0000 0.0000 0.0000 36.7325 0.0000 0.0000
# 5 0.0000 0.0000 0.0000 0.0000 25.9984 0.0000
# 6 0.0000 0.0000 0.0000 0.0000 0.0000 39.8379
#
#
#
# Elastic Compliance Matrix: (Units=1/GPa)
#
#
# Indices 1 2 3 4 5 6 
#
# 1 0.009085 -0.003951 -0.001662 0.000000 0.000000 0.000000
# 2 -0.003951 0.011001 -0.005029 0.000000 0.000000 0.000000
# 3 -0.001662 -0.005029 0.022302 0.000000 0.000000 0.000000
# 4 0.000000 0.000000 0.000000 0.027224 0.000000 0.000000
# 5 0.000000 0.000000 0.000000 0.000000 0.038464 0.000000
# 6 0.000000 0.000000 0.000000 0.000000 0.000000 0.025102
#
#
# Mechanical properties :
#
#
# Convention : Reuss Voigt Hill
#
# Bulk Modulus (GPa) = 47.38338 62.75156 55.06747
# Shear Modulus (GPa) = 30.96031 34.12286 32.54158
#
# Velocity S-wave (km/s) = 3.82239 4.01287 3.91879
# Velocity P-wave (km/s) = 6.46853 7.14733 6.81639
#
# Compressibility (1/GPa) = 0.02110445
#
# Stress axis : x y z
#
# Youngs Moduli (GPa) = 110.06906 90.90057 44.83826
#
# Poissons Ratio (x) = 0.35915 0.07453
# Poissons Ratio (y) = 0.43489 0.22549
# Poissons Ratio (z) = 0.18294 0.45713
#
# Static dielectric constant tensor:
#      x y z
#    x 3.196140 0.000000 0.000000 
#    y 0.000000 3.477410 0.000000 
#    z 0.000000 0.000000 3.626300 
# 
# 
# High freq. dielectric constant tensor:
#      x y z
#    x 1.847540 0.000000 0.000000 
#    y 0.000000 1.825790 0.000000 
#    z 0.000000 0.000000 1.818320 
# 
# From -- ./inp_files/6909.got.cif
#   From: 2010.03.12/outbox.cif.g09.slc.cpg/sg60_4_cif.got.tgz:6909.got - 2010.04.10 18:46:24.
