data_PCOD8247609
_publ_section_title
;
Structure prediction by ZEFSAII (Michael W. Deem and Ramdas Pophale) SiO2 
 PCOD8247609
Probable space group: P B C N
;
_chemical_formula_sum "Si O2"
_cell_formula_units_Z 52
_cell_length_a 11.361172
_cell_length_b 19.258846
_cell_length_c 13.233095
_cell_angle_alpha 90.000000
_cell_angle_beta 90.000000
_cell_angle_gamma 90.000000
_cell_volume 2895.441705
_symmetry_space_group_name_H-M "P B C N"
_symmetry_group_IT_number 60
_symmetry_cell_setting 'orthorhombic'
loop_
_space_group_symop_operation_xyz
x,y,z
1/2-x,1/2-y,1/2+z
1/2+x,1/2-y,-z
-x,y,1/2-z
-x,-y,-z
1/2+x,1/2+y,1/2-z
1/2-x,1/2+y,z
x,-y,1/2+z
loop_
_atom_site_type_symbol
_atom_site_label
_atom_site_fract_x
_atom_site_fract_y
_atom_site_fract_z
Si Si1 0.691369 0.265375 0.106385
Si Si2 0.331595 0.631786 0.419016
Si Si3 0.368750 0.807286 0.232025
Si Si4 0.133889 0.047081 0.226908
Si Si5 0.310807 0.404125 0.139648
Si Si6 0.000000 0.812631 0.250000
Si Si7 0.904421 0.175456 0.402041
O O1 0.726290 0.187500 0.076385
O O2 0.799053 0.304278 0.161948
O O3 0.579227 0.262503 0.180759
O O4 0.657634 0.309067 0.007741
O O5 0.307929 0.579283 0.327105
O O6 0.330146 0.585724 0.520213
O O7 0.454035 0.673935 0.408608
O O8 0.500000 0.834205 0.250000
O O9 0.309240 0.862538 0.157787
O O10 0.367490 0.731390 0.181758
O O11 0.142477 0.101260 0.134935
O O12 0.000000 0.026982 0.250000
O O13 0.202221 0.978157 0.194081
O O14 0.421462 0.361334 0.180007
#
# Coordination Sequence:
#
# PCOD8247609 Si02
#       7
#     8   8   8   8   8   4   8
#     4  11  21  36  62  89 120 152 196 252 289 349
#     4  11  21  37  62  87 121 156 194 244 303 346
#     4  11  21  37  59  85 117 157 200 241 287 353
#     4  10  22  38  58  87 125 152 190 243 300 356
#     4  11  22  36  61  86 121 153 194 243 296 355
#     4  10  22  36  54  96 120 146 198 244 300 336
#     4  11  20  37  60  90 116 153 200 237 297 353
#
# _framework density 17.959261999999999
#
# number of rings (size 3 to 8) (size 9 to 14) (size 15 to 20)
#    0.000    1.231    6.923    0.462    0.000    4.923 
#    0.000    0.000    1.692    1.846    0.000    0.000 
#    0.000    0.000    0.000    0.000    0.000    0.000 
#
# Total GULP energy -644977.060762 kJ/mol
# GULP energy per Si atom -12403.405015 kJ/mol
# Density = 1.791839 g / cm^3
# Si number density = 17.959262 Si / 1000 Ang^3
#
#
#
# Elastic Constant Matrix: (Units=GPa)
#
#
# Indices 1 2 3 4 5 6 
#
# 1 95.1913 41.0121 41.4553 0.0000 0.0000 0.0000
# 2 41.0121 109.9466 43.4185 0.0000 0.0000 0.0000
# 3 41.4553 43.4185 127.4991 0.0000 0.0000 0.0000
# 4 0.0000 0.0000 0.0000 33.3600 0.0000 0.0000
# 5 0.0000 0.0000 0.0000 0.0000 24.7390 0.0000
# 6 0.0000 0.0000 0.0000 0.0000 0.0000 13.9490
#
#
#
# Elastic Compliance Matrix: (Units=1/GPa)
#
#
# Indices 1 2 3 4 5 6 
#
# 1 0.013493 -0.003814 -0.003089 0.000000 0.000000 0.000000
# 2 -0.003814 0.011586 -0.002706 0.000000 0.000000 0.000000
# 3 -0.003089 -0.002706 0.009769 0.000000 0.000000 0.000000
# 4 0.000000 0.000000 0.000000 0.029976 0.000000 0.000000
# 5 0.000000 0.000000 0.000000 0.000000 0.040422 0.000000
# 6 0.000000 0.000000 0.000000 0.000000 0.000000 0.071690
#
#
# Mechanical properties :
#
#
# Convention : Reuss Voigt Hill
#
# Bulk Modulus (GPa) = 63.96788 64.93431 64.45110
# Shear Modulus (GPa) = 24.83082 28.19300 26.51191
#
# Velocity S-wave (km/s) = 3.72239 3.96641 3.84634
# Velocity P-wave (km/s) = 7.36007 7.56383 7.46264
#
# Compressibility (1/GPa) = 0.01563285
#
# Stress axis : x y z
#
# Youngs Moduli (GPa) = 74.11122 86.30862 102.36674
#
# Poissons Ratio (x) = 0.32914 0.31616
# Poissons Ratio (y) = 0.28263 0.27697
# Poissons Ratio (z) = 0.22890 0.23352
#
# Static dielectric constant tensor:
#      x y z
#    x 3.290100 0.000000 0.000000 
#    y 0.000000 3.148690 0.000000 
#    z 0.000000 0.000000 3.523060 
# 
# 
# High freq. dielectric constant tensor:
#      x y z
#    x 1.679810 0.000000 0.000000 
#    y 0.000000 1.680790 0.000000 
#    z 0.000000 0.000000 1.714500 
# 
# From -- ./inp_files/16312.got.cif
#   From: 2010.03.12/outbox.cif.g09.slc.cpg/sg60_9_cif.got.tgz:16312.got - 2010.04.10 18:46:24.
