data_PCOD8247803
_publ_section_title
;
Structure prediction by ZEFSAII (Michael W. Deem and Ramdas Pophale) SiO2 
 PCOD8247803
Probable space group: P B C N
;
_chemical_formula_sum "Si O2"
_cell_formula_units_Z 44
_cell_length_a 23.346429
_cell_length_b 7.726636
_cell_length_c 11.740807
_cell_angle_alpha 90.000000
_cell_angle_beta 90.000000
_cell_angle_gamma 90.000000
_cell_volume 2117.916646
_symmetry_space_group_name_H-M "P B C N"
_symmetry_group_IT_number 60
_symmetry_cell_setting 'orthorhombic'
loop_
_space_group_symop_operation_xyz
x,y,z
1/2-x,1/2-y,1/2+z
1/2+x,1/2-y,-z
-x,y,1/2-z
-x,-y,-z
1/2+x,1/2+y,1/2-z
1/2-x,1/2+y,z
x,-y,1/2+z
loop_
_atom_site_type_symbol
_atom_site_label
_atom_site_fract_x
_atom_site_fract_y
_atom_site_fract_z
Si Si1 0.677177 0.690092 0.052392
Si Si2 0.354827 0.791596 0.199633
Si Si3 0.299882 0.928991 0.989968
Si Si4 0.616514 0.844498 0.713345
Si Si5 0.097043 0.053954 0.626090
Si Si6 0.000000 0.212439 0.750000
O O1 0.733348 0.572254 0.042125
O O2 0.621218 0.591402 0.001483
O O3 0.683215 0.872728 0.988143
O O4 0.672407 0.720535 0.185914
O O5 0.305772 0.818121 0.105064
O O6 0.398860 0.648599 0.153770
O O7 0.384537 0.976160 0.217238
O O8 0.341578 0.847599 0.894288
O O9 0.635348 0.678460 0.790299
O O10 0.548780 0.821848 0.682587
O O11 0.030262 0.101234 0.648101
#
# Coordination Sequence:
#
# PCOD8247803 Si02
#       6
#     8   8   8   8   8   4
#     4  11  25  40  64  97 130 169 217 261 318 389
#     4  11  24  40  65  93 130 169 211 264 329 375
#     4  11  23  40  64  92 133 172 210 267 318 378
#     4   9  22  43  61  93 126 168 214 263 313 375
#     4  10  22  42  63  94 126 165 217 263 311 377
#     4   8  20  42  70  88 132 168 214 274 300 386
#
# _framework density 20.775134000000001
#
# number of rings (size 3 to 8) (size 9 to 14) (size 15 to 20)
#    1.091    0.727    1.818    1.091    7.636    2.182 
#    0.000   11.818    0.000    0.000    0.000    0.000 
#    0.000    0.000    0.000    0.000    0.000    0.000 
#
# Total GULP energy -545135.729083 kJ/mol
# GULP energy per Si atom -12389.448388 kJ/mol
# Density = 2.072785 g / cm^3
# Si number density = 20.775134 Si / 1000 Ang^3
#
#
#
# Elastic Constant Matrix: (Units=GPa)
#
#
# Indices 1 2 3 4 5 6 
#
# 1 63.6115 -15.8332 2.4061 0.0000 0.0000 0.0000
# 2 -15.8332 76.8417 13.0530 0.0000 0.0000 0.0000
# 3 2.4061 13.0530 77.1415 0.0000 0.0000 0.0000
# 4 0.0000 0.0000 0.0000 21.3928 0.0000 0.0000
# 5 0.0000 0.0000 0.0000 0.0000 28.1507 0.0000
# 6 0.0000 0.0000 0.0000 0.0000 0.0000 17.7541
#
#
#
# Elastic Compliance Matrix: (Units=1/GPa)
#
#
# Indices 1 2 3 4 5 6 
#
# 1 0.016666 0.003627 -0.001133 0.000000 0.000000 0.000000
# 2 0.003627 0.014188 -0.002514 0.000000 0.000000 0.000000
# 3 -0.001133 -0.002514 0.013424 0.000000 0.000000 0.000000
# 4 0.000000 0.000000 0.000000 0.046745 0.000000 0.000000
# 5 0.000000 0.000000 0.000000 0.000000 0.035523 0.000000
# 6 0.000000 0.000000 0.000000 0.000000 0.000000 0.056325
#
#
# Mechanical properties :
#
#
# Convention : Reuss Voigt Hill
#
# Bulk Modulus (GPa) = 22.60581 24.09405 23.34993
# Shear Modulus (GPa) = 25.29623 27.99076 26.64350
#
# Velocity S-wave (km/s) = 3.49323 3.67457 3.58504
# Velocity P-wave (km/s) = 5.21296 5.44298 5.32921
#
# Compressibility (1/GPa) = 0.04423642
#
# Stress axis : x y z
#
# Youngs Moduli (GPa) = 60.00251 70.48182 74.49395
#
# Poissons Ratio (x) = -0.25561 0.08444
# Poissons Ratio (y) = -0.21760 0.18727
# Poissons Ratio (z) = 0.06801 0.17718
#
# Static dielectric constant tensor:
#      x y z
#    x 3.435010 0.000000 0.000000 
#    y 0.000000 3.958070 0.000000 
#    z 0.000000 0.000000 3.670390 
# 
# 
# High freq. dielectric constant tensor:
#      x y z
#    x 1.790280 0.000000 0.000000 
#    y 0.000000 1.827040 0.000000 
#    z 0.000000 0.000000 1.806700 
# 
# From -- ./inp_files/13017.got.cif
#   From: 2010.03.12/outbox.cif.g09.slc.cpg/sg60_7_cif.got.tgz:13017.got - 2010.04.10 18:46:24.
