data_PCOD8247521
_publ_section_title
;
Structure prediction by ZEFSAII (Michael W. Deem and Ramdas Pophale) SiO2 
 PCOD8247521
Probable space group: P B C N
;
_chemical_formula_sum "Si O2"
_cell_formula_units_Z 60
_cell_length_a 21.429900
_cell_length_b 5.043506
_cell_length_c 27.672979
_cell_angle_alpha 90.000000
_cell_angle_beta 90.000000
_cell_angle_gamma 90.000000
_cell_volume 2990.946191
_symmetry_space_group_name_H-M "P B C N"
_symmetry_group_IT_number 60
_symmetry_cell_setting 'orthorhombic'
loop_
_space_group_symop_operation_xyz
x,y,z
1/2-x,1/2-y,1/2+z
1/2+x,1/2-y,-z
-x,y,1/2-z
-x,-y,-z
1/2+x,1/2+y,1/2-z
1/2-x,1/2+y,z
x,-y,1/2+z
loop_
_atom_site_type_symbol
_atom_site_label
_atom_site_fract_x
_atom_site_fract_y
_atom_site_fract_z
Si Si1 0.894197 0.254923 0.138415
Si Si2 0.466850 0.245180 0.650172
Si Si3 0.209285 0.287726 0.438246
Si Si4 0.709930 0.324075 0.286272
Si Si5 0.500000 0.510096 0.250000
Si Si6 0.208682 0.705076 0.050125
Si Si7 0.617738 0.262545 0.201549
Si Si8 0.611879 0.260475 0.370115
O O1 0.853542 0.330585 0.092004
O O2 0.886047 0.467032 0.181104
O O3 0.966644 0.243729 0.122987
O O4 0.872952 0.969832 0.158158
O O5 0.474090 0.305223 0.707162
O O6 0.420953 0.454997 0.625068
O O7 0.440473 0.951579 0.643875
O O8 0.260092 0.508377 0.425000
O O9 0.189915 0.305788 0.494100
O O10 0.731219 0.628193 0.290496
O O11 0.677992 0.276467 0.235013
O O12 0.663583 0.260401 0.329225
O O13 0.555109 0.322013 0.231407
O O14 0.254591 0.468748 0.064556
O O15 0.144088 0.688358 0.079180
#
# Coordination Sequence:
#
# PCOD8247521 Si02
#       8
#     8   8   8   8   4   8   8   8
#     4  11  24  40  60  93 120 157 202 259 291 363
#     4  11  24  37  63  86 124 161 211 242 299 351
#     4  10  22  41  68  90 118 158 202 249 312 371
#     4  12  25  38  55  86 122 155 194 248 307 355
#     4  10  22  42  60  86 114 170 216 246 272 368
#     4  10  21  41  66  92 118 158 206 253 302 372
#     4  11  24  38  61  84 120 161 203 250 297 351
#     4  12  23  40  61  90 120 164 201 251 302 360
#
# _framework density 20.06054
#
# number of rings (size 3 to 8) (size 9 to 14) (size 15 to 20)
#    0.000    1.067    1.333    5.600    3.733    4.267 
#    0.000    1.333    0.000    0.000    0.000    0.000 
#    0.000    0.000    0.000    0.000    0.000    0.000 
#
# Total GULP energy -744450.801498 kJ/mol
# GULP energy per Si atom -12407.513358 kJ/mol
# Density = 2.001488 g / cm^3
# Si number density = 20.060540 Si / 1000 Ang^3
#
#
#
# Elastic Constant Matrix: (Units=GPa)
#
#
# Indices 1 2 3 4 5 6 
#
# 1 96.5889 9.5974 61.2181 0.0000 0.0000 0.0000
# 2 9.5974 84.2721 4.5890 0.0000 0.0000 0.0000
# 3 61.2181 4.5890 77.7457 0.0000 0.0000 0.0000
# 4 0.0000 0.0000 0.0000 34.2113 0.0000 0.0000
# 5 0.0000 0.0000 0.0000 0.0000 39.8868 0.0000
# 6 0.0000 0.0000 0.0000 0.0000 0.0000 24.5903
#
#
#
# Elastic Compliance Matrix: (Units=1/GPa)
#
#
# Indices 1 2 3 4 5 6 
#
# 1 0.020851 -0.001485 -0.016331 0.000000 0.000000 0.000000
# 2 -0.001485 0.012010 0.000461 0.000000 0.000000 0.000000
# 3 -0.016331 0.000461 0.025694 0.000000 0.000000 0.000000
# 4 0.000000 0.000000 0.000000 0.029230 0.000000 0.000000
# 5 0.000000 0.000000 0.000000 0.000000 0.025071 0.000000
# 6 0.000000 0.000000 0.000000 0.000000 0.000000 0.040666
#
#
# Mechanical properties :
#
#
# Convention : Reuss Voigt Hill
#
# Bulk Modulus (GPa) = 41.93766 45.49062 43.71414
# Shear Modulus (GPa) = 25.48638 31.95118 28.71878
#
# Velocity S-wave (km/s) = 3.56824 3.99524 3.78776
# Velocity P-wave (km/s) = 6.15852 6.63389 6.40062
#
# Compressibility (1/GPa) = 0.02384492
#
# Stress axis : x y z
#
# Youngs Moduli (GPa) = 47.95862 83.26115 38.91885
#
# Poissons Ratio (x) = 0.12367 0.63558
# Poissons Ratio (y) = 0.07124 -0.01793
# Poissons Ratio (z) = 0.78321 -0.03836
#
# Static dielectric constant tensor:
#      x y z
#    x 3.803570 0.000000 0.000000 
#    y 0.000000 3.791210 0.000000 
#    z 0.000000 0.000000 3.562740 
# 
# 
# High freq. dielectric constant tensor:
#      x y z
#    x 1.789280 0.000000 0.000000 
#    y 0.000000 1.802210 0.000000 
#    z 0.000000 0.000000 1.769400 
# 
# From -- ./inp_files/24598.got.cif
#   From: 2010.03.12/outbox.cif.g09.slc.cpg/sg60_13_cif.got.tgz:24598.got - 2010.04.10 18:46:24.
