data_PCOD8247897
_publ_section_title
;
Structure prediction by ZEFSAII (Michael W. Deem and Ramdas Pophale) SiO2 
 PCOD8247897
Probable space group: P B C N
;
_chemical_formula_sum "Si O2"
_cell_formula_units_Z 48
_cell_length_a 22.664660
_cell_length_b 8.589800
_cell_length_c 11.539863
_cell_angle_alpha 90.000000
_cell_angle_beta 90.000000
_cell_angle_gamma 90.000000
_cell_volume 2246.637033
_symmetry_space_group_name_H-M "P B C N"
_symmetry_group_IT_number 60
_symmetry_cell_setting 'orthorhombic'
loop_
_space_group_symop_operation_xyz
x,y,z
1/2-x,1/2-y,1/2+z
1/2+x,1/2-y,-z
-x,y,1/2-z
-x,-y,-z
1/2+x,1/2+y,1/2-z
1/2-x,1/2+y,z
x,-y,1/2+z
loop_
_atom_site_type_symbol
_atom_site_label
_atom_site_fract_x
_atom_site_fract_y
_atom_site_fract_z
Si Si1 0.864554 0.376962 0.114470
Si Si2 0.879246 0.294034 0.735302
Si Si3 0.671115 0.242864 0.844776
Si Si4 0.082715 0.864005 0.481750
Si Si5 0.214247 0.594785 0.101165
Si Si6 0.052415 0.206474 0.548357
O O1 0.882603 0.539511 0.172653
O O2 0.848149 0.247091 0.210653
O O3 0.807593 0.385118 0.030658
O O4 0.922600 0.327485 0.044786
O O5 0.881132 0.157800 0.638674
O O6 0.819669 0.286221 0.812107
O O7 0.933920 0.266734 0.822388
O O8 0.612285 0.256428 0.920755
O O9 0.716082 0.377153 0.885452
O O10 0.703134 0.080312 0.862561
O O11 0.017209 0.800645 0.464535
O O12 0.083600 0.041190 0.523585
#
# Coordination Sequence:
#
# PCOD8247897 Si02
#       6
#     8   8   8   8   8   8
#     4  10  23  45  66  98 135 174 227 278 338 406
#     4  10  22  46  66  96 136 175 227 280 334 409
#     4  11  25  41  66  97 131 181 220 280 336 398
#     4  11  24  44  68  99 137 174 230 280 338 411
#     4  10  24  42  64  99 133 175 228 274 339 398
#     4  10  25  44  69 100 134 180 224 278 347 406
#
# _framework density 21.365265000000001
#
# number of rings (size 3 to 8) (size 9 to 14) (size 15 to 20)
#    0.000    1.667    1.667    0.500    9.333    1.333 
#    6.000    0.000    0.000    0.000    0.000    0.000 
#    0.000    0.000    0.000    0.000    0.000    0.000 
#
# Total GULP energy -595246.295278 kJ/mol
# GULP energy per Si atom -12400.964485 kJ/mol
# Density = 2.131664 g / cm^3
# Si number density = 21.365265 Si / 1000 Ang^3
#
#
#
# Elastic Constant Matrix: (Units=GPa)
#
#
# Indices 1 2 3 4 5 6 
#
# 1 58.3578 30.5873 31.8838 0.0000 0.0000 0.0000
# 2 30.5873 73.7901 44.0769 0.0000 0.0000 0.0000
# 3 31.8838 44.0769 165.2723 0.0000 0.0000 0.0000
# 4 0.0000 0.0000 0.0000 31.2994 0.0000 0.0000
# 5 0.0000 0.0000 0.0000 0.0000 23.3722 0.0000
# 6 0.0000 0.0000 0.0000 0.0000 0.0000 36.4852
#
#
#
# Elastic Compliance Matrix: (Units=1/GPa)
#
#
# Indices 1 2 3 4 5 6 
#
# 1 0.022550 -0.008028 -0.002209 0.000000 0.000000 0.000000
# 2 -0.008028 0.018978 -0.003513 0.000000 0.000000 0.000000
# 3 -0.002209 -0.003513 0.007414 0.000000 0.000000 0.000000
# 4 0.000000 0.000000 0.000000 0.031949 0.000000 0.000000
# 5 0.000000 0.000000 0.000000 0.000000 0.042786 0.000000
# 6 0.000000 0.000000 0.000000 0.000000 0.000000 0.027408
#
#
# Mechanical properties :
#
#
# Convention : Reuss Voigt Hill
#
# Bulk Modulus (GPa) = 46.63674 56.72401 51.68038
# Shear Modulus (GPa) = 26.92047 30.95619 28.93833
#
# Velocity S-wave (km/s) = 3.55351 3.81057 3.68429
# Velocity P-wave (km/s) = 6.22192 6.77996 6.50693
#
# Compressibility (1/GPa) = 0.02144232
#
# Stress axis : x y z
#
# Youngs Moduli (GPa) = 44.34513 52.69329 134.88694
#
# Poissons Ratio (x) = 0.42301 0.29802
# Poissons Ratio (y) = 0.35599 0.47379
# Poissons Ratio (z) = 0.09798 0.18509
#
# Static dielectric constant tensor:
#      x y z
#    x 3.769800 0.000000 0.000000 
#    y 0.000000 3.792830 0.000000 
#    z 0.000000 0.000000 4.186990 
# 
# 
# High freq. dielectric constant tensor:
#      x y z
#    x 1.832790 0.000000 0.000000 
#    y 0.000000 1.834090 0.000000 
#    z 0.000000 0.000000 1.857810 
# 
# From -- ./inp_files/13038.got.cif
#   From: 2010.03.12/outbox.cif.g09.slc.cpg/sg60_7_cif.got.tgz:13038.got - 2010.04.10 18:46:24.
