data_PCOD8247773
_publ_section_title
;
Structure prediction by ZEFSAII (Michael W. Deem and Ramdas Pophale) SiO2 
 PCOD8247773
Probable space group: P B C N
;
_chemical_formula_sum "Si O2"
_cell_formula_units_Z 48
_cell_length_a 10.956683
_cell_length_b 22.966028
_cell_length_c 8.957185
_cell_angle_alpha 90.000000
_cell_angle_beta 90.000000
_cell_angle_gamma 90.000000
_cell_volume 2253.909795
_symmetry_space_group_name_H-M "P B C N"
_symmetry_group_IT_number 60
_symmetry_cell_setting 'orthorhombic'
loop_
_space_group_symop_operation_xyz
x,y,z
1/2-x,1/2-y,1/2+z
1/2+x,1/2-y,-z
-x,y,1/2-z
-x,-y,-z
1/2+x,1/2+y,1/2-z
1/2-x,1/2+y,z
x,-y,1/2+z
loop_
_atom_site_type_symbol
_atom_site_label
_atom_site_fract_x
_atom_site_fract_y
_atom_site_fract_z
Si Si1 0.706779 0.448924 0.455341
Si Si2 0.983048 0.873564 0.083908
Si Si3 0.763500 0.431376 0.115173
Si Si4 0.090810 0.773465 0.882713
Si Si5 0.681438 0.849542 0.649883
Si Si6 0.424695 0.155289 0.031065
O O1 0.562850 0.432892 0.440534
O O2 0.765786 0.443757 0.291404
O O3 0.738098 0.511829 0.517552
O O4 0.758620 0.405728 0.578239
O O5 0.841739 0.887370 0.060956
O O6 0.000000 0.849233 0.250000
O O7 0.020563 0.822180 0.975661
O O8 0.891026 0.398781 0.078208
O O9 0.221741 0.797630 0.831651
O O10 0.000000 0.755372 0.750000
O O11 0.128316 0.716465 0.975024
O O12 0.631605 0.864301 0.812219
O O13 0.569587 0.833400 0.540809
#
# Coordination Sequence:
#
# PCOD8247773 Si02
#       6
#     8   8   8   8   8   8
#     4  10  22  41  66  96 131 175 218 276 321 394
#     4   9  21  40  64  99 130 173 220 272 329 383
#     4  11  22  39  67  95 133 171 222 271 331 389
#     4  11  25  40  68  95 129 169 217 272 325 395
#     4  10  25  45  62  92 129 168 218 260 330 390
#     4  11  26  41  64  92 128 175 211 269 324 396
#
# _framework density 21.296326000000001
#
# number of rings (size 3 to 8) (size 9 to 14) (size 15 to 20)
#    0.000    1.667    0.000    2.500    9.333    3.333 
#    0.000    0.833    0.000    0.000    0.000    0.000 
#    0.000    0.000    0.000    0.000    0.000    0.000 
#
# Total GULP energy -595082.114950 kJ/mol
# GULP energy per Si atom -12397.544061 kJ/mol
# Density = 2.124785 g / cm^3
# Si number density = 21.296326 Si / 1000 Ang^3
#
#
#
# Elastic Constant Matrix: (Units=GPa)
#
#
# Indices 1 2 3 4 5 6 
#
# 1 89.9722 7.7236 35.1996 0.0000 0.0000 0.0000
# 2 7.7236 83.8277 39.4579 0.0000 0.0000 0.0000
# 3 35.1996 39.4579 98.9186 0.0000 0.0000 0.0000
# 4 0.0000 0.0000 0.0000 27.2110 0.0000 0.0000
# 5 0.0000 0.0000 0.0000 0.0000 28.5268 0.0000
# 6 0.0000 0.0000 0.0000 0.0000 0.0000 5.7309
#
#
#
# Elastic Compliance Matrix: (Units=1/GPa)
#
#
# Indices 1 2 3 4 5 6 
#
# 1 0.013011 0.001207 -0.005111 0.000000 0.000000 0.000000
# 2 0.001207 0.014799 -0.006333 0.000000 0.000000 0.000000
# 3 -0.005111 -0.006333 0.014454 0.000000 0.000000 0.000000
# 4 0.000000 0.000000 0.000000 0.036750 0.000000 0.000000
# 5 0.000000 0.000000 0.000000 0.000000 0.035055 0.000000
# 6 0.000000 0.000000 0.000000 0.000000 0.000000 0.174492
#
#
# Mechanical properties :
#
#
# Convention : Reuss Voigt Hill
#
# Bulk Modulus (GPa) = 45.89266 48.60896 47.25081
# Shear Modulus (GPa) = 15.80790 24.98291 20.39540
#
# Velocity S-wave (km/s) = 2.72744 3.42878 3.09802
# Velocity P-wave (km/s) = 5.61382 6.20886 5.91882
#
# Compressibility (1/GPa) = 0.02178998
#
# Stress axis : x y z
#
# Youngs Moduli (GPa) = 76.86055 67.57287 69.18403
#
# Poissons Ratio (x) = -0.08157 0.35362
# Poissons Ratio (y) = -0.09278 0.43812
# Poissons Ratio (z) = 0.39285 0.42792
#
# Static dielectric constant tensor:
#      x y z
#    x 4.120260 0.000000 0.000000 
#    y 0.000000 3.717520 0.000000 
#    z 0.000000 0.000000 3.942140 
# 
# 
# High freq. dielectric constant tensor:
#      x y z
#    x 1.840560 0.000000 0.000000 
#    y 0.000000 1.831540 0.000000 
#    z 0.000000 0.000000 1.847630 
# 
# From -- ./inp_files/5089.got.cif
#   From: 2010.03.12/outbox.cif.g09.slc.cpg/sg60_3_cif.got.tgz:5089.got - 2010.04.10 18:46:24.
