data_PCOD8247134
_publ_section_title
;
Structure prediction by ZEFSAII (Michael W. Deem and Ramdas Pophale) SiO2 
 PCOD8247134
Probable space group: P B C N
;
_chemical_formula_sum "Si O2"
_cell_formula_units_Z 32
_cell_length_a 7.372129
_cell_length_b 22.088326
_cell_length_c 8.092645
_cell_angle_alpha 90.000000
_cell_angle_beta 90.000000
_cell_angle_gamma 90.000000
_cell_volume 1317.790035
_symmetry_space_group_name_H-M "P B C N"
_symmetry_group_IT_number 60
_symmetry_cell_setting 'orthorhombic'
loop_
_space_group_symop_operation_xyz
x,y,z
1/2-x,1/2-y,1/2+z
1/2+x,1/2-y,-z
-x,y,1/2-z
-x,-y,-z
1/2+x,1/2+y,1/2-z
1/2-x,1/2+y,z
x,-y,1/2+z
loop_
_atom_site_type_symbol
_atom_site_label
_atom_site_fract_x
_atom_site_fract_y
_atom_site_fract_z
Si Si1 0.535294 0.432604 0.943198
Si Si2 0.212647 0.229723 0.256743
Si Si3 0.902814 0.375005 0.916971
Si Si4 0.742618 0.842867 0.424635
O O1 0.500000 0.421702 0.750000
O O2 0.745573 0.420064 0.978265
O O3 0.500000 0.500000 0.000000
O O4 0.409277 0.388355 0.052492
O O5 0.314802 0.191177 0.114550
O O6 0.284667 0.206914 0.431053
O O7 0.262108 0.301556 0.239688
O O8 0.000000 0.216983 0.250000
O O9 0.000000 0.399820 0.750000
O O10 0.048279 0.376738 0.067296
#
# Coordination Sequence:
#
# PCOD8247134 Si02
#       4
#     8   8   8   8
#     4  12  25  50  67  93 138 188 236 284 341 416
#     4  11  20  41  69 100 142 173 218 281 359 415
#     4  10  20  40  70  92 130 181 214 279 351 395
#     4  11  23  43  69 101 139 179 220 288 350 416
#
# _framework density 24.283080000000002
#
# number of rings (size 3 to 8) (size 9 to 14) (size 15 to 20)
#    0.000    1.000    7.500    1.500    0.000    1.000 
#   13.500    0.000    0.000    0.000    0.000    0.000 
#    0.000    0.000    0.000    0.000    0.000    0.000 
#
# Total GULP energy -396771.378863 kJ/mol
# GULP energy per Si atom -12399.105589 kJ/mol
# Density = 2.422781 g / cm^3
# Si number density = 24.283080 Si / 1000 Ang^3
#
#
#
# Elastic Constant Matrix: (Units=GPa)
#
#
# Indices 1 2 3 4 5 6 
#
# 1 198.4048 68.8536 11.6395 0.0000 0.0000 0.0000
# 2 68.8536 139.0878 23.0371 0.0000 0.0000 0.0000
# 3 11.6395 23.0371 23.0326 0.0000 0.0000 0.0000
# 4 0.0000 0.0000 0.0000 36.5606 0.0000 0.0000
# 5 0.0000 0.0000 0.0000 0.0000 8.5660 0.0000
# 6 0.0000 0.0000 0.0000 0.0000 0.0000 31.0426
#
#
#
# Elastic Compliance Matrix: (Units=1/GPa)
#
#
# Indices 1 2 3 4 5 6 
#
# 1 0.006086 -0.003000 -0.000075 0.000000 0.000000 0.000000
# 2 -0.003000 0.010096 -0.008582 0.000000 0.000000 0.000000
# 3 -0.000075 -0.008582 0.052038 0.000000 0.000000 0.000000
# 4 0.000000 0.000000 0.000000 0.027352 0.000000 0.000000
# 5 0.000000 0.000000 0.000000 0.000000 0.116741 0.000000
# 6 0.000000 0.000000 0.000000 0.000000 0.000000 0.032214
#
#
# Mechanical properties :
#
#
# Convention : Reuss Voigt Hill
#
# Bulk Modulus (GPa) = 22.26852 63.06508 42.66680
# Shear Modulus (GPa) = 17.67968 32.36683 25.02326
#
# Velocity S-wave (km/s) = 2.70120 3.65485 3.21359
# Velocity P-wave (km/s) = 4.34959 6.62100 5.60163
#
# Compressibility (1/GPa) = 0.04490643
#
# Stress axis : x y z
#
# Youngs Moduli (GPa) = 164.31688 99.04457 19.21658
#
# Poissons Ratio (x) = 0.29717 0.00143
# Poissons Ratio (y) = 0.49301 0.16492
# Poissons Ratio (z) = 0.01224 0.85002
#
# Static dielectric constant tensor:
#      x y z
#    x 4.757790 0.000000 0.000000 
#    y 0.000000 4.216460 0.000000 
#    z 0.000000 0.000000 4.210610 
# 
# 
# High freq. dielectric constant tensor:
#      x y z
#    x 1.990890 0.000000 0.000000 
#    y 0.000000 1.937100 0.000000 
#    z 0.000000 0.000000 1.945720 
# 
# From -- ./inp_files/3579.got.cif
#   From: 2010.03.12/outbox.cif.g09.slc.cpg/sg60_2_cif.got.tgz:3579.got - 2010.04.10 18:46:24.
