data_PCOD8247394
_publ_section_title
;
Structure prediction by ZEFSAII (Michael W. Deem and Ramdas Pophale) SiO2 
 PCOD8247394
Probable space group: P B C N
;
_chemical_formula_sum "Si O2"
_cell_formula_units_Z 52
_cell_length_a 25.289584
_cell_length_b 8.791107
_cell_length_c 11.600107
_cell_angle_alpha 90.000000
_cell_angle_beta 90.000000
_cell_angle_gamma 90.000000
_cell_volume 2578.975680
_symmetry_space_group_name_H-M "P B C N"
_symmetry_group_IT_number 60
_symmetry_cell_setting 'orthorhombic'
loop_
_space_group_symop_operation_xyz
x,y,z
1/2-x,1/2-y,1/2+z
1/2+x,1/2-y,-z
-x,y,1/2-z
-x,-y,-z
1/2+x,1/2+y,1/2-z
1/2-x,1/2+y,z
x,-y,1/2+z
loop_
_atom_site_type_symbol
_atom_site_label
_atom_site_fract_x
_atom_site_fract_y
_atom_site_fract_z
Si Si1 0.073261 0.681534 0.680914
Si Si2 0.689909 0.308304 0.560432
Si Si3 0.932138 0.875078 0.593676
Si Si4 0.000000 0.421634 0.750000
Si Si5 0.029237 0.798625 0.447154
Si Si6 0.250617 0.436209 0.565470
Si Si7 0.194288 0.687462 0.695465
O O1 0.054657 0.790584 0.786022
O O2 0.065121 0.759006 0.557200
O O3 0.133902 0.637771 0.694365
O O4 0.042193 0.524047 0.683376
O O5 0.628179 0.349263 0.556631
O O6 0.701002 0.165573 0.476390
O O7 0.724328 0.456969 0.532150
O O8 0.711239 0.254294 0.682784
O O9 0.968696 0.814029 0.489771
O O10 0.946239 0.051412 0.611425
O O11 0.968973 0.325248 0.653804
O O12 0.230005 0.540741 0.669756
O O13 0.297099 0.323304 0.604589
#
# Coordination Sequence:
#
# PCOD8247394 Si02
#       7
#     8   8   8   4   8   8   8
#     4  11  23  42  62  92 127 161 205 253 307 363
#     4  10  21  39  61  90 119 155 203 246 300 356
#     4  10  23  40  65  87 121 166 203 251 299 364
#     4  12  26  38  62  92 124 164 200 256 314 356
#     4  11  24  41  62  88 128 158 210 247 303 369
#     4  10  21  39  61  88 122 158 197 251 301 351
#     4  10  22  38  63  89 121 160 199 248 301 358
#
# _framework density 20.163045
#
# number of rings (size 3 to 8) (size 9 to 14) (size 15 to 20)
#    0.000    1.538    1.538    2.308    6.462    1.231 
#    0.000    1.538    0.000    0.000    0.000    0.000 
#    0.000    0.000    0.000    0.000    0.000    0.000 
#
# Total GULP energy -644852.769175 kJ/mol
# GULP energy per Si atom -12401.014792 kJ/mol
# Density = 2.011715 g / cm^3
# Si number density = 20.163045 Si / 1000 Ang^3
#
#
#
# Elastic Constant Matrix: (Units=GPa)
#
#
# Indices 1 2 3 4 5 6 
#
# 1 87.9448 34.8528 16.8569 0.0000 0.0000 0.0000
# 2 34.8528 111.9964 33.1746 0.0000 0.0000 0.0000
# 3 16.8569 33.1746 81.6443 0.0000 0.0000 0.0000
# 4 0.0000 0.0000 0.0000 30.5747 0.0000 0.0000
# 5 0.0000 0.0000 0.0000 0.0000 28.0009 0.0000
# 6 0.0000 0.0000 0.0000 0.0000 0.0000 -12.8873
#
#
#
# Elastic Compliance Matrix: (Units=1/GPa)
#
#
# Indices 1 2 3 4 5 6 
#
# 1 0.013071 -0.003715 -0.001189 0.000000 0.000000 0.000000
# 2 -0.003715 0.011207 -0.003787 0.000000 0.000000 0.000000
# 3 -0.001189 -0.003787 0.014032 0.000000 0.000000 0.000000
# 4 0.000000 0.000000 0.000000 0.032707 0.000000 0.000000
# 5 0.000000 0.000000 0.000000 0.000000 0.035713 0.000000
# 6 0.000000 0.000000 0.000000 0.000000 0.000000 -0.077596
#
#
# Mechanical properties :
#
#
# Convention : Reuss Voigt Hill
#
# Bulk Modulus (GPa) = 47.78266 50.15047 48.96657
# Shear Modulus (GPa) = 93.47114 22.25107 57.86111
#
# Velocity S-wave (km/s) = 6.81603 3.32559 5.36273
# Velocity P-wave (km/s) = 9.25710 6.29861 7.91727
#
# Compressibility (1/GPa) = 0.02092809
#
# Stress axis : x y z
#
# Youngs Moduli (GPa) = 76.50447 89.23232 71.26406
#
# Poissons Ratio (x) = 0.33154 0.08474
# Poissons Ratio (y) = 0.28425 0.26984
# Poissons Ratio (z) = 0.09097 0.33788
#
# Static dielectric constant tensor:
#      x y z
#    x 3.573300 0.000000 0.000000 
#    y 0.000000 3.765510 0.000000 
#    z 0.000000 0.000000 3.692430 
# 
# 
# High freq. dielectric constant tensor:
#      x y z
#    x 1.787630 0.000000 0.000000 
#    y 0.000000 1.800290 0.000000 
#    z 0.000000 0.000000 1.788750 
# 
# From -- ./inp_files/13254.got.cif
#   From: 2010.03.12/outbox.cif.g09.slc.cpg/sg60_7_cif.got.tgz:13254.got - 2010.04.10 18:46:24.
