data_PCOD8247379
_publ_section_title
;
Structure prediction by ZEFSAII (Michael W. Deem and Ramdas Pophale) SiO2 
 PCOD8247379
Probable space group: P B C N
;
_chemical_formula_sum "Si O2"
_cell_formula_units_Z 52
_cell_length_a 19.372432
_cell_length_b 9.250545
_cell_length_c 15.012688
_cell_angle_alpha 90.000000
_cell_angle_beta 90.000000
_cell_angle_gamma 90.000000
_cell_volume 2690.357070
_symmetry_space_group_name_H-M "P B C N"
_symmetry_group_IT_number 60
_symmetry_cell_setting 'orthorhombic'
loop_
_space_group_symop_operation_xyz
x,y,z
1/2-x,1/2-y,1/2+z
1/2+x,1/2-y,-z
-x,y,1/2-z
-x,-y,-z
1/2+x,1/2+y,1/2-z
1/2-x,1/2+y,z
x,-y,1/2+z
loop_
_atom_site_type_symbol
_atom_site_label
_atom_site_fract_x
_atom_site_fract_y
_atom_site_fract_z
Si Si1 0.094315 0.240985 0.325564
Si Si2 0.982639 0.127845 0.934673
Si Si3 0.664997 0.665923 0.999762
Si Si4 0.526034 0.862634 0.449684
Si Si5 0.161307 0.357701 0.161903
Si Si6 0.257267 0.406069 0.585322
Si Si7 0.500000 0.485587 0.750000
O O1 0.147835 0.172712 0.395492
O O2 0.133165 0.357642 0.263341
O O3 0.028777 0.311362 0.375231
O O4 0.067614 0.114337 0.259860
O O5 0.995651 0.090503 0.833393
O O6 0.903977 0.179473 0.941700
O O7 0.034650 0.250216 0.969205
O O8 0.000000 0.000000 0.000000
O O9 0.700545 0.512174 0.980045
O O10 0.710397 0.805330 0.976611
O O11 0.599859 0.889175 0.406608
O O12 0.500000 0.000000 0.500000
O O13 0.194265 0.200000 0.142772
O O14 0.214534 0.490684 0.152716
#
# Coordination Sequence:
#
# PCOD8247379 Si02
#       7
#     8   8   8   8   8   8   4
#     4  11  21  37  66  89 119 154 202 262 313 361
#     4  11  20  38  64  90 118 155 202 255 306 369
#     4  10  21  39  59  86 119 160 202 241 304 368
#     4  11  22  40  63  91 127 159 194 262 328 363
#     4  11  21  40  61  89 120 161 207 246 307 371
#     4  10  23  39  61  81 121 171 198 245 295 369
#     4  12  20  36  62 100 112 158 198 252 328 358
#
# _framework density 19.328289000000002
#
# number of rings (size 3 to 8) (size 9 to 14) (size 15 to 20)
#    0.000    1.231    4.615    3.692    0.000    1.231 
#    5.538    0.000    0.000    0.000    0.000    0.000 
#    0.000    0.000    0.000    0.000    0.000    0.000 
#
# Total GULP energy -644691.563968 kJ/mol
# GULP energy per Si atom -12397.914692 kJ/mol
# Density = 1.928430 g / cm^3
# Si number density = 19.328289 Si / 1000 Ang^3
#
#
#
# Elastic Constant Matrix: (Units=GPa)
#
#
# Indices 1 2 3 4 5 6 
#
# 1 79.3443 19.8178 30.3255 0.0000 0.0000 0.0000
# 2 19.8178 101.7750 35.4918 0.0000 0.0000 0.0000
# 3 30.3255 35.4918 124.5036 0.0000 0.0000 0.0000
# 4 0.0000 0.0000 0.0000 23.8081 0.0000 0.0000
# 5 0.0000 0.0000 0.0000 0.0000 32.4306 0.0000
# 6 0.0000 0.0000 0.0000 0.0000 0.0000 35.1525
#
#
#
# Elastic Compliance Matrix: (Units=1/GPa)
#
#
# Indices 1 2 3 4 5 6 
#
# 1 0.014165 -0.001727 -0.002958 0.000000 0.000000 0.000000
# 2 -0.001727 0.011121 -0.002750 0.000000 0.000000 0.000000
# 3 -0.002958 -0.002750 0.009536 0.000000 0.000000 0.000000
# 4 0.000000 0.000000 0.000000 0.042003 0.000000 0.000000
# 5 0.000000 0.000000 0.000000 0.000000 0.030835 0.000000
# 6 0.000000 0.000000 0.000000 0.000000 0.000000 0.028448
#
#
# Mechanical properties :
#
#
# Convention : Reuss Voigt Hill
#
# Bulk Modulus (GPa) = 50.11662 52.98812 51.55237
# Shear Modulus (GPa) = 31.72050 32.94409 32.33229
#
# Velocity S-wave (km/s) = 4.05550 4.13298 4.09442
# Velocity P-wave (km/s) = 6.92206 7.08870 7.00587
#
# Compressibility (1/GPa) = 0.01995346
#
# Stress axis : x y z
#
# Youngs Moduli (GPa) = 70.59591 89.92266 104.86384
#
# Poissons Ratio (x) = 0.15527 0.31019
# Poissons Ratio (y) = 0.12190 0.28833
# Poissons Ratio (z) = 0.20882 0.24725
#
# Static dielectric constant tensor:
#      x y z
#    x 3.772830 0.000000 0.000000 
#    y 0.000000 3.577070 0.000000 
#    z 0.000000 0.000000 3.706450 
# 
# 
# High freq. dielectric constant tensor:
#      x y z
#    x 1.758360 0.000000 0.000000 
#    y 0.000000 1.758570 0.000000 
#    z 0.000000 0.000000 1.749930 
# 
# From -- ./inp_files/17661.got.cif
#   From: 2010.03.12/outbox.cif.g09.slc.cpg/sg60_9_cif.got.tgz:17661.got - 2010.04.10 18:46:24.
