data_PCOD8247071
_publ_section_title
;
Structure prediction by ZEFSAII (Michael W. Deem and Ramdas Pophale) SiO2 
 PCOD8247071
Probable space group: P B C N
;
_chemical_formula_sum "Si O2"
_cell_formula_units_Z 44
_cell_length_a 5.055369
_cell_length_b 27.155621
_cell_length_c 13.919346
_cell_angle_alpha 90.000000
_cell_angle_beta 90.000000
_cell_angle_gamma 90.000000
_cell_volume 1910.871267
_symmetry_space_group_name_H-M "P B C N"
_symmetry_group_IT_number 60
_symmetry_cell_setting 'orthorhombic'
loop_
_space_group_symop_operation_xyz
x,y,z
1/2-x,1/2-y,1/2+z
1/2+x,1/2-y,-z
-x,y,1/2-z
-x,-y,-z
1/2+x,1/2+y,1/2-z
1/2-x,1/2+y,z
x,-y,1/2+z
loop_
_atom_site_type_symbol
_atom_site_label
_atom_site_fract_x
_atom_site_fract_y
_atom_site_fract_z
Si Si1 0.696984 0.934101 0.161329
Si Si2 0.555759 0.081299 0.443429
Si Si3 0.243241 0.791018 0.094005
Si Si4 0.043700 0.026126 0.400330
Si Si5 0.262878 0.187090 0.022768
Si Si6 0.000000 0.850520 0.250000
O O1 0.500000 0.932505 0.250000
O O2 0.875547 0.885244 0.167483
O O3 0.871172 0.983748 0.174416
O O4 0.558888 0.933409 0.056864
O O5 0.262645 0.069620 0.406000
O O6 0.643105 0.137369 0.425383
O O7 0.759950 0.050179 0.376724
O O8 0.542504 0.803429 0.066512
O O9 0.036120 0.814939 0.017689
O O10 0.209928 0.814957 0.198530
O O11 0.203727 0.731943 0.098492
O O12 0.000000 0.000000 0.500000
#
# Coordination Sequence:
#
# PCOD8247071 Si02
#       6
#     8   8   8   8   8   4
#     4  11  24  35  60  90 125 157 194 258 314 354
#     4  11  21  40  62  86 118 162 207 243 296 363
#     4  10  22  37  59  93 122 153 197 252 302 365
#     4  10  23  38  58  87 121 158 207 243 291 365
#     4  10  20  39  62  87 120 160 204 240 297 366
#     4  12  24  36  62  92 128 150 194 258 322 350
#
# _framework density 23.026145
#
# number of rings (size 3 to 8) (size 9 to 14) (size 15 to 20)
#    0.000    1.455    1.818    4.364   10.182    0.000 
#    0.000    0.000    2.000    0.000    4.727    0.000 
#    0.000    0.000    0.000    0.000    0.000    0.000 
#
# Total GULP energy -545430.515861 kJ/mol
# GULP energy per Si atom -12396.148088 kJ/mol
# Density = 2.297374 g / cm^3
# Si number density = 23.026145 Si / 1000 Ang^3
#
#
#
# Elastic Constant Matrix: (Units=GPa)
#
#
# Indices 1 2 3 4 5 6 
#
# 1 78.8043 -0.7544 1.1686 0.0000 0.0000 0.0000
# 2 -0.7544 127.2172 14.0462 0.0000 0.0000 0.0000
# 3 1.1686 14.0462 42.0227 0.0000 0.0000 0.0000
# 4 0.0000 0.0000 0.0000 35.7320 0.0000 0.0000
# 5 0.0000 0.0000 0.0000 0.0000 18.5248 0.0000
# 6 0.0000 0.0000 0.0000 0.0000 0.0000 49.6794
#
#
#
# Elastic Compliance Matrix: (Units=1/GPa)
#
#
# Indices 1 2 3 4 5 6 
#
# 1 0.012697 0.000119 -0.000393 0.000000 0.000000 0.000000
# 2 0.000119 0.008163 -0.002732 0.000000 0.000000 0.000000
# 3 -0.000393 -0.002732 0.024721 0.000000 0.000000 0.000000
# 4 0.000000 0.000000 0.000000 0.027986 0.000000 0.000000
# 5 0.000000 0.000000 0.000000 0.000000 0.053982 0.000000
# 6 0.000000 0.000000 0.000000 0.000000 0.000000 0.020129
#
#
# Mechanical properties :
#
#
# Convention : Reuss Voigt Hill
#
# Bulk Modulus (GPa) = 25.27263 30.77391 28.02327
# Shear Modulus (GPa) = 29.96195 36.35950 33.16072
#
# Velocity S-wave (km/s) = 3.61115 3.97804 3.79903
# Velocity P-wave (km/s) = 5.32791 5.87312 5.60715
#
# Compressibility (1/GPa) = 0.03956849
#
# Stress axis : x y z
#
# Youngs Moduli (GPa) = 78.76114 122.50560 40.45190
#
# Poissons Ratio (x) = -0.01454 0.01589
# Poissons Ratio (y) = -0.00935 0.11051
# Poissons Ratio (z) = 0.03093 0.33466
#
# Static dielectric constant tensor:
#      x y z
#    x 4.529050 0.000000 0.000000 
#    y 0.000000 5.063980 0.000000 
#    z 0.000000 0.000000 3.679230 
# 
# 
# High freq. dielectric constant tensor:
#      x y z
#    x 1.921870 0.000000 0.000000 
#    y 0.000000 1.927120 0.000000 
#    z 0.000000 0.000000 1.859770 
# 
# From -- ./inp_files/13905.got.cif
#   From: 2010.03.12/outbox.cif.g09.slc.cpg/sg60_7_cif.got.tgz:13905.got - 2010.04.10 18:46:24.
