data_PCOD8247645
_publ_section_title
;
Structure prediction by ZEFSAII (Michael W. Deem and Ramdas Pophale) SiO2 
 PCOD8247645
Probable space group: P B C N
;
_chemical_formula_sum "Si O2"
_cell_formula_units_Z 60
_cell_length_a 12.398710
_cell_length_b 27.950320
_cell_length_c 8.763126
_cell_angle_alpha 90.000000
_cell_angle_beta 90.000000
_cell_angle_gamma 90.000000
_cell_volume 3036.843019
_symmetry_space_group_name_H-M "P B C N"
_symmetry_group_IT_number 60
_symmetry_cell_setting 'orthorhombic'
loop_
_space_group_symop_operation_xyz
x,y,z
1/2-x,1/2-y,1/2+z
1/2+x,1/2-y,-z
-x,y,1/2-z
-x,-y,-z
1/2+x,1/2+y,1/2-z
1/2-x,1/2+y,z
x,-y,1/2+z
loop_
_atom_site_type_symbol
_atom_site_label
_atom_site_fract_x
_atom_site_fract_y
_atom_site_fract_z
Si Si1 0.080856 0.064052 0.972957
Si Si2 0.999654 0.552600 0.570190
Si Si3 0.017338 0.837690 0.075670
Si Si4 0.110235 0.382515 0.847144
Si Si5 0.297629 0.107637 0.043399
Si Si6 0.500000 0.511647 0.250000
Si Si7 0.807353 0.795936 0.925371
Si Si8 0.232540 0.198978 0.422718
O O1 0.991613 0.104663 0.939575
O O2 0.198762 0.084673 0.955710
O O3 0.072228 0.045433 0.145260
O O4 0.075970 0.020809 0.854548
O O5 0.098037 0.580296 0.487451
O O6 0.000000 0.546633 0.750000
O O7 0.000000 0.500000 0.500000
O O8 0.899876 0.587164 0.541569
O O9 0.000000 0.821757 0.250000
O O10 0.137098 0.823772 0.023423
O O11 0.926935 0.811810 0.974465
O O12 0.194386 0.405022 0.724345
O O13 0.161989 0.334845 0.918013
O O14 0.000000 0.371605 0.750000
O O15 0.283789 0.165021 0.027946
O O16 0.812885 0.789794 0.744042
O O17 0.773049 0.747133 0.001442
#
# Coordination Sequence:
#
# PCOD8247645 Si02
#       8
#     8   8   8   8   8   4   8   8
#     4  10  22  39  59  89 123 160 204 253 311 367
#     4  11  23  40  61  89 121 160 208 258 305 370
#     4  11  23  40  62  89 131 163 209 263 305 377
#     4   9  21  41  63  89 122 158 205 258 307 368
#     4   9  21  41  61  84 123 162 199 254 312 366
#     4  10  22  38  58  88 122 158 206 254 300 372
#     4  10  23  40  63  93 123 161 208 257 316 384
#     4  11  23  41  67  94 122 170 206 256 327 372
#
# _framework density 19.757359999999998
#
# number of rings (size 3 to 8) (size 9 to 14) (size 15 to 20)
#    0.000    1.867    0.667    2.400    5.600    9.067 
#    2.400    0.000    0.000    0.000    0.000    0.000 
#    0.000    0.000    0.000    0.000    0.000    0.000 
#
# Total GULP energy -743723.856138 kJ/mol
# GULP energy per Si atom -12395.397602 kJ/mol
# Density = 1.971239 g / cm^3
# Si number density = 19.757360 Si / 1000 Ang^3
#
#
#
# Elastic Constant Matrix: (Units=GPa)
#
#
# Indices 1 2 3 4 5 6 
#
# 1 66.8675 39.4247 25.2465 0.0000 0.0000 0.0000
# 2 39.4247 105.0317 52.9250 0.0000 0.0000 0.0000
# 3 25.2465 52.9250 139.7599 0.0000 0.0000 0.0000
# 4 0.0000 0.0000 0.0000 13.7018 0.0000 0.0000
# 5 0.0000 0.0000 0.0000 0.0000 29.6838 0.0000
# 6 0.0000 0.0000 0.0000 0.0000 0.0000 20.1530
#
#
#
# Elastic Compliance Matrix: (Units=1/GPa)
#
#
# Indices 1 2 3 4 5 6 
#
# 1 0.019300 -0.006782 -0.000918 0.000000 0.000000 0.000000
# 2 -0.006782 0.014149 -0.004133 0.000000 0.000000 0.000000
# 3 -0.000918 -0.004133 0.008886 0.000000 0.000000 0.000000
# 4 0.000000 0.000000 0.000000 0.072983 0.000000 0.000000
# 5 0.000000 0.000000 0.000000 0.000000 0.033688 0.000000
# 6 0.000000 0.000000 0.000000 0.000000 0.000000 0.049620
#
#
# Mechanical properties :
#
#
# Convention : Reuss Voigt Hill
#
# Bulk Modulus (GPa) = 53.56383 60.76127 57.16255
# Shear Modulus (GPa) = 21.88028 25.64526 23.76277
#
# Velocity S-wave (km/s) = 3.33145 3.60670 3.47180
# Velocity P-wave (km/s) = 6.47825 6.94009 6.71314
#
# Compressibility (1/GPa) = 0.01866932
#
# Stress axis : x y z
#
# Youngs Moduli (GPa) = 51.81308 70.67556 112.53516
#
# Poissons Ratio (x) = 0.47931 0.10333
# Poissons Ratio (y) = 0.35139 0.46511
# Poissons Ratio (z) = 0.04758 0.29210
#
# Static dielectric constant tensor:
#      x y z
#    x 3.671240 0.000000 0.000000 
#    y 0.000000 3.719550 0.000000 
#    z 0.000000 0.000000 3.898700 
# 
# 
# High freq. dielectric constant tensor:
#      x y z
#    x 1.762970 0.000000 0.000000 
#    y 0.000000 1.777590 0.000000 
#    z 0.000000 0.000000 1.784390 
# 
# From -- ./inp_files/5230.got.cif
#   From: 2010.03.12/outbox.cif.g09.slc.cpg/sg60_3_cif.got.tgz:5230.got - 2010.04.10 18:46:24.
