data_PCOD8247972
_publ_section_title
;
Structure prediction by ZEFSAII (Michael W. Deem and Ramdas Pophale) SiO2 
 PCOD8247972
Probable space group: P B C N
;
_chemical_formula_sum "Si O2"
_cell_formula_units_Z 24
_cell_length_a 5.006101
_cell_length_b 22.198571
_cell_length_c 8.503991
_cell_angle_alpha 90.000000
_cell_angle_beta 90.000000
_cell_angle_gamma 90.000000
_cell_volume 945.033965
_symmetry_space_group_name_H-M "P B C N"
_symmetry_group_IT_number 60
_symmetry_cell_setting 'orthorhombic'
loop_
_space_group_symop_operation_xyz
x,y,z
1/2-x,1/2-y,1/2+z
1/2+x,1/2-y,-z
-x,y,1/2-z
-x,-y,-z
1/2+x,1/2+y,1/2-z
1/2-x,1/2+y,z
x,-y,1/2+z
loop_
_atom_site_type_symbol
_atom_site_label
_atom_site_fract_x
_atom_site_fract_y
_atom_site_fract_z
Si Si1 0.740871 0.025766 0.856712
Si Si2 0.424339 0.596455 0.075423
Si Si3 0.416793 0.719851 0.930927
O O1 0.500000 0.048630 0.750000
O O2 0.000000 0.017592 0.750000
O O3 0.700416 0.957988 0.930422
O O4 0.801287 0.073672 0.993164
O O5 0.500000 0.617426 0.250000
O O6 0.313510 0.653206 0.978004
O O7 0.500000 0.723151 0.750000
O O8 0.671807 0.735097 0.039360
#
# Coordination Sequence:
#
# PCOD8247972 Si02
#       3
#     8   8   8
#     4  10  23  42  66  99 138 181 225 275 340 411
#     4  10  23  42  68  99 137 179 228 284 343 408
#     4  12  27  48  72 100 136 182 236 290 348 413
#
# _framework density 25.395916
#
# number of rings (size 3 to 8) (size 9 to 14) (size 15 to 20)
#    0.000    1.333    0.000    4.000    0.000   25.333 
#    0.000    0.000    0.000    0.000    0.000    0.000 
#    0.000    0.000    0.000    0.000    0.000    0.000 
#
# Total GULP energy -297652.217499 kJ/mol
# GULP energy per Si atom -12402.175729 kJ/mol
# Density = 2.533811 g / cm^3
# Si number density = 25.395916 Si / 1000 Ang^3
#
#
#
# Elastic Constant Matrix: (Units=GPa)
#
#
# Indices 1 2 3 4 5 6 
#
# 1 84.6460 16.0266 22.2090 0.0000 0.0000 0.0000
# 2 16.0266 126.8057 44.7640 0.0000 0.0000 0.0000
# 3 22.2090 44.7640 135.9457 0.0000 0.0000 0.0000
# 4 0.0000 0.0000 0.0000 -50.7698 0.0000 0.0000
# 5 0.0000 0.0000 0.0000 0.0000 45.8155 0.0000
# 6 0.0000 0.0000 0.0000 0.0000 0.0000 -38.8616
#
#
#
# Elastic Compliance Matrix: (Units=1/GPa)
#
#
# Indices 1 2 3 4 5 6 
#
# 1 0.012447 -0.000968 -0.001715 0.000000 0.000000 0.000000
# 2 -0.000968 0.008999 -0.002805 0.000000 0.000000 0.000000
# 3 -0.001715 -0.002805 0.008560 0.000000 0.000000 0.000000
# 4 0.000000 0.000000 0.000000 -0.019697 0.000000 0.000000
# 5 0.000000 0.000000 0.000000 0.000000 0.021827 0.000000
# 6 0.000000 0.000000 0.000000 0.000000 0.000000 -0.025732
#
#
# Mechanical properties :
#
#
# Convention : Reuss Voigt Hill
#
# Bulk Modulus (GPa) = 52.54792 57.04406 54.79599
# Shear Modulus (GPa) = 210.78127 8.86333 109.82230
#
# Velocity S-wave (km/s) = 9.12021 1.87020 6.58316
# Velocity P-wave (km/s) = 11.47348 5.21289 8.91109
#
# Compressibility (1/GPa) = 0.01903025
#
# Stress axis : x y z
#
# Youngs Moduli (GPa) = 80.34026 111.12866 116.82767
#
# Poissons Ratio (x) = 0.10755 0.20033
# Poissons Ratio (y) = 0.07776 0.32769
# Poissons Ratio (z) = 0.13776 0.31171
#
# Static dielectric constant tensor:
#      x y z
#    x 4.532020 0.000000 0.000000 
#    y 0.000000 4.551500 0.000000 
#    z 0.000000 0.000000 5.007070 
# 
# 
# High freq. dielectric constant tensor:
#      x y z
#    x 2.000680 0.000000 0.000000 
#    y 0.000000 2.007310 0.000000 
#    z 0.000000 0.000000 2.044760 
# 
# From -- ./inp_files/2883.got.cif
#   From: 2010.03.12/outbox.cif.g09.slc.cpg/sg60_2_cif.got.tgz:2883.got - 2010.04.10 18:46:24.
