data_PCOD8247030
_publ_section_title
;
Structure prediction by ZEFSAII (Michael W. Deem and Ramdas Pophale) SiO2 
 PCOD8247030
Probable space group: P B C N
;
_chemical_formula_sum "Si O2"
_cell_formula_units_Z 36
_cell_length_a 10.616103
_cell_length_b 13.426787
_cell_length_c 12.818881
_cell_angle_alpha 90.000000
_cell_angle_beta 90.000000
_cell_angle_gamma 90.000000
_cell_volume 1827.205269
_symmetry_space_group_name_H-M "P B C N"
_symmetry_group_IT_number 60
_symmetry_cell_setting 'orthorhombic'
loop_
_space_group_symop_operation_xyz
x,y,z
1/2-x,1/2-y,1/2+z
1/2+x,1/2-y,-z
-x,y,1/2-z
-x,-y,-z
1/2+x,1/2+y,1/2-z
1/2-x,1/2+y,z
x,-y,1/2+z
loop_
_atom_site_type_symbol
_atom_site_label
_atom_site_fract_x
_atom_site_fract_y
_atom_site_fract_z
Si Si1 0.500000 0.439078 0.750000
Si Si2 0.685042 0.671565 0.405041
Si Si3 0.063708 0.579093 0.140119
Si Si4 0.851200 0.609786 0.978825
Si Si5 0.371920 0.512772 0.939135
O O1 0.424812 0.369873 0.669347
O O2 0.403555 0.510226 0.815171
O O3 0.819884 0.654918 0.351000
O O4 0.668322 0.788047 0.418467
O O5 0.686806 0.616949 0.519360
O O6 0.113389 0.471084 0.107470
O O7 0.000000 0.565653 0.250000
O O8 0.963981 0.624123 0.059693
O O9 0.723460 0.577816 0.037648
O O10 0.500000 0.500000 0.000000
#
# Coordination Sequence:
#
# PCOD8247030 Si02
#       5
#     4   8   8   8   8
#     4  10  20  38  62  90 126 166 208 250 312 384
#     4  10  22  38  64  92 123 165 210 257 315 383
#     4  10  22  42  61  91 128 163 209 264 316 382
#     4  10  22  40  64  88 128 165 203 264 322 371
#     4   9  20  39  59  88 127 155 200 259 308 367
#
# _framework density 19.702220000000001
#
# number of rings (size 3 to 8) (size 9 to 14) (size 15 to 20)
#    0.000    2.222    0.000    1.333    7.778    0.000 
#    2.000    8.889    0.000    0.000    0.000    0.000 
#    0.000    0.000    0.000    0.000    0.000    0.000 
#
# Total GULP energy -446365.078429 kJ/mol
# GULP energy per Si atom -12399.029956 kJ/mol
# Density = 1.965738 g / cm^3
# Si number density = 19.702220 Si / 1000 Ang^3
#
#
#
# Elastic Constant Matrix: (Units=GPa)
#
#
# Indices 1 2 3 4 5 6 
#
# 1 127.4237 43.1246 48.4771 0.0000 0.0000 0.0000
# 2 43.1246 96.4670 57.8871 0.0000 0.0000 0.0000
# 3 48.4771 57.8871 126.4079 0.0000 0.0000 0.0000
# 4 0.0000 0.0000 0.0000 17.9112 0.0000 0.0000
# 5 0.0000 0.0000 0.0000 0.0000 41.3250 0.0000
# 6 0.0000 0.0000 0.0000 0.0000 0.0000 19.8658
#
#
#
# Elastic Compliance Matrix: (Units=1/GPa)
#
#
# Indices 1 2 3 4 5 6 
#
# 1 0.009749 -0.002916 -0.002403 0.000000 0.000000 0.000000
# 2 -0.002916 0.015166 -0.005827 0.000000 0.000000 0.000000
# 3 -0.002403 -0.005827 0.011501 0.000000 0.000000 0.000000
# 4 0.000000 0.000000 0.000000 0.055831 0.000000 0.000000
# 5 0.000000 0.000000 0.000000 0.000000 0.024198 0.000000
# 6 0.000000 0.000000 0.000000 0.000000 0.000000 0.050338
#
#
# Mechanical properties :
#
#
# Convention : Reuss Voigt Hill
#
# Bulk Modulus (GPa) = 70.80312 72.14181 71.47246
# Shear Modulus (GPa) = 25.80188 29.20773 27.50480
#
# Velocity S-wave (km/s) = 3.62275 3.85445 3.74040
# Velocity P-wave (km/s) = 7.31531 7.51695 7.41682
#
# Compressibility (1/GPa) = 0.01412367
#
# Stress axis : x y z
#
# Youngs Moduli (GPa) = 102.57409 65.93507 86.94891
#
# Poissons Ratio (x) = 0.19227 0.20897
# Poissons Ratio (y) = 0.29911 0.50665
# Poissons Ratio (z) = 0.24652 0.38421
#
# Static dielectric constant tensor:
#      x y z
#    x 3.815670 0.000000 0.000000 
#    y 0.000000 3.427020 0.000000 
#    z 0.000000 0.000000 3.681920 
# 
# 
# High freq. dielectric constant tensor:
#      x y z
#    x 1.792170 0.000000 0.000000 
#    y 0.000000 1.748470 0.000000 
#    z 0.000000 0.000000 1.765720 
# 
# From -- ./inp_files/10675.got.cif
#   From: 2010.03.12/outbox.cif.g09.slc.cpg/sg60_6_cif.got.tgz:10675.got - 2010.04.10 18:46:24.
