data_PCOD8247618
_publ_section_title
;
Structure prediction by ZEFSAII (Michael W. Deem and Ramdas Pophale) SiO2 
 PCOD8247618
Probable space group: P B C N
;
_chemical_formula_sum "Si O2"
_cell_formula_units_Z 64
_cell_length_a 8.272879
_cell_length_b 32.820553
_cell_length_c 11.989484
_cell_angle_alpha 90.000000
_cell_angle_beta 90.000000
_cell_angle_gamma 90.000000
_cell_volume 3255.390255
_symmetry_space_group_name_H-M "P B C N"
_symmetry_group_IT_number 60
_symmetry_cell_setting 'orthorhombic'
loop_
_space_group_symop_operation_xyz
x,y,z
1/2-x,1/2-y,1/2+z
1/2+x,1/2-y,-z
-x,y,1/2-z
-x,-y,-z
1/2+x,1/2+y,1/2-z
1/2-x,1/2+y,z
x,-y,1/2+z
loop_
_atom_site_type_symbol
_atom_site_label
_atom_site_fract_x
_atom_site_fract_y
_atom_site_fract_z
Si Si1 0.135011 0.940504 0.481945
Si Si2 0.689474 0.158090 0.731351
Si Si3 0.815236 0.430455 0.234213
Si Si4 0.703544 0.233440 0.884683
Si Si5 0.322295 0.811576 0.711360
Si Si6 0.660338 0.652308 0.492869
Si Si7 0.601171 0.287488 0.589047
Si Si8 0.886864 0.993098 0.352455
O O1 0.279989 0.942713 0.393433
O O2 0.095515 0.893750 0.507387
O O3 0.976289 0.962880 0.436949
O O4 0.183578 0.965750 0.592557
O O5 0.500000 0.156047 0.750000
O O6 0.767416 0.113674 0.763045
O O7 0.748894 0.193595 0.812873
O O8 0.738480 0.166047 0.602372
O O9 0.764045 0.466765 0.313530
O O10 0.000000 0.423563 0.250000
O O11 0.829939 0.266702 0.840636
O O12 0.516259 0.249418 0.874127
O O13 0.747677 0.226950 0.014215
O O14 0.500000 0.824877 0.750000
O O15 0.273324 0.843609 0.615898
O O16 0.181938 0.810348 0.805792
O O17 0.505453 0.681248 0.482251
O O18 0.000000 0.005959 0.250000
#
# Coordination Sequence:
#
# PCOD8247618 Si02
#       8
#     8   8   8   8   8   8   8   8
#     4   9  19  37  59  85 117 152 193 234 287 347
#     4  10  22  36  62  86 118 157 195 251 300 354
#     4   9  19  36  55  88 119 146 189 241 288 340
#     4  11  24  38  62  83 119 152 204 241 309 350
#     4  11  25  42  60  81 117 155 198 252 295 360
#     4  10  23  41  60  88 120 156 201 248 299 351
#     4  11  25  41  60  88 116 158 197 255 295 360
#     4   9  18  34  60  86 115 153 189 234 284 350
#
# _framework density 19.659703
#
# number of rings (size 3 to 8) (size 9 to 14) (size 15 to 20)
#    0.000    2.000    0.000    3.000   12.250    1.500 
#    0.000    0.625    0.000    0.000    0.000    0.000 
#    0.000    0.000    0.000    0.000    0.000    0.000 
#
# Total GULP energy -793147.520404 kJ/mol
# GULP energy per Si atom -12392.930006 kJ/mol
# Density = 1.961496 g / cm^3
# Si number density = 19.659703 Si / 1000 Ang^3
#
#
#
# Elastic Constant Matrix: (Units=GPa)
#
#
# Indices 1 2 3 4 5 6 
#
# 1 76.3369 20.1651 33.7078 0.0000 0.0000 0.0000
# 2 20.1651 121.4864 55.9773 0.0000 0.0000 0.0000
# 3 33.7078 55.9773 115.2173 0.0000 0.0000 0.0000
# 4 0.0000 0.0000 0.0000 41.3349 0.0000 0.0000
# 5 0.0000 0.0000 0.0000 0.0000 31.4467 0.0000
# 6 0.0000 0.0000 0.0000 0.0000 0.0000 33.5067
#
#
#
# Elastic Compliance Matrix: (Units=1/GPa)
#
#
# Indices 1 2 3 4 5 6 
#
# 1 0.015078 -0.000606 -0.004117 0.000000 0.000000 0.000000
# 2 -0.000606 0.010630 -0.004987 0.000000 0.000000 0.000000
# 3 -0.004117 -0.004987 0.012307 0.000000 0.000000 0.000000
# 4 0.000000 0.000000 0.000000 0.024193 0.000000 0.000000
# 5 0.000000 0.000000 0.000000 0.000000 0.031800 0.000000
# 6 0.000000 0.000000 0.000000 0.000000 0.000000 0.029845
#
#
# Mechanical properties :
#
#
# Convention : Reuss Voigt Hill
#
# Bulk Modulus (GPa) = 53.77894 59.19345 56.48619
# Shear Modulus (GPa) = 33.45170 34.80369 34.12769
#
# Velocity S-wave (km/s) = 4.12944 4.21206 4.17096
# Velocity P-wave (km/s) = 7.08172 7.33687 7.21042
#
# Compressibility (1/GPa) = 0.01859464
#
# Stress axis : x y z
#
# Youngs Moduli (GPa) = 66.32318 94.07441 81.25693
#
# Poissons Ratio (x) = 0.05699 0.33452
# Poissons Ratio (y) = 0.04018 0.40525
# Poissons Ratio (z) = 0.27304 0.46917
#
# Static dielectric constant tensor:
#      x y z
#    x 3.323460 0.000000 0.000000 
#    y 0.000000 3.896750 0.000000 
#    z 0.000000 0.000000 3.876970 
# 
# 
# High freq. dielectric constant tensor:
#      x y z
#    x 1.750810 0.000000 0.000000 
#    y 0.000000 1.766940 0.000000 
#    z 0.000000 0.000000 1.775050 
# 
# From -- ./inp_files/10394.got.cif
#   From: 2010.03.12/outbox.cif.g09.slc.cpg/sg60_6_cif.got.tgz:10394.got - 2010.04.10 18:46:24.
