data_PCOD8247177
_publ_section_title
;
Structure prediction by ZEFSAII (Michael W. Deem and Ramdas Pophale) SiO2 
 PCOD8247177
Probable space group: P B C N
;
_chemical_formula_sum "Si O2"
_cell_formula_units_Z 64
_cell_length_a 12.025033
_cell_length_b 9.125871
_cell_length_c 27.325880
_cell_angle_alpha 90.000000
_cell_angle_beta 90.000000
_cell_angle_gamma 90.000000
_cell_volume 2998.712011
_symmetry_space_group_name_H-M "P B C N"
_symmetry_group_IT_number 60
_symmetry_cell_setting 'orthorhombic'
loop_
_space_group_symop_operation_xyz
x,y,z
1/2-x,1/2-y,1/2+z
1/2+x,1/2-y,-z
-x,y,1/2-z
-x,-y,-z
1/2+x,1/2+y,1/2-z
1/2-x,1/2+y,z
x,-y,1/2+z
loop_
_atom_site_type_symbol
_atom_site_label
_atom_site_fract_x
_atom_site_fract_y
_atom_site_fract_z
Si Si1 0.516466 0.702219 0.957992
Si Si2 0.403614 0.396824 0.943319
Si Si3 0.885849 0.239664 0.855433
Si Si4 0.367549 0.748181 0.822745
Si Si5 0.039479 0.660150 0.868083
Si Si6 0.315828 0.055728 0.670729
Si Si7 0.317487 0.060918 0.783016
Si Si8 0.658446 0.105478 0.079153
O O1 0.480762 0.537263 0.946251
O O2 0.593219 0.757353 0.913437
O O3 0.411496 0.812014 0.963065
O O4 0.580941 0.707793 0.009404
O O5 0.438938 0.314368 0.893941
O O6 0.275565 0.446939 0.942108
O O7 0.807163 0.101152 0.846160
O O8 0.822755 0.382038 0.835753
O O9 0.000321 0.219338 0.825099
O O10 0.307175 0.605092 0.800624
O O11 0.321855 0.776102 0.877508
O O12 0.338980 0.888420 0.789460
O O13 0.095758 0.656755 0.814617
O O14 0.090116 0.531119 0.900843
O O15 0.907873 0.636398 0.862414
O O16 0.335156 0.101097 0.726838
#
# Coordination Sequence:
#
# PCOD8247177 Si02
#       8
#     8   8   8   8   8   8   8   8
#     4  10  24  45  64  98 135 170 222 282 337 402
#     4  11  23  40  70 101 128 173 228 280 337 403
#     4  11  26  47  65  93 141 183 218 278 341 402
#     4  10  22  42  69  95 130 170 228 280 325 395
#     4  11  23  40  68  98 132 173 227 281 326 402
#     4  12  25  44  65  95 139 185 215 270 346 405
#     4  11  22  40  71 100 129 174 226 279 337 394
#     4  10  20  42  66  94 131 175 218 278 339 389
#
# _framework density 21.342496000000001
#
# number of rings (size 3 to 8) (size 9 to 14) (size 15 to 20)
#    0.000    1.250    5.000    1.875    7.000    3.000 
#    4.500    0.000    0.000    0.000    0.000    0.000 
#    0.000    0.000    0.000    0.000    0.000    0.000 
#
# Total GULP energy -793823.097396 kJ/mol
# GULP energy per Si atom -12403.485897 kJ/mol
# Density = 2.129392 g / cm^3
# Si number density = 21.342496 Si / 1000 Ang^3
#
#
#
# Elastic Constant Matrix: (Units=GPa)
#
#
# Indices 1 2 3 4 5 6 
#
# 1 139.4130 39.8239 37.5557 0.0000 0.0000 0.0000
# 2 39.8239 46.9846 15.8094 0.0000 0.0000 0.0000
# 3 37.5557 15.8094 76.6974 0.0000 0.0000 0.0000
# 4 0.0000 0.0000 0.0000 28.7598 0.0000 0.0000
# 5 0.0000 0.0000 0.0000 0.0000 28.7713 0.0000
# 6 0.0000 0.0000 0.0000 0.0000 0.0000 38.5496
#
#
#
# Elastic Compliance Matrix: (Units=1/GPa)
#
#
# Indices 1 2 3 4 5 6 
#
# 1 0.010258 -0.007527 -0.003472 0.000000 0.000000 0.000000
# 2 -0.007527 0.028392 -0.002167 0.000000 0.000000 0.000000
# 3 -0.003472 -0.002167 0.015185 0.000000 0.000000 0.000000
# 4 0.000000 0.000000 0.000000 0.034771 0.000000 0.000000
# 5 0.000000 0.000000 0.000000 0.000000 0.034757 0.000000
# 6 0.000000 0.000000 0.000000 0.000000 0.000000 0.025941
#
#
# Mechanical properties :
#
#
# Convention : Reuss Voigt Hill
#
# Bulk Modulus (GPa) = 36.35709 49.94144 43.14927
# Shear Modulus (GPa) = 27.05601 30.54321 28.79961
#
# Velocity S-wave (km/s) = 3.56435 3.78709 3.67741
# Velocity P-wave (km/s) = 5.83194 6.52484 6.18809
#
# Compressibility (1/GPa) = 0.02750495
#
# Stress axis : x y z
#
# Youngs Moduli (GPa) = 97.48370 35.22093 65.85532
#
# Poissons Ratio (x) = 0.26509 0.22862
# Poissons Ratio (y) = 0.73372 0.14270
# Poissons Ratio (z) = 0.33842 0.07632
#
# Static dielectric constant tensor:
#      x y z
#    x 3.919970 0.000000 0.000000 
#    y 0.000000 3.766530 0.000000 
#    z 0.000000 0.000000 3.966570 
# 
# 
# High freq. dielectric constant tensor:
#      x y z
#    x 1.840220 0.000000 0.000000 
#    y 0.000000 1.831700 0.000000 
#    z 0.000000 0.000000 1.832610 
# 
# From -- ./inp_files/26099.got.cif
#   From: 2010.03.12/outbox.cif.g09.slc.cpg/sg60_14_cif.got.tgz:26099.got - 2010.04.10 18:46:24.
