data_PCOD8247221
_publ_section_title
;
Structure prediction by ZEFSAII (Michael W. Deem and Ramdas Pophale) SiO2 
 PCOD8247221
Probable space group: P B C N
;
_chemical_formula_sum "Si O2"
_cell_formula_units_Z 44
_cell_length_a 20.764697
_cell_length_b 20.431528
_cell_length_c 5.324062
_cell_angle_alpha 90.000000
_cell_angle_beta 90.000000
_cell_angle_gamma 90.000000
_cell_volume 2258.757199
_symmetry_space_group_name_H-M "P B C N"
_symmetry_group_IT_number 60
_symmetry_cell_setting 'orthorhombic'
loop_
_space_group_symop_operation_xyz
x,y,z
1/2-x,1/2-y,1/2+z
1/2+x,1/2-y,-z
-x,y,1/2-z
-x,-y,-z
1/2+x,1/2+y,1/2-z
1/2-x,1/2+y,z
x,-y,1/2+z
loop_
_atom_site_type_symbol
_atom_site_label
_atom_site_fract_x
_atom_site_fract_y
_atom_site_fract_z
Si Si1 0.000000 0.346522 0.250000
Si Si2 0.926880 0.532283 0.889343
Si Si3 0.747555 0.164794 0.494307
Si Si4 0.465007 0.720571 0.494424
Si Si5 0.215496 0.477908 0.567090
Si Si6 0.318020 0.698898 0.504608
O O1 0.944255 0.390482 0.382734
O O2 0.033798 0.299910 0.459217
O O3 0.957416 0.502244 0.633699
O O4 0.850485 0.518977 0.888078
O O5 0.704779 0.099241 0.473261
O O6 0.698412 0.224467 0.488922
O O7 0.787661 0.163123 0.753415
O O8 0.794604 0.167124 0.254989
O O9 0.500000 0.700190 0.750000
O O10 0.394078 0.691616 0.514758
O O11 0.500000 0.688429 0.250000
O O12 0.253795 0.508566 0.328341
#
# Coordination Sequence:
#
# PCOD8247221 Si02
#       6
#     4   8   8   8   8   8
#     4  10  24  34  54  76 120 156 200 230 266 334
#     4  10  22  34  48  72 109 156 199 227 269 316
#     4  10  21  37  58  80 112 153 205 245 288 343
#     4  10  23  35  57  83 115 148 194 240 289 335
#     4  10  21  34  54  81 111 149 189 238 289 337
#     4  10  21  38  58  81 110 155 199 251 293 336
#
# _framework density 19.479737
#
# number of rings (size 3 to 8) (size 9 to 14) (size 15 to 20)
#    0.545    1.455    0.000    2.727    7.636    1.455 
#    3.273    0.000    0.000    0.000    0.000    0.000 
#    0.000   50.909    0.000    0.000    0.000    0.000 
#
# Total GULP energy -545278.552384 kJ/mol
# GULP energy per Si atom -12392.694372 kJ/mol
# Density = 1.943540 g / cm^3
# Si number density = 19.479737 Si / 1000 Ang^3
#
#
#
# Elastic Constant Matrix: (Units=GPa)
#
#
# Indices 1 2 3 4 5 6 
#
# 1 85.5246 4.0501 27.3721 0.0000 0.0000 0.0000
# 2 4.0501 56.3339 9.3229 0.0000 0.0000 0.0000
# 3 27.3721 9.3229 177.8098 0.0000 0.0000 0.0000
# 4 0.0000 0.0000 0.0000 16.5769 0.0000 0.0000
# 5 0.0000 0.0000 0.0000 0.0000 19.9187 0.0000
# 6 0.0000 0.0000 0.0000 0.0000 0.0000 16.3753
#
#
#
# Elastic Compliance Matrix: (Units=1/GPa)
#
#
# Indices 1 2 3 4 5 6 
#
# 1 0.012317 -0.000577 -0.001866 0.000000 0.000000 0.000000
# 2 -0.000577 0.017934 -0.000852 0.000000 0.000000 0.000000
# 3 -0.001866 -0.000852 0.005956 0.000000 0.000000 0.000000
# 4 0.000000 0.000000 0.000000 0.060325 0.000000 0.000000
# 5 0.000000 0.000000 0.000000 0.000000 0.050204 0.000000
# 6 0.000000 0.000000 0.000000 0.000000 0.000000 0.061068
#
#
# Mechanical properties :
#
#
# Convention : Reuss Voigt Hill
#
# Bulk Modulus (GPa) = 33.76282 44.57315 39.16799
# Shear Modulus (GPa) = 22.29516 29.16907 25.73212
#
# Velocity S-wave (km/s) = 3.38676 3.87383 3.63846
# Velocity P-wave (km/s) = 5.71519 6.55288 6.14832
#
# Compressibility (1/GPa) = 0.02961838
#
# Stress axis : x y z
#
# Youngs Moduli (GPa) = 81.18848 55.76102 167.90180
#
# Poissons Ratio (x) = 0.03216 0.31328
# Poissons Ratio (y) = 0.04682 0.14297
# Poissons Ratio (z) = 0.15149 0.04748
#
# Static dielectric constant tensor:
#      x y z
#    x 3.203570 0.000000 0.000000 
#    y 0.000000 3.206360 0.000000 
#    z 0.000000 0.000000 4.531140 
# 
# 
# High freq. dielectric constant tensor:
#      x y z
#    x 1.731150 0.000000 0.000000 
#    y 0.000000 1.721970 0.000000 
#    z 0.000000 0.000000 1.795790 
# 
# From -- ./inp_files/1731.got.cif
#   From: 2010.03.12/outbox.cif.g09.slc.cpg/sg60_1_cif.got.tgz:1731.got - 2010.04.10 18:46:24.
