data_PCOD8247414
_publ_section_title
;
Structure prediction by ZEFSAII (Michael W. Deem and Ramdas Pophale) SiO2 
 PCOD8247414
Probable space group: P B C N
;
_chemical_formula_sum "Si O2"
_cell_formula_units_Z 60
_cell_length_a 19.574430
_cell_length_b 9.079321
_cell_length_c 16.604794
_cell_angle_alpha 90.000000
_cell_angle_beta 90.000000
_cell_angle_gamma 90.000000
_cell_volume 2951.046056
_symmetry_space_group_name_H-M "P B C N"
_symmetry_group_IT_number 60
_symmetry_cell_setting 'orthorhombic'
loop_
_space_group_symop_operation_xyz
x,y,z
1/2-x,1/2-y,1/2+z
1/2+x,1/2-y,-z
-x,y,1/2-z
-x,-y,-z
1/2+x,1/2+y,1/2-z
1/2-x,1/2+y,z
x,-y,1/2+z
loop_
_atom_site_type_symbol
_atom_site_label
_atom_site_fract_x
_atom_site_fract_y
_atom_site_fract_z
Si Si1 0.582650 0.619587 0.528041
Si Si2 0.199292 0.382013 0.394783
Si Si3 0.300783 0.729532 0.633579
Si Si4 0.704161 0.822284 0.517000
Si Si5 0.258908 0.527895 0.243798
Si Si6 0.500000 0.471157 0.750000
Si Si7 0.441192 0.385032 0.101728
Si Si8 0.119442 0.870324 0.848688
O O1 0.627475 0.762770 0.510457
O O2 0.575249 0.537429 0.443432
O O3 0.510066 0.679781 0.561093
O O4 0.620150 0.508740 0.590557
O O5 0.199631 0.503286 0.465626
O O6 0.259898 0.264476 0.409891
O O7 0.207294 0.459056 0.308571
O O8 0.129071 0.285407 0.395602
O O9 0.245177 0.705557 0.564504
O O10 0.286280 0.879468 0.680984
O O11 0.298715 0.596700 0.695845
O O12 0.377758 0.729372 0.596149
O O13 0.317045 0.623589 0.287210
O O14 0.545646 0.577789 0.805094
O O15 0.547734 0.364853 0.697238
#
# Coordination Sequence:
#
# PCOD8247414 Si02
#       8
#     8   8   8   8   8   4   8   8
#     4  10  22  40  66  90 123 167 219 262 311 388
#     4  12  22  38  62  89 125 162 214 256 317 380
#     4  12  24  38  62  95 129 161 210 272 324 372
#     4  12  23  39  63  93 124 166 211 268 318 379
#     4  12  22  37  60  91 126 162 207 263 320 380
#     4  10  22  36  66  86 128 164 210 256 320 378
#     4  10  21  39  63  94 123 167 215 263 315 381
#     4  11  21  40  61  91 122 167 209 262 315 385
#
# _framework density 20.331773999999999
#
# number of rings (size 3 to 8) (size 9 to 14) (size 15 to 20)
#    0.000    0.800    5.333    3.200    0.000    0.000 
#    0.000    1.333    0.000   12.000    0.000    0.000 
#    0.000    0.000    0.000    0.000    0.000    0.000 
#
# Total GULP energy -744060.069765 kJ/mol
# GULP energy per Si atom -12401.001163 kJ/mol
# Density = 2.028550 g / cm^3
# Si number density = 20.331774 Si / 1000 Ang^3
#
#
#
# Elastic Constant Matrix: (Units=GPa)
#
#
# Indices 1 2 3 4 5 6 
#
# 1 80.8214 1.1769 -0.2486 0.0000 0.0000 0.0000
# 2 1.1769 36.5373 -13.8828 0.0000 0.0000 0.0000
# 3 -0.2486 -13.8828 68.5300 0.0000 0.0000 0.0000
# 4 0.0000 0.0000 0.0000 25.1754 0.0000 0.0000
# 5 0.0000 0.0000 0.0000 0.0000 30.0609 0.0000
# 6 0.0000 0.0000 0.0000 0.0000 0.0000 36.7775
#
#
#
# Elastic Compliance Matrix: (Units=1/GPa)
#
#
# Indices 1 2 3 4 5 6 
#
# 1 0.012379 -0.000413 -0.000039 0.000000 0.000000 0.000000
# 2 -0.000413 0.029665 0.006008 0.000000 0.000000 0.000000
# 3 -0.000039 0.006008 0.015809 0.000000 0.000000 0.000000
# 4 0.000000 0.000000 0.000000 0.039721 0.000000 0.000000
# 5 0.000000 0.000000 0.000000 0.000000 0.033266 0.000000
# 6 0.000000 0.000000 0.000000 0.000000 0.000000 0.027191
#
#
# Mechanical properties :
#
#
# Convention : Reuss Voigt Hill
#
# Bulk Modulus (GPa) = 14.50009 17.77551 16.13780
# Shear Modulus (GPa) = 29.42770 31.65897 30.54334
#
# Velocity S-wave (km/s) = 3.80857 3.95031 3.88009
# Velocity P-wave (km/s) = 5.14660 5.43768 5.29414
#
# Compressibility (1/GPa) = 0.06896508
#
# Stress axis : x y z
#
# Youngs Moduli (GPa) = 80.78285 33.70923 63.25452
#
# Poissons Ratio (x) = 0.01394 0.00246
# Poissons Ratio (y) = 0.03340 -0.38004
# Poissons Ratio (z) = 0.00314 -0.20253
#
# Static dielectric constant tensor:
#      x y z
#    x 3.779250 0.000000 0.000000 
#    y 0.000000 3.590060 0.000000 
#    z 0.000000 0.000000 3.935810 
# 
# 
# High freq. dielectric constant tensor:
#      x y z
#    x 1.791110 0.000000 0.000000 
#    y 0.000000 1.770190 0.000000 
#    z 0.000000 0.000000 1.812560 
# 
# From -- ./inp_files/20891.got.cif
#   From: 2010.03.12/outbox.cif.g09.slc.cpg/sg60_11_cif.got.tgz:20891.got - 2010.04.10 18:46:24.
