data_PCOD8247129
_publ_section_title
;
Structure prediction by ZEFSAII (Michael W. Deem and Ramdas Pophale) SiO2 
 PCOD8247129
Probable space group: P B C N
;
_chemical_formula_sum "Si O2"
_cell_formula_units_Z 56
_cell_length_a 8.842910
_cell_length_b 19.035881
_cell_length_c 16.244753
_cell_angle_alpha 90.000000
_cell_angle_beta 90.000000
_cell_angle_gamma 90.000000
_cell_volume 2734.521224
_symmetry_space_group_name_H-M "P B C N"
_symmetry_group_IT_number 60
_symmetry_cell_setting 'orthorhombic'
loop_
_space_group_symop_operation_xyz
x,y,z
1/2-x,1/2-y,1/2+z
1/2+x,1/2-y,-z
-x,y,1/2-z
-x,-y,-z
1/2+x,1/2+y,1/2-z
1/2-x,1/2+y,z
x,-y,1/2+z
loop_
_atom_site_type_symbol
_atom_site_label
_atom_site_fract_x
_atom_site_fract_y
_atom_site_fract_z
Si Si1 0.500000 0.881812 0.750000
Si Si2 0.815068 0.438176 0.484037
Si Si3 0.763812 0.699157 0.360344
Si Si4 0.855282 0.399505 0.004457
Si Si5 0.321290 0.601376 0.829638
Si Si6 0.000000 0.840790 0.750000
Si Si7 0.839749 0.854623 0.347023
Si Si8 0.773251 0.942003 0.661891
O O1 0.608579 0.831093 0.800689
O O2 0.599063 0.932399 0.691177
O O3 0.837932 0.521139 0.472515
O O4 0.727094 0.414887 0.403855
O O5 0.714454 0.427542 0.564993
O O6 0.964509 0.389485 0.491896
O O7 0.766584 0.652588 0.443241
O O8 0.597602 0.702381 0.317357
O O9 0.804130 0.778458 0.384171
O O10 0.793860 0.384351 0.096081
O O11 0.481820 0.634541 0.849978
O O12 0.267471 0.637582 0.744426
O O13 0.333583 0.518397 0.813936
O O14 0.120320 0.886577 0.796920
#
# Coordination Sequence:
#
# PCOD8247129 Si02
#       8
#     4   8   8   8   8   4   8   8
#     4  10  20  40  68  88 134 166 212 264 328 392
#     4  10  23  41  64  95 129 166 219 267 327 381
#     4  11  24  43  64  95 131 173 214 270 329 395
#     4  10  23  42  65  97 128 166 219 272 319 389
#     4  10  24  41  65  93 127 166 212 269 327 383
#     4  10  24  38  66  96 124 168 226 264 318 396
#     4  11  25  43  62  92 132 174 211 266 334 390
#     4  10  21  40  66 100 122 168 215 273 323 380
#
# _framework density 20.478905999999998
#
# number of rings (size 3 to 8) (size 9 to 14) (size 15 to 20)
#    0.000    1.714    1.429    1.714    8.000    4.000 
#    5.143    0.000    0.000    0.000    0.000    0.000 
#    0.000    0.000    0.000    0.000    0.000    0.000 
#
# Total GULP energy -694343.068055 kJ/mol
# GULP energy per Si atom -12398.983358 kJ/mol
# Density = 2.043230 g / cm^3
# Si number density = 20.478906 Si / 1000 Ang^3
#
#
#
# Elastic Constant Matrix: (Units=GPa)
#
#
# Indices 1 2 3 4 5 6 
#
# 1 74.5278 27.4583 32.8556 0.0000 0.0000 0.0000
# 2 27.4583 84.2334 35.5679 0.0000 0.0000 0.0000
# 3 32.8556 35.5679 111.8334 0.0000 0.0000 0.0000
# 4 0.0000 0.0000 0.0000 26.0769 0.0000 0.0000
# 5 0.0000 0.0000 0.0000 0.0000 27.3865 0.0000
# 6 0.0000 0.0000 0.0000 0.0000 0.0000 50.5349
#
#
#
# Elastic Compliance Matrix: (Units=1/GPa)
#
#
# Indices 1 2 3 4 5 6 
#
# 1 0.016418 -0.003830 -0.003606 0.000000 0.000000 0.000000
# 2 -0.003830 0.014607 -0.003520 0.000000 0.000000 0.000000
# 3 -0.003606 -0.003520 0.011121 0.000000 0.000000 0.000000
# 4 0.000000 0.000000 0.000000 0.038348 0.000000 0.000000
# 5 0.000000 0.000000 0.000000 0.000000 0.036514 0.000000
# 6 0.000000 0.000000 0.000000 0.000000 0.000000 0.019788
#
#
# Mechanical properties :
#
#
# Convention : Reuss Voigt Hill
#
# Bulk Modulus (GPa) = 49.42036 51.37312 50.39674
# Shear Modulus (GPa) = 30.22014 32.44717 31.33366
#
# Velocity S-wave (km/s) = 3.84561 3.98479 3.91582
# Velocity P-wave (km/s) = 6.62594 6.80528 6.71621
#
# Compressibility (1/GPa) = 0.02023457
#
# Stress axis : x y z
#
# Youngs Moduli (GPa) = 60.90787 68.46201 89.92141
#
# Poissons Ratio (x) = 0.26218 0.32422
# Poissons Ratio (y) = 0.23325 0.31657
# Poissons Ratio (z) = 0.21961 0.24102
#
# Static dielectric constant tensor:
#      x y z
#    x 3.827370 0.000000 0.000000 
#    y 0.000000 3.571150 0.000000 
#    z 0.000000 0.000000 3.885410 
# 
# 
# High freq. dielectric constant tensor:
#      x y z
#    x 1.803370 0.000000 0.000000 
#    y 0.000000 1.791800 0.000000 
#    z 0.000000 0.000000 1.812440 
# 
# From -- ./inp_files/15309.got.cif
#   From: 2010.03.12/outbox.cif.g09.slc.cpg/sg60_8_cif.got.tgz:15309.got - 2010.04.10 18:46:24.
