data_PCOD8247822
_publ_section_title
;
Structure prediction by ZEFSAII (Michael W. Deem and Ramdas Pophale) SiO2 
 PCOD8247822
Probable space group: P B C N
;
_chemical_formula_sum "Si O2"
_cell_formula_units_Z 52
_cell_length_a 20.131602
_cell_length_b 5.047210
_cell_length_c 22.799799
_cell_angle_alpha 90.000000
_cell_angle_beta 90.000000
_cell_angle_gamma 90.000000
_cell_volume 2316.651620
_symmetry_space_group_name_H-M "P B C N"
_symmetry_group_IT_number 60
_symmetry_cell_setting 'orthorhombic'
loop_
_space_group_symop_operation_xyz
x,y,z
1/2-x,1/2-y,1/2+z
1/2+x,1/2-y,-z
-x,y,1/2-z
-x,-y,-z
1/2+x,1/2+y,1/2-z
1/2-x,1/2+y,z
x,-y,1/2+z
loop_
_atom_site_type_symbol
_atom_site_label
_atom_site_fract_x
_atom_site_fract_y
_atom_site_fract_z
Si Si1 0.000000 0.493553 0.250000
Si Si2 0.980333 0.686170 0.123568
Si Si3 0.708649 0.701293 0.188567
Si Si4 0.371882 0.303250 0.122892
Si Si5 0.368348 0.807633 0.199230
Si Si6 0.399795 0.303750 0.905772
Si Si7 0.294426 0.256679 0.005552
O O1 0.979953 0.677949 0.194779
O O2 0.939565 0.302163 0.268357
O O3 0.959341 0.407847 0.094637
O O4 0.929497 0.905535 0.101435
O O5 0.054085 0.743352 0.099512
O O6 0.767921 0.904862 0.174225
O O7 0.689581 0.731000 0.256328
O O8 0.646485 0.772534 0.148614
O O9 0.353171 0.100521 0.174880
O O10 0.317810 0.273740 0.072358
O O11 0.369089 0.602396 0.145967
O O12 0.358898 0.295130 0.965619
O O13 0.238905 0.475728 0.991885
#
# Coordination Sequence:
#
# PCOD8247822 Si02
#       7
#     4   8   8   8   8   8   8
#     4  10  22  42  68 102 140 182 214 264 358 410
#     4  11  24  40  71 103 141 171 221 285 338 416
#     4  12  25  40  62  95 135 172 222 279 333 398
#     4  11  26  43  68 105 131 179 229 279 342 404
#     4  11  24  41  67  99 135 177 223 277 338 412
#     4  12  25  44  69 101 131 185 226 281 337 403
#     4  12  27  49  73  93 135 188 234 284 337 405
#
# _framework density 22.446186999999998
#
# number of rings (size 3 to 8) (size 9 to 14) (size 15 to 20)
#    0.000    0.615    1.538    6.462    4.308    6.154 
#    0.000    0.000    0.000    0.000    0.000    0.000 
#    0.000    0.000    0.000    0.000    0.000    0.000 
#
# Total GULP energy -645248.034347 kJ/mol
# GULP energy per Si atom -12408.616045 kJ/mol
# Density = 2.239510 g / cm^3
# Si number density = 22.446187 Si / 1000 Ang^3
#
#
#
# Elastic Constant Matrix: (Units=GPa)
#
#
# Indices 1 2 3 4 5 6 
#
# 1 54.4926 18.5274 9.6874 0.0000 0.0000 0.0000
# 2 18.5274 92.3431 12.8682 0.0000 0.0000 0.0000
# 3 9.6874 12.8682 61.8076 0.0000 0.0000 0.0000
# 4 0.0000 0.0000 0.0000 29.2190 0.0000 0.0000
# 5 0.0000 0.0000 0.0000 0.0000 52.0138 0.0000
# 6 0.0000 0.0000 0.0000 0.0000 0.0000 28.6522
#
#
#
# Elastic Compliance Matrix: (Units=1/GPa)
#
#
# Indices 1 2 3 4 5 6 
#
# 1 0.020026 -0.003688 -0.002371 0.000000 0.000000 0.000000
# 2 -0.003688 0.011832 -0.001885 0.000000 0.000000 0.000000
# 3 -0.002371 -0.001885 0.016943 0.000000 0.000000 0.000000
# 4 0.000000 0.000000 0.000000 0.034224 0.000000 0.000000
# 5 0.000000 0.000000 0.000000 0.000000 0.019226 0.000000
# 6 0.000000 0.000000 0.000000 0.000000 0.000000 0.034901
#
#
# Mechanical properties :
#
#
# Convention : Reuss Voigt Hill
#
# Bulk Modulus (GPa) = 30.38269 32.31213 31.34741
# Shear Modulus (GPa) = 30.48553 33.14768 31.81661
#
# Velocity S-wave (km/s) = 3.68932 3.84704 3.76900
# Velocity P-wave (km/s) = 5.63146 5.84462 5.73903
#
# Compressibility (1/GPa) = 0.03291348
#
# Stress axis : x y z
#
# Youngs Moduli (GPa) = 49.93402 84.51813 59.02002
#
# Poissons Ratio (x) = 0.31167 0.13994
# Poissons Ratio (y) = 0.18414 0.11127
# Poissons Ratio (z) = 0.11840 0.15935
#
# Static dielectric constant tensor:
#      x y z
#    x 4.179220 0.000000 0.000000 
#    y 0.000000 4.010950 0.000000 
#    z 0.000000 0.000000 3.951580 
# 
# 
# High freq. dielectric constant tensor:
#      x y z
#    x 1.896170 0.000000 0.000000 
#    y 0.000000 1.893730 0.000000 
#    z 0.000000 0.000000 1.877650 
# 
# From -- ./inp_files/23198.got.cif
#   From: 2010.03.12/outbox.cif.g09.slc.cpg/sg60_12_cif.got.tgz:23198.got - 2010.04.10 18:46:24.
