data_PCOD8247341
_publ_section_title
;
Structure prediction by ZEFSAII (Michael W. Deem and Ramdas Pophale) SiO2 
 PCOD8247341
Probable space group: P B C N
;
_chemical_formula_sum "Si O2"
_cell_formula_units_Z 64
_cell_length_a 8.929217
_cell_length_b 15.512677
_cell_length_c 20.599113
_cell_angle_alpha 90.000000
_cell_angle_beta 90.000000
_cell_angle_gamma 90.000000
_cell_volume 2853.307955
_symmetry_space_group_name_H-M "P B C N"
_symmetry_group_IT_number 60
_symmetry_cell_setting 'orthorhombic'
loop_
_space_group_symop_operation_xyz
x,y,z
1/2-x,1/2-y,1/2+z
1/2+x,1/2-y,-z
-x,y,1/2-z
-x,-y,-z
1/2+x,1/2+y,1/2-z
1/2-x,1/2+y,z
x,-y,1/2+z
loop_
_atom_site_type_symbol
_atom_site_label
_atom_site_fract_x
_atom_site_fract_y
_atom_site_fract_z
Si Si1 0.701974 0.300451 0.422023
Si Si2 0.627873 0.028374 0.920811
Si Si3 0.433520 0.569783 0.391397
Si Si4 0.664497 0.325129 0.275139
Si Si5 0.806637 0.441807 0.053023
Si Si6 0.344549 0.677495 0.281493
Si Si7 0.915770 0.178532 0.496669
Si Si8 0.797161 0.983186 0.804850
O O1 0.742828 0.400407 0.429551
O O2 0.675887 0.280729 0.346186
O O3 0.843221 0.247293 0.448337
O O4 0.552199 0.279343 0.463068
O O5 0.462973 0.069962 0.908228
O O6 0.668595 0.969616 0.858732
O O7 0.636209 0.966235 0.981723
O O8 0.293825 0.512344 0.411620
O O9 0.365641 0.655593 0.357598
O O10 0.527402 0.596760 0.454800
O O11 0.537844 0.520663 0.338654
O O12 0.500000 0.332169 0.250000
O O13 0.745139 0.262583 0.224081
O O14 0.729359 0.422358 0.273409
O O15 0.709361 0.354585 0.047773
O O16 0.500000 0.703764 0.250000
O O17 0.275377 0.592113 0.247401
#
# Coordination Sequence:
#
# PCOD8247341 Si02
#       8
#     8   8   8   8   8   8   8   8
#     4  11  24  41  62  94 132 169 218 271 331 399
#     4  10  21  38  61  93 128 163 211 264 322 391
#     4  11  21  40  67  94 128 175 222 266 334 414
#     4  11  24  43  65  94 127 171 223 276 330 391
#     4  11  21  37  64  94 129 168 207 262 329 396
#     4  10  23  43  66  93 126 177 225 271 333 397
#     4  12  23  40  65  97 134 172 215 272 340 401
#     4  10  21  43  68  90 129 175 223 269 330 395
#
# _framework density 22.430108000000001
#
# number of rings (size 3 to 8) (size 9 to 14) (size 15 to 20)
#    0.000    1.250    2.500    5.250    0.000    2.000 
#    2.250   10.625    0.000    0.000    0.000    0.000 
#    0.000    0.000    0.000    0.000    0.000    0.000 
#
# Total GULP energy -793633.804135 kJ/mol
# GULP energy per Si atom -12400.528190 kJ/mol
# Density = 2.237906 g / cm^3
# Si number density = 22.430108 Si / 1000 Ang^3
#
#
#
# Elastic Constant Matrix: (Units=GPa)
#
#
# Indices 1 2 3 4 5 6 
#
# 1 78.1892 7.9080 19.9660 0.0000 0.0000 0.0000
# 2 7.9080 70.4307 5.1283 0.0000 0.0000 0.0000
# 3 19.9660 5.1283 32.0368 0.0000 0.0000 0.0000
# 4 0.0000 0.0000 0.0000 5.3620 0.0000 0.0000
# 5 0.0000 0.0000 0.0000 0.0000 32.6451 0.0000
# 6 0.0000 0.0000 0.0000 0.0000 0.0000 23.6083
#
#
#
# Elastic Compliance Matrix: (Units=1/GPa)
#
#
# Indices 1 2 3 4 5 6 
#
# 1 0.015284 -0.001035 -0.009360 0.000000 0.000000 0.000000
# 2 -0.001035 0.014436 -0.001666 0.000000 0.000000 0.000000
# 3 -0.009360 -0.001666 0.037314 0.000000 0.000000 0.000000
# 4 0.000000 0.000000 0.000000 0.186496 0.000000 0.000000
# 5 0.000000 0.000000 0.000000 0.000000 0.030632 0.000000
# 6 0.000000 0.000000 0.000000 0.000000 0.000000 0.042358
#
#
# Mechanical properties :
#
#
# Convention : Reuss Voigt Hill
#
# Bulk Modulus (GPa) = 23.30286 27.40679 25.35482
# Shear Modulus (GPa) = 13.70066 22.16671 17.93369
#
# Velocity S-wave (km/s) = 2.47415 3.14707 2.83067
# Velocity P-wave (km/s) = 4.30970 5.04486 4.69170
#
# Compressibility (1/GPa) = 0.04291319
#
# Stress axis : x y z
#
# Youngs Moduli (GPa) = 65.42700 69.27212 26.79957
#
# Poissons Ratio (x) = 0.07167 0.25084
# Poissons Ratio (y) = 0.06769 0.04465
# Poissons Ratio (z) = 0.61238 0.11541
#
# Static dielectric constant tensor:
#      x y z
#    x 4.257490 0.000000 0.000000 
#    y 0.000000 3.870880 0.000000 
#    z 0.000000 0.000000 3.693360 
# 
# 
# High freq. dielectric constant tensor:
#      x y z
#    x 1.886620 0.000000 0.000000 
#    y 0.000000 1.871720 0.000000 
#    z 0.000000 0.000000 1.881940 
# 
# From -- ./inp_files/22382.got.cif
#   From: 2010.03.12/outbox.cif.g09.slc.cpg/sg60_12_cif.got.tgz:22382.got - 2010.04.10 18:46:24.
