data_PCOD8247171
_publ_section_title
;
Structure prediction by ZEFSAII (Michael W. Deem and Ramdas Pophale) SiO2 
 PCOD8247171
Probable space group: P B C N
;
_chemical_formula_sum "Si O2"
_cell_formula_units_Z 56
_cell_length_a 21.664087
_cell_length_b 11.919025
_cell_length_c 8.540198
_cell_angle_alpha 90.000000
_cell_angle_beta 90.000000
_cell_angle_gamma 90.000000
_cell_volume 2205.205472
_symmetry_space_group_name_H-M "P B C N"
_symmetry_group_IT_number 60
_symmetry_cell_setting 'orthorhombic'
loop_
_space_group_symop_operation_xyz
x,y,z
1/2-x,1/2-y,1/2+z
1/2+x,1/2-y,-z
-x,y,1/2-z
-x,-y,-z
1/2+x,1/2+y,1/2-z
1/2-x,1/2+y,z
x,-y,1/2+z
loop_
_atom_site_type_symbol
_atom_site_label
_atom_site_fract_x
_atom_site_fract_y
_atom_site_fract_z
Si Si1 0.900943 0.640201 0.961915
Si Si2 0.637879 0.458387 0.096008
Si Si3 0.271506 0.880368 0.449331
Si Si4 0.946098 0.056438 0.850961
Si Si5 0.520937 0.259919 0.584470
Si Si6 0.657774 0.051386 0.259849
Si Si7 0.147799 0.785472 0.795656
O O1 0.881839 0.630108 0.144015
O O2 0.886534 0.529144 0.861187
O O3 0.864564 0.748393 0.886188
O O4 0.975196 0.657584 0.958561
O O5 0.698310 0.396326 0.034129
O O6 0.606178 0.388575 0.237204
O O7 0.648768 0.582867 0.169295
O O8 0.588166 0.463994 0.956524
O O9 0.300012 0.875392 0.623319
O O10 0.287621 0.765047 0.358936
O O11 0.295526 0.983635 0.348790
O O12 0.000000 0.995239 0.750000
O O13 0.982356 0.148763 0.948881
O O14 0.500000 0.313623 0.750000
O O15 0.592700 0.222659 0.604906
#
# Coordination Sequence:
#
# PCOD8247171 Si02
#       7
#     8   8   8   8   8   8   8
#     4   9  18  37  65  97 139 182 224 279 343 404
#     4  11  24  44  68  95 131 178 224 283 352 411
#     4  10  20  42  65  91 132 174 225 281 337 404
#     4  11  25  43  66  96 131 172 223 281 345 416
#     4   9  20  42  67  99 141 181 223 280 343 411
#     4   9  19  37  64  96 132 178 227 281 336 402
#     4   9  21  41  65  94 133 177 225 283 343 406
#
# _framework density 25.394461
#
# number of rings (size 3 to 8) (size 9 to 14) (size 15 to 20)
#    0.000    2.286    0.000    1.286    0.000   10.286 
#    0.000   36.429    0.000    0.000    0.000    0.000 
#    0.000    0.000    0.000    0.000    0.000    0.000 
#
# Total GULP energy -694017.914952 kJ/mol
# GULP energy per Si atom -12393.177053 kJ/mol
# Density = 2.533666 g / cm^3
# Si number density = 25.394461 Si / 1000 Ang^3
#
#
#
# Elastic Constant Matrix: (Units=GPa)
#
#
# Indices 1 2 3 4 5 6 
#
# 1 154.6162 55.4519 77.1305 0.0000 0.0000 0.0000
# 2 55.4519 53.0641 24.7448 0.0000 0.0000 0.0000
# 3 77.1305 24.7448 155.1574 0.0000 0.0000 0.0000
# 4 0.0000 0.0000 0.0000 20.3217 0.0000 0.0000
# 5 0.0000 0.0000 0.0000 0.0000 44.6072 0.0000
# 6 0.0000 0.0000 0.0000 0.0000 0.0000 24.1488
#
#
#
# Elastic Compliance Matrix: (Units=1/GPa)
#
#
# Indices 1 2 3 4 5 6 
#
# 1 0.012761 -0.011211 -0.004556 0.000000 0.000000 0.000000
# 2 -0.011211 0.030208 0.000755 0.000000 0.000000 0.000000
# 3 -0.004556 0.000755 0.008589 0.000000 0.000000 0.000000
# 4 0.000000 0.000000 0.000000 0.049209 0.000000 0.000000
# 5 0.000000 0.000000 0.000000 0.000000 0.022418 0.000000
# 6 0.000000 0.000000 0.000000 0.000000 0.000000 0.041410
#
#
# Mechanical properties :
#
#
# Convention : Reuss Voigt Hill
#
# Bulk Modulus (GPa) = 46.43358 75.27692 60.85525
# Shear Modulus (GPa) = 24.77756 31.51623 28.14690
#
# Velocity S-wave (km/s) = 3.12702 3.52670 3.33286
# Velocity P-wave (km/s) = 5.60020 6.80374 6.23110
#
# Compressibility (1/GPa) = 0.02153614
#
# Stress axis : x y z
#
# Youngs Moduli (GPa) = 78.36462 33.10372 116.42419
#
# Poissons Ratio (x) = 0.37112 0.53039
# Poissons Ratio (y) = 0.87852 -0.08794
# Poissons Ratio (z) = 0.35700 -0.02500
#
# Static dielectric constant tensor:
#      x y z
#    x 4.715160 0.000000 0.000000 
#    y 0.000000 4.104580 0.000000 
#    z 0.000000 0.000000 5.024270 
# 
# 
# High freq. dielectric constant tensor:
#      x y z
#    x 2.018820 0.000000 0.000000 
#    y 0.000000 1.981560 0.000000 
#    z 0.000000 0.000000 2.034100 
# 
# From -- ./inp_files/7427.got.cif
#   From: 2010.03.12/outbox.cif.g09.slc.cpg/sg60_4_cif.got.tgz:7427.got - 2010.04.10 18:46:24.
