data_PCOD8247027
_publ_section_title
;
Structure prediction by ZEFSAII (Michael W. Deem and Ramdas Pophale) SiO2 
 PCOD8247027
Probable space group: P B C N
;
_chemical_formula_sum "Si O2"
_cell_formula_units_Z 60
_cell_length_a 25.668754
_cell_length_b 19.337521
_cell_length_c 5.284658
_cell_angle_alpha 90.000000
_cell_angle_beta 90.000000
_cell_angle_gamma 90.000000
_cell_volume 2623.146059
_symmetry_space_group_name_H-M "P B C N"
_symmetry_group_IT_number 60
_symmetry_cell_setting 'orthorhombic'
loop_
_space_group_symop_operation_xyz
x,y,z
1/2-x,1/2-y,1/2+z
1/2+x,1/2-y,-z
-x,y,1/2-z
-x,-y,-z
1/2+x,1/2+y,1/2-z
1/2-x,1/2+y,z
x,-y,1/2+z
loop_
_atom_site_type_symbol
_atom_site_label
_atom_site_fract_x
_atom_site_fract_y
_atom_site_fract_z
Si Si1 0.795462 0.472800 0.118688
Si Si2 0.303709 0.310821 0.073557
Si Si3 0.500000 0.740816 0.750000
Si Si4 0.912462 0.469604 0.254014
Si Si5 0.754870 0.336911 0.931023
Si Si6 0.916438 0.814993 0.597016
Si Si7 0.561529 0.537754 0.262099
Si Si8 0.443093 0.817747 0.133634
O O1 0.768529 0.478219 0.398816
O O2 0.854096 0.495714 0.194144
O O3 0.795281 0.398093 0.987600
O O4 0.290339 0.230231 0.064848
O O5 0.275350 0.347051 0.834022
O O6 0.365449 0.322972 0.074477
O O7 0.286417 0.341073 0.341591
O O8 0.471542 0.689894 0.552819
O O9 0.545917 0.791870 0.651163
O O10 0.940034 0.514050 0.481872
O O11 0.912670 0.389395 0.337485
O O12 0.921024 0.882044 0.775708
O O13 0.908602 0.743657 0.749032
O O14 0.500000 0.531357 0.250000
O O15 0.584419 0.499298 0.509779
O O16 0.500000 0.825921 0.250000
#
# Coordination Sequence:
#
# PCOD8247027 Si02
#       8
#     8   8   4   8   8   8   8   8
#     4  10  20  38  62  89 121 164 204 248 305 370
#     4  10  23  39  67  90 126 156 208 256 322 365
#     4  10  24  40  64  92 128 164 226 262 332 372
#     4  10  23  39  61  92 128 168 218 258 308 375
#     4  10  21  42  60  95 121 162 202 260 309 382
#     4  11  24  42  65  95 125 169 212 275 314 400
#     4  10  23  40  63  89 122 162 205 254 316 381
#     4  10  23  40  60  90 124 170 213 263 318 366
#
# _framework density 22.873294999999999
#
# number of rings (size 3 to 8) (size 9 to 14) (size 15 to 20)
#    0.000    1.867    0.000    2.800   10.267    0.533 
#    4.800    4.000    0.000    0.000    0.000    0.000 
#    0.000    0.000    0.000    0.000    0.000    0.000 
#
# Total GULP energy -743372.310625 kJ/mol
# GULP energy per Si atom -12389.538510 kJ/mol
# Density = 2.282123 g / cm^3
# Si number density = 22.873295 Si / 1000 Ang^3
#
#
#
# Elastic Constant Matrix: (Units=GPa)
#
#
# Indices 1 2 3 4 5 6 
#
# 1 38.9808 8.4046 7.8629 0.0000 0.0000 0.0000
# 2 8.4046 113.9743 39.4372 0.0000 0.0000 0.0000
# 3 7.8629 39.4372 139.2000 0.0000 0.0000 0.0000
# 4 0.0000 0.0000 0.0000 26.9904 0.0000 0.0000
# 5 0.0000 0.0000 0.0000 0.0000 17.7220 0.0000
# 6 0.0000 0.0000 0.0000 0.0000 0.0000 24.5525
#
#
#
# Elastic Compliance Matrix: (Units=1/GPa)
#
#
# Indices 1 2 3 4 5 6 
#
# 1 0.026202 -0.001574 -0.001034 0.000000 0.000000 0.000000
# 2 -0.001574 0.009822 -0.002694 0.000000 0.000000 0.000000
# 3 -0.001034 -0.002694 0.008006 0.000000 0.000000 0.000000
# 4 0.000000 0.000000 0.000000 0.037050 0.000000 0.000000
# 5 0.000000 0.000000 0.000000 0.000000 0.056427 0.000000
# 6 0.000000 0.000000 0.000000 0.000000 0.000000 0.040729
#
#
# Mechanical properties :
#
#
# Convention : Reuss Voigt Hill
#
# Bulk Modulus (GPa) = 29.91778 44.84050 37.37914
# Shear Modulus (GPa) = 25.00230 29.61634 27.30932
#
# Velocity S-wave (km/s) = 3.30976 3.60224 3.45909
# Velocity P-wave (km/s) = 5.26443 6.07848 5.68604
#
# Compressibility (1/GPa) = 0.03342494
#
# Stress axis : x y z
#
# Youngs Moduli (GPa) = 38.16555 101.81113 124.91407
#
# Poissons Ratio (x) = 0.16029 0.12916
# Poissons Ratio (y) = 0.06009 0.33649
# Poissons Ratio (z) = 0.03946 0.27426
#
# Static dielectric constant tensor:
#      x y z
#    x 3.619340 0.000000 0.000000 
#    y 0.000000 4.074030 0.000000 
#    z 0.000000 0.000000 4.842480 
# 
# 
# High freq. dielectric constant tensor:
#      x y z
#    x 1.865510 0.000000 0.000000 
#    y 0.000000 1.901320 0.000000 
#    z 0.000000 0.000000 1.923240 
# 
# From -- ./inp_files/2612.got.cif
#   From: 2010.03.12/outbox.cif.g09.slc.cpg/sg60_2_cif.got.tgz:2612.got - 2010.04.10 18:46:24.
