data_PCOD8247990
_publ_section_title
;
Structure prediction by ZEFSAII (Michael W. Deem and Ramdas Pophale) SiO2 
 PCOD8247990
Probable space group: P B C N
;
_chemical_formula_sum "Si O2"
_cell_formula_units_Z 32
_cell_length_a 7.043942
_cell_length_b 9.327569
_cell_length_c 21.189343
_cell_angle_alpha 90.000000
_cell_angle_beta 90.000000
_cell_angle_gamma 90.000000
_cell_volume 1392.200331
_symmetry_space_group_name_H-M "P B C N"
_symmetry_group_IT_number 60
_symmetry_cell_setting 'orthorhombic'
loop_
_space_group_symop_operation_xyz
x,y,z
1/2-x,1/2-y,1/2+z
1/2+x,1/2-y,-z
-x,y,1/2-z
-x,-y,-z
1/2+x,1/2+y,1/2-z
1/2-x,1/2+y,z
x,-y,1/2+z
loop_
_atom_site_type_symbol
_atom_site_label
_atom_site_fract_x
_atom_site_fract_y
_atom_site_fract_z
Si Si1 0.681363 0.379228 0.412676
Si Si2 0.405533 0.505658 0.317329
Si Si3 0.673914 0.106733 0.494328
Si Si4 0.891937 0.320554 0.129116
O O1 0.544867 0.398674 0.353866
O O2 0.615727 0.243061 0.452853
O O3 0.661855 0.519207 0.458047
O O4 0.891861 0.363029 0.383960
O O5 0.500000 0.531117 0.250000
O O6 0.201191 0.423928 0.317131
O O7 0.376431 0.657272 0.350300
O O8 0.732594 0.157391 0.564592
O O9 0.500000 0.000000 0.500000
#
# Coordination Sequence:
#
# PCOD8247990 Si02
#       4
#     8   8   8   8
#     4  11  24  47  72 109 150 191 238 308 373 428
#     4  12  30  47  73 104 149 200 246 295 363 450
#     4  10  23  42  74 110 146 185 241 303 371 433
#     4  11  27  47  73 110 140 193 248 305 369 434
#
# _framework density 22.985199000000001
#
# number of rings (size 3 to 8) (size 9 to 14) (size 15 to 20)
#    0.000    1.000    2.500    1.500   17.500    2.000 
#    0.000    0.000    0.000    0.000    0.000    0.000 
#    0.000    0.000    0.000    0.000    0.000    0.000 
#
# Total GULP energy -396749.964607 kJ/mol
# GULP energy per Si atom -12398.436394 kJ/mol
# Density = 2.293288 g / cm^3
# Si number density = 22.985199 Si / 1000 Ang^3
#
#
#
# Elastic Constant Matrix: (Units=GPa)
#
#
# Indices 1 2 3 4 5 6 
#
# 1 70.3188 27.4783 31.6161 0.0000 0.0000 0.0000
# 2 27.4783 166.6654 62.7911 0.0000 0.0000 0.0000
# 3 31.6161 62.7911 102.8830 0.0000 0.0000 0.0000
# 4 0.0000 0.0000 0.0000 26.6043 0.0000 0.0000
# 5 0.0000 0.0000 0.0000 0.0000 36.6306 0.0000
# 6 0.0000 0.0000 0.0000 0.0000 0.0000 23.2807
#
#
#
# Elastic Compliance Matrix: (Units=1/GPa)
#
#
# Indices 1 2 3 4 5 6 
#
# 1 0.016644 -0.001061 -0.004467 0.000000 0.000000 0.000000
# 2 -0.001061 0.007859 -0.004471 0.000000 0.000000 0.000000
# 3 -0.004467 -0.004471 0.013821 0.000000 0.000000 0.000000
# 4 0.000000 0.000000 0.000000 0.037588 0.000000 0.000000
# 5 0.000000 0.000000 0.000000 0.000000 0.027300 0.000000
# 6 0.000000 0.000000 0.000000 0.000000 0.000000 0.042954
#
#
# Mechanical properties :
#
#
# Convention : Reuss Voigt Hill
#
# Bulk Modulus (GPa) = 54.56514 64.84867 59.70691
# Shear Modulus (GPa) = 29.02380 31.83522 30.42951
#
# Velocity S-wave (km/s) = 3.55733 3.72564 3.64246
# Velocity P-wave (km/s) = 6.37680 6.83971 6.61231
#
# Compressibility (1/GPa) = 0.01832672
#
# Stress axis : x y z
#
# Youngs Moduli (GPa) = 60.08142 127.23816 72.35379
#
# Poissons Ratio (x) = 0.13502 0.32321
# Poissons Ratio (y) = 0.06376 0.32346
# Poissons Ratio (z) = 0.26839 0.56882
#
# Static dielectric constant tensor:
#      x y z
#    x 4.333990 0.000000 0.000000 
#    y 0.000000 4.435080 0.000000 
#    z 0.000000 0.000000 4.630490 
# 
# 
# High freq. dielectric constant tensor:
#      x y z
#    x 1.912290 0.000000 0.000000 
#    y 0.000000 1.927270 0.000000 
#    z 0.000000 0.000000 1.898690 
# 
# From -- ./inp_files/21878.got.cif
#   From: 2010.03.12/outbox.cif.g09.slc.cpg/sg60_11_cif.got.tgz:21878.got - 2010.04.10 18:46:24.
