data_PCOD8247986
_publ_section_title
;
Structure prediction by ZEFSAII (Michael W. Deem and Ramdas Pophale) SiO2 
 PCOD8247986
Probable space group: P B C N
;
_chemical_formula_sum "Si O2"
_cell_formula_units_Z 32
_cell_length_a 17.688781
_cell_length_b 5.572386
_cell_length_c 12.136354
_cell_angle_alpha 90.000000
_cell_angle_beta 90.000000
_cell_angle_gamma 90.000000
_cell_volume 1196.264826
_symmetry_space_group_name_H-M "P B C N"
_symmetry_group_IT_number 60
_symmetry_cell_setting 'orthorhombic'
loop_
_space_group_symop_operation_xyz
x,y,z
1/2-x,1/2-y,1/2+z
1/2+x,1/2-y,-z
-x,y,1/2-z
-x,-y,-z
1/2+x,1/2+y,1/2-z
1/2-x,1/2+y,z
x,-y,1/2+z
loop_
_atom_site_type_symbol
_atom_site_label
_atom_site_fract_x
_atom_site_fract_y
_atom_site_fract_z
Si Si1 0.722098 0.080892 0.813107
Si Si2 0.051694 0.533161 0.664618
Si Si3 0.220157 0.125883 0.930275
Si Si4 0.051092 0.194004 0.946923
O O1 0.730775 0.354026 0.870354
O O2 0.636272 0.990890 0.791974
O O3 0.750660 0.157763 0.693399
O O4 0.066370 0.612287 0.541036
O O5 0.000000 0.697351 0.750000
O O6 0.994308 0.303262 0.656680
O O7 0.240038 0.389347 0.987596
O O8 0.131238 0.080087 0.915852
O O9 0.000000 0.000000 0.000000
#
# Coordination Sequence:
#
# PCOD8247986 Si02
#       4
#     8   8   8   8
#     4  10  23  42  71 104 142 193 253 306 373 453
#     4  11  26  47  74 108 150 205 258 318 392 471
#     4  10  23  45  76 103 151 199 249 315 384 459
#     4  11  28  46  74 112 158 200 257 327 396 463
#
# _framework density 26.749928000000001
#
# number of rings (size 3 to 8) (size 9 to 14) (size 15 to 20)
#    0.000    1.500    0.000    3.000   17.500    3.000 
#    0.000    0.000    0.000    0.000    0.000    0.000 
#    0.000    0.000    0.000    0.000    0.000    0.000 
#
# Total GULP energy -396428.462248 kJ/mol
# GULP energy per Si atom -12388.389445 kJ/mol
# Density = 2.668904 g / cm^3
# Si number density = 26.749928 Si / 1000 Ang^3
#
#
#
# Elastic Constant Matrix: (Units=GPa)
#
#
# Indices 1 2 3 4 5 6 
#
# 1 270.1061 66.5082 22.9533 0.0000 0.0000 0.0000
# 2 66.5082 172.9410 34.6009 0.0000 0.0000 0.0000
# 3 22.9533 34.6009 57.1877 0.0000 0.0000 0.0000
# 4 0.0000 0.0000 0.0000 32.4647 0.0000 0.0000
# 5 0.0000 0.0000 0.0000 0.0000 43.2612 0.0000
# 6 0.0000 0.0000 0.0000 0.0000 0.0000 41.2424
#
#
#
# Elastic Compliance Matrix: (Units=1/GPa)
#
#
# Indices 1 2 3 4 5 6 
#
# 1 0.004121 -0.001426 -0.000791 0.000000 0.000000 0.000000
# 2 -0.001426 0.007072 -0.003707 0.000000 0.000000 0.000000
# 3 -0.000791 -0.003707 0.020046 0.000000 0.000000 0.000000
# 4 0.000000 0.000000 0.000000 0.030803 0.000000 0.000000
# 5 0.000000 0.000000 0.000000 0.000000 0.023115 0.000000
# 6 0.000000 0.000000 0.000000 0.000000 0.000000 0.024247
#
#
# Mechanical properties :
#
#
# Convention : Reuss Voigt Hill
#
# Bulk Modulus (GPa) = 51.56849 83.15107 67.35978
# Shear Modulus (GPa) = 39.14930 48.47183 43.81056
#
# Velocity S-wave (km/s) = 3.82976 4.26142 4.05134
# Velocity P-wave (km/s) = 6.23506 7.44077 6.86443
#
# Compressibility (1/GPa) = 0.01939169
#
# Stress axis : x y z
#
# Youngs Moduli (GPa) = 242.67757 141.39284 49.88442
#
# Poissons Ratio (x) = 0.20169 0.03945
# Poissons Ratio (y) = 0.34617 0.18490
# Poissons Ratio (z) = 0.19192 0.52409
#
# Static dielectric constant tensor:
#      x y z
#    x 4.996440 0.000000 0.000000 
#    y 0.000000 5.329610 0.000000 
#    z 0.000000 0.000000 4.463350 
# 
# 
# High freq. dielectric constant tensor:
#      x y z
#    x 2.075770 0.000000 0.000000 
#    y 0.000000 2.073290 0.000000 
#    z 0.000000 0.000000 2.136640 
# 
# From -- ./inp_files/17111.got.cif
#   From: 2010.03.12/outbox.cif.g09.slc.cpg/sg60_9_cif.got.tgz:17111.got - 2010.04.10 18:46:24.
