data_PCOD8247906
_publ_section_title
;
Structure prediction by ZEFSAII (Michael W. Deem and Ramdas Pophale) SiO2 
 PCOD8247906
Probable space group: P B C N
;
_chemical_formula_sum "Si O2"
_cell_formula_units_Z 56
_cell_length_a 20.974782
_cell_length_b 13.751175
_cell_length_c 8.746198
_cell_angle_alpha 90.000000
_cell_angle_beta 90.000000
_cell_angle_gamma 90.000000
_cell_volume 2522.647503
_symmetry_space_group_name_H-M "P B C N"
_symmetry_group_IT_number 60
_symmetry_cell_setting 'orthorhombic'
loop_
_space_group_symop_operation_xyz
x,y,z
1/2-x,1/2-y,1/2+z
1/2+x,1/2-y,-z
-x,y,1/2-z
-x,-y,-z
1/2+x,1/2+y,1/2-z
1/2-x,1/2+y,z
x,-y,1/2+z
loop_
_atom_site_type_symbol
_atom_site_label
_atom_site_fract_x
_atom_site_fract_y
_atom_site_fract_z
Si Si1 0.217822 0.903100 0.346305
Si Si2 0.795856 0.673689 0.138006
Si Si3 0.661173 0.900696 0.963829
Si Si4 0.319681 0.425904 0.014230
Si Si5 0.585008 0.910433 0.481846
Si Si6 0.500000 0.199691 0.750000
Si Si7 0.000000 0.337381 0.750000
Si Si8 0.079532 0.771618 0.011308
O O1 0.202740 0.790144 0.355506
O O2 0.285263 0.937712 0.418622
O O3 0.166718 0.967876 0.441115
O O4 0.217407 0.938481 0.172952
O O5 0.809969 0.624466 0.299592
O O6 0.725443 0.639920 0.092525
O O7 0.849444 0.646443 0.014221
O O8 0.634132 0.803349 0.039778
O O9 0.603000 0.977330 0.949549
O O10 0.388991 0.376920 0.035342
O O11 0.553465 0.868235 0.328155
O O12 0.535740 0.904179 0.624418
O O13 0.527539 0.273065 0.622728
O O14 0.051239 0.265989 0.671925
#
# Coordination Sequence:
#
# PCOD8247906 Si02
#       8
#     8   8   8   8   8   4   4   8
#     4  12  25  43  69 106 139 180 221 287 359 420
#     4  12  24  46  68 101 143 185 220 292 351 408
#     4  12  25  41  69 103 144 179 231 275 346 426
#     4  12  26  43  71 101 139 182 232 285 353 418
#     4  11  25  42  68 102 144 190 230 279 338 419
#     4  10  28  41  68 103 146 192 233 284 339 408
#     4  10  22  47  68  93 146 192 231 274 351 396
#     4  11  24  45  68 100 138 184 236 286 341 418
#
# _framework density 22.198900999999999
#
# number of rings (size 3 to 8) (size 9 to 14) (size 15 to 20)
#    0.000    0.571    5.714    0.857    4.000    5.714 
#    0.000    0.000    0.000   14.571    0.000    0.000 
#    0.000    0.000    0.000    0.000    0.000    0.000 
#
# Total GULP energy -694557.484252 kJ/mol
# GULP energy per Si atom -12402.812219 kJ/mol
# Density = 2.214838 g / cm^3
# Si number density = 22.198901 Si / 1000 Ang^3
#
#
#
# Elastic Constant Matrix: (Units=GPa)
#
#
# Indices 1 2 3 4 5 6 
#
# 1 79.6299 28.0783 34.9366 0.0000 0.0000 0.0000
# 2 28.0783 111.8305 51.3858 0.0000 0.0000 0.0000
# 3 34.9366 51.3858 128.5464 0.0000 0.0000 0.0000
# 4 0.0000 0.0000 0.0000 21.5082 0.0000 0.0000
# 5 0.0000 0.0000 0.0000 0.0000 28.5728 0.0000
# 6 0.0000 0.0000 0.0000 0.0000 0.0000 39.1756
#
#
#
# Elastic Compliance Matrix: (Units=1/GPa)
#
#
# Indices 1 2 3 4 5 6 
#
# 1 0.014716 -0.002275 -0.003090 0.000000 0.000000 0.000000
# 2 -0.002275 0.011306 -0.003901 0.000000 0.000000 0.000000
# 3 -0.003090 -0.003901 0.010179 0.000000 0.000000 0.000000
# 4 0.000000 0.000000 0.000000 0.046494 0.000000 0.000000
# 5 0.000000 0.000000 0.000000 0.000000 0.034998 0.000000
# 6 0.000000 0.000000 0.000000 0.000000 0.000000 0.025526
#
#
# Mechanical properties :
#
#
# Convention : Reuss Voigt Hill
#
# Bulk Modulus (GPa) = 56.59970 60.97870 58.78920
# Shear Modulus (GPa) = 29.82568 31.55838 30.69203
#
# Velocity S-wave (km/s) = 3.66944 3.77453 3.72236
# Velocity P-wave (km/s) = 6.59584 6.82092 6.70932
#
# Compressibility (1/GPa) = 0.01766794
#
# Stress axis : x y z
#
# Youngs Moduli (GPa) = 67.95304 88.44956 98.24521
#
# Poissons Ratio (x) = 0.20122 0.30359
# Poissons Ratio (y) = 0.15459 0.38327
# Poissons Ratio (z) = 0.20998 0.34506
#
# Static dielectric constant tensor:
#      x y z
#    x 4.070020 0.000000 0.000000 
#    y 0.000000 3.914810 0.000000 
#    z 0.000000 0.000000 4.160500 
# 
# 
# High freq. dielectric constant tensor:
#      x y z
#    x 1.869230 0.000000 0.000000 
#    y 0.000000 1.865830 0.000000 
#    z 0.000000 0.000000 1.887410 
# 
# From -- ./inp_files/7467.got.cif
#   From: 2010.03.12/outbox.cif.g09.slc.cpg/sg60_4_cif.got.tgz:7467.got - 2010.04.10 18:46:24.
