data_PCOD8247577
_publ_section_title
;
Structure prediction by ZEFSAII (Michael W. Deem and Ramdas Pophale) SiO2 
 PCOD8247577
Probable space group: P B C N
;
_chemical_formula_sum "Si O2"
_cell_formula_units_Z 48
_cell_length_a 28.513082
_cell_length_b 5.377130
_cell_length_c 12.170973
_cell_angle_alpha 90.000000
_cell_angle_beta 90.000000
_cell_angle_gamma 90.000000
_cell_volume 1866.035916
_symmetry_space_group_name_H-M "P B C N"
_symmetry_group_IT_number 60
_symmetry_cell_setting 'orthorhombic'
loop_
_space_group_symop_operation_xyz
x,y,z
1/2-x,1/2-y,1/2+z
1/2+x,1/2-y,-z
-x,y,1/2-z
-x,-y,-z
1/2+x,1/2+y,1/2-z
1/2-x,1/2+y,z
x,-y,1/2+z
loop_
_atom_site_type_symbol
_atom_site_label
_atom_site_fract_x
_atom_site_fract_y
_atom_site_fract_z
Si Si1 0.869300 0.522515 0.992912
Si Si2 0.769519 0.877538 0.694676
Si Si3 0.034517 0.689712 0.554243
Si Si4 0.129588 0.024407 0.369463
Si Si5 0.531202 0.533352 0.666186
Si Si6 0.231863 0.590055 0.063343
O O1 0.914854 0.570433 0.914502
O O2 0.877719 0.257851 0.050220
O O3 0.863526 0.754588 0.074995
O O4 0.821747 0.497981 0.922950
O O5 0.740550 0.106806 0.636697
O O6 0.824577 0.931560 0.703764
O O7 0.751286 0.830468 0.817753
O O8 0.000000 0.500000 0.500000
O O9 0.007841 0.809303 0.657820
O O10 0.043679 0.885833 0.456622
O O11 0.083539 0.026163 0.288408
O O12 0.500000 0.711208 0.750000
O O13 0.263040 0.366573 0.004802
#
# Coordination Sequence:
#
# PCOD8247577 Si02
#       6
#     8   8   8   8   8   8
#     4  11  23  40  68  94 127 177 219 269 345 401
#     4  10  22  40  59  86 129 163 209 269 322 385
#     4  10  21  44  66  96 138 175 227 291 338 415
#     4  11  23  41  64  95 131 168 218 274 339 400
#     4  10  23  42  67 100 134 181 226 280 350 410
#     4  10  22  40  60  91 126 165 220 263 323 397
#
# _framework density 25.722975999999999
#
# number of rings (size 3 to 8) (size 9 to 14) (size 15 to 20)
#    0.000    1.667    1.667    2.000    0.000    7.333 
#    6.000    0.000    0.000    0.000    0.000    0.000 
#    0.000    0.000    0.000    0.000    0.000    0.000 
#
# Total GULP energy -594636.606374 kJ/mol
# GULP energy per Si atom -12388.262633 kJ/mol
# Density = 2.566443 g / cm^3
# Si number density = 25.722976 Si / 1000 Ang^3
#
#
#
# Elastic Constant Matrix: (Units=GPa)
#
#
# Indices 1 2 3 4 5 6 
#
# 1 268.5131 45.1125 23.6986 0.0000 0.0000 0.0000
# 2 45.1125 165.0964 18.0491 0.0000 0.0000 0.0000
# 3 23.6986 18.0491 39.7152 0.0000 0.0000 0.0000
# 4 0.0000 0.0000 0.0000 15.6259 0.0000 0.0000
# 5 0.0000 0.0000 0.0000 0.0000 40.4087 0.0000
# 6 0.0000 0.0000 0.0000 0.0000 0.0000 44.0392
#
#
#
# Elastic Compliance Matrix: (Units=1/GPa)
#
#
# Indices 1 2 3 4 5 6 
#
# 1 0.004051 -0.000887 -0.002014 0.000000 0.000000 0.000000
# 2 -0.000887 0.006568 -0.002456 0.000000 0.000000 0.000000
# 3 -0.002014 -0.002456 0.027497 0.000000 0.000000 0.000000
# 4 0.000000 0.000000 0.000000 0.063996 0.000000 0.000000
# 5 0.000000 0.000000 0.000000 0.000000 0.024747 0.000000
# 6 0.000000 0.000000 0.000000 0.000000 0.000000 0.022707
#
#
# Mechanical properties :
#
#
# Convention : Reuss Voigt Hill
#
# Bulk Modulus (GPa) = 36.49286 71.89390 54.19338
# Shear Modulus (GPa) = 29.51346 45.77907 37.64626
#
# Velocity S-wave (km/s) = 3.39094 4.22322 3.82976
# Velocity P-wave (km/s) = 5.43590 7.19658 6.37729
#
# Compressibility (1/GPa) = 0.02740262
#
# Stress axis : x y z
#
# Youngs Moduli (GPa) = 246.85461 152.25729 36.36723
#
# Poissons Ratio (x) = 0.13501 0.07325
# Poissons Ratio (y) = 0.21889 0.08931
# Poissons Ratio (z) = 0.49724 0.37390
#
# Static dielectric constant tensor:
#      x y z
#    x 5.235100 0.000000 0.000000 
#    y 0.000000 5.073680 0.000000 
#    z 0.000000 0.000000 40.443530 
# 
# 
# High freq. dielectric constant tensor:
#      x y z
#    x 2.052530 0.000000 0.000000 
#    y 0.000000 2.050800 0.000000 
#    z 0.000000 0.000000 2.023070 
# 
# From -- ./inp_files/18042.got.cif
#   From: 2010.03.12/outbox.cif.g09.slc.cpg/sg60_10_cif.got.tgz:18042.got - 2010.04.10 18:46:24.
