data_PCOD8247058
_publ_section_title
;
Structure prediction by ZEFSAII (Michael W. Deem and Ramdas Pophale) SiO2 
 PCOD8247058
Probable space group: P B C N
;
_chemical_formula_sum "Si O2"
_cell_formula_units_Z 44
_cell_length_a 27.513804
_cell_length_b 7.213776
_cell_length_c 9.101045
_cell_angle_alpha 90.000000
_cell_angle_beta 90.000000
_cell_angle_gamma 90.000000
_cell_volume 1806.361023
_symmetry_space_group_name_H-M "P B C N"
_symmetry_group_IT_number 60
_symmetry_cell_setting 'orthorhombic'
loop_
_space_group_symop_operation_xyz
x,y,z
1/2-x,1/2-y,1/2+z
1/2+x,1/2-y,-z
-x,y,1/2-z
-x,-y,-z
1/2+x,1/2+y,1/2-z
1/2-x,1/2+y,z
x,-y,1/2+z
loop_
_atom_site_type_symbol
_atom_site_label
_atom_site_fract_x
_atom_site_fract_y
_atom_site_fract_z
Si Si1 0.309156 0.992688 0.277019
Si Si2 0.066796 0.087718 0.998057
Si Si3 0.500000 0.512032 0.750000
Si Si4 0.647634 0.313972 0.522419
Si Si5 0.301592 0.536793 0.738186
Si Si6 0.836098 0.280322 0.471761
O O1 0.344664 0.863357 0.376761
O O2 0.330541 0.982169 0.111227
O O3 0.254014 0.922584 0.277588
O O4 0.312152 0.193518 0.362801
O O5 0.106929 0.243947 0.021092
O O6 0.029596 0.111640 0.133157
O O7 0.091360 0.879066 0.999188
O O8 0.038657 0.130681 0.845510
O O9 0.668970 0.499862 0.608898
O O10 0.675384 0.299003 0.364555
O O11 0.305771 0.352221 0.637373
#
# Coordination Sequence:
#
# PCOD8247058 Si02
#       6
#     8   8   4   8   8   8
#     4  11  23  38  59  86 122 168 202 241 289 345
#     4  10  21  41  64  93 114 150 194 255 310 365
#     4  10  20  38  72  90 110 144 202 248 310 384
#     4  10  22  39  60  86 124 155 200 248 292 347
#     4  10  22  38  55  84 122 166 204 235 276 340
#     4  10  24  40  58  85 125 158 203 249 294 351
#
# _framework density 24.358364999999999
#
# number of rings (size 3 to 8) (size 9 to 14) (size 15 to 20)
#    0.000    1.818    0.000    4.364    0.000   20.364 
#    0.000    0.000    0.000   18.545    0.000    0.000 
#    0.000    0.000    0.000    0.000    0.000    0.000 
#
# Total GULP energy -545412.742289 kJ/mol
# GULP energy per Si atom -12395.744143 kJ/mol
# Density = 2.430292 g / cm^3
# Si number density = 24.358365 Si / 1000 Ang^3
#
#
#
# Elastic Constant Matrix: (Units=GPa)
#
#
# Indices 1 2 3 4 5 6 
#
# 1 142.4496 19.9419 50.4652 0.0000 0.0000 0.0000
# 2 19.9419 44.1823 14.5154 0.0000 0.0000 0.0000
# 3 50.4652 14.5154 180.6214 0.0000 0.0000 0.0000
# 4 0.0000 0.0000 0.0000 35.4773 0.0000 0.0000
# 5 0.0000 0.0000 0.0000 0.0000 51.9998 0.0000
# 6 0.0000 0.0000 0.0000 0.0000 0.0000 16.0177
#
#
#
# Elastic Compliance Matrix: (Units=1/GPa)
#
#
# Indices 1 2 3 4 5 6 
#
# 1 0.008164 -0.003015 -0.002039 0.000000 0.000000 0.000000
# 2 -0.003015 0.024361 -0.001115 0.000000 0.000000 0.000000
# 3 -0.002039 -0.001115 0.006196 0.000000 0.000000 0.000000
# 4 0.000000 0.000000 0.000000 0.028187 0.000000 0.000000
# 5 0.000000 0.000000 0.000000 0.000000 0.019231 0.000000
# 6 0.000000 0.000000 0.000000 0.000000 0.000000 0.062431
#
#
# Mechanical properties :
#
#
# Convention : Reuss Voigt Hill
#
# Bulk Modulus (GPa) = 37.90413 59.67757 48.79085
# Shear Modulus (GPa) = 29.46329 39.52100 34.49214
#
# Velocity S-wave (km/s) = 3.48167 4.03237 3.76710
# Velocity P-wave (km/s) = 5.63538 6.79949 6.24462
#
# Compressibility (1/GPa) = 0.02638235
#
# Stress axis : x y z
#
# Youngs Moduli (GPa) = 122.48272 41.04948 161.40208
#
# Poissons Ratio (x) = 0.12377 0.32907
# Poissons Ratio (y) = 0.36931 0.18001
# Poissons Ratio (z) = 0.24972 0.04578
#
# Static dielectric constant tensor:
#      x y z
#    x 4.146640 0.000000 0.000000 
#    y 0.000000 4.709460 0.000000 
#    z 0.000000 0.000000 5.266750 
# 
# 
# High freq. dielectric constant tensor:
#      x y z
#    x 1.940970 0.000000 0.000000 
#    y 0.000000 1.973300 0.000000 
#    z 0.000000 0.000000 2.027960 
# 
# From -- ./inp_files/8359.got.cif
#   From: 2010.03.12/outbox.cif.g09.slc.cpg/sg60_5_cif.got.tgz:8359.got - 2010.04.10 18:46:24.
