data_PCOD8247517
_publ_section_title
;
Structure prediction by ZEFSAII (Michael W. Deem and Ramdas Pophale) SiO2 
 PCOD8247517
Probable space group: P B C N
;
_chemical_formula_sum "Si O2"
_cell_formula_units_Z 48
_cell_length_a 7.718380
_cell_length_b 9.610254
_cell_length_c 25.784431
_cell_angle_alpha 90.000000
_cell_angle_beta 90.000000
_cell_angle_gamma 90.000000
_cell_volume 1912.575441
_symmetry_space_group_name_H-M "P B C N"
_symmetry_group_IT_number 60
_symmetry_cell_setting 'orthorhombic'
loop_
_space_group_symop_operation_xyz
x,y,z
1/2-x,1/2-y,1/2+z
1/2+x,1/2-y,-z
-x,y,1/2-z
-x,-y,-z
1/2+x,1/2+y,1/2-z
1/2-x,1/2+y,z
x,-y,1/2+z
loop_
_atom_site_type_symbol
_atom_site_label
_atom_site_fract_x
_atom_site_fract_y
_atom_site_fract_z
Si Si1 0.309372 0.583303 0.153065
Si Si2 0.652294 0.680359 0.580809
Si Si3 0.207665 0.786960 0.756483
Si Si4 0.826339 0.959324 0.181252
Si Si5 0.243379 0.836279 0.091322
Si Si6 0.313289 0.053500 0.482106
O O1 0.215269 0.658283 0.201473
O O2 0.475222 0.500879 0.173005
O O3 0.352533 0.701430 0.109438
O O4 0.187132 0.469511 0.124256
O O5 0.758439 0.615464 0.630233
O O6 0.458669 0.684230 0.601859
O O7 0.691513 0.577628 0.532161
O O8 0.697270 0.839093 0.566227
O O9 0.302021 0.642831 0.769512
O O10 0.000000 0.767006 0.750000
O O11 0.262847 0.895521 0.801894
O O12 0.246827 0.858278 0.030222
O O13 0.500000 0.000000 0.500000
#
# Coordination Sequence:
#
# PCOD8247517 Si02
#       6
#     8   8   8   8   8   8
#     4  10  22  41  68  97 131 173 221 276 335 400
#     4  11  24  43  66  96 132 178 225 279 339 406
#     4  10  21  41  65  96 131 172 216 269 330 400
#     4  10  22  41  66  98 133 171 220 275 335 402
#     4  11  23  43  66  96 133 178 225 278 339 404
#     4  12  25  41  65  97 134 176 227 283 342 406
#
# _framework density 25.097051
#
# number of rings (size 3 to 8) (size 9 to 14) (size 15 to 20)
#    0.000    1.333    0.000    5.500    0.000    8.000 
#    0.000   14.167    0.000    0.000    0.000    0.000 
#    0.000    0.000    0.000    0.000    0.000    0.000 
#
# Total GULP energy -594721.125414 kJ/mol
# GULP energy per Si atom -12390.023446 kJ/mol
# Density = 2.503993 g / cm^3
# Si number density = 25.097051 Si / 1000 Ang^3
#
#
#
# Elastic Constant Matrix: (Units=GPa)
#
#
# Indices 1 2 3 4 5 6 
#
# 1 39.3260 35.2534 16.4339 0.0000 0.0000 0.0000
# 2 35.2534 171.1192 37.4971 0.0000 0.0000 0.0000
# 3 16.4339 37.4971 92.3005 0.0000 0.0000 0.0000
# 4 0.0000 0.0000 0.0000 70.3346 0.0000 0.0000
# 5 0.0000 0.0000 0.0000 0.0000 27.3869 0.0000
# 6 0.0000 0.0000 0.0000 0.0000 0.0000 30.2954
#
#
#
# Elastic Compliance Matrix: (Units=1/GPa)
#
#
# Indices 1 2 3 4 5 6 
#
# 1 0.032091 -0.005883 -0.003324 0.000000 0.000000 0.000000
# 2 -0.005883 0.007493 -0.001997 0.000000 0.000000 0.000000
# 3 -0.003324 -0.001997 0.012237 0.000000 0.000000 0.000000
# 4 0.000000 0.000000 0.000000 0.014218 0.000000 0.000000
# 5 0.000000 0.000000 0.000000 0.000000 0.036514 0.000000
# 6 0.000000 0.000000 0.000000 0.000000 0.000000 0.033008
#
#
# Mechanical properties :
#
#
# Convention : Reuss Voigt Hill
#
# Bulk Modulus (GPa) = 33.99659 53.45716 43.72687
# Shear Modulus (GPa) = 29.80206 39.84080 34.82143
#
# Velocity S-wave (km/s) = 3.44971 3.98863 3.72892
# Velocity P-wave (km/s) = 5.42612 6.52370 6.00006
#
# Compressibility (1/GPa) = 0.02941471
#
# Stress axis : x y z
#
# Youngs Moduli (GPa) = 31.16118 133.45044 81.71837
#
# Poissons Ratio (x) = 0.78509 0.27162
# Poissons Ratio (y) = 0.18332 0.16317
# Poissons Ratio (z) = 0.10357 0.26647
#
# Static dielectric constant tensor:
#      x y z
#    x -87.745470 0.000000 0.000000 
#    y 0.000000 4.982120 0.000000 
#    z 0.000000 0.000000 6.121150 
# 
# 
# High freq. dielectric constant tensor:
#      x y z
#    x 1.948150 0.000000 0.000000 
#    y 0.000000 2.025290 0.000000 
#    z 0.000000 0.000000 2.020180 
# 
# From -- ./inp_files/25921.got.cif
#   From: 2010.03.12/outbox.cif.g09.slc.cpg/sg60_13_cif.got.tgz:25921.got - 2010.04.10 18:46:24.
