data_PCOD8247821
_publ_section_title
;
Structure prediction by ZEFSAII (Michael W. Deem and Ramdas Pophale) SiO2 
 PCOD8247821
Probable space group: P B C N
;
_chemical_formula_sum "Si O2"
_cell_formula_units_Z 56
_cell_length_a 24.956236
_cell_length_b 8.931985
_cell_length_c 11.770142
_cell_angle_alpha 90.000000
_cell_angle_beta 90.000000
_cell_angle_gamma 90.000000
_cell_volume 2623.667353
_symmetry_space_group_name_H-M "P B C N"
_symmetry_group_IT_number 60
_symmetry_cell_setting 'orthorhombic'
loop_
_space_group_symop_operation_xyz
x,y,z
1/2-x,1/2-y,1/2+z
1/2+x,1/2-y,-z
-x,y,1/2-z
-x,-y,-z
1/2+x,1/2+y,1/2-z
1/2-x,1/2+y,z
x,-y,1/2+z
loop_
_atom_site_type_symbol
_atom_site_label
_atom_site_fract_x
_atom_site_fract_y
_atom_site_fract_z
Si Si1 0.277200 0.887410 0.946043
Si Si2 0.341197 0.768176 0.756017
Si Si3 0.428754 0.274101 0.855933
Si Si4 0.175284 0.939240 0.795835
Si Si5 0.749315 0.864989 0.899419
Si Si6 0.500000 0.524197 0.750000
Si Si7 0.055284 0.284681 0.619409
Si Si8 0.000000 0.529483 0.750000
O O1 0.327865 0.882990 0.859888
O O2 0.222875 0.937776 0.885553
O O3 0.270361 0.720043 0.990386
O O4 0.286473 0.996546 0.053398
O O5 0.353318 0.601046 0.800722
O O6 0.288406 0.760153 0.677122
O O7 0.391340 0.830683 0.687569
O O8 0.367083 0.308385 0.824882
O O9 0.462849 0.421887 0.829121
O O10 0.449542 0.133540 0.782452
O O11 0.433269 0.231133 0.987285
O O12 0.198325 0.915417 0.669662
O O13 0.533960 0.626100 0.835702
O O14 0.014201 0.421206 0.643328
#
# Coordination Sequence:
#
# PCOD8247821 Si02
#       8
#     8   8   8   8   8   4   8   4
#     4  11  23  40  63  92 135 172 211 265 328 387
#     4  11  23  40  65  98 130 168 224 268 321 401
#     4  11  23  43  72  93 131 176 221 279 343 395
#     4  11  23  40  65  98 128 167 230 266 314 409
#     4  11  23  40  63  93 135 173 210 270 329 382
#     4  10  22  42  68 102 122 166 230 286 330 410
#     4  11  23  43  68  96 136 170 219 284 342 393
#     4  10  26  46  64 102 136 170 224 284 338 414
#
# _framework density 21.344168
#
# number of rings (size 3 to 8) (size 9 to 14) (size 15 to 20)
#    0.000    1.143    4.286    1.714    0.000    3.429 
#    0.000    1.429    0.000    0.000    0.000    0.000 
#    0.000    0.000    0.000    0.000    0.000    0.000 
#
# Total GULP energy -694465.635672 kJ/mol
# GULP energy per Si atom -12401.172066 kJ/mol
# Density = 2.129559 g / cm^3
# Si number density = 21.344168 Si / 1000 Ang^3
#
#
#
# Elastic Constant Matrix: (Units=GPa)
#
#
# Indices 1 2 3 4 5 6 
#
# 1 58.6698 29.0378 18.7275 0.0000 0.0000 0.0000
# 2 29.0378 113.3423 42.1097 0.0000 0.0000 0.0000
# 3 18.7275 42.1097 109.1521 0.0000 0.0000 0.0000
# 4 0.0000 0.0000 0.0000 24.4106 0.0000 0.0000
# 5 0.0000 0.0000 0.0000 0.0000 29.4552 0.0000
# 6 0.0000 0.0000 0.0000 0.0000 0.0000 26.5346
#
#
#
# Elastic Compliance Matrix: (Units=1/GPa)
#
#
# Indices 1 2 3 4 5 6 
#
# 1 0.019780 -0.004444 -0.001679 0.000000 0.000000 0.000000
# 2 -0.004444 0.011297 -0.003596 0.000000 0.000000 0.000000
# 3 -0.001679 -0.003596 0.010837 0.000000 0.000000 0.000000
# 4 0.000000 0.000000 0.000000 0.040966 0.000000 0.000000
# 5 0.000000 0.000000 0.000000 0.000000 0.033950 0.000000
# 6 0.000000 0.000000 0.000000 0.000000 0.000000 0.037687
#
#
# Mechanical properties :
#
#
# Convention : Reuss Voigt Hill
#
# Bulk Modulus (GPa) = 44.49147 51.21269 47.85208
# Shear Modulus (GPa) = 27.55635 28.83270 28.19452
#
# Velocity S-wave (km/s) = 3.59701 3.67937 3.63843
# Velocity P-wave (km/s) = 6.17587 6.48816 6.33394
#
# Compressibility (1/GPa) = 0.02247622
#
# Stress axis : x y z
#
# Youngs Moduli (GPa) = 50.55631 88.51711 92.27696
#
# Poissons Ratio (x) = 0.39333 0.15497
# Poissons Ratio (y) = 0.22465 0.33182
# Poissons Ratio (z) = 0.08490 0.31830
#
# Static dielectric constant tensor:
#      x y z
#    x 3.710830 0.000000 0.000000 
#    y 0.000000 3.869430 0.000000 
#    z 0.000000 0.000000 3.862580 
# 
# 
# High freq. dielectric constant tensor:
#      x y z
#    x 1.824760 0.000000 0.000000 
#    y 0.000000 1.848500 0.000000 
#    z 0.000000 0.000000 1.841250 
# 
# From -- ./inp_files/13294.got.cif
#   From: 2010.03.12/outbox.cif.g09.slc.cpg/sg60_7_cif.got.tgz:13294.got - 2010.04.10 18:46:24.
