data_PCOD8247083
_publ_section_title
;
Structure prediction by ZEFSAII (Michael W. Deem and Ramdas Pophale) SiO2 
 PCOD8247083
Probable space group: P B C N
;
_chemical_formula_sum "Si O2"
_cell_formula_units_Z 48
_cell_length_a 15.589954
_cell_length_b 14.552605
_cell_length_c 8.601158
_cell_angle_alpha 90.000000
_cell_angle_beta 90.000000
_cell_angle_gamma 90.000000
_cell_volume 1951.382926
_symmetry_space_group_name_H-M "P B C N"
_symmetry_group_IT_number 60
_symmetry_cell_setting 'orthorhombic'
loop_
_space_group_symop_operation_xyz
x,y,z
1/2-x,1/2-y,1/2+z
1/2+x,1/2-y,-z
-x,y,1/2-z
-x,-y,-z
1/2+x,1/2+y,1/2-z
1/2-x,1/2+y,z
x,-y,1/2+z
loop_
_atom_site_type_symbol
_atom_site_label
_atom_site_fract_x
_atom_site_fract_y
_atom_site_fract_z
Si Si1 0.233669 0.824834 0.154469
Si Si2 0.919326 0.888383 0.164805
Si Si3 0.870953 0.249452 0.131233
Si Si4 0.704211 0.984014 0.781985
Si Si5 0.612871 0.416820 0.805123
Si Si6 0.084232 0.437976 0.475578
O O1 0.164976 0.830705 0.294518
O O2 0.316322 0.770981 0.214281
O O3 0.263846 0.928807 0.114326
O O4 0.192926 0.773265 0.009022
O O5 0.000000 0.837059 0.250000
O O6 0.921283 0.986420 0.249355
O O7 0.920639 0.898444 0.979400
O O8 0.925520 0.160428 0.185791
O O9 0.934772 0.335313 0.090521
O O10 0.784074 0.914254 0.774327
O O11 0.663514 0.017645 0.619943
O O12 0.625178 0.928164 0.855314
O O13 0.000000 0.500000 0.500000
#
# Coordination Sequence:
#
# PCOD8247083 Si02
#       6
#     8   8   8   8   8   8
#     4  10  21  39  63  95 126 171 226 279 335 396
#     4  11  23  41  65  96 136 171 207 267 352 418
#     4  11  22  39  66  96 129 170 232 288 330 401
#     4  10  20  39  65  88 123 172 223 272 334 407
#     4  11  21  40  68  96 126 171 222 274 331 410
#     4  11  23  40  61  91 130 177 221 274 345 404
#
# _framework density 24.597940000000001
#
# number of rings (size 3 to 8) (size 9 to 14) (size 15 to 20)
#    0.000    1.333    0.000    9.000    0.000    0.000 
#    0.000   15.000    0.000    2.000    0.000    0.000 
#    0.000    0.000    0.000    0.000    0.000    0.000 
#
# Total GULP energy -594676.764798 kJ/mol
# GULP energy per Si atom -12389.099267 kJ/mol
# Density = 2.454195 g / cm^3
# Si number density = 24.597940 Si / 1000 Ang^3
#
#
#
# Elastic Constant Matrix: (Units=GPa)
#
#
# Indices 1 2 3 4 5 6 
#
# 1 102.5361 6.6481 9.3569 0.0000 0.0000 0.0000
# 2 6.6481 65.0765 22.7843 0.0000 0.0000 0.0000
# 3 9.3569 22.7843 92.0605 0.0000 0.0000 0.0000
# 4 0.0000 0.0000 0.0000 36.0236 0.0000 0.0000
# 5 0.0000 0.0000 0.0000 0.0000 38.9375 0.0000
# 6 0.0000 0.0000 0.0000 0.0000 0.0000 15.2231
#
#
#
# Elastic Compliance Matrix: (Units=1/GPa)
#
#
# Indices 1 2 3 4 5 6 
#
# 1 0.009875 -0.000720 -0.000826 0.000000 0.000000 0.000000
# 2 -0.000720 0.016877 -0.004104 0.000000 0.000000 0.000000
# 3 -0.000826 -0.004104 0.011962 0.000000 0.000000 0.000000
# 4 0.000000 0.000000 0.000000 0.027760 0.000000 0.000000
# 5 0.000000 0.000000 0.000000 0.000000 0.025682 0.000000
# 6 0.000000 0.000000 0.000000 0.000000 0.000000 0.065689
#
#
# Mechanical properties :
#
#
# Convention : Reuss Voigt Hill
#
# Bulk Modulus (GPa) = 36.47577 37.47241 36.97409
# Shear Modulus (GPa) = 28.04558 32.76244 30.40401
#
# Velocity S-wave (km/s) = 3.38029 3.65350 3.51955
# Velocity P-wave (km/s) = 5.48599 5.75017 5.61964
#
# Compressibility (1/GPa) = 0.02741546
#
# Stress axis : x y z
#
# Youngs Moduli (GPa) = 101.26928 59.25279 83.59823
#
# Poissons Ratio (x) = 0.04265 0.06901
# Poissons Ratio (y) = 0.07289 0.34307
# Poissons Ratio (z) = 0.08360 0.24316
#
# Static dielectric constant tensor:
#      x y z
#    x 4.810650 0.000000 0.000000 
#    y 0.000000 4.592720 0.000000 
#    z 0.000000 0.000000 5.333900 
# 
# 
# High freq. dielectric constant tensor:
#      x y z
#    x 1.979480 0.000000 0.000000 
#    y 0.000000 1.974790 0.000000 
#    z 0.000000 0.000000 1.980090 
# 
# From -- ./inp_files/6733.got.cif
#   From: 2010.03.12/outbox.cif.g09.slc.cpg/sg60_4_cif.got.tgz:6733.got - 2010.04.10 18:46:24.
