data_PCOD8247696
_publ_section_title
;
Structure prediction by ZEFSAII (Michael W. Deem and Ramdas Pophale) SiO2 
 PCOD8247696
Probable space group: P B C N
;
_chemical_formula_sum "Si O2"
_cell_formula_units_Z 48
_cell_length_a 9.295838
_cell_length_b 9.733785
_cell_length_c 25.897426
_cell_angle_alpha 90.000000
_cell_angle_beta 90.000000
_cell_angle_gamma 90.000000
_cell_volume 2343.294627
_symmetry_space_group_name_H-M "P B C N"
_symmetry_group_IT_number 60
_symmetry_cell_setting 'orthorhombic'
loop_
_space_group_symop_operation_xyz
x,y,z
1/2-x,1/2-y,1/2+z
1/2+x,1/2-y,-z
-x,y,1/2-z
-x,-y,-z
1/2+x,1/2+y,1/2-z
1/2-x,1/2+y,z
x,-y,1/2+z
loop_
_atom_site_type_symbol
_atom_site_label
_atom_site_fract_x
_atom_site_fract_y
_atom_site_fract_z
Si Si1 0.115198 0.273312 0.933261
Si Si2 0.283699 0.501742 0.877453
Si Si3 0.975194 0.458117 0.190489
Si Si4 0.342395 0.895654 0.607163
Si Si5 0.972701 0.209743 0.373737
Si Si6 0.925125 0.614988 0.964950
O O1 0.185716 0.416261 0.916169
O O2 0.944577 0.283374 0.921146
O O3 0.185864 0.146825 0.904210
O O4 0.141253 0.270623 0.995738
O O5 0.433661 0.426518 0.866079
O O6 0.193292 0.520288 0.824568
O O7 0.080153 0.561455 0.160285
O O8 0.013893 0.300452 0.177709
O O9 0.000000 0.488748 0.250000
O O10 0.192487 0.826270 0.618691
O O11 0.313773 0.030227 0.571093
O O12 0.025690 0.299938 0.423945
O O13 0.000000 0.500000 0.000000
#
# Coordination Sequence:
#
# PCOD8247696 Si02
#       6
#     8   8   8   8   8   8
#     4  10  22  39  64  91 136 174 221 261 320 384
#     4  11  23  41  66  97 127 174 219 269 320 394
#     4  10  23  46  66  88 126 166 215 279 334 389
#     4   9  22  41  61  91 130 166 217 273 320 386
#     4  11  23  40  65  94 130 166 218 268 323 390
#     4   9  21  39  60  93 134 180 214 260 316 384
#
# _framework density 20.483981
#
# number of rings (size 3 to 8) (size 9 to 14) (size 15 to 20)
#    0.000    2.000    1.667    1.000    7.000    3.333 
#    0.000    0.000    0.000    0.000    0.000    0.000 
#    0.000    0.000    0.000    0.000    0.000    0.000 
#
# Total GULP energy -594834.711840 kJ/mol
# GULP energy per Si atom -12392.389830 kJ/mol
# Density = 2.043736 g / cm^3
# Si number density = 20.483981 Si / 1000 Ang^3
#
#
#
# Elastic Constant Matrix: (Units=GPa)
#
#
# Indices 1 2 3 4 5 6 
#
# 1 127.8833 46.7743 33.6182 0.0000 0.0000 0.0000
# 2 46.7743 104.2553 50.2343 0.0000 0.0000 0.0000
# 3 33.6182 50.2343 125.4374 0.0000 0.0000 0.0000
# 4 0.0000 0.0000 0.0000 14.9274 0.0000 0.0000
# 5 0.0000 0.0000 0.0000 0.0000 20.4663 0.0000
# 6 0.0000 0.0000 0.0000 0.0000 0.0000 37.5048
#
#
#
# Elastic Compliance Matrix: (Units=1/GPa)
#
#
# Indices 1 2 3 4 5 6 
#
# 1 0.009462 -0.003746 -0.001036 0.000000 0.000000 0.000000
# 2 -0.003746 0.013368 -0.004350 0.000000 0.000000 0.000000
# 3 -0.001036 -0.004350 0.009992 0.000000 0.000000 0.000000
# 4 0.000000 0.000000 0.000000 0.066991 0.000000 0.000000
# 5 0.000000 0.000000 0.000000 0.000000 0.048861 0.000000
# 6 0.000000 0.000000 0.000000 0.000000 0.000000 0.026663
#
#
# Mechanical properties :
#
#
# Convention : Reuss Voigt Hill
#
# Bulk Modulus (GPa) = 68.68577 68.75886 68.72232
# Shear Modulus (GPa) = 25.19486 29.70963 27.45225
#
# Velocity S-wave (km/s) = 3.51091 3.81252 3.66482
# Velocity P-wave (km/s) = 7.07387 7.28151 7.17844
#
# Compressibility (1/GPa) = 0.01455906
#
# Stress axis : x y z
#
# Youngs Moduli (GPa) = 105.68510 74.80327 100.08396
#
# Poissons Ratio (x) = 0.28022 0.10366
# Poissons Ratio (y) = 0.39591 0.43533
# Poissons Ratio (z) = 0.10946 0.32537
#
# Static dielectric constant tensor:
#      x y z
#    x 3.641710 0.000000 0.000000 
#    y 0.000000 3.839380 0.000000 
#    z 0.000000 0.000000 3.662220 
# 
# 
# High freq. dielectric constant tensor:
#      x y z
#    x 1.794660 0.000000 0.000000 
#    y 0.000000 1.807150 0.000000 
#    z 0.000000 0.000000 1.784770 
# 
# From -- ./inp_files/25145.got.cif
#   From: 2010.03.12/outbox.cif.g09.slc.cpg/sg60_13_cif.got.tgz:25145.got - 2010.04.10 18:46:24.
