data_PCOD8247608
_publ_section_title
;
Structure prediction by ZEFSAII (Michael W. Deem and Ramdas Pophale) SiO2 
 PCOD8247608
Probable space group: P B C N
;
_chemical_formula_sum "Si O2"
_cell_formula_units_Z 64
_cell_length_a 9.416923
_cell_length_b 13.592905
_cell_length_c 23.658276
_cell_angle_alpha 90.000000
_cell_angle_beta 90.000000
_cell_angle_gamma 90.000000
_cell_volume 3028.338340
_symmetry_space_group_name_H-M "P B C N"
_symmetry_group_IT_number 60
_symmetry_cell_setting 'orthorhombic'
loop_
_space_group_symop_operation_xyz
x,y,z
1/2-x,1/2-y,1/2+z
1/2+x,1/2-y,-z
-x,y,1/2-z
-x,-y,-z
1/2+x,1/2+y,1/2-z
1/2-x,1/2+y,z
x,-y,1/2+z
loop_
_atom_site_type_symbol
_atom_site_label
_atom_site_fract_x
_atom_site_fract_y
_atom_site_fract_z
Si Si1 0.337187 0.137229 0.368837
Si Si2 0.525537 0.956543 0.184759
Si Si3 0.850278 0.551938 0.011487
Si Si4 0.548519 0.290775 0.383713
Si Si5 0.802942 0.860680 0.041774
Si Si6 0.089971 0.266168 0.373670
Si Si7 0.187682 0.826857 0.582921
Si Si8 0.248992 0.044651 0.610640
O O1 0.361755 0.132642 0.437960
O O2 0.441823 0.224589 0.345151
O O3 0.176970 0.170036 0.353546
O O4 0.360036 0.034758 0.337858
O O5 0.500000 0.975906 0.250000
O O6 0.590887 0.848668 0.175207
O O7 0.383533 0.973204 0.149732
O O8 0.735511 0.474773 0.034838
O O9 0.795173 0.592750 0.950521
O O10 0.000000 0.500000 0.000000
O O11 0.451020 0.352392 0.426201
O O12 0.652363 0.208048 0.407992
O O13 0.645304 0.377872 0.356680
O O14 0.668685 0.807151 0.070745
O O15 0.839579 0.811236 0.982640
O O16 0.926836 0.238497 0.383991
O O17 0.172758 0.940457 0.601573
#
# Coordination Sequence:
#
# PCOD8247608 Si02
#       8
#     8   8   8   8   8   8   8   8
#     4  11  24  44  66 100 129 174 214 276 330 395
#     4  12  25  50  71  90 128 179 223 280 338 390
#     4  11  20  38  66  90 144 174 212 258 339 402
#     4  11  23  37  62  94 135 166 224 256 323 396
#     4  10  22  35  61  98 139 179 207 263 326 400
#     4  11  24  41  67  97 134 172 227 265 330 406
#     4  11  22  37  63  99 137 174 212 261 327 398
#     4  11  24  40  63  97 130 172 213 272 322 396
#
# _framework density 21.133703000000001
#
# number of rings (size 3 to 8) (size 9 to 14) (size 15 to 20)
#    0.000    1.000    5.000    1.500    7.000    1.000 
#    4.500    0.000    0.000    3.000    0.000    0.000 
#    0.000    0.000    0.000    0.000    0.000    0.000 
#
# Total GULP energy -793213.259787 kJ/mol
# GULP energy per Si atom -12393.957184 kJ/mol
# Density = 2.108560 g / cm^3
# Si number density = 21.133703 Si / 1000 Ang^3
#
#
#
# Elastic Constant Matrix: (Units=GPa)
#
#
# Indices 1 2 3 4 5 6 
#
# 1 103.7446 26.6050 16.3973 0.0000 0.0000 0.0000
# 2 26.6050 75.1771 28.6595 0.0000 0.0000 0.0000
# 3 16.3973 28.6595 84.7147 0.0000 0.0000 0.0000
# 4 0.0000 0.0000 0.0000 7.6797 0.0000 0.0000
# 5 0.0000 0.0000 0.0000 0.0000 7.2929 0.0000
# 6 0.0000 0.0000 0.0000 0.0000 0.0000 49.6496
#
#
#
# Elastic Compliance Matrix: (Units=1/GPa)
#
#
# Indices 1 2 3 4 5 6 
#
# 1 0.010661 -0.003428 -0.000904 0.000000 0.000000 0.000000
# 2 -0.003428 0.016374 -0.004876 0.000000 0.000000 0.000000
# 3 -0.000904 -0.004876 0.013629 0.000000 0.000000 0.000000
# 4 0.000000 0.000000 0.000000 0.130214 0.000000 0.000000
# 5 0.000000 0.000000 0.000000 0.000000 0.137120 0.000000
# 6 0.000000 0.000000 0.000000 0.000000 0.000000 0.020141
#
#
# Mechanical properties :
#
#
# Convention : Reuss Voigt Hill
#
# Bulk Modulus (GPa) = 44.94788 45.21778 45.08283
# Shear Modulus (GPa) = 14.12545 25.72273 19.92409
#
# Velocity S-wave (km/s) = 2.58812 3.49254 3.07378
# Velocity P-wave (km/s) = 5.49960 6.14055 5.82889
#
# Compressibility (1/GPa) = 0.02224799
#
# Stress axis : x y z
#
# Youngs Moduli (GPa) = 93.79896 61.07232 73.37425
#
# Poissons Ratio (x) = 0.20938 0.06631
# Poissons Ratio (y) = 0.32158 0.35776
# Poissons Ratio (z) = 0.08477 0.29778
#
# Static dielectric constant tensor:
#      x y z
#    x 3.983900 0.000000 0.000000 
#    y 0.000000 4.050250 0.000000 
#    z 0.000000 0.000000 3.371190 
# 
# 
# High freq. dielectric constant tensor:
#      x y z
#    x 1.842290 0.000000 0.000000 
#    y 0.000000 1.852420 0.000000 
#    z 0.000000 0.000000 1.763350 
# 
# From -- ./inp_files/24113.got.cif
#   From: 2010.03.12/outbox.cif.g09.slc.cpg/sg60_13_cif.got.tgz:24113.got - 2010.04.10 18:46:24.
