data_PCOD8247189
_publ_section_title
;
Structure prediction by ZEFSAII (Michael W. Deem and Ramdas Pophale) SiO2 
 PCOD8247189
Probable space group: P B C N
;
_chemical_formula_sum "Si O2"
_cell_formula_units_Z 48
_cell_length_a 8.025770
_cell_length_b 11.658719
_cell_length_c 22.652020
_cell_angle_alpha 90.000000
_cell_angle_beta 90.000000
_cell_angle_gamma 90.000000
_cell_volume 2119.553978
_symmetry_space_group_name_H-M "P B C N"
_symmetry_group_IT_number 60
_symmetry_cell_setting 'orthorhombic'
loop_
_space_group_symop_operation_xyz
x,y,z
1/2-x,1/2-y,1/2+z
1/2+x,1/2-y,-z
-x,y,1/2-z
-x,-y,-z
1/2+x,1/2+y,1/2-z
1/2-x,1/2+y,z
x,-y,1/2+z
loop_
_atom_site_type_symbol
_atom_site_label
_atom_site_fract_x
_atom_site_fract_y
_atom_site_fract_z
Si Si1 0.500000 0.542427 0.750000
Si Si2 0.881862 0.482030 0.436899
Si Si3 0.776873 0.901517 0.833816
Si Si4 0.763868 0.553786 0.057591
Si Si5 0.721035 0.909900 0.170621
Si Si6 0.000000 0.426049 0.750000
Si Si7 0.476609 0.748750 0.400624
O O1 0.422363 0.456654 0.703238
O O2 0.629081 0.622694 0.714853
O O3 0.791956 0.496117 0.374744
O O4 0.747805 0.497096 0.490505
O O5 0.034261 0.575439 0.439094
O O6 0.968122 0.355976 0.440754
O O7 0.631367 0.852888 0.789718
O O8 0.851969 0.805180 0.876458
O O9 0.710760 0.465591 0.109309
O O10 0.645778 0.665167 0.062552
O O11 0.627783 0.791687 0.156369
O O12 0.599542 0.996964 0.203465
#
# Coordination Sequence:
#
# PCOD8247189 Si02
#       7
#     4   8   8   8   8   4   8
#     4  10  22  43  67  92 138 166 222 274 340 390
#     4  10  24  45  66  96 139 167 223 289 334 393
#     4  11  22  43  67 101 127 182 219 275 334 401
#     4  10  21  45  67  94 130 175 218 287 334 398
#     4  10  21  44  64  98 132 173 216 287 326 399
#     4  10  20  43  67  88 146 164 216 282 330 390
#     4  11  23  42  67  99 130 181 228 264 348 406
#
# _framework density 22.646273999999998
#
# number of rings (size 3 to 8) (size 9 to 14) (size 15 to 20)
#    0.000    1.667    5.000    0.000    0.000    5.333 
#    6.000    1.667    0.000    0.000    0.000    0.000 
#    0.000    0.000    0.000    0.000    0.000    0.000 
#
# Total GULP energy -594655.215933 kJ/mol
# GULP energy per Si atom -12388.650332 kJ/mol
# Density = 2.259473 g / cm^3
# Si number density = 22.646274 Si / 1000 Ang^3
#
#
#
# Elastic Constant Matrix: (Units=GPa)
#
#
# Indices 1 2 3 4 5 6 
#
# 1 108.8036 36.8126 52.4326 0.0000 0.0000 0.0000
# 2 36.8126 59.1899 25.5365 0.0000 0.0000 0.0000
# 3 52.4326 25.5365 134.7520 0.0000 0.0000 0.0000
# 4 0.0000 0.0000 0.0000 5.9734 0.0000 0.0000
# 5 0.0000 0.0000 0.0000 0.0000 39.0763 0.0000
# 6 0.0000 0.0000 0.0000 0.0000 0.0000 34.1363
#
#
#
# Elastic Compliance Matrix: (Units=1/GPa)
#
#
# Indices 1 2 3 4 5 6 
#
# 1 0.013314 -0.006584 -0.003933 0.000000 0.000000 0.000000
# 2 -0.006584 0.021655 -0.001542 0.000000 0.000000 0.000000
# 3 -0.003933 -0.001542 0.009244 0.000000 0.000000 0.000000
# 4 0.000000 0.000000 0.000000 0.167408 0.000000 0.000000
# 5 0.000000 0.000000 0.000000 0.000000 0.025591 0.000000
# 6 0.000000 0.000000 0.000000 0.000000 0.000000 0.029294
#
#
# Mechanical properties :
#
#
# Convention : Reuss Voigt Hill
#
# Bulk Modulus (GPa) = 49.76338 59.14544 54.45441
# Shear Modulus (GPa) = 16.81691 28.36811 22.59251
#
# Velocity S-wave (km/s) = 2.72801 3.54314 3.16195
# Velocity P-wave (km/s) = 5.65196 6.55074 6.11788
#
# Compressibility (1/GPa) = 0.02009510
#
# Stress axis : x y z
#
# Youngs Moduli (GPa) = 75.11157 46.17951 108.18401
#
# Poissons Ratio (x) = 0.30402 0.42546
# Poissons Ratio (y) = 0.49450 0.16682
# Poissons Ratio (z) = 0.29539 0.07121
#
# Static dielectric constant tensor:
#      x y z
#    x 4.310860 0.000000 0.000000 
#    y 0.000000 3.557280 0.000000 
#    z 0.000000 0.000000 4.453300 
# 
# 
# High freq. dielectric constant tensor:
#      x y z
#    x 1.900710 0.000000 0.000000 
#    y 0.000000 1.846500 0.000000 
#    z 0.000000 0.000000 1.917580 
# 
# From -- ./inp_files/23968.got.cif
#   From: 2010.03.12/outbox.cif.g09.slc.cpg/sg60_12_cif.got.tgz:23968.got - 2010.04.10 18:46:24.
