data_PCOD8247834
_publ_section_title
;
Structure prediction by ZEFSAII (Michael W. Deem and Ramdas Pophale) SiO2 
 PCOD8247834
Probable space group: P B C N
;
_chemical_formula_sum "Si O2"
_cell_formula_units_Z 48
_cell_length_a 8.216320
_cell_length_b 11.393509
_cell_length_c 22.629399
_cell_angle_alpha 90.000000
_cell_angle_beta 90.000000
_cell_angle_gamma 90.000000
_cell_volume 2118.399499
_symmetry_space_group_name_H-M "P B C N"
_symmetry_group_IT_number 60
_symmetry_cell_setting 'orthorhombic'
loop_
_space_group_symop_operation_xyz
x,y,z
1/2-x,1/2-y,1/2+z
1/2+x,1/2-y,-z
-x,y,1/2-z
-x,-y,-z
1/2+x,1/2+y,1/2-z
1/2-x,1/2+y,z
x,-y,1/2+z
loop_
_atom_site_type_symbol
_atom_site_label
_atom_site_fract_x
_atom_site_fract_y
_atom_site_fract_z
Si Si1 0.454479 0.872694 0.683110
Si Si2 0.920799 0.784335 0.085230
Si Si3 0.425042 0.251858 0.970828
Si Si4 0.905542 0.802537 0.810796
Si Si5 0.537124 0.530975 0.409074
Si Si6 0.113765 0.581944 0.610914
O O1 0.500000 0.890881 0.750000
O O2 0.542642 0.761984 0.651618
O O3 0.262981 0.868536 0.692421
O O4 0.498406 0.981568 0.640329
O O5 0.753702 0.738254 0.056659
O O6 0.908324 0.925134 0.089729
O O7 0.069397 0.738751 0.042437
O O8 0.517436 0.378077 0.963450
O O9 0.522078 0.141555 0.943945
O O10 0.862645 0.676789 0.837749
O O11 0.000000 0.786109 0.750000
O O12 0.011783 0.886779 0.853073
O O13 0.716314 0.473392 0.410597
#
# Coordination Sequence:
#
# PCOD8247834 Si02
#       6
#     8   8   8   8   8   8
#     4  11  26  43  66 102 143 184 234 290 348 429
#     4  12  26  46  69 106 142 186 239 298 366 423
#     4  11  27  43  74 101 141 184 238 295 366 431
#     4  10  22  42  71  98 137 186 234 287 347 418
#     4  10  23  46  67  99 140 181 233 293 356 421
#     4  10  22  46  71  96 139 185 233 290 357 416
#
# _framework density 22.658614
#
# number of rings (size 3 to 8) (size 9 to 14) (size 15 to 20)
#    0.000    1.333    1.667    2.000   11.667    1.333 
#    0.000    0.000    0.000    0.000    0.000    0.000 
#    0.000    0.000    0.000    0.000    0.000    0.000 
#
# Total GULP energy -594889.496038 kJ/mol
# GULP energy per Si atom -12393.531167 kJ/mol
# Density = 2.260704 g / cm^3
# Si number density = 22.658614 Si / 1000 Ang^3
#
#
#
# Elastic Constant Matrix: (Units=GPa)
#
#
# Indices 1 2 3 4 5 6 
#
# 1 76.5595 26.0331 18.9880 0.0000 0.0000 0.0000
# 2 26.0331 123.6803 34.8003 0.0000 0.0000 0.0000
# 3 18.9880 34.8003 41.1187 0.0000 0.0000 0.0000
# 4 0.0000 0.0000 0.0000 18.4329 0.0000 0.0000
# 5 0.0000 0.0000 0.0000 0.0000 30.4879 0.0000
# 6 0.0000 0.0000 0.0000 0.0000 0.0000 42.3179
#
#
#
# Elastic Compliance Matrix: (Units=1/GPa)
#
#
# Indices 1 2 3 4 5 6 
#
# 1 0.014984 -0.001584 -0.005579 0.000000 0.000000 0.000000
# 2 -0.001584 0.010780 -0.008392 0.000000 0.000000 0.000000
# 3 -0.005579 -0.008392 0.033998 0.000000 0.000000 0.000000
# 4 0.000000 0.000000 0.000000 0.054251 0.000000 0.000000
# 5 0.000000 0.000000 0.000000 0.000000 0.032800 0.000000
# 6 0.000000 0.000000 0.000000 0.000000 0.000000 0.023631
#
#
# Mechanical properties :
#
#
# Convention : Reuss Voigt Hill
#
# Bulk Modulus (GPa) = 34.90055 44.55570 39.72813
# Shear Modulus (GPa) = 23.68493 29.01688 26.35090
#
# Velocity S-wave (km/s) = 3.23661 3.58245 3.41391
# Velocity P-wave (km/s) = 5.42252 6.06782 5.75423
#
# Compressibility (1/GPa) = 0.02865284
#
# Stress axis : x y z
#
# Youngs Moduli (GPa) = 66.73770 92.76321 29.41308
#
# Poissons Ratio (x) = 0.14696 0.16408
# Poissons Ratio (y) = 0.10573 0.24684
# Poissons Ratio (z) = 0.37230 0.77847
#
# Static dielectric constant tensor:
#      x y z
#    x 3.580630 0.000000 0.000000 
#    y 0.000000 4.334660 0.000000 
#    z 0.000000 0.000000 5.336480 
# 
# 
# High freq. dielectric constant tensor:
#      x y z
#    x 1.880520 0.000000 0.000000 
#    y 0.000000 1.909560 0.000000 
#    z 0.000000 0.000000 1.899410 
# 
# From -- ./inp_files/23917.got.cif
#   From: 2010.03.12/outbox.cif.g09.slc.cpg/sg60_12_cif.got.tgz:23917.got - 2010.04.10 18:46:24.
