data_PCOD8247940
_publ_section_title
;
Structure prediction by ZEFSAII (Michael W. Deem and Ramdas Pophale) SiO2 
 PCOD8247940
Probable space group: P B C N
;
_chemical_formula_sum "Si O2"
_cell_formula_units_Z 32
_cell_length_a 7.752323
_cell_length_b 34.906394
_cell_length_c 5.127883
_cell_angle_alpha 90.000000
_cell_angle_beta 90.000000
_cell_angle_gamma 90.000000
_cell_volume 1387.634066
_symmetry_space_group_name_H-M "P B C N"
_symmetry_group_IT_number 60
_symmetry_cell_setting 'orthorhombic'
loop_
_space_group_symop_operation_xyz
x,y,z
1/2-x,1/2-y,1/2+z
1/2+x,1/2-y,-z
-x,y,1/2-z
-x,-y,-z
1/2+x,1/2+y,1/2-z
1/2-x,1/2+y,z
x,-y,1/2+z
loop_
_atom_site_type_symbol
_atom_site_label
_atom_site_fract_x
_atom_site_fract_y
_atom_site_fract_z
Si Si1 0.699794 0.357448 0.317818
Si Si2 0.305847 0.729007 0.658263
Si Si3 0.807642 0.983281 0.962012
Si Si4 0.307212 0.901466 0.673430
O O1 0.500000 0.358999 0.250000
O O2 0.765400 0.314191 0.362930
O O3 0.719801 0.380538 0.584488
O O4 0.812562 0.374356 0.080474
O O5 0.303728 0.747945 0.372629
O O6 0.500000 0.728919 0.750000
O O7 0.807055 0.938444 0.898393
O O8 0.711137 0.007278 0.733265
O O9 0.000000 0.000000 0.000000
O O10 0.500000 0.913805 0.750000
#
# Coordination Sequence:
#
# PCOD8247940 Si02
#       4
#     8   8   8   8
#     4  11  26  44  69  98 136 183 227 266 341 415
#     4  11  24  43  68 101 135 179 226 276 331 404
#     4  10  23  40  65  95 126 173 229 264 345 402
#     4  12  26  43  68 102 137 171 226 292 340 393
#
# _framework density 23.060834
#
# number of rings (size 3 to 8) (size 9 to 14) (size 15 to 20)
#    0.000    1.000    0.000    5.250   10.500   11.000 
#    0.000    0.000    0.000    0.000    0.000    0.000 
#    0.000    0.000    0.000    0.000    0.000    0.000 
#
# Total GULP energy -396814.110700 kJ/mol
# GULP energy per Si atom -12400.440959 kJ/mol
# Density = 2.300835 g / cm^3
# Si number density = 23.060834 Si / 1000 Ang^3
#
#
#
# Elastic Constant Matrix: (Units=GPa)
#
#
# Indices 1 2 3 4 5 6 
#
# 1 52.9203 39.7977 7.6072 0.0000 0.0000 0.0000
# 2 39.7977 203.1905 88.4186 0.0000 0.0000 0.0000
# 3 7.6072 88.4186 203.4834 0.0000 0.0000 0.0000
# 4 0.0000 0.0000 0.0000 31.9756 0.0000 0.0000
# 5 0.0000 0.0000 0.0000 0.0000 33.2692 0.0000
# 6 0.0000 0.0000 0.0000 0.0000 0.0000 11.5668
#
#
#
# Elastic Compliance Matrix: (Units=1/GPa)
#
#
# Indices 1 2 3 4 5 6 
#
# 1 0.022445 -0.004971 0.001321 0.000000 0.000000 0.000000
# 2 -0.004971 0.007170 -0.002930 0.000000 0.000000 0.000000
# 3 0.001321 -0.002930 0.006138 0.000000 0.000000 0.000000
# 4 0.000000 0.000000 0.000000 0.031274 0.000000 0.000000
# 5 0.000000 0.000000 0.000000 0.000000 0.030058 0.000000
# 6 0.000000 0.000000 0.000000 0.000000 0.000000 0.086455
#
#
# Mechanical properties :
#
#
# Convention : Reuss Voigt Hill
#
# Bulk Modulus (GPa) = 44.26086 81.24901 62.75493
# Shear Modulus (GPa) = 24.48226 36.94704 30.71465
#
# Velocity S-wave (km/s) = 3.26181 4.00704 3.65348
# Velocity P-wave (km/s) = 5.78106 7.53110 6.71335
#
# Compressibility (1/GPa) = 0.02259333
#
# Stress axis : x y z
#
# Youngs Moduli (GPa) = 44.55393 139.47062 162.91821
#
# Poissons Ratio (x) = 0.69329 -0.21520
# Poissons Ratio (y) = 0.22147 0.47730
# Poissons Ratio (z) = -0.05885 0.40861
#
# Static dielectric constant tensor:
#      x y z
#    x 3.841320 0.000000 0.000000 
#    y 0.000000 4.422300 0.000000 
#    z 0.000000 0.000000 3.367060 
# 
# 
# High freq. dielectric constant tensor:
#      x y z
#    x 1.895190 0.000000 0.000000 
#    y 0.000000 1.920730 0.000000 
#    z 0.000000 0.000000 1.944180 
# 
# From -- ./inp_files/438.got.cif
#   From: 2010.03.12/outbox.cif.g09.slc.cpg/sg60_1_cif.got.tgz:438.got - 2010.04.10 18:46:24.
