data_PCOD8247343
_publ_section_title
;
Structure prediction by ZEFSAII (Michael W. Deem and Ramdas Pophale) SiO2 
 PCOD8247343
Probable space group: P B C N
;
_chemical_formula_sum "Si O2"
_cell_formula_units_Z 56
_cell_length_a 15.277242
_cell_length_b 20.407810
_cell_length_c 9.201375
_cell_angle_alpha 90.000000
_cell_angle_beta 90.000000
_cell_angle_gamma 90.000000
_cell_volume 2868.759170
_symmetry_space_group_name_H-M "P B C N"
_symmetry_group_IT_number 60
_symmetry_cell_setting 'orthorhombic'
loop_
_space_group_symop_operation_xyz
x,y,z
1/2-x,1/2-y,1/2+z
1/2+x,1/2-y,-z
-x,y,1/2-z
-x,-y,-z
1/2+x,1/2+y,1/2-z
1/2-x,1/2+y,z
x,-y,1/2+z
loop_
_atom_site_type_symbol
_atom_site_label
_atom_site_fract_x
_atom_site_fract_y
_atom_site_fract_z
Si Si1 0.542792 0.945414 0.402064
Si Si2 0.482018 0.721851 0.596266
Si Si3 0.951642 0.369077 0.888510
Si Si4 0.736556 0.045984 0.813685
Si Si5 0.698652 0.313266 0.381292
Si Si6 0.235627 0.422326 0.521613
Si Si7 0.823819 0.787403 0.043803
O O1 0.500000 0.949112 0.250000
O O2 0.516426 0.876161 0.473705
O O3 0.644891 0.953847 0.395264
O O4 0.500000 0.000000 0.500000
O O5 0.500000 0.685711 0.750000
O O6 0.441489 0.792617 0.635270
O O7 0.394491 0.688653 0.529832
O O8 0.571989 0.720316 0.504142
O O9 0.859235 0.403803 0.915723
O O10 0.000000 0.402328 0.750000
O O11 0.784371 0.109660 0.874492
O O12 0.728586 0.047472 0.640048
O O13 0.779419 0.977471 0.871921
O O14 0.692847 0.284066 0.217071
O O15 0.772379 0.272718 0.468524
O O16 0.294666 0.357151 0.521700
#
# Coordination Sequence:
#
# PCOD8247343 Si02
#       7
#     8   8   8   8   8   8   8
#     4  12  21  32  48  75 112 148 185 223 283 347
#     4   9  19  38  61  85 114 149 196 238 295 353
#     4  11  21  33  57  84 112 151 186 235 291 356
#     4  11  23  37  54  82 119 157 191 242 289 348
#     4  10  21  38  62  88 116 153 197 244 298 349
#     4  11  23  38  56  84 121 154 197 239 293 351
#     4  10  21  40  62  88 116 154 198 249 291 351
#
# _framework density 19.520634999999999
#
# number of rings (size 3 to 8) (size 9 to 14) (size 15 to 20)
#    0.000    1.429    4.286    1.286    2.000    1.143 
#    0.000    1.429    0.000    0.000    0.000    0.000 
#    0.000    0.000    0.000    0.000    0.000    0.000 
#
# Total GULP energy -693742.552267 kJ/mol
# GULP energy per Si atom -12388.259862 kJ/mol
# Density = 1.947621 g / cm^3
# Si number density = 19.520635 Si / 1000 Ang^3
#
#
#
# Elastic Constant Matrix: (Units=GPa)
#
#
# Indices 1 2 3 4 5 6 
#
# 1 131.3079 49.5721 44.2130 0.0000 0.0000 0.0000
# 2 49.5721 108.0055 42.8695 0.0000 0.0000 0.0000
# 3 44.2130 42.8695 86.6334 0.0000 0.0000 0.0000
# 4 0.0000 0.0000 0.0000 31.3336 0.0000 0.0000
# 5 0.0000 0.0000 0.0000 0.0000 23.8075 0.0000
# 6 0.0000 0.0000 0.0000 0.0000 0.0000 29.6848
#
#
#
# Elastic Compliance Matrix: (Units=1/GPa)
#
#
# Indices 1 2 3 4 5 6 
#
# 1 0.010009 -0.003194 -0.003528 0.000000 0.000000 0.000000
# 2 -0.003194 0.012541 -0.004576 0.000000 0.000000 0.000000
# 3 -0.003528 -0.004576 0.015608 0.000000 0.000000 0.000000
# 4 0.000000 0.000000 0.000000 0.031915 0.000000 0.000000
# 5 0.000000 0.000000 0.000000 0.000000 0.042003 0.000000
# 6 0.000000 0.000000 0.000000 0.000000 0.000000 0.033687
#
#
# Mechanical properties :
#
#
# Convention : Reuss Voigt Hill
#
# Bulk Modulus (GPa) = 64.25485 66.58397 65.41941
# Shear Modulus (GPa) = 28.81091 29.58468 29.19780
#
# Velocity S-wave (km/s) = 3.84594 3.89724 3.87168
# Velocity P-wave (km/s) = 7.26013 7.37800 7.31930
#
# Compressibility (1/GPa) = 0.01556303
#
# Stress axis : x y z
#
# Youngs Moduli (GPa) = 99.90737 79.73925 64.07160
#
# Poissons Ratio (x) = 0.25467 0.22603
# Poissons Ratio (y) = 0.31908 0.29318
# Poissons Ratio (z) = 0.35245 0.36487
#
# Static dielectric constant tensor:
#      x y z
#    x 3.919440 0.000000 0.000000 
#    y 0.000000 3.919130 0.000000 
#    z 0.000000 0.000000 4.269900 
# 
# 
# High freq. dielectric constant tensor:
#      x y z
#    x 1.753320 0.000000 0.000000 
#    y 0.000000 1.765970 0.000000 
#    z 0.000000 0.000000 1.750140 
# 
# From -- ./inp_files/6157.got.cif
#   From: 2010.03.12/outbox.cif.g09.slc.cpg/sg60_4_cif.got.tgz:6157.got - 2010.04.10 18:46:24.
