data_PCOD8247997
_publ_section_title
;
Structure prediction by ZEFSAII (Michael W. Deem and Ramdas Pophale) SiO2 
 PCOD8247997
Probable space group: P B C N
;
_chemical_formula_sum "Si O2"
_cell_formula_units_Z 64
_cell_length_a 9.195893
_cell_length_b 14.336959
_cell_length_c 21.546565
_cell_angle_alpha 90.000000
_cell_angle_beta 90.000000
_cell_angle_gamma 90.000000
_cell_volume 2840.723712
_symmetry_space_group_name_H-M "P B C N"
_symmetry_group_IT_number 60
_symmetry_cell_setting 'orthorhombic'
loop_
_space_group_symop_operation_xyz
x,y,z
1/2-x,1/2-y,1/2+z
1/2+x,1/2-y,-z
-x,y,1/2-z
-x,-y,-z
1/2+x,1/2+y,1/2-z
1/2-x,1/2+y,z
x,-y,1/2+z
loop_
_atom_site_type_symbol
_atom_site_label
_atom_site_fract_x
_atom_site_fract_y
_atom_site_fract_z
Si Si1 0.781556 0.881354 0.133444
Si Si2 0.887906 0.457147 0.583232
Si Si3 0.336548 0.288130 0.241809
Si Si4 0.080647 0.199590 0.056106
Si Si5 0.602575 0.338160 0.807061
Si Si6 0.396039 0.549714 0.650220
Si Si7 0.255222 0.715473 0.455707
Si Si8 0.709951 0.024585 0.449795
O O1 0.759657 0.818773 0.194307
O O2 0.748851 0.818770 0.073260
O O3 0.942417 0.923745 0.129354
O O4 0.667190 0.967596 0.133608
O O5 0.816683 0.355444 0.594470
O O6 0.824950 0.485426 0.516550
O O7 0.061291 0.446913 0.585254
O O8 0.500000 0.253508 0.250000
O O9 0.260992 0.198969 0.211283
O O10 0.330576 0.378884 0.198972
O O11 0.057543 0.217106 0.129853
O O12 0.180791 0.110437 0.045473
O O13 0.919859 0.186322 0.027361
O O14 0.159834 0.284483 0.019644
O O15 0.500000 0.310874 0.750000
O O16 0.604957 0.448360 0.817786
O O17 0.291878 0.553809 0.590447
#
# Coordination Sequence:
#
# PCOD8247997 Si02
#       8
#     8   8   8   8   8   8   8   8
#     4  11  24  45  68 103 139 181 239 288 356 425
#     4  11  24  42  65  98 143 179 232 287 351 426
#     4  10  24  43  68 100 135 181 234 294 347 419
#     4  11  25  44  66 104 137 183 235 291 358 425
#     4  11  23  45  70  98 133 183 236 283 355 424
#     4  10  24  44  71  96 139 185 231 288 356 414
#     4  12  26  40  70  99 136 184 230 290 359 426
#     4  10  23  43  64  98 138 180 229 290 348 423
#
# _framework density 22.529471000000001
#
# number of rings (size 3 to 8) (size 9 to 14) (size 15 to 20)
#    0.000    1.250    1.250    4.125    5.250    8.000 
#    0.000    0.625    0.000    0.000    0.000    0.000 
#    0.000    0.000    0.000    0.000    0.000    0.000 
#
# Total GULP energy -793637.294308 kJ/mol
# GULP energy per Si atom -12400.582724 kJ/mol
# Density = 2.247819 g / cm^3
# Si number density = 22.529471 Si / 1000 Ang^3
#
#
#
# Elastic Constant Matrix: (Units=GPa)
#
#
# Indices 1 2 3 4 5 6 
#
# 1 138.5362 46.5739 22.0740 0.0000 0.0000 0.0000
# 2 46.5739 89.8854 9.7051 0.0000 0.0000 0.0000
# 3 22.0740 9.7051 72.1972 0.0000 0.0000 0.0000
# 4 0.0000 0.0000 0.0000 22.3221 0.0000 0.0000
# 5 0.0000 0.0000 0.0000 0.0000 33.1945 0.0000
# 6 0.0000 0.0000 0.0000 0.0000 0.0000 39.8142
#
#
#
# Elastic Compliance Matrix: (Units=1/GPa)
#
#
# Indices 1 2 3 4 5 6 
#
# 1 0.009064 -0.004462 -0.002172 0.000000 0.000000 0.000000
# 2 -0.004462 0.013486 -0.000449 0.000000 0.000000 0.000000
# 3 -0.002172 -0.000449 0.014575 0.000000 0.000000 0.000000
# 4 0.000000 0.000000 0.000000 0.044799 0.000000 0.000000
# 5 0.000000 0.000000 0.000000 0.000000 0.030125 0.000000
# 6 0.000000 0.000000 0.000000 0.000000 0.000000 0.025117
#
#
# Mechanical properties :
#
#
# Convention : Reuss Voigt Hill
#
# Bulk Modulus (GPa) = 43.55254 50.81386 47.18320
# Shear Modulus (GPa) = 31.44957 33.88389 32.66673
#
# Velocity S-wave (km/s) = 3.74027 3.88233 3.81196
# Velocity P-wave (km/s) = 6.16653 6.53452 6.35319
#
# Compressibility (1/GPa) = 0.02296077
#
# Stress axis : x y z
#
# Youngs Moduli (GPa) = 110.32052 74.15193 68.60971
#
# Poissons Ratio (x) = 0.33089 0.14899
# Poissons Ratio (y) = 0.49228 0.03077
# Poissons Ratio (z) = 0.23957 0.03326
#
# Static dielectric constant tensor:
#      x y z
#    x 4.223140 0.000000 0.000000 
#    y 0.000000 4.044030 0.000000 
#    z 0.000000 0.000000 4.325510 
# 
# 
# High freq. dielectric constant tensor:
#      x y z
#    x 1.895920 0.000000 0.000000 
#    y 0.000000 1.890340 0.000000 
#    z 0.000000 0.000000 1.886750 
# 
# From -- ./inp_files/24071.got.cif
#   From: 2010.03.12/outbox.cif.g09.slc.cpg/sg60_13_cif.got.tgz:24071.got - 2010.04.10 18:46:24.
