data_PCOD8247225
_publ_section_title
;
Structure prediction by ZEFSAII (Michael W. Deem and Ramdas Pophale) SiO2 
 PCOD8247225
Probable space group: P B C N
;
_chemical_formula_sum "Si O2"
_cell_formula_units_Z 52
_cell_length_a 21.317032
_cell_length_b 5.592526
_cell_length_c 21.901694
_cell_angle_alpha 90.000000
_cell_angle_beta 90.000000
_cell_angle_gamma 90.000000
_cell_volume 2611.033572
_symmetry_space_group_name_H-M "P B C N"
_symmetry_group_IT_number 60
_symmetry_cell_setting 'orthorhombic'
loop_
_space_group_symop_operation_xyz
x,y,z
1/2-x,1/2-y,1/2+z
1/2+x,1/2-y,-z
-x,y,1/2-z
-x,-y,-z
1/2+x,1/2+y,1/2-z
1/2-x,1/2+y,z
x,-y,1/2+z
loop_
_atom_site_type_symbol
_atom_site_label
_atom_site_fract_x
_atom_site_fract_y
_atom_site_fract_z
Si Si1 0.215236 0.994771 0.242242
Si Si2 0.080821 0.067362 0.436626
Si Si3 0.961399 0.242811 0.941540
Si Si4 0.498694 0.123316 0.857057
Si Si5 0.410325 0.497547 0.676194
Si Si6 0.000000 0.697871 0.250000
Si Si7 0.213129 0.995214 0.382814
O O1 0.257233 0.230096 0.229775
O O2 0.192318 0.000800 0.312242
O O3 0.161751 0.029905 0.191922
O O4 0.078152 0.240676 0.495905
O O5 0.057701 0.202375 0.375547
O O6 0.151261 0.978181 0.425098
O O7 0.032499 0.853332 0.450049
O O8 0.921313 0.097462 0.891721
O O9 0.971040 0.512700 0.918604
O O10 0.555689 0.243098 0.820319
O O11 0.470990 0.937393 0.808632
O O12 0.440037 0.656386 0.729078
O O13 0.248342 0.249226 0.397435
#
# Coordination Sequence:
#
# PCOD8247225 Si02
#       7
#     8   8   8   8   8   4   8
#     4  10  24  41  63  87 125 171 207 257 316 379
#     4  10  21  39  64  86 127 160 209 262 313 366
#     4   9  21  39  60  96 118 163 202 260 321 377
#     4  10  21  34  60  92 121 159 199 255 320 374
#     4  10  22  38  57  91 123 153 211 252 315 382
#     4  10  22  32  56  92 124 152 198 264 314 370
#     4  10  24  42  61  91 120 166 216 257 308 373
#
# _framework density 19.915483999999999
#
# number of rings (size 3 to 8) (size 9 to 14) (size 15 to 20)
#    0.000    2.154    0.000    0.923   15.077    1.231 
#    0.000    1.538    0.000    0.000    0.000    0.000 
#    0.000    0.000    0.000    0.000    0.000    0.000 
#
# Total GULP energy -644396.304669 kJ/mol
# GULP energy per Si atom -12392.236628 kJ/mol
# Density = 1.987016 g / cm^3
# Si number density = 19.915484 Si / 1000 Ang^3
#
#
#
# Elastic Constant Matrix: (Units=GPa)
#
#
# Indices 1 2 3 4 5 6 
#
# 1 113.5581 32.1476 50.4631 0.0000 0.0000 0.0000
# 2 32.1476 101.6291 17.6297 0.0000 0.0000 0.0000
# 3 50.4631 17.6297 70.0474 0.0000 0.0000 0.0000
# 4 0.0000 0.0000 0.0000 143.2638 0.0000 0.0000
# 5 0.0000 0.0000 0.0000 0.0000 35.3206 0.0000
# 6 0.0000 0.0000 0.0000 0.0000 0.0000 14.4250
#
#
#
# Elastic Compliance Matrix: (Units=1/GPa)
#
#
# Indices 1 2 3 4 5 6 
#
# 1 0.013640 -0.002729 -0.009140 0.000000 0.000000 0.000000
# 2 -0.002729 0.010835 -0.000761 0.000000 0.000000 0.000000
# 3 -0.009140 -0.000761 0.021052 0.000000 0.000000 0.000000
# 4 0.000000 0.000000 0.000000 0.006980 0.000000 0.000000
# 5 0.000000 0.000000 0.000000 0.000000 0.028312 0.000000
# 6 0.000000 0.000000 0.000000 0.000000 0.000000 0.069324
#
#
# Mechanical properties :
#
#
# Convention : Reuss Voigt Hill
#
# Bulk Modulus (GPa) = 49.33973 53.96837 51.65405
# Shear Modulus (GPa) = 27.44861 50.93484 39.19172
#
# Velocity S-wave (km/s) = 3.71651 5.06271 4.44092
# Velocity P-wave (km/s) = 6.57609 7.83149 7.23108
#
# Compressibility (1/GPa) = 0.02026764
#
# Stress axis : x y z
#
# Youngs Moduli (GPa) = 73.31267 92.29353 47.50166
#
# Poissons Ratio (x) = 0.25189 0.43415
# Poissons Ratio (y) = 0.20009 0.03614
# Poissons Ratio (z) = 0.67006 0.07022
#
# Static dielectric constant tensor:
#      x y z
#    x 3.274410 0.000000 0.000000 
#    y 0.000000 3.901430 0.000000 
#    z 0.000000 0.000000 3.673930 
# 
# 
# High freq. dielectric constant tensor:
#      x y z
#    x 1.747950 0.000000 0.000000 
#    y 0.000000 1.790910 0.000000 
#    z 0.000000 0.000000 1.780790 
# 
# From -- ./inp_files/23181.got.cif
#   From: 2010.03.12/outbox.cif.g09.slc.cpg/sg60_12_cif.got.tgz:23181.got - 2010.04.10 18:46:24.
