data_PCOD8247914
_publ_section_title
;
Structure prediction by ZEFSAII (Michael W. Deem and Ramdas Pophale) SiO2 
 PCOD8247914
Probable space group: P B C N
;
_chemical_formula_sum "Si O2"
_cell_formula_units_Z 56
_cell_length_a 14.852370
_cell_length_b 18.293351
_cell_length_c 9.234454
_cell_angle_alpha 90.000000
_cell_angle_beta 90.000000
_cell_angle_gamma 90.000000
_cell_volume 2508.997620
_symmetry_space_group_name_H-M "P B C N"
_symmetry_group_IT_number 60
_symmetry_cell_setting 'orthorhombic'
loop_
_space_group_symop_operation_xyz
x,y,z
1/2-x,1/2-y,1/2+z
1/2+x,1/2-y,-z
-x,y,1/2-z
-x,-y,-z
1/2+x,1/2+y,1/2-z
1/2-x,1/2+y,z
x,-y,1/2+z
loop_
_atom_site_type_symbol
_atom_site_label
_atom_site_fract_x
_atom_site_fract_y
_atom_site_fract_z
Si Si1 0.683039 0.280105 0.368389
Si Si2 0.000000 0.976265 0.750000
Si Si3 0.614902 0.983426 0.897742
Si Si4 0.282145 0.047890 0.361404
Si Si5 0.000000 0.603066 0.750000
Si Si6 0.107972 0.067920 0.517908
Si Si7 0.163689 0.290184 0.920089
Si Si8 0.039539 0.334503 0.531190
O O1 0.636525 0.353658 0.423306
O O2 0.687051 0.274616 0.193873
O O3 0.784612 0.270620 0.430457
O O4 0.621036 0.213778 0.416551
O O5 0.070430 0.026359 0.659675
O O6 0.040964 0.925558 0.878582
O O7 0.708302 0.974510 0.806749
O O8 0.566483 0.056341 0.847014
O O9 0.549796 0.913084 0.887357
O O10 0.638334 0.001026 0.063427
O O11 0.190902 0.024890 0.442689
O O12 0.294751 0.134306 0.365915
O O13 0.053541 0.655514 0.859761
O O14 0.056224 0.296864 0.935949
#
# Coordination Sequence:
#
# PCOD8247914 Si02
#       8
#     8   4   8   8   4   8   8   8
#     4  11  27  46  69 100 134 185 227 279 345 406
#     4  10  22  49  71 104 124 174 238 288 348 406
#     4  12  22  39  67 102 139 180 218 271 341 417
#     4  11  22  41  65 100 139 173 223 279 340 398
#     4  12  24  37  65 106 136 180 226 272 334 414
#     4  10  24  45  73  99 134 174 228 296 343 409
#     4  11  25  46  65  95 138 177 231 279 334 414
#     4  12  25  42  70  99 144 183 227 281 343 411
#
# _framework density 22.319671
#
# number of rings (size 3 to 8) (size 9 to 14) (size 15 to 20)
#    0.000    0.857    4.286    2.571    4.000    0.571 
#    5.143    0.000    0.000    0.000    0.000    0.000 
#    0.000    0.000    0.000    0.000    0.000    0.000 
#
# Total GULP energy -693936.393540 kJ/mol
# GULP energy per Si atom -12391.721313 kJ/mol
# Density = 2.226887 g / cm^3
# Si number density = 22.319671 Si / 1000 Ang^3
#
#
#
# Elastic Constant Matrix: (Units=GPa)
#
#
# Indices 1 2 3 4 5 6 
#
# 1 89.6907 15.7781 28.1262 0.0000 0.0000 0.0000
# 2 15.7781 53.4550 34.2499 0.0000 0.0000 0.0000
# 3 28.1262 34.2499 119.8229 0.0000 0.0000 0.0000
# 4 0.0000 0.0000 0.0000 39.7064 0.0000 0.0000
# 5 0.0000 0.0000 0.0000 0.0000 47.6134 0.0000
# 6 0.0000 0.0000 0.0000 0.0000 0.0000 25.3312
#
#
#
# Elastic Compliance Matrix: (Units=1/GPa)
#
#
# Indices 1 2 3 4 5 6 
#
# 1 0.012237 -0.002169 -0.002253 0.000000 0.000000 0.000000
# 2 -0.002169 0.023286 -0.006147 0.000000 0.000000 0.000000
# 3 -0.002253 -0.006147 0.010631 0.000000 0.000000 0.000000
# 4 0.000000 0.000000 0.000000 0.025185 0.000000 0.000000
# 5 0.000000 0.000000 0.000000 0.000000 0.021002 0.000000
# 6 0.000000 0.000000 0.000000 0.000000 0.000000 0.039477
#
#
# Mechanical properties :
#
#
# Convention : Reuss Voigt Hill
#
# Bulk Modulus (GPa) = 39.97091 46.58632 43.27861
# Shear Modulus (GPa) = 30.99909 34.85115 32.92512
#
# Velocity S-wave (km/s) = 3.73080 3.95581 3.84495
# Velocity P-wave (km/s) = 6.04199 6.46392 6.25651
#
# Compressibility (1/GPa) = 0.02501820
#
# Stress axis : x y z
#
# Youngs Moduli (GPa) = 81.71715 42.94431 94.06074
#
# Poissons Ratio (x) = 0.09314 0.21188
# Poissons Ratio (y) = 0.17722 0.57819
# Poissons Ratio (z) = 0.18407 0.26398
#
# Static dielectric constant tensor:
#      x y z
#    x 4.210070 0.000000 0.000000 
#    y 0.000000 3.862060 0.000000 
#    z 0.000000 0.000000 4.666900 
# 
# 
# High freq. dielectric constant tensor:
#      x y z
#    x 1.879470 0.000000 0.000000 
#    y 0.000000 1.859190 0.000000 
#    z 0.000000 0.000000 1.902150 
# 
# From -- ./inp_files/6214.got.cif
#   From: 2010.03.12/outbox.cif.g09.slc.cpg/sg60_4_cif.got.tgz:6214.got - 2010.04.10 18:46:24.
