data_PCOD8247674
_publ_section_title
;
Structure prediction by ZEFSAII (Michael W. Deem and Ramdas Pophale) SiO2 
 PCOD8247674
Probable space group: P B C N
;
_chemical_formula_sum "Si O2"
_cell_formula_units_Z 56
_cell_length_a 19.437862
_cell_length_b 9.154806
_cell_length_c 13.549588
_cell_angle_alpha 90.000000
_cell_angle_beta 90.000000
_cell_angle_gamma 90.000000
_cell_volume 2411.147229
_symmetry_space_group_name_H-M "P B C N"
_symmetry_group_IT_number 60
_symmetry_cell_setting 'orthorhombic'
loop_
_space_group_symop_operation_xyz
x,y,z
1/2-x,1/2-y,1/2+z
1/2+x,1/2-y,-z
-x,y,1/2-z
-x,-y,-z
1/2+x,1/2+y,1/2-z
1/2-x,1/2+y,z
x,-y,1/2+z
loop_
_atom_site_type_symbol
_atom_site_label
_atom_site_fract_x
_atom_site_fract_y
_atom_site_fract_z
Si Si1 0.871289 0.651002 0.493635
Si Si2 0.168456 0.037973 0.763658
Si Si3 0.450985 0.630463 0.894603
Si Si4 0.200425 0.714856 0.809997
Si Si5 0.607389 0.984377 0.307099
Si Si6 0.905463 0.031879 0.929616
Si Si7 0.536105 0.958313 0.617584
O O1 0.814695 0.646220 0.581174
O O2 0.848710 0.583553 0.386179
O O3 0.894727 0.816001 0.485393
O O4 0.935275 0.547617 0.524514
O O5 0.095555 0.100858 0.799532
O O6 0.223723 0.165606 0.779247
O O7 0.155554 0.005390 0.648178
O O8 0.195135 0.890219 0.815855
O O9 0.517337 0.525735 0.884703
O O10 0.482235 0.792013 0.907651
O O11 0.402262 0.595281 0.988609
O O12 0.148579 0.662101 0.722657
O O13 0.531042 0.951381 0.347924
O O14 0.594542 0.063796 0.202271
#
# Coordination Sequence:
#
# PCOD8247674 Si02
#       7
#     8   8   8   8   8   8   8
#     4  11  22  45  69 103 139 180 231 291 348 425
#     4  12  28  50  68  99 144 186 244 294 358 426
#     4  11  24  44  70 108 136 181 231 298 356 418
#     4  11  29  48  69  99 140 190 238 297 343 433
#     4  10  22  41  69 103 136 186 227 280 356 414
#     4  11  25  43  72 103 141 181 230 296 366 416
#     4  10  22  38  72 105 143 176 229 286 346 426
#
# _framework density 23.225460000000002
#
# number of rings (size 3 to 8) (size 9 to 14) (size 15 to 20)
#    0.000    1.143    2.857    1.714   10.000    2.286 
#    5.143    0.000    0.000    0.000    0.000    0.000 
#    0.000    0.000    0.000    0.000    0.000    0.000 
#
# Total GULP energy -694079.099423 kJ/mol
# GULP energy per Si atom -12394.269633 kJ/mol
# Density = 2.317260 g / cm^3
# Si number density = 23.225460 Si / 1000 Ang^3
#
#
#
# Elastic Constant Matrix: (Units=GPa)
#
#
# Indices 1 2 3 4 5 6 
#
# 1 69.4856 8.8932 22.9319 0.0000 0.0000 0.0000
# 2 8.8932 70.3752 8.0119 0.0000 0.0000 0.0000
# 3 22.9319 8.0119 110.3873 0.0000 0.0000 0.0000
# 4 0.0000 0.0000 0.0000 33.6363 0.0000 0.0000
# 5 0.0000 0.0000 0.0000 0.0000 34.2847 0.0000
# 6 0.0000 0.0000 0.0000 0.0000 0.0000 28.1954
#
#
#
# Elastic Compliance Matrix: (Units=1/GPa)
#
#
# Indices 1 2 3 4 5 6 
#
# 1 0.015632 -0.001619 -0.003130 0.000000 0.000000 0.000000
# 2 -0.001619 0.014496 -0.000716 0.000000 0.000000 0.000000
# 3 -0.003130 -0.000716 0.009761 0.000000 0.000000 0.000000
# 4 0.000000 0.000000 0.000000 0.029730 0.000000 0.000000
# 5 0.000000 0.000000 0.000000 0.000000 0.029168 0.000000
# 6 0.000000 0.000000 0.000000 0.000000 0.000000 0.035467
#
#
# Mechanical properties :
#
#
# Convention : Reuss Voigt Hill
#
# Bulk Modulus (GPa) = 34.53134 36.65801 35.59467
# Shear Modulus (GPa) = 32.29250 33.25068 32.77159
#
# Velocity S-wave (km/s) = 3.73284 3.78782 3.76043
# Velocity P-wave (km/s) = 5.78610 5.91167 5.84922
#
# Compressibility (1/GPa) = 0.02895920
#
# Stress axis : x y z
#
# Youngs Moduli (GPa) = 63.97301 68.98634 102.44696
#
# Poissons Ratio (x) = 0.11169 0.32064
# Poissons Ratio (y) = 0.10357 0.07333
# Poissons Ratio (z) = 0.20022 0.04938
#
# Static dielectric constant tensor:
#      x y z
#    x 3.877710 0.000000 0.000000 
#    y 0.000000 3.896220 0.000000 
#    z 0.000000 0.000000 4.483050 
# 
# 
# High freq. dielectric constant tensor:
#      x y z
#    x 1.900750 0.000000 0.000000 
#    y 0.000000 1.903760 0.000000 
#    z 0.000000 0.000000 1.937020 
# 
# From -- ./inp_files/17711.got.cif
#   From: 2010.03.12/outbox.cif.g09.slc.cpg/sg60_9_cif.got.tgz:17711.got - 2010.04.10 18:46:24.
