data_PCOD8247427
_publ_section_title
;
Structure prediction by ZEFSAII (Michael W. Deem and Ramdas Pophale) SiO2 
 PCOD8247427
Probable space group: P B C N
;
_chemical_formula_sum "Si O2"
_cell_formula_units_Z 40
_cell_length_a 12.652626
_cell_length_b 30.350241
_cell_length_c 4.885350
_cell_angle_alpha 90.000000
_cell_angle_beta 90.000000
_cell_angle_gamma 90.000000
_cell_volume 1876.024467
_symmetry_space_group_name_H-M "P B C N"
_symmetry_group_IT_number 60
_symmetry_cell_setting 'orthorhombic'
loop_
_space_group_symop_operation_xyz
x,y,z
1/2-x,1/2-y,1/2+z
1/2+x,1/2-y,-z
-x,y,1/2-z
-x,-y,-z
1/2+x,1/2+y,1/2-z
1/2-x,1/2+y,z
x,-y,1/2+z
loop_
_atom_site_type_symbol
_atom_site_label
_atom_site_fract_x
_atom_site_fract_y
_atom_site_fract_z
Si Si1 0.929896 0.161376 0.502209
Si Si2 0.818719 0.750875 0.005437
Si Si3 0.781411 0.381689 0.887455
Si Si4 0.889988 0.658460 0.879163
Si Si5 0.621008 0.028897 0.241617
O O1 0.882230 0.207150 0.617980
O O2 0.843676 0.128138 0.367727
O O3 0.000000 0.140258 0.750000
O O4 0.000000 0.175975 0.250000
O O5 0.756453 0.730848 0.264302
O O6 0.888673 0.711573 0.877560
O O7 0.863706 0.357072 0.685813
O O8 0.798736 0.433457 0.839567
O O9 0.801799 0.364591 0.194108
O O10 0.000000 0.641944 0.750000
O O11 0.500000 0.046079 0.250000
O O12 0.641776 0.986210 0.431366
#
# Coordination Sequence:
#
# PCOD8247427 Si02
#       5
#     8   8   8   8   8
#     4  12  25  42  64  87 123 176 223 263 311 366
#     4  12  22  41  60  86 127 169 213 268 315 369
#     4  12  24  42  64  93 130 161 214 266 313 386
#     4  12  23  38  62  93 126 167 205 262 325 379
#     4  10  21  39  65  96 127 160 195 247 329 409
#
# _framework density 21.321686
#
# number of rings (size 3 to 8) (size 9 to 14) (size 15 to 20)
#    0.000    0.400    4.000    6.000    0.000    3.200 
#    0.000    0.000    0.000    3.600    0.000    0.000 
#    0.000    0.000    0.000    0.000    0.000    0.000 
#
# Total GULP energy -495947.961818 kJ/mol
# GULP energy per Si atom -12398.699045 kJ/mol
# Density = 2.127316 g / cm^3
# Si number density = 21.321686 Si / 1000 Ang^3
#
#
#
# Elastic Constant Matrix: (Units=GPa)
#
#
# Indices 1 2 3 4 5 6 
#
# 1 95.1383 37.6350 24.1814 0.0000 0.0000 0.0000
# 2 37.6350 101.9628 9.7680 0.0000 0.0000 0.0000
# 3 24.1814 9.7680 89.8145 0.0000 0.0000 0.0000
# 4 0.0000 0.0000 0.0000 13.2035 0.0000 0.0000
# 5 0.0000 0.0000 0.0000 0.0000 40.4560 0.0000
# 6 0.0000 0.0000 0.0000 0.0000 0.0000 15.5170
#
#
#
# Elastic Compliance Matrix: (Units=1/GPa)
#
#
# Indices 1 2 3 4 5 6 
#
# 1 0.013075 -0.004536 -0.003027 0.000000 0.000000 0.000000
# 2 -0.004536 0.011484 -0.000028 0.000000 0.000000 0.000000
# 3 -0.003027 -0.000028 0.011952 0.000000 0.000000 0.000000
# 4 0.000000 0.000000 0.000000 0.075738 0.000000 0.000000
# 5 0.000000 0.000000 0.000000 0.000000 0.024718 0.000000
# 6 0.000000 0.000000 0.000000 0.000000 0.000000 0.064445
#
#
# Mechanical properties :
#
#
# Convention : Reuss Voigt Hill
#
# Bulk Modulus (GPa) = 46.88249 47.78715 47.33482
# Shear Modulus (GPa) = 22.35100 28.19071 25.27086
#
# Velocity S-wave (km/s) = 3.24122 3.64010 3.44644
# Velocity P-wave (km/s) = 6.00360 6.33468 6.17136
#
# Compressibility (1/GPa) = 0.02132993
#
# Stress axis : x y z
#
# Youngs Moduli (GPa) = 76.48351 87.07457 83.66777
#
# Poissons Ratio (x) = 0.39497 0.25325
# Poissons Ratio (y) = 0.34693 0.00232
# Poissons Ratio (z) = 0.23151 0.00242
#
# Static dielectric constant tensor:
#      x y z
#    x 4.090080 0.000000 0.000000 
#    y 0.000000 3.523710 0.000000 
#    z 0.000000 0.000000 3.931410 
# 
# 
# High freq. dielectric constant tensor:
#      x y z
#    x 1.820080 0.000000 0.000000 
#    y 0.000000 1.813820 0.000000 
#    z 0.000000 0.000000 1.857250 
# 
# From -- ./inp_files/944.got.cif
#   From: 2010.03.12/outbox.cif.g09.slc.cpg/sg60_1_cif.got.tgz:944.got - 2010.04.10 18:46:24.
