data_PCOD8247537
_publ_section_title
;
Structure prediction by ZEFSAII (Michael W. Deem and Ramdas Pophale) SiO2 
 PCOD8247537
Probable space group: P B C N
;
_chemical_formula_sum "Si O2"
_cell_formula_units_Z 32
_cell_length_a 7.361475
_cell_length_b 18.797669
_cell_length_c 12.506822
_cell_angle_alpha 90.000000
_cell_angle_beta 90.000000
_cell_angle_gamma 90.000000
_cell_volume 1730.676149
_symmetry_space_group_name_H-M "P B C N"
_symmetry_group_IT_number 60
_symmetry_cell_setting 'orthorhombic'
loop_
_space_group_symop_operation_xyz
x,y,z
1/2-x,1/2-y,1/2+z
1/2+x,1/2-y,-z
-x,y,1/2-z
-x,-y,-z
1/2+x,1/2+y,1/2-z
1/2-x,1/2+y,z
x,-y,1/2+z
loop_
_atom_site_type_symbol
_atom_site_label
_atom_site_fract_x
_atom_site_fract_y
_atom_site_fract_z
Si Si1 0.161504 0.592028 0.938580
Si Si2 0.661147 0.173544 0.003411
Si Si3 0.542564 0.947162 0.632970
Si Si4 0.474157 0.309362 0.376453
O O1 0.115729 0.527626 0.857806
O O2 0.360773 0.620758 0.910878
O O3 0.014546 0.656526 0.927955
O O4 0.141363 0.558965 0.059406
O O5 0.828462 0.186244 0.926911
O O6 0.694267 0.105180 0.080783
O O7 0.628759 0.240917 0.078874
O O8 0.500000 0.918260 0.750000
O O9 0.500000 0.304393 0.250000
#
# Coordination Sequence:
#
# PCOD8247537 Si02
#       4
#     8   8   8   8
#     4   9  22  39  60  90 120 155 207 248 289 364
#     4  10  21  42  57  90 123 155 205 249 290 368
#     4   9  19  40  66  84 126 163 192 249 308 346
#     4  12  24  38  65  90 122 161 202 248 306 355
#
# _framework density 18.489881
#
# number of rings (size 3 to 8) (size 9 to 14) (size 15 to 20)
#    1.500    0.500    2.500    0.750    3.500    1.000 
#    0.000    3.750    0.000    0.000    0.000    0.000 
#    0.000    0.000    0.000    0.000    0.000    0.000 
#
# Total GULP energy -396450.184434 kJ/mol
# GULP energy per Si atom -12389.068264 kJ/mol
# Density = 1.844780 g / cm^3
# Si number density = 18.489881 Si / 1000 Ang^3
#
#
#
# Elastic Constant Matrix: (Units=GPa)
#
#
# Indices 1 2 3 4 5 6 
#
# 1 83.6627 28.0512 52.3048 0.0000 0.0000 0.0000
# 2 28.0512 95.4499 39.3732 0.0000 0.0000 0.0000
# 3 52.3048 39.3732 126.2847 0.0000 0.0000 0.0000
# 4 0.0000 0.0000 0.0000 17.4827 0.0000 0.0000
# 5 0.0000 0.0000 0.0000 0.0000 25.8563 0.0000
# 6 0.0000 0.0000 0.0000 0.0000 0.0000 34.3090
#
#
#
# Elastic Compliance Matrix: (Units=1/GPa)
#
#
# Indices 1 2 3 4 5 6 
#
# 1 0.016573 -0.002340 -0.006134 0.000000 0.000000 0.000000
# 2 -0.002340 0.012353 -0.002882 0.000000 0.000000 0.000000
# 3 -0.006134 -0.002882 0.011358 0.000000 0.000000 0.000000
# 4 0.000000 0.000000 0.000000 0.057199 0.000000 0.000000
# 5 0.000000 0.000000 0.000000 0.000000 0.038675 0.000000
# 6 0.000000 0.000000 0.000000 0.000000 0.000000 0.029147
#
#
# Mechanical properties :
#
#
# Convention : Reuss Voigt Hill
#
# Bulk Modulus (GPa) = 56.91405 60.53952 58.72679
# Shear Modulus (GPa) = 25.78970 27.90747 26.84858
#
# Velocity S-wave (km/s) = 3.73875 3.88923 3.81474
# Velocity P-wave (km/s) = 7.03461 7.27882 7.15776
#
# Compressibility (1/GPa) = 0.01757035
#
# Stress axis : x y z
#
# Youngs Moduli (GPa) = 60.34087 80.94966 88.04300
#
# Poissons Ratio (x) = 0.18942 0.54010
# Poissons Ratio (y) = 0.14119 0.25377
# Poissons Ratio (z) = 0.37016 0.23333
#
# Static dielectric constant tensor:
#      x y z
#    x 3.132210 0.000000 0.000000 
#    y 0.000000 3.473170 0.000000 
#    z 0.000000 0.000000 3.239310 
# 
# 
# High freq. dielectric constant tensor:
#      x y z
#    x 1.687580 0.000000 0.000000 
#    y 0.000000 1.732050 0.000000 
#    z 0.000000 0.000000 1.710400 
# 
# From -- ./inp_files/8819.got.cif
#   From: 2010.03.12/outbox.cif.g09.slc.cpg/sg60_5_cif.got.tgz:8819.got - 2010.04.10 18:46:24.
