data_PCOD8247594
_publ_section_title
;
Structure prediction by ZEFSAII (Michael W. Deem and Ramdas Pophale) SiO2 
 PCOD8247594
Probable space group: P B C N
;
_chemical_formula_sum "Si O2"
_cell_formula_units_Z 28
_cell_length_a 5.483183
_cell_length_b 20.683559
_cell_length_c 10.301764
_cell_angle_alpha 90.000000
_cell_angle_beta 90.000000
_cell_angle_gamma 90.000000
_cell_volume 1168.340971
_symmetry_space_group_name_H-M "P B C N"
_symmetry_group_IT_number 60
_symmetry_cell_setting 'orthorhombic'
loop_
_space_group_symop_operation_xyz
x,y,z
1/2-x,1/2-y,1/2+z
1/2+x,1/2-y,-z
-x,y,1/2-z
-x,-y,-z
1/2+x,1/2+y,1/2-z
1/2-x,1/2+y,z
x,-y,1/2+z
loop_
_atom_site_type_symbol
_atom_site_label
_atom_site_fract_x
_atom_site_fract_y
_atom_site_fract_z
Si Si1 0.500000 0.148682 0.750000
Si Si2 0.630583 0.411002 0.883434
Si Si3 0.282736 0.211749 0.977063
Si Si4 0.821666 0.051329 0.871828
O O1 0.302290 0.192557 0.825095
O O2 0.607577 0.103030 0.861247
O O3 0.500000 0.390975 0.750000
O O4 0.785231 0.477776 0.866764
O O5 0.793169 0.350690 0.928762
O O6 0.433970 0.430411 0.990935
O O7 0.520601 0.254171 0.010455
O O8 0.000000 0.061298 0.750000
#
# Coordination Sequence:
#
# PCOD8247594 Si02
#       4
#     4   8   8   8
#     4  12  26  50  78 106 150 206 256 320 388 456
#     4  10  23  48  77 115 151 191 255 322 380 455
#     4  12  29  52  76 110 157 210 258 310 374 469
#     4  10  21  47  79 111 148 193 249 324 396 444
#
# _framework density 23.965606000000001
#
# number of rings (size 3 to 8) (size 9 to 14) (size 15 to 20)
#    0.000    1.143    2.857    1.714    2.000    1.143 
#   15.429    0.000    0.000    0.000    0.000    0.000 
#    0.000    0.000    0.000    0.000    0.000    0.000 
#
# Total GULP energy -347002.043519 kJ/mol
# GULP energy per Si atom -12392.930126 kJ/mol
# Density = 2.391106 g / cm^3
# Si number density = 23.965606 Si / 1000 Ang^3
#
#
#
# Elastic Constant Matrix: (Units=GPa)
#
#
# Indices 1 2 3 4 5 6 
#
# 1 87.8608 59.9212 22.7353 0.0000 0.0000 0.0000
# 2 59.9212 153.3077 50.9253 0.0000 0.0000 0.0000
# 3 22.7353 50.9253 146.7613 0.0000 0.0000 0.0000
# 4 0.0000 0.0000 0.0000 44.1755 0.0000 0.0000
# 5 0.0000 0.0000 0.0000 0.0000 35.7250 0.0000
# 6 0.0000 0.0000 0.0000 0.0000 0.0000 39.5111
#
#
#
# Elastic Compliance Matrix: (Units=1/GPa)
#
#
# Indices 1 2 3 4 5 6 
#
# 1 0.015533 -0.005959 -0.000339 0.000000 0.000000 0.000000
# 2 -0.005959 0.009658 -0.002428 0.000000 0.000000 0.000000
# 3 -0.000339 -0.002428 0.007709 0.000000 0.000000 0.000000
# 4 0.000000 0.000000 0.000000 0.022637 0.000000 0.000000
# 5 0.000000 0.000000 0.000000 0.000000 0.027992 0.000000
# 6 0.000000 0.000000 0.000000 0.000000 0.000000 0.025309
#
#
# Mechanical properties :
#
#
# Convention : Reuss Voigt Hill
#
# Bulk Modulus (GPa) = 64.72896 72.78815 68.75856
# Shear Modulus (GPa) = 38.04032 40.83885 39.43959
#
# Velocity S-wave (km/s) = 3.98840 4.13251 4.06109
# Velocity P-wave (km/s) = 6.94820 7.29438 7.12340
#
# Compressibility (1/GPa) = 0.01544904
#
# Stress axis : x y z
#
# Youngs Moduli (GPa) = 64.37856 103.53612 129.72073
#
# Poissons Ratio (x) = 0.61694 0.04393
# Poissons Ratio (y) = 0.38361 0.31501
# Poissons Ratio (z) = 0.02180 0.25142
#
# Static dielectric constant tensor:
#      x y z
#    x 4.023960 0.000000 0.000000 
#    y 0.000000 5.052060 0.000000 
#    z 0.000000 0.000000 4.486200 
# 
# 
# High freq. dielectric constant tensor:
#      x y z
#    x 1.919780 0.000000 0.000000 
#    y 0.000000 1.976180 0.000000 
#    z 0.000000 0.000000 1.969960 
# 
# From -- ./inp_files/8739.got.cif
#   From: 2010.03.12/outbox.cif.g09.slc.cpg/sg60_5_cif.got.tgz:8739.got - 2010.04.10 18:46:24.
