data_PCOD8247368
_publ_section_title
;
Structure prediction by ZEFSAII (Michael W. Deem and Ramdas Pophale) SiO2 
 PCOD8247368
Probable space group: P B C N
;
_chemical_formula_sum "Si O2"
_cell_formula_units_Z 64
_cell_length_a 29.405645
_cell_length_b 11.656707
_cell_length_c 8.463932
_cell_angle_alpha 90.000000
_cell_angle_beta 90.000000
_cell_angle_gamma 90.000000
_cell_volume 2901.207261
_symmetry_space_group_name_H-M "P B C N"
_symmetry_group_IT_number 60
_symmetry_cell_setting 'orthorhombic'
loop_
_space_group_symop_operation_xyz
x,y,z
1/2-x,1/2-y,1/2+z
1/2+x,1/2-y,-z
-x,y,1/2-z
-x,-y,-z
1/2+x,1/2+y,1/2-z
1/2-x,1/2+y,z
x,-y,1/2+z
loop_
_atom_site_type_symbol
_atom_site_label
_atom_site_fract_x
_atom_site_fract_y
_atom_site_fract_z
Si Si1 0.877102 0.845217 0.059815
Si Si2 0.699813 0.798915 0.725577
Si Si3 0.129848 0.087247 0.302935
Si Si4 0.905768 0.495799 0.018966
Si Si5 0.440640 0.238003 0.908425
Si Si6 0.041626 0.707745 0.544777
Si Si7 0.339708 0.965916 0.237103
Si Si8 0.202615 0.753396 0.907921
O O1 0.840592 0.753787 0.121471
O O2 0.876450 0.952063 0.178348
O O3 0.868703 0.884533 0.881433
O O4 0.926670 0.787343 0.064002
O O5 0.698162 0.937460 0.729931
O O6 0.745348 0.757153 0.641658
O O7 0.698373 0.759770 0.905770
O O8 0.090219 0.148013 0.408436
O O9 0.178664 0.126133 0.369246
O O10 0.950311 0.575175 0.004343
O O11 0.856814 0.539282 0.944247
O O12 0.917821 0.362193 0.985196
O O13 0.890072 0.500244 0.200513
O O14 0.490872 0.255790 0.981339
O O15 0.444463 0.204078 0.726549
O O16 0.322944 0.845386 0.307410
#
# Coordination Sequence:
#
# PCOD8247368 Si02
#       8
#     8   8   8   8   8   8   8   8
#     4  11  24  43  68  93 131 177 222 275 331 392
#     4  12  27  44  69  98 132 170 221 270 331 393
#     4  11  23  44  66  92 131 176 223 275 331 392
#     4  12  20  41  67  97 135 174 212 270 334 392
#     4  10  21  39  64  97 134 172 224 274 331 391
#     4  10  21  38  65  98 131 176 221 276 331 391
#     4  12  24  42  71  96 134 170 212 269 333 387
#     4  12  27  45  69  99 131 172 220 275 326 401
#
# _framework density 22.059781999999998
#
# number of rings (size 3 to 8) (size 9 to 14) (size 15 to 20)
#    0.000    0.750    5.000    2.625    3.500    0.500 
#    0.000    0.000    0.000    0.000    0.000    0.000 
#    0.000    0.000    0.000    0.000    0.000    0.000 
#
# Total GULP energy -793146.120564 kJ/mol
# GULP energy per Si atom -12392.908134 kJ/mol
# Density = 2.200957 g / cm^3
# Si number density = 22.059782 Si / 1000 Ang^3
#
#
#
# Elastic Constant Matrix: (Units=GPa)
#
#
# Indices 1 2 3 4 5 6 
#
# 1 97.6210 16.2584 29.1244 0.0000 0.0000 0.0000
# 2 16.2584 91.9071 23.4557 0.0000 0.0000 0.0000
# 3 29.1244 23.4557 60.7420 0.0000 0.0000 0.0000
# 4 0.0000 0.0000 0.0000 21.3388 0.0000 0.0000
# 5 0.0000 0.0000 0.0000 0.0000 31.4829 0.0000
# 6 0.0000 0.0000 0.0000 0.0000 0.0000 29.9953
#
#
#
# Elastic Compliance Matrix: (Units=1/GPa)
#
#
# Indices 1 2 3 4 5 6 
#
# 1 0.011997 -0.000726 -0.005472 0.000000 0.000000 0.000000
# 2 -0.000726 0.012114 -0.004330 0.000000 0.000000 0.000000
# 3 -0.005472 -0.004330 0.020759 0.000000 0.000000 0.000000
# 4 0.000000 0.000000 0.000000 0.046863 0.000000 0.000000
# 5 0.000000 0.000000 0.000000 0.000000 0.031763 0.000000
# 6 0.000000 0.000000 0.000000 0.000000 0.000000 0.033339
#
#
# Mechanical properties :
#
#
# Convention : Reuss Voigt Hill
#
# Bulk Modulus (GPa) = 41.99128 43.10524 42.54826
# Shear Modulus (GPa) = 26.90656 28.65884 27.78270
#
# Velocity S-wave (km/s) = 3.49623 3.60827 3.55269
# Velocity P-wave (km/s) = 5.94766 6.07800 6.01319
#
# Compressibility (1/GPa) = 0.02381447
#
# Stress axis : x y z
#
# Youngs Moduli (GPa) = 83.35342 82.54939 48.17241
#
# Poissons Ratio (x) = 0.05991 0.26360
# Poissons Ratio (y) = 0.06049 0.20858
# Poissons Ratio (z) = 0.45612 0.35743
#
# Static dielectric constant tensor:
#      x y z
#    x 4.167610 0.000000 0.000000 
#    y 0.000000 4.007100 0.000000 
#    z 0.000000 0.000000 3.996230 
# 
# 
# High freq. dielectric constant tensor:
#      x y z
#    x 1.866660 0.000000 0.000000 
#    y 0.000000 1.865380 0.000000 
#    z 0.000000 0.000000 1.876950 
# 
# From -- ./inp_files/8516.got.cif
#   From: 2010.03.12/outbox.cif.g09.slc.cpg/sg60_5_cif.got.tgz:8516.got - 2010.04.10 18:46:24.
