data_PCOD8247627
_publ_section_title
;
Structure prediction by ZEFSAII (Michael W. Deem and Ramdas Pophale) SiO2 
 PCOD8247627
Probable space group: P B C N
;
_chemical_formula_sum "Si O2"
_cell_formula_units_Z 48
_cell_length_a 15.393970
_cell_length_b 18.709085
_cell_length_c 7.551802
_cell_angle_alpha 90.000000
_cell_angle_beta 90.000000
_cell_angle_gamma 90.000000
_cell_volume 2174.972543
_symmetry_space_group_name_H-M "P B C N"
_symmetry_group_IT_number 60
_symmetry_cell_setting 'orthorhombic'
loop_
_space_group_symop_operation_xyz
x,y,z
1/2-x,1/2-y,1/2+z
1/2+x,1/2-y,-z
-x,y,1/2-z
-x,-y,-z
1/2+x,1/2+y,1/2-z
1/2-x,1/2+y,z
x,-y,1/2+z
loop_
_atom_site_type_symbol
_atom_site_label
_atom_site_fract_x
_atom_site_fract_y
_atom_site_fract_z
Si Si1 0.768644 0.101779 0.947751
Si Si2 0.000000 0.981238 0.750000
Si Si3 0.326912 0.539583 0.879507
Si Si4 0.162359 0.171497 0.106738
Si Si5 0.000000 0.753250 0.250000
Si Si6 0.553567 0.651775 0.062724
Si Si7 0.826943 0.704959 0.156294
O O1 0.681687 0.144498 0.003953
O O2 0.852211 0.153431 0.970227
O O3 0.783578 0.035157 0.076254
O O4 0.757180 0.079893 0.744616
O O5 0.988541 0.929063 0.575215
O O6 0.086345 0.030804 0.754142
O O7 0.338688 0.587209 0.055989
O O8 0.167412 0.216522 0.928275
O O9 0.073920 0.179794 0.230209
O O10 0.246522 0.194847 0.214564
O O11 0.006365 0.800569 0.432248
O O12 0.082171 0.699504 0.239000
#
# Coordination Sequence:
#
# PCOD8247627 Si02
#       7
#     8   4   8   8   4   8   8
#     4  10  22  38  58  86 119 160 201 245 309 381
#     4  10  22  37  58  96 134 161 200 248 312 391
#     4  11  22  38  64  91 126 168 204 253 314 384
#     4  11  22  41  63  87 125 167 206 249 312 388
#     4  12  24  39  64  92 128 169 214 268 310 353
#     4  10  22  37  57  90 128 162 196 242 307 382
#     4  11  23  40  61  87 121 163 214 263 311 369
#
# _framework density 22.069246
#
# number of rings (size 3 to 8) (size 9 to 14) (size 15 to 20)
#    0.000    1.333    0.000    8.000    0.000   10.000 
#    0.000    0.000    0.000    4.000    0.000    0.000 
#    0.000    0.000    0.000    0.000    0.000    0.000 
#
# Total GULP energy -594966.806567 kJ/mol
# GULP energy per Si atom -12395.141803 kJ/mol
# Density = 2.201902 g / cm^3
# Si number density = 22.069246 Si / 1000 Ang^3
#
#
#
# Elastic Constant Matrix: (Units=GPa)
#
#
# Indices 1 2 3 4 5 6 
#
# 1 107.6974 54.0903 31.0115 0.0000 0.0000 0.0000
# 2 54.0903 76.7330 13.3055 0.0000 0.0000 0.0000
# 3 31.0115 13.3055 93.5089 0.0000 0.0000 0.0000
# 4 0.0000 0.0000 0.0000 39.6971 0.0000 0.0000
# 5 0.0000 0.0000 0.0000 0.0000 31.3523 0.0000
# 6 0.0000 0.0000 0.0000 0.0000 0.0000 22.6395
#
#
#
# Elastic Compliance Matrix: (Units=1/GPa)
#
#
# Indices 1 2 3 4 5 6 
#
# 1 0.015519 -0.010301 -0.003681 0.000000 0.000000 0.000000
# 2 -0.010301 0.020200 0.000542 0.000000 0.000000 0.000000
# 3 -0.003681 0.000542 0.011838 0.000000 0.000000 0.000000
# 4 0.000000 0.000000 0.000000 0.025191 0.000000 0.000000
# 5 0.000000 0.000000 0.000000 0.000000 0.031896 0.000000
# 6 0.000000 0.000000 0.000000 0.000000 0.000000 0.044171
#
#
# Mechanical properties :
#
#
# Convention : Reuss Voigt Hill
#
# Bulk Modulus (GPa) = 48.36479 52.75045 50.55762
# Shear Modulus (GPa) = 27.38438 30.70658 29.04548
#
# Velocity S-wave (km/s) = 3.52638 3.73416 3.63175
# Velocity P-wave (km/s) = 6.20830 6.52273 6.36746
#
# Compressibility (1/GPa) = 0.02067620
#
# Stress axis : x y z
#
# Youngs Moduli (GPa) = 64.43729 49.50552 84.47516
#
# Poissons Ratio (x) = 0.50997 0.31095
# Poissons Ratio (y) = 0.66379 -0.04579
# Poissons Ratio (z) = 0.23719 -0.02684
#
# Static dielectric constant tensor:
#      x y z
#    x 4.079430 0.000000 0.000000 
#    y 0.000000 3.954350 0.000000 
#    z 0.000000 0.000000 4.295740 
# 
# 
# High freq. dielectric constant tensor:
#      x y z
#    x 1.848300 0.000000 0.000000 
#    y 0.000000 1.845190 0.000000 
#    z 0.000000 0.000000 1.899610 
# 
# From -- ./inp_files/6062.got.cif
#   From: 2010.03.12/outbox.cif.g09.slc.cpg/sg60_4_cif.got.tgz:6062.got - 2010.04.10 18:46:24.
