data_PCOD8247079
_publ_section_title
;
Structure prediction by ZEFSAII (Michael W. Deem and Ramdas Pophale) SiO2 
 PCOD8247079
Probable space group: P B C N
;
_chemical_formula_sum "Si O2"
_cell_formula_units_Z 48
_cell_length_a 9.192215
_cell_length_b 19.940766
_cell_length_c 13.678606
_cell_angle_alpha 90.000000
_cell_angle_beta 90.000000
_cell_angle_gamma 90.000000
_cell_volume 2507.285858
_symmetry_space_group_name_H-M "P B C N"
_symmetry_group_IT_number 60
_symmetry_cell_setting 'orthorhombic'
loop_
_space_group_symop_operation_xyz
x,y,z
1/2-x,1/2-y,1/2+z
1/2+x,1/2-y,-z
-x,y,1/2-z
-x,-y,-z
1/2+x,1/2+y,1/2-z
1/2-x,1/2+y,z
x,-y,1/2+z
loop_
_atom_site_type_symbol
_atom_site_label
_atom_site_fract_x
_atom_site_fract_y
_atom_site_fract_z
Si Si1 0.678012 0.180202 0.545306
Si Si2 0.827955 0.993607 0.745138
Si Si3 0.656417 0.948080 0.920590
Si Si4 0.842161 0.303160 0.459762
Si Si5 0.330560 0.934711 0.933194
Si Si6 0.170037 0.634058 0.744856
O O1 0.704457 0.107026 0.499575
O O2 0.779475 0.232012 0.489747
O O3 0.514110 0.203715 0.531439
O O4 0.717124 0.176522 0.660024
O O5 0.762062 0.066727 0.759585
O O6 0.000000 0.997754 0.750000
O O7 0.764394 0.944561 0.828541
O O8 0.788360 0.962317 0.640891
O O9 0.491021 0.935649 0.884512
O O10 0.666842 0.021353 0.968448
O O11 0.784930 0.360101 0.534129
O O12 0.795134 0.320416 0.349069
O O13 0.000000 0.613824 0.750000
#
# Coordination Sequence:
#
# PCOD8247079 Si02
#       6
#     8   8   8   8   8   8
#     4  10  22  39  63  89 119 157 198 249 298 354
#     4  12  24  35  58  95 127 153 193 259 308 342
#     4  10  20  39  64  86 115 159 205 241 287 361
#     4  10  22  39  63  89 119 157 198 249 298 354
#     4  10  20  39  64  86 115 159 205 241 287 361
#     4  10  20  41  64  83 113 163 209 237 294 370
#
# _framework density 19.144207000000002
#
# number of rings (size 3 to 8) (size 9 to 14) (size 15 to 20)
#    0.000    1.667    3.333    1.500    0.000    4.667 
#    0.000    3.333    0.000    0.000    0.000    0.000 
#    0.000    0.000    0.000    0.000    0.000    0.000 
#
# Total GULP energy -595399.246689 kJ/mol
# GULP energy per Si atom -12404.150973 kJ/mol
# Density = 1.910063 g / cm^3
# Si number density = 19.144207 Si / 1000 Ang^3
#
#
#
# Elastic Constant Matrix: (Units=GPa)
#
#
# Indices 1 2 3 4 5 6 
#
# 1 86.9025 35.4615 51.7351 0.0000 0.0000 0.0000
# 2 35.4615 74.3695 24.2741 0.0000 0.0000 0.0000
# 3 51.7351 24.2741 103.1681 0.0000 0.0000 0.0000
# 4 0.0000 0.0000 0.0000 27.5854 0.0000 0.0000
# 5 0.0000 0.0000 0.0000 0.0000 25.8561 0.0000
# 6 0.0000 0.0000 0.0000 0.0000 0.0000 30.4539
#
#
#
# Elastic Compliance Matrix: (Units=1/GPa)
#
#
# Indices 1 2 3 4 5 6 
#
# 1 0.018847 -0.006393 -0.007947 0.000000 0.000000 0.000000
# 2 -0.006393 0.016733 -0.000731 0.000000 0.000000 0.000000
# 3 -0.007947 -0.000731 0.013850 0.000000 0.000000 0.000000
# 4 0.000000 0.000000 0.000000 0.036251 0.000000 0.000000
# 5 0.000000 0.000000 0.000000 0.000000 0.038676 0.000000
# 6 0.000000 0.000000 0.000000 0.000000 0.000000 0.032836
#
#
# Mechanical properties :
#
#
# Convention : Reuss Voigt Hill
#
# Bulk Modulus (GPa) = 51.84537 54.15350 52.99944
# Shear Modulus (GPa) = 25.80450 26.97705 26.39077
#
# Velocity S-wave (km/s) = 3.67536 3.75794 3.71688
# Velocity P-wave (km/s) = 6.71947 6.86862 6.79446
#
# Compressibility (1/GPa) = 0.01928812
#
# Stress axis : x y z
#
# Youngs Moduli (GPa) = 53.05960 59.76086 72.20197
#
# Poissons Ratio (x) = 0.38204 0.57378
# Poissons Ratio (y) = 0.33920 0.05281
# Poissons Ratio (z) = 0.42165 0.04371
#
# Static dielectric constant tensor:
#      x y z
#    x 3.347480 0.000000 0.000000 
#    y 0.000000 3.365610 0.000000 
#    z 0.000000 0.000000 3.629610 
# 
# 
# High freq. dielectric constant tensor:
#      x y z
#    x 1.730050 0.000000 0.000000 
#    y 0.000000 1.739380 0.000000 
#    z 0.000000 0.000000 1.756250 
# 
# From -- ./inp_files/10097.got.cif
#   From: 2010.03.12/outbox.cif.g09.slc.cpg/sg60_6_cif.got.tgz:10097.got - 2010.04.10 18:46:24.
