data_PCOD8247450
_publ_section_title
;
Structure prediction by ZEFSAII (Michael W. Deem and Ramdas Pophale) SiO2 
 PCOD8247450
Probable space group: P B C N
;
_chemical_formula_sum "Si O2"
_cell_formula_units_Z 48
_cell_length_a 20.654267
_cell_length_b 13.166431
_cell_length_c 8.842634
_cell_angle_alpha 90.000000
_cell_angle_beta 90.000000
_cell_angle_gamma 90.000000
_cell_volume 2404.692253
_symmetry_space_group_name_H-M "P B C N"
_symmetry_group_IT_number 60
_symmetry_cell_setting 'orthorhombic'
loop_
_space_group_symop_operation_xyz
x,y,z
1/2-x,1/2-y,1/2+z
1/2+x,1/2-y,-z
-x,y,1/2-z
-x,-y,-z
1/2+x,1/2+y,1/2-z
1/2-x,1/2+y,z
x,-y,1/2+z
loop_
_atom_site_type_symbol
_atom_site_label
_atom_site_fract_x
_atom_site_fract_y
_atom_site_fract_z
Si Si1 0.757541 0.767722 0.706513
Si Si2 0.862577 0.381742 0.222219
Si Si3 0.000000 0.044130 0.750000
Si Si4 0.443973 0.624611 0.043171
Si Si5 0.703701 0.633092 0.488010
Si Si6 0.500000 0.791234 0.250000
Si Si7 0.794663 0.455082 0.522911
O O1 0.828812 0.722504 0.663522
O O2 0.708438 0.676197 0.659698
O O3 0.753678 0.789123 0.885248
O O4 0.739732 0.870987 0.623832
O O5 0.939546 0.364855 0.217398
O O6 0.835452 0.404561 0.389446
O O7 0.845597 0.477124 0.116482
O O8 0.957211 0.113112 0.636598
O O9 0.956652 0.976605 0.860893
O O10 0.368628 0.641303 0.070904
O O11 0.484929 0.719924 0.105183
O O12 0.733516 0.521680 0.467040
#
# Coordination Sequence:
#
# PCOD8247450 Si02
#       7
#     8   8   4   8   8   4   8
#     4  11  21  40  60  91 122 157 201 258 313 366
#     4  11  24  41  63  89 121 166 203 254 309 366
#     4   9  22  38  60  91 124 162 212 253 310 383
#     4  10  21  40  59  89 124 164 207 258 314 375
#     4  11  23  38  64  90 123 161 203 258 313 367
#     4  11  22  42  60  81 130 166 206 253 304 369
#     4  11  23  40  62  92 122 154 208 255 310 366
#
# _framework density 19.960974
#
# number of rings (size 3 to 8) (size 9 to 14) (size 15 to 20)
#    0.000    1.333    5.000    0.000    2.333    2.000 
#    6.000    0.000    0.000    0.000    0.000    0.000 
#    0.000    0.000    0.000    0.000    0.000    0.000 
#
# Total GULP energy -594853.426542 kJ/mol
# GULP energy per Si atom -12392.779720 kJ/mol
# Density = 1.991554 g / cm^3
# Si number density = 19.960974 Si / 1000 Ang^3
#
#
#
# Elastic Constant Matrix: (Units=GPa)
#
#
# Indices 1 2 3 4 5 6 
#
# 1 129.0318 64.7180 51.6638 0.0000 0.0000 0.0000
# 2 64.7180 106.7509 39.1867 0.0000 0.0000 0.0000
# 3 51.6638 39.1867 108.2584 0.0000 0.0000 0.0000
# 4 0.0000 0.0000 0.0000 29.1617 0.0000 0.0000
# 5 0.0000 0.0000 0.0000 0.0000 25.5595 0.0000
# 6 0.0000 0.0000 0.0000 0.0000 0.0000 27.9122
#
#
#
# Elastic Compliance Matrix: (Units=1/GPa)
#
#
# Indices 1 2 3 4 5 6 
#
# 1 0.012270 -0.006100 -0.003648 0.000000 0.000000 0.000000
# 2 -0.006100 0.013835 -0.002097 0.000000 0.000000 0.000000
# 3 -0.003648 -0.002097 0.011737 0.000000 0.000000 0.000000
# 4 0.000000 0.000000 0.000000 0.034292 0.000000 0.000000
# 5 0.000000 0.000000 0.000000 0.000000 0.039124 0.000000
# 6 0.000000 0.000000 0.000000 0.000000 0.000000 0.035827
#
#
# Mechanical properties :
#
#
# Convention : Reuss Voigt Hill
#
# Bulk Modulus (GPa) = 70.65401 72.79757 71.72579
# Shear Modulus (GPa) = 28.49142 29.09152 28.79147
#
# Velocity S-wave (km/s) = 3.78214 3.82176 3.80200
# Velocity P-wave (km/s) = 7.38550 7.48489 7.43536
#
# Compressibility (1/GPa) = 0.01415348
#
# Stress axis : x y z
#
# Youngs Moduli (GPa) = 81.50023 72.27852 85.20071
#
# Poissons Ratio (x) = 0.44088 0.31078
# Poissons Ratio (y) = 0.49713 0.17868
# Poissons Ratio (z) = 0.29728 0.15158
#
# Static dielectric constant tensor:
#      x y z
#    x 3.502350 0.000000 0.000000 
#    y 0.000000 3.764680 0.000000 
#    z 0.000000 0.000000 3.813850 
# 
# 
# High freq. dielectric constant tensor:
#      x y z
#    x 1.763420 0.000000 0.000000 
#    y 0.000000 1.787650 0.000000 
#    z 0.000000 0.000000 1.784620 
# 
# From -- ./inp_files/7327.got.cif
#   From: 2010.03.12/outbox.cif.g09.slc.cpg/sg60_4_cif.got.tgz:7327.got - 2010.04.10 18:46:24.
