data_PCOD8247320
_publ_section_title
;
Structure prediction by ZEFSAII (Michael W. Deem and Ramdas Pophale) SiO2 
 PCOD8247320
Probable space group: P B C N
;
_chemical_formula_sum "Si O2"
_cell_formula_units_Z 24
_cell_length_a 9.794460
_cell_length_b 12.379061
_cell_length_c 8.998228
_cell_angle_alpha 90.000000
_cell_angle_beta 90.000000
_cell_angle_gamma 90.000000
_cell_volume 1091.001112
_symmetry_space_group_name_H-M "P B C N"
_symmetry_group_IT_number 60
_symmetry_cell_setting 'orthorhombic'
loop_
_space_group_symop_operation_xyz
x,y,z
1/2-x,1/2-y,1/2+z
1/2+x,1/2-y,-z
-x,y,1/2-z
-x,-y,-z
1/2+x,1/2+y,1/2-z
1/2-x,1/2+y,z
x,-y,1/2+z
loop_
_atom_site_type_symbol
_atom_site_label
_atom_site_fract_x
_atom_site_fract_y
_atom_site_fract_z
Si Si1 0.184943 0.998152 0.745512
Si Si2 0.564624 0.354500 0.004180
Si Si3 0.750345 0.645868 0.999961
O O1 0.098922 0.078960 0.848643
O O2 0.285447 0.068073 0.639798
O O3 0.082923 0.930509 0.639282
O O4 0.276828 0.917989 0.845674
O O5 0.656680 0.249581 0.991503
O O6 0.407800 0.318033 0.010041
#
# Coordination Sequence:
#
# PCOD8247320 Si02
#       3
#     8   8   8
#     4  10  21  38  59  78 109 150 183 212 267 336
#     4  11  21  37  58  82 108 143 183 223 266 320
#     4  11  21  37  58  82 108 143 183 223 266 320
#
# _framework density 21.998145999999998
#
# number of rings (size 3 to 8) (size 9 to 14) (size 15 to 20)
#    0.000    1.333    0.000   10.000    0.000    0.000 
#    0.000   10.000    0.000    0.000    0.000    0.000 
#    0.000    0.000    0.000    0.000    0.000    0.000 
#
# Total GULP energy -297591.570534 kJ/mol
# GULP energy per Si atom -12399.648772 kJ/mol
# Density = 2.194808 g / cm^3
# Si number density = 21.998146 Si / 1000 Ang^3
#
#
#
# Elastic Constant Matrix: (Units=GPa)
#
#
# Indices 1 2 3 4 5 6 
#
# 1 30.9271 21.3046 -10.3675 0.0000 0.0000 0.0000
# 2 21.3046 73.7317 2.2806 0.0000 0.0000 0.0000
# 3 -10.3675 2.2806 123.3675 0.0000 0.0000 0.0000
# 4 0.0000 0.0000 0.0000 -374.6134 0.0000 0.0000
# 5 0.0000 0.0000 0.0000 0.0000 18.5171 0.0000
# 6 0.0000 0.0000 0.0000 0.0000 0.0000 44.8038
#
#
#
# Elastic Compliance Matrix: (Units=1/GPa)
#
#
# Indices 1 2 3 4 5 6 
#
# 1 0.042043 -0.012265 0.003760 0.000000 0.000000 0.000000
# 2 -0.012265 0.017148 -0.001348 0.000000 0.000000 0.000000
# 3 0.003760 -0.001348 0.008447 0.000000 0.000000 0.000000
# 4 0.000000 0.000000 0.000000 -0.002669 0.000000 0.000000
# 5 0.000000 0.000000 0.000000 0.000000 0.054004 0.000000
# 6 0.000000 0.000000 0.000000 0.000000 0.000000 0.022320
#
#
# Mechanical properties :
#
#
# Convention : Reuss Voigt Hill
#
# Bulk Modulus (GPa) = 20.86223 28.27351 24.56787
# Shear Modulus (GPa) = 28.25258 -47.93793 -9.84267
#
# Velocity S-wave (km/s) = 3.58762 -4.67323 -2.11755
# Velocity P-wave (km/s) = 5.16388 4.02967 2.28335
#
# Compressibility (1/GPa) = 0.04793352
#
# Stress axis : x y z
#
# Youngs Moduli (GPa) = 23.78503 58.31520 118.38864
#
# Poissons Ratio (x) = 0.71521 -0.44514
# Poissons Ratio (y) = 0.29171 0.15955
# Poissons Ratio (z) = -0.08943 0.07859
#
# Static dielectric constant tensor:
#      x y z
#    x 3.398910 0.000000 0.000000 
#    y 0.000000 4.135180 0.000000 
#    z 0.000000 0.000000 4.708130 
# 
# 
# High freq. dielectric constant tensor:
#      x y z
#    x 1.821910 0.000000 0.000000 
#    y 0.000000 1.873680 0.000000 
#    z 0.000000 0.000000 1.903210 
# 
# From -- ./inp_files/3339.got.cif
#   From: 2010.03.12/outbox.cif.g09.slc.cpg/sg60_2_cif.got.tgz:3339.got - 2010.04.10 18:46:24.
