data_PCOD8247456
_publ_section_title
;
Structure prediction by ZEFSAII (Michael W. Deem and Ramdas Pophale) SiO2 
 PCOD8247456
Probable space group: P B C N
;
_chemical_formula_sum "Si O2"
_cell_formula_units_Z 48
_cell_length_a 8.046677
_cell_length_b 24.992121
_cell_length_c 11.661338
_cell_angle_alpha 90.000000
_cell_angle_beta 90.000000
_cell_angle_gamma 90.000000
_cell_volume 2345.136181
_symmetry_space_group_name_H-M "P B C N"
_symmetry_group_IT_number 60
_symmetry_cell_setting 'orthorhombic'
loop_
_space_group_symop_operation_xyz
x,y,z
1/2-x,1/2-y,1/2+z
1/2+x,1/2-y,-z
-x,y,1/2-z
-x,-y,-z
1/2+x,1/2+y,1/2-z
1/2-x,1/2+y,z
x,-y,1/2+z
loop_
_atom_site_type_symbol
_atom_site_label
_atom_site_fract_x
_atom_site_fract_y
_atom_site_fract_z
Si Si1 0.730480 0.079400 0.169420
Si Si2 0.648609 0.526623 0.573436
Si Si3 0.000000 0.153018 0.250000
Si Si4 0.109006 0.404249 0.575138
Si Si5 0.208512 0.201272 0.055931
Si Si6 0.000000 0.890988 0.250000
Si Si7 0.063157 0.209687 0.635290
O O1 0.592266 0.092237 0.071382
O O2 0.661530 0.087915 0.294954
O O3 0.894042 0.116909 0.159353
O O4 0.779849 0.018018 0.157049
O O5 0.500000 0.500000 0.500000
O O6 0.797922 0.549423 0.495793
O O7 0.591308 0.573933 0.655799
O O8 0.114356 0.190747 0.174379
O O9 0.157540 0.345301 0.531489
O O10 0.293085 0.259040 0.069835
O O11 0.092242 0.203524 0.947560
O O12 0.121904 0.850055 0.178158
O O13 0.000000 0.241707 0.750000
#
# Coordination Sequence:
#
# PCOD8247456 Si02
#       7
#     8   8   4   8   8   4   8
#     4  10  22  35  63  94 126 163 216 263 325 393
#     4  12  21  39  65  94 133 178 215 267 333 411
#     4  10  23  40  66 100 124 172 229 278 332 426
#     4  10  21  40  60  94 126 167 213 271 322 395
#     4  11  23  42  68  91 132 168 229 275 346 400
#     4  10  23  42  62  94 140 166 227 274 340 404
#     4  10  25  42  66  94 130 178 218 288 343 406
#
# _framework density 20.467894000000001
#
# number of rings (size 3 to 8) (size 9 to 14) (size 15 to 20)
#    0.500    1.000    1.667    4.000    7.000    0.000 
#    0.000    0.000    0.000    2.000    0.000    0.000 
#    0.000    0.000    0.000    0.000    0.000    0.000 
#
# Total GULP energy -594851.889539 kJ/mol
# GULP energy per Si atom -12392.747699 kJ/mol
# Density = 2.042131 g / cm^3
# Si number density = 20.467894 Si / 1000 Ang^3
#
#
#
# Elastic Constant Matrix: (Units=GPa)
#
#
# Indices 1 2 3 4 5 6 
#
# 1 107.9990 62.4134 34.6691 0.0000 0.0000 0.0000
# 2 62.4134 142.7023 47.9606 0.0000 0.0000 0.0000
# 3 34.6691 47.9606 82.8695 0.0000 0.0000 0.0000
# 4 0.0000 0.0000 0.0000 30.1769 0.0000 0.0000
# 5 0.0000 0.0000 0.0000 0.0000 28.5571 0.0000
# 6 0.0000 0.0000 0.0000 0.0000 0.0000 33.7543
#
#
#
# Elastic Compliance Matrix: (Units=1/GPa)
#
#
# Indices 1 2 3 4 5 6 
#
# 1 0.012838 -0.004730 -0.002634 0.000000 0.000000 0.000000
# 2 -0.004730 0.010442 -0.004065 0.000000 0.000000 0.000000
# 3 -0.002634 -0.004065 0.015521 0.000000 0.000000 0.000000
# 4 0.000000 0.000000 0.000000 0.033138 0.000000 0.000000
# 5 0.000000 0.000000 0.000000 0.000000 0.035018 0.000000
# 6 0.000000 0.000000 0.000000 0.000000 0.000000 0.029626
#
#
# Mechanical properties :
#
#
# Convention : Reuss Voigt Hill
#
# Bulk Modulus (GPa) = 62.71307 69.29522 66.00415
# Shear Modulus (GPa) = 30.34813 31.06620 30.70716
#
# Velocity S-wave (km/s) = 3.85479 3.90012 3.87752
# Velocity P-wave (km/s) = 7.10765 7.36277 7.23634
#
# Compressibility (1/GPa) = 0.01594564
#
# Stress axis : x y z
#
# Youngs Moduli (GPa) = 77.89256 95.76327 64.42728
#
# Poissons Ratio (x) = 0.45295 0.16967
# Poissons Ratio (y) = 0.36843 0.26188
# Poissons Ratio (z) = 0.20513 0.38925
#
# Static dielectric constant tensor:
#      x y z
#    x 4.247610 0.000000 0.000000 
#    y 0.000000 3.864200 0.000000 
#    z 0.000000 0.000000 3.748140 
# 
# 
# High freq. dielectric constant tensor:
#      x y z
#    x 1.789690 0.000000 0.000000 
#    y 0.000000 1.809000 0.000000 
#    z 0.000000 0.000000 1.802530 
# 
# From -- ./inp_files/10148.got.cif
#   From: 2010.03.12/outbox.cif.g09.slc.cpg/sg60_6_cif.got.tgz:10148.got - 2010.04.10 18:46:24.
