data_PCOD8247826
_publ_section_title
;
Structure prediction by ZEFSAII (Michael W. Deem and Ramdas Pophale) SiO2 
 PCOD8247826
Probable space group: P B C N
;
_chemical_formula_sum "Si O2"
_cell_formula_units_Z 60
_cell_length_a 12.185747
_cell_length_b 24.546568
_cell_length_c 9.390549
_cell_angle_alpha 90.000000
_cell_angle_beta 90.000000
_cell_angle_gamma 90.000000
_cell_volume 2808.884746
_symmetry_space_group_name_H-M "P B C N"
_symmetry_group_IT_number 60
_symmetry_cell_setting 'orthorhombic'
loop_
_space_group_symop_operation_xyz
x,y,z
1/2-x,1/2-y,1/2+z
1/2+x,1/2-y,-z
-x,y,1/2-z
-x,-y,-z
1/2+x,1/2+y,1/2-z
1/2-x,1/2+y,z
x,-y,1/2+z
loop_
_atom_site_type_symbol
_atom_site_label
_atom_site_fract_x
_atom_site_fract_y
_atom_site_fract_z
Si Si1 0.641493 0.556066 0.444362
Si Si2 0.000000 0.877716 0.750000
Si Si3 0.790054 0.621688 0.952312
Si Si4 0.341099 0.864905 0.561991
Si Si5 0.377709 0.803902 0.275004
Si Si6 0.471605 0.946700 0.911254
Si Si7 0.376274 0.553982 0.728544
Si Si8 0.719578 0.689386 0.205182
O O1 0.527627 0.585456 0.391791
O O2 0.746347 0.591554 0.407229
O O3 0.660086 0.543667 0.609928
O O4 0.642361 0.500675 0.357823
O O5 0.893731 0.841615 0.731061
O O6 0.872990 0.648471 0.841588
O O7 0.690064 0.599623 0.856751
O O8 0.847991 0.573900 0.048677
O O9 0.750318 0.672914 0.045246
O O10 0.336552 0.829267 0.421992
O O11 0.456738 0.894351 0.553363
O O12 0.324515 0.825382 0.696582
O O13 0.500000 0.781164 0.250000
O O14 0.296205 0.752956 0.263416
O O15 0.500000 0.963459 0.750000
O O16 0.500000 0.000000 0.000000
O O17 0.500000 0.574136 0.750000
#
# Coordination Sequence:
#
# PCOD8247826 Si02
#       8
#     8   4   8   8   8   8   8   8
#     4  11  24  40  64  97 135 177 225 276 342 418
#     4  10  22  42  68  96 134 178 226 286 350 420
#     4  12  26  44  71 101 144 181 236 300 353 423
#     4  11  24  44  69  97 140 171 231 292 341 420
#     4  12  24  46  72  99 133 183 235 291 355 422
#     4  12  27  45  71 107 143 189 235 288 359 437
#     4  12  25  41  65  99 137 181 227 279 347 420
#     4  11  24  45  71  98 130 183 235 288 359 411
#
# _framework density 21.360790999999999
#
# number of rings (size 3 to 8) (size 9 to 14) (size 15 to 20)
#    0.000    0.533    5.333    2.800    5.600    2.133 
#    0.000    0.000    0.000    0.000    0.000    0.000 
#    0.000    0.000    0.000    0.000    0.000    0.000 
#
# Total GULP energy -743316.929269 kJ/mol
# GULP energy per Si atom -12388.615488 kJ/mol
# Density = 2.131217 g / cm^3
# Si number density = 21.360791 Si / 1000 Ang^3
#
#
#
# Elastic Constant Matrix: (Units=GPa)
#
#
# Indices 1 2 3 4 5 6 
#
# 1 85.1323 35.7585 30.1954 0.0000 0.0000 0.0000
# 2 35.7585 87.5709 46.4947 0.0000 0.0000 0.0000
# 3 30.1954 46.4947 151.6991 0.0000 0.0000 0.0000
# 4 0.0000 0.0000 0.0000 42.7058 0.0000 0.0000
# 5 0.0000 0.0000 0.0000 0.0000 7.3987 0.0000
# 6 0.0000 0.0000 0.0000 0.0000 0.0000 35.9443
#
#
#
# Elastic Compliance Matrix: (Units=1/GPa)
#
#
# Indices 1 2 3 4 5 6 
#
# 1 0.014380 -0.005198 -0.001269 0.000000 0.000000 0.000000
# 2 -0.005198 0.015518 -0.003721 0.000000 0.000000 0.000000
# 3 -0.001269 -0.003721 0.007985 0.000000 0.000000 0.000000
# 4 0.000000 0.000000 0.000000 0.023416 0.000000 0.000000
# 5 0.000000 0.000000 0.000000 0.000000 0.135159 0.000000
# 6 0.000000 0.000000 0.000000 0.000000 0.000000 0.027821
#
#
# Mechanical properties :
#
#
# Convention : Reuss Voigt Hill
#
# Bulk Modulus (GPa) = 57.12431 61.03327 59.07879
# Shear Modulus (GPa) = 19.96077 31.33999 25.65038
#
# Velocity S-wave (km/s) = 3.06021 3.83453 3.46904
# Velocity P-wave (km/s) = 6.26795 6.94546 6.61538
#
# Compressibility (1/GPa) = 0.01750568
#
# Stress axis : x y z
#
# Youngs Moduli (GPa) = 69.54140 64.44251 125.23161
#
# Poissons Ratio (x) = 0.33497 0.15894
# Poissons Ratio (y) = 0.36148 0.46604
# Poissons Ratio (z) = 0.08826 0.23982
#
# Static dielectric constant tensor:
#      x y z
#    x 3.975030 0.000000 0.000000 
#    y 0.000000 3.863610 0.000000 
#    z 0.000000 0.000000 4.626370 
# 
# 
# High freq. dielectric constant tensor:
#      x y z
#    x 1.839210 0.000000 0.000000 
#    y 0.000000 1.841400 0.000000 
#    z 0.000000 0.000000 1.855240 
# 
# From -- ./inp_files/5234.got.cif
#   From: 2010.03.12/outbox.cif.g09.slc.cpg/sg60_3_cif.got.tgz:5234.got - 2010.04.10 18:46:24.
