data_PCOD8247255
_publ_section_title
;
Structure prediction by ZEFSAII (Michael W. Deem and Ramdas Pophale) SiO2 
 PCOD8247255
Probable space group: P B C N
;
_chemical_formula_sum "Si O2"
_cell_formula_units_Z 48
_cell_length_a 16.352952
_cell_length_b 16.443768
_cell_length_c 8.929777
_cell_angle_alpha 90.000000
_cell_angle_beta 90.000000
_cell_angle_gamma 90.000000
_cell_volume 2401.254083
_symmetry_space_group_name_H-M "P B C N"
_symmetry_group_IT_number 60
_symmetry_cell_setting 'orthorhombic'
loop_
_space_group_symop_operation_xyz
x,y,z
1/2-x,1/2-y,1/2+z
1/2+x,1/2-y,-z
-x,y,1/2-z
-x,-y,-z
1/2+x,1/2+y,1/2-z
1/2-x,1/2+y,z
x,-y,1/2+z
loop_
_atom_site_type_symbol
_atom_site_label
_atom_site_fract_x
_atom_site_fract_y
_atom_site_fract_z
Si Si1 0.936680 0.900313 0.540313
Si Si2 0.674154 0.742663 0.074410
Si Si3 0.240817 0.652551 0.168188
Si Si4 0.419790 0.053347 0.154513
Si Si5 0.581469 0.105965 0.681062
Si Si6 0.606246 0.447857 0.870854
O O1 0.905683 0.807727 0.519475
O O2 0.908800 0.940350 0.695387
O O3 0.035720 0.900144 0.534891
O O4 0.897158 0.956555 0.411066
O O5 0.726744 0.682202 0.173521
O O6 0.648078 0.823584 0.164695
O O7 0.730145 0.768647 0.936169
O O8 0.153353 0.613052 0.197582
O O9 0.305083 0.590380 0.090335
O O10 0.500000 0.077637 0.250000
O O11 0.390136 0.962637 0.199915
O O12 0.437654 0.061030 0.977032
O O13 0.500000 0.146647 0.750000
#
# Coordination Sequence:
#
# PCOD8247255 Si02
#       6
#     8   8   8   8   8   8
#     4   9  19  37  59  85 111 148 192 233 282 345
#     4  10  23  37  56  88 117 146 191 238 297 339
#     4  10  23  38  55  86 119 152 194 239 289 344
#     4  10  21  39  56  85 114 152 202 236 285 353
#     4  10  21  36  62  83 110 154 196 236 288 344
#     4   9  19  36  60  80 112 149 191 231 281 348
#
# _framework density 19.989553999999998
#
# number of rings (size 3 to 8) (size 9 to 14) (size 15 to 20)
#    0.000    2.333    0.000    2.000    4.667   10.667 
#    3.000    0.000    3.667    0.000    0.000    0.000 
#    0.000    0.000    0.000    0.000    0.000    0.000 
#
# Total GULP energy -595055.212123 kJ/mol
# GULP energy per Si atom -12396.983586 kJ/mol
# Density = 1.994406 g / cm^3
# Si number density = 19.989554 Si / 1000 Ang^3
#
#
#
# Elastic Constant Matrix: (Units=GPa)
#
#
# Indices 1 2 3 4 5 6 
#
# 1 104.7405 45.7241 19.2835 0.0000 0.0000 0.0000
# 2 45.7241 88.9626 21.4934 0.0000 0.0000 0.0000
# 3 19.2835 21.4934 44.1918 0.0000 0.0000 0.0000
# 4 0.0000 0.0000 0.0000 37.9821 0.0000 0.0000
# 5 0.0000 0.0000 0.0000 0.0000 20.7771 0.0000
# 6 0.0000 0.0000 0.0000 0.0000 0.0000 30.1078
#
#
#
# Elastic Compliance Matrix: (Units=1/GPa)
#
#
# Indices 1 2 3 4 5 6 
#
# 1 0.012579 -0.005823 -0.002657 0.000000 0.000000 0.000000
# 2 -0.005823 0.015433 -0.004965 0.000000 0.000000 0.000000
# 3 -0.002657 -0.004965 0.026203 0.000000 0.000000 0.000000
# 4 0.000000 0.000000 0.000000 0.026328 0.000000 0.000000
# 5 0.000000 0.000000 0.000000 0.000000 0.048130 0.000000
# 6 0.000000 0.000000 0.000000 0.000000 0.000000 0.033214
#
#
# Mechanical properties :
#
#
# Convention : Reuss Voigt Hill
#
# Bulk Modulus (GPa) = 36.59699 45.65521 41.12610
# Shear Modulus (GPa) = 25.26723 27.86633 26.56678
#
# Velocity S-wave (km/s) = 3.55917 3.73774 3.64955
# Velocity P-wave (km/s) = 5.93616 6.44335 6.19495
#
# Compressibility (1/GPa) = 0.02732465
#
# Stress axis : x y z
#
# Youngs Moduli (GPa) = 79.50020 64.79533 38.16387
#
# Poissons Ratio (x) = 0.37731 0.10139
# Poissons Ratio (y) = 0.46294 0.18949
# Poissons Ratio (z) = 0.21120 0.32172
#
# Static dielectric constant tensor:
#      x y z
#    x 3.816700 0.000000 0.000000 
#    y 0.000000 3.596550 0.000000 
#    z 0.000000 0.000000 3.581600 
# 
# 
# High freq. dielectric constant tensor:
#      x y z
#    x 1.782730 0.000000 0.000000 
#    y 0.000000 1.776520 0.000000 
#    z 0.000000 0.000000 1.772200 
# 
# From -- ./inp_files/6737.got.cif
#   From: 2010.03.12/outbox.cif.g09.slc.cpg/sg60_4_cif.got.tgz:6737.got - 2010.04.10 18:46:24.
