data_PCOD8247969
_publ_section_title
;
Structure prediction by ZEFSAII (Michael W. Deem and Ramdas Pophale) SiO2 
 PCOD8247969
Probable space group: P B C N
;
_chemical_formula_sum "Si O2"
_cell_formula_units_Z 40
_cell_length_a 18.007154
_cell_length_b 19.547190
_cell_length_c 4.953195
_cell_angle_alpha 90.000000
_cell_angle_beta 90.000000
_cell_angle_gamma 90.000000
_cell_volume 1743.471446
_symmetry_space_group_name_H-M "P B C N"
_symmetry_group_IT_number 60
_symmetry_cell_setting 'orthorhombic'
loop_
_space_group_symop_operation_xyz
x,y,z
1/2-x,1/2-y,1/2+z
1/2+x,1/2-y,-z
-x,y,1/2-z
-x,-y,-z
1/2+x,1/2+y,1/2-z
1/2-x,1/2+y,z
x,-y,1/2+z
loop_
_atom_site_type_symbol
_atom_site_label
_atom_site_fract_x
_atom_site_fract_y
_atom_site_fract_z
Si Si1 0.837239 0.775781 0.737855
Si Si2 0.799191 0.352963 0.541623
Si Si3 0.821274 0.045486 0.901615
Si Si4 0.415093 0.045936 0.227237
Si Si5 0.586637 0.333165 0.243561
O O1 0.754038 0.807463 0.735500
O O2 0.873695 0.778653 0.441326
O O3 0.838145 0.697019 0.826756
O O4 0.885148 0.822223 0.940587
O O5 0.751324 0.407175 0.367280
O O6 0.861460 0.390092 0.720416
O O7 0.894630 0.090052 0.843227
O O8 0.820058 0.980123 0.709085
O O9 0.500000 0.071771 0.250000
O O10 0.399222 0.983017 0.429974
O O11 0.500000 0.321179 0.250000
#
# Coordination Sequence:
#
# PCOD8247969 Si02
#       5
#     8   8   8   8   8
#     4  11  25  41  68  98 128 178 222 265 333 387
#     4  11  23  43  66  95 135 168 218 277 319 387
#     4  11  23  38  64  97 126 169 217 263 329 386
#     4  10  23  42  66  96 130 170 214 265 328 391
#     4  11  25  46  66  95 136 172 219 274 322 391
#
# _framework density 22.942733
#
# number of rings (size 3 to 8) (size 9 to 14) (size 15 to 20)
#    0.000    1.200    0.000    6.600    0.000    9.600 
#    0.000    6.000    0.000    0.000    0.000    0.000 
#    0.000    0.000    0.000    0.000    0.000    0.000 
#
# Total GULP energy -496275.226610 kJ/mol
# GULP energy per Si atom -12406.880665 kJ/mol
# Density = 2.289051 g / cm^3
# Si number density = 22.942733 Si / 1000 Ang^3
#
#
#
# Elastic Constant Matrix: (Units=GPa)
#
#
# Indices 1 2 3 4 5 6 
#
# 1 133.2396 43.3237 13.0067 0.0000 0.0000 0.0000
# 2 43.3237 84.1644 -0.6943 0.0000 0.0000 0.0000
# 3 13.0067 -0.6943 60.1598 0.0000 0.0000 0.0000
# 4 0.0000 0.0000 0.0000 27.3635 0.0000 0.0000
# 5 0.0000 0.0000 0.0000 0.0000 32.2409 0.0000
# 6 0.0000 0.0000 0.0000 0.0000 0.0000 28.7340
#
#
#
# Elastic Compliance Matrix: (Units=1/GPa)
#
#
# Indices 1 2 3 4 5 6 
#
# 1 0.009262 -0.004785 -0.002058 0.000000 0.000000 0.000000
# 2 -0.004785 0.014354 0.001200 0.000000 0.000000 0.000000
# 3 -0.002058 0.001200 0.017081 0.000000 0.000000 0.000000
# 4 0.000000 0.000000 0.000000 0.036545 0.000000 0.000000
# 5 0.000000 0.000000 0.000000 0.000000 0.031017 0.000000
# 6 0.000000 0.000000 0.000000 0.000000 0.000000 0.034802
#
#
# Mechanical properties :
#
#
# Convention : Reuss Voigt Hill
#
# Bulk Modulus (GPa) = 33.99854 43.20400 38.60127
# Shear Modulus (GPa) = 30.46009 32.46287 31.46148
#
# Velocity S-wave (km/s) = 3.64766 3.76567 3.70713
# Velocity P-wave (km/s) = 5.70890 6.14647 5.93172
#
# Compressibility (1/GPa) = 0.02941303
#
# Stress axis : x y z
#
# Youngs Moduli (GPa) = 107.96966 69.66582 58.54417
#
# Poissons Ratio (x) = 0.33332 0.12046
# Poissons Ratio (y) = 0.51658 -0.07026
# Poissons Ratio (z) = 0.22216 -0.08360
#
# Static dielectric constant tensor:
#      x y z
#    x 4.081120 0.000000 0.000000 
#    y 0.000000 4.062870 0.000000 
#    z 0.000000 0.000000 4.125590 
# 
# 
# High freq. dielectric constant tensor:
#      x y z
#    x 1.899610 0.000000 0.000000 
#    y 0.000000 1.908320 0.000000 
#    z 0.000000 0.000000 1.915660 
# 
# From -- ./inp_files/1627.got.cif
#   From: 2010.03.12/outbox.cif.g09.slc.cpg/sg60_1_cif.got.tgz:1627.got - 2010.04.10 18:46:24.
