data_PCOD8247625
_publ_section_title
;
Structure prediction by ZEFSAII (Michael W. Deem and Ramdas Pophale) SiO2 
 PCOD8247625
Probable space group: P B C N
;
_chemical_formula_sum "Si O2"
_cell_formula_units_Z 52
_cell_length_a 22.948313
_cell_length_b 11.920387
_cell_length_c 8.891098
_cell_angle_alpha 90.000000
_cell_angle_beta 90.000000
_cell_angle_gamma 90.000000
_cell_volume 2432.184504
_symmetry_space_group_name_H-M "P B C N"
_symmetry_group_IT_number 60
_symmetry_cell_setting 'orthorhombic'
loop_
_space_group_symop_operation_xyz
x,y,z
1/2-x,1/2-y,1/2+z
1/2+x,1/2-y,-z
-x,y,1/2-z
-x,-y,-z
1/2+x,1/2+y,1/2-z
1/2-x,1/2+y,z
x,-y,1/2+z
loop_
_atom_site_type_symbol
_atom_site_label
_atom_site_fract_x
_atom_site_fract_y
_atom_site_fract_z
Si Si1 0.732914 0.127792 0.815344
Si Si2 0.703951 0.942169 0.631932
Si Si3 0.402745 0.316472 0.956180
Si Si4 0.087582 0.930869 0.520380
Si Si5 0.500000 0.326369 0.750000
Si Si6 0.313488 0.644051 0.218896
Si Si7 0.142195 0.223468 0.773600
O O1 0.703502 0.243579 0.870664
O O2 0.798116 0.153651 0.752635
O O3 0.690548 0.070046 0.686651
O O4 0.729634 0.053130 0.965488
O O5 0.756529 0.926481 0.749926
O O6 0.654225 0.848905 0.661562
O O7 0.424394 0.445638 0.959432
O O8 0.394955 0.261376 0.119599
O O9 0.452161 0.255516 0.849281
O O10 0.340349 0.313820 0.876412
O O11 0.033815 0.898301 0.624964
O O12 0.145159 0.935744 0.623177
O O13 0.099135 0.842722 0.385753
#
# Coordination Sequence:
#
# PCOD8247625 Si02
#       7
#     8   8   8   8   4   8   8
#     4  11  23  37  57  86 124 159 196 234 280 338
#     4  11  23  36  57  87 120 161 194 238 276 341
#     4  11  21  37  59  85 114 160 186 241 292 349
#     4  11  21  39  57  84 117 156 194 239 293 346
#     4  10  24  38  58  84 118 150 194 252 294 348
#     4  10  22  37  53  83 125 157 195 227 287 348
#     4  11  23  36  58  87 123 157 200 228 285 357
#
# _framework density 21.379956
#
# number of rings (size 3 to 8) (size 9 to 14) (size 15 to 20)
#    0.000    1.231    3.077    4.154    4.308    0.615 
#    0.000    0.000    0.000    0.000    0.000   17.231 
#    0.000    0.000    0.000    0.000    0.000    0.000 
#
# Total GULP energy -644279.483431 kJ/mol
# GULP energy per Si atom -12389.990066 kJ/mol
# Density = 2.133129 g / cm^3
# Si number density = 21.379956 Si / 1000 Ang^3
#
#
#
# Elastic Constant Matrix: (Units=GPa)
#
#
# Indices 1 2 3 4 5 6 
#
# 1 68.4229 7.6931 24.2744 0.0000 0.0000 0.0000
# 2 7.6931 40.8424 8.3196 0.0000 0.0000 0.0000
# 3 24.2744 8.3196 104.6877 0.0000 0.0000 0.0000
# 4 0.0000 0.0000 0.0000 24.5444 0.0000 0.0000
# 5 0.0000 0.0000 0.0000 0.0000 38.7725 0.0000
# 6 0.0000 0.0000 0.0000 0.0000 0.0000 10.8901
#
#
#
# Elastic Compliance Matrix: (Units=1/GPa)
#
#
# Indices 1 2 3 4 5 6 
#
# 1 0.016138 -0.002315 -0.003558 0.000000 0.000000 0.000000
# 2 -0.002315 0.025219 -0.001467 0.000000 0.000000 0.000000
# 3 -0.003558 -0.001467 0.010494 0.000000 0.000000 0.000000
# 4 0.000000 0.000000 0.000000 0.040742 0.000000 0.000000
# 5 0.000000 0.000000 0.000000 0.000000 0.025791 0.000000
# 6 0.000000 0.000000 0.000000 0.000000 0.000000 0.091827
#
#
# Mechanical properties :
#
#
# Convention : Reuss Voigt Hill
#
# Bulk Modulus (GPa) = 26.90331 32.72524 29.81428
# Shear Modulus (GPa) = 21.07197 26.41913 23.74555
#
# Velocity S-wave (km/s) = 3.14282 3.51906 3.33625
# Velocity P-wave (km/s) = 5.07745 5.64371 5.36805
#
# Compressibility (1/GPa) = 0.03717015
#
# Stress axis : x y z
#
# Youngs Moduli (GPa) = 61.96743 39.65217 95.29412
#
# Poissons Ratio (x) = 0.09179 0.33905
# Poissons Ratio (y) = 0.14345 0.13984
# Poissons Ratio (z) = 0.22047 0.05819
#
# Static dielectric constant tensor:
#      x y z
#    x 3.764080 0.000000 0.000000 
#    y 0.000000 3.703300 0.000000 
#    z 0.000000 0.000000 4.038520 
# 
# 
# High freq. dielectric constant tensor:
#      x y z
#    x 1.813000 0.000000 0.000000 
#    y 0.000000 1.808280 0.000000 
#    z 0.000000 0.000000 1.866490 
# 
# From -- ./inp_files/8132.got.cif
#   From: 2010.03.12/outbox.cif.g09.slc.cpg/sg60_5_cif.got.tgz:8132.got - 2010.04.10 18:46:24.
