data_PCOD8247938
_publ_section_title
;
Structure prediction by ZEFSAII (Michael W. Deem and Ramdas Pophale) SiO2 
 PCOD8247938
Probable space group: P B C N
;
_chemical_formula_sum "Si O2"
_cell_formula_units_Z 64
_cell_length_a 9.925517
_cell_length_b 21.789764
_cell_length_c 14.034927
_cell_angle_alpha 90.000000
_cell_angle_beta 90.000000
_cell_angle_gamma 90.000000
_cell_volume 3035.399248
_symmetry_space_group_name_H-M "P B C N"
_symmetry_group_IT_number 60
_symmetry_cell_setting 'orthorhombic'
loop_
_space_group_symop_operation_xyz
x,y,z
1/2-x,1/2-y,1/2+z
1/2+x,1/2-y,-z
-x,y,1/2-z
-x,-y,-z
1/2+x,1/2+y,1/2-z
1/2-x,1/2+y,z
x,-y,1/2+z
loop_
_atom_site_type_symbol
_atom_site_label
_atom_site_fract_x
_atom_site_fract_y
_atom_site_fract_z
Si Si1 0.648338 0.842518 0.235737
Si Si2 0.257175 0.790509 0.965815
Si Si3 0.143270 0.581193 0.946314
Si Si4 0.260034 0.169783 0.091950
Si Si5 0.141220 0.022336 0.459959
Si Si6 0.156163 0.407320 0.079700
Si Si7 0.647543 0.762436 0.732273
Si Si8 0.968831 0.862772 0.638968
O O1 0.500000 0.814020 0.250000
O O2 0.670704 0.864901 0.129096
O O3 0.668123 0.899676 0.306987
O O4 0.750990 0.790112 0.262723
O O5 0.358030 0.776786 0.879516
O O6 0.121763 0.810483 0.909954
O O7 0.224226 0.732046 0.030999
O O8 0.332120 0.841341 0.028905
O O9 0.255523 0.529505 0.922250
O O10 0.987364 0.558757 0.940671
O O11 0.155750 0.613161 0.049020
O O12 0.313232 0.179541 0.200340
O O13 0.109516 0.143262 0.085066
O O14 0.219010 0.051756 0.548782
O O15 0.106472 0.071683 0.377197
O O16 0.000000 0.000000 0.500000
O O17 0.500000 0.736884 0.750000
O O18 0.000000 0.851396 0.750000
#
# Coordination Sequence:
#
# PCOD8247938 Si02
#       8
#     8   8   8   8   8   8   8   8
#     4  10  23  40  64  97 129 170 212 260 328 392
#     4  11  24  39  64  96 133 169 215 264 331 403
#     4  11  23  43  67  95 129 171 222 271 330 388
#     4  12  24  39  67  94 132 174 213 272 330 398
#     4  11  24  44  68  94 125 171 226 278 329 387
#     4  10  23  43  67  94 130 170 216 271 328 395
#     4  12  25  37  59  98 137 166 210 265 324 391
#     4  11  25  44  67  94 131 178 225 272 334 401
#
# _framework density 21.084541000000002
#
# number of rings (size 3 to 8) (size 9 to 14) (size 15 to 20)
#    0.000    1.000    5.000    1.125    5.250    2.000 
#    0.000    0.000    0.000    0.000    0.000    0.000 
#    0.000    0.000    0.000    0.000    0.000    0.000 
#
# Total GULP energy -793361.548686 kJ/mol
# GULP energy per Si atom -12396.274198 kJ/mol
# Density = 2.103655 g / cm^3
# Si number density = 21.084541 Si / 1000 Ang^3
#
#
#
# Elastic Constant Matrix: (Units=GPa)
#
#
# Indices 1 2 3 4 5 6 
#
# 1 139.9601 36.4005 14.3630 0.0000 0.0000 0.0000
# 2 36.4005 70.1431 4.2485 0.0000 0.0000 0.0000
# 3 14.3630 4.2485 72.1541 0.0000 0.0000 0.0000
# 4 0.0000 0.0000 0.0000 -11.9253 0.0000 0.0000
# 5 0.0000 0.0000 0.0000 0.0000 28.5931 0.0000
# 6 0.0000 0.0000 0.0000 0.0000 0.0000 33.5798
#
#
#
# Elastic Compliance Matrix: (Units=1/GPa)
#
#
# Indices 1 2 3 4 5 6 
#
# 1 0.008402 -0.004274 -0.001421 0.000000 0.000000 0.000000
# 2 -0.004274 0.016482 -0.000120 0.000000 0.000000 0.000000
# 3 -0.001421 -0.000120 0.014149 0.000000 0.000000 0.000000
# 4 0.000000 0.000000 0.000000 -0.083856 0.000000 0.000000
# 5 0.000000 0.000000 0.000000 0.000000 0.034974 0.000000
# 6 0.000000 0.000000 0.000000 0.000000 0.000000 0.029780
#
#
# Mechanical properties :
#
#
# Convention : Reuss Voigt Hill
#
# Bulk Modulus (GPa) = 36.49136 43.58681 40.03908
# Shear Modulus (GPa) = 122.86379 25.19921 74.03150
#
# Velocity S-wave (km/s) = 7.64189 3.46085 5.93194
# Velocity P-wave (km/s) = 9.75753 6.05700 8.12086
#
# Compressibility (1/GPa) = 0.02740375
#
# Stress axis : x y z
#
# Youngs Moduli (GPa) = 119.01420 60.67242 70.67578
#
# Poissons Ratio (x) = 0.25933 0.10042
# Poissons Ratio (y) = 0.50870 0.00846
# Poissons Ratio (z) = 0.16911 0.00726
#
# Static dielectric constant tensor:
#      x y z
#    x 3.989090 0.000000 0.000000 
#    y 0.000000 3.698560 0.000000 
#    z 0.000000 0.000000 3.891980 
# 
# 
# High freq. dielectric constant tensor:
#      x y z
#    x 1.843210 0.000000 0.000000 
#    y 0.000000 1.811170 0.000000 
#    z 0.000000 0.000000 1.832750 
# 
# From -- ./inp_files/15433.got.cif
#   From: 2010.03.12/outbox.cif.g09.slc.cpg/sg60_8_cif.got.tgz:15433.got - 2010.04.10 18:46:24.
