data_PCOD8247160
_publ_section_title
;
Structure prediction by ZEFSAII (Michael W. Deem and Ramdas Pophale) SiO2 
 PCOD8247160
Probable space group: P B C N
;
_chemical_formula_sum "Si O2"
_cell_formula_units_Z 64
_cell_length_a 9.028880
_cell_length_b 17.705851
_cell_length_c 19.528429
_cell_angle_alpha 90.000000
_cell_angle_beta 90.000000
_cell_angle_gamma 90.000000
_cell_volume 3121.892851
_symmetry_space_group_name_H-M "P B C N"
_symmetry_group_IT_number 60
_symmetry_cell_setting 'orthorhombic'
loop_
_space_group_symop_operation_xyz
x,y,z
1/2-x,1/2-y,1/2+z
1/2+x,1/2-y,-z
-x,y,1/2-z
-x,-y,-z
1/2+x,1/2+y,1/2-z
1/2-x,1/2+y,z
x,-y,1/2+z
loop_
_atom_site_type_symbol
_atom_site_label
_atom_site_fract_x
_atom_site_fract_y
_atom_site_fract_z
Si Si1 0.360175 0.551858 0.505734
Si Si2 0.941027 0.706345 0.937900
Si Si3 0.157838 0.539770 0.757134
Si Si4 0.667731 0.940675 0.626853
Si Si5 0.385791 0.793252 0.306045
Si Si6 0.421648 0.218008 0.319419
Si Si7 0.621906 0.961058 0.394742
Si Si8 0.604779 0.281081 0.439316
O O1 0.500000 0.500000 0.500000
O O2 0.289299 0.561415 0.431578
O O3 0.247768 0.506400 0.555402
O O4 0.408491 0.632523 0.536610
O O5 0.926265 0.616973 0.929690
O O6 0.777312 0.743753 0.934222
O O7 0.048520 0.735295 0.877940
O O8 0.018877 0.725925 0.009071
O O9 0.246753 0.481529 0.806512
O O10 0.127705 0.616254 0.799761
O O11 0.208918 0.552218 0.678646
O O12 0.000000 0.497767 0.750000
O O13 0.623752 0.855129 0.638872
O O14 0.518883 0.984886 0.605835
O O15 0.500000 0.761276 0.250000
O O16 0.222755 0.762745 0.295731
O O17 0.500000 0.193070 0.250000
O O18 0.527368 0.271554 0.365275
#
# Coordination Sequence:
#
# PCOD8247160 Si02
#       8
#     8   8   8   8   8   8   8   8
#     4  11  26  42  62  97 134 172 221 274 342 395
#     4  11  20  40  65  93 130 173 218 274 335 384
#     4   9  18  37  69  94 120 156 221 271 312 383
#     4  11  22  44  65  98 129 172 218 275 327 406
#     4  11  20  39  67  98 123 170 218 272 332 394
#     4  12  26  41  66  99 135 174 223 277 340 402
#     4  10  20  41  70  92 121 173 225 264 322 403
#     4  11  26  42  62  97 138 174 227 281 329 403
#
# _framework density 20.500382999999999
#
# number of rings (size 3 to 8) (size 9 to 14) (size 15 to 20)
#    0.000    1.250    3.750    5.250    3.500    2.000 
#    0.000    4.375    0.000    0.000    0.000    0.000 
#    0.000    0.000    0.000    0.000    0.000    0.000 
#
# Total GULP energy -793213.138407 kJ/mol
# GULP energy per Si atom -12393.955288 kJ/mol
# Density = 2.045372 g / cm^3
# Si number density = 20.500383 Si / 1000 Ang^3
#
#
#
# Elastic Constant Matrix: (Units=GPa)
#
#
# Indices 1 2 3 4 5 6 
#
# 1 97.4759 28.6901 44.7380 0.0000 0.0000 0.0000
# 2 28.6901 77.8569 40.6362 0.0000 0.0000 0.0000
# 3 44.7380 40.6362 122.4723 0.0000 0.0000 0.0000
# 4 0.0000 0.0000 0.0000 18.4839 0.0000 0.0000
# 5 0.0000 0.0000 0.0000 0.0000 33.0642 0.0000
# 6 0.0000 0.0000 0.0000 0.0000 0.0000 22.6887
#
#
#
# Elastic Compliance Matrix: (Units=1/GPa)
#
#
# Indices 1 2 3 4 5 6 
#
# 1 0.012795 -0.002752 -0.003761 0.000000 0.000000 0.000000
# 2 -0.002752 0.016126 -0.004345 0.000000 0.000000 0.000000
# 3 -0.003761 -0.004345 0.010981 0.000000 0.000000 0.000000
# 4 0.000000 0.000000 0.000000 0.054101 0.000000 0.000000
# 5 0.000000 0.000000 0.000000 0.000000 0.030244 0.000000
# 6 0.000000 0.000000 0.000000 0.000000 0.000000 0.044075
#
#
# Mechanical properties :
#
#
# Convention : Reuss Voigt Hill
#
# Bulk Modulus (GPa) = 54.98882 58.43707 56.71295
# Shear Modulus (GPa) = 25.49718 27.09676 26.29697
#
# Velocity S-wave (km/s) = 3.53050 3.63956 3.58544
# Velocity P-wave (km/s) = 6.59551 6.79920 6.69813
#
# Compressibility (1/GPa) = 0.01818551
#
# Stress axis : x y z
#
# Youngs Moduli (GPa) = 78.15538 62.01091 91.06907
#
# Poissons Ratio (x) = 0.17066 0.34249
# Poissons Ratio (y) = 0.21509 0.39573
# Poissons Ratio (z) = 0.29392 0.26946
#
# Static dielectric constant tensor:
#      x y z
#    x 3.927620 0.000000 0.000000 
#    y 0.000000 3.566840 0.000000 
#    z 0.000000 0.000000 5.430690 
# 
# 
# High freq. dielectric constant tensor:
#      x y z
#    x 1.790930 0.000000 0.000000 
#    y 0.000000 1.788570 0.000000 
#    z 0.000000 0.000000 1.826190 
# 
# From -- ./inp_files/22376.got.cif
#   From: 2010.03.12/outbox.cif.g09.slc.cpg/sg60_12_cif.got.tgz:22376.got - 2010.04.10 18:46:24.
