data_PCOD8247191
_publ_section_title
;
Structure prediction by ZEFSAII (Michael W. Deem and Ramdas Pophale) SiO2 
 PCOD8247191
Probable space group: P B C N
;
_chemical_formula_sum "Si O2"
_cell_formula_units_Z 48
_cell_length_a 13.776033
_cell_length_b 9.251954
_cell_length_c 15.712965
_cell_angle_alpha 90.000000
_cell_angle_beta 90.000000
_cell_angle_gamma 90.000000
_cell_volume 2002.699468
_symmetry_space_group_name_H-M "P B C N"
_symmetry_group_IT_number 60
_symmetry_cell_setting 'orthorhombic'
loop_
_space_group_symop_operation_xyz
x,y,z
1/2-x,1/2-y,1/2+z
1/2+x,1/2-y,-z
-x,y,1/2-z
-x,-y,-z
1/2+x,1/2+y,1/2-z
1/2-x,1/2+y,z
x,-y,1/2+z
loop_
_atom_site_type_symbol
_atom_site_label
_atom_site_fract_x
_atom_site_fract_y
_atom_site_fract_z
Si Si1 0.243542 0.977998 0.624751
Si Si2 0.061653 0.319521 0.829558
Si Si3 0.323116 0.978692 0.445491
Si Si4 0.148287 0.161098 0.385605
Si Si5 0.478621 0.473135 0.149103
Si Si6 0.251620 0.770892 0.236335
O O1 0.309604 0.021631 0.544356
O O2 0.128904 0.002122 0.613089
O O3 0.276170 0.065733 0.709267
O O4 0.265020 0.812109 0.647317
O O5 0.085001 0.443083 0.899993
O O6 0.157825 0.238442 0.796082
O O7 0.000000 0.385704 0.750000
O O8 0.001798 0.192753 0.876566
O O9 0.226233 0.033690 0.399470
O O10 0.333251 0.805011 0.441440
O O11 0.155641 0.209323 0.286604
O O12 0.043425 0.090685 0.401561
O O13 0.500000 0.488846 0.250000
#
# Coordination Sequence:
#
# PCOD8247191 Si02
#       6
#     8   8   8   8   8   8
#     4  12  24  42  67 106 138 176 235 300 367 411
#     4  10  20  43  73 100 133 187 240 284 344 428
#     4  11  25  41  67 100 147 184 230 298 369 412
#     4  11  22  43  68  99 136 192 237 280 353 443
#     4  11  21  43  75 105 128 180 247 295 342 426
#     4  11  20  39  70  94 134 184 235 281 348 439
#
# _framework density 23.967649999999999
#
# number of rings (size 3 to 8) (size 9 to 14) (size 15 to 20)
#    0.000    1.000    5.000    5.000    0.000    1.333 
#    3.000    0.833    0.000    0.000    0.000    0.000 
#    0.000    0.000    0.000    0.000    0.000    0.000 
#
# Total GULP energy -594957.947989 kJ/mol
# GULP energy per Si atom -12394.957250 kJ/mol
# Density = 2.391310 g / cm^3
# Si number density = 23.967650 Si / 1000 Ang^3
#
#
#
# Elastic Constant Matrix: (Units=GPa)
#
#
# Indices 1 2 3 4 5 6 
#
# 1 63.6259 24.1165 5.0505 0.0000 0.0000 0.0000
# 2 24.1165 71.9466 1.4286 0.0000 0.0000 0.0000
# 3 5.0505 1.4286 80.0819 0.0000 0.0000 0.0000
# 4 0.0000 0.0000 0.0000 30.8160 0.0000 0.0000
# 5 0.0000 0.0000 0.0000 0.0000 32.7894 0.0000
# 6 0.0000 0.0000 0.0000 0.0000 0.0000 29.8911
#
#
#
# Elastic Compliance Matrix: (Units=1/GPa)
#
#
# Indices 1 2 3 4 5 6 
#
# 1 0.018089 -0.006043 -0.001033 0.000000 0.000000 0.000000
# 2 -0.006043 0.015923 0.000097 0.000000 0.000000 0.000000
# 3 -0.001033 0.000097 0.012551 0.000000 0.000000 0.000000
# 4 0.000000 0.000000 0.000000 0.032451 0.000000 0.000000
# 5 0.000000 0.000000 0.000000 0.000000 0.030498 0.000000
# 6 0.000000 0.000000 0.000000 0.000000 0.000000 0.033455
#
#
# Mechanical properties :
#
#
# Convention : Reuss Voigt Hill
#
# Bulk Modulus (GPa) = 30.67024 30.76061 30.71543
# Shear Modulus (GPa) = 29.79875 31.03657 30.41766
#
# Velocity S-wave (km/s) = 3.52986 3.60243 3.56633
# Velocity P-wave (km/s) = 5.42563 5.49230 5.45907
#
# Compressibility (1/GPa) = 0.03260490
#
# Stress axis : x y z
#
# Youngs Moduli (GPa) = 55.28099 62.80266 79.67728
#
# Poissons Ratio (x) = 0.37952 0.08231
# Poissons Ratio (y) = 0.33407 -0.00773
# Poissons Ratio (z) = 0.05711 -0.00610
#
# Static dielectric constant tensor:
#      x y z
#    x 4.270400 0.000000 0.000000 
#    y 0.000000 4.511050 0.000000 
#    z 0.000000 0.000000 4.092770 
# 
# 
# High freq. dielectric constant tensor:
#      x y z
#    x 1.936410 0.000000 0.000000 
#    y 0.000000 1.961260 0.000000 
#    z 0.000000 0.000000 1.935420 
# 
# From -- ./inp_files/20512.got.cif
#   From: 2010.03.12/outbox.cif.g09.slc.cpg/sg60_11_cif.got.tgz:20512.got - 2010.04.10 18:46:24.
