data_PCOD8247777
_publ_section_title
;
Structure prediction by ZEFSAII (Michael W. Deem and Ramdas Pophale) SiO2 
 PCOD8247777
Probable space group: P B C N
;
_chemical_formula_sum "Si O2"
_cell_formula_units_Z 60
_cell_length_a 13.138270
_cell_length_b 13.455135
_cell_length_c 13.732283
_cell_angle_alpha 90.000000
_cell_angle_beta 90.000000
_cell_angle_gamma 90.000000
_cell_volume 2427.554491
_symmetry_space_group_name_H-M "P B C N"
_symmetry_group_IT_number 60
_symmetry_cell_setting 'orthorhombic'
loop_
_space_group_symop_operation_xyz
x,y,z
1/2-x,1/2-y,1/2+z
1/2+x,1/2-y,-z
-x,y,1/2-z
-x,-y,-z
1/2+x,1/2+y,1/2-z
1/2-x,1/2+y,z
x,-y,1/2+z
loop_
_atom_site_type_symbol
_atom_site_label
_atom_site_fract_x
_atom_site_fract_y
_atom_site_fract_z
Si Si1 0.001339 0.895109 0.912170
Si Si2 0.367251 0.436999 0.312251
Si Si3 0.779656 0.308760 0.512820
Si Si4 0.000000 0.742704 0.750000
Si Si5 0.982399 0.766934 0.088634
Si Si6 0.189814 0.985834 0.101213
Si Si7 0.669383 0.159360 0.626259
Si Si8 0.834426 0.650872 0.413922
O O1 0.961002 0.812520 0.836984
O O2 0.914892 0.963718 0.640828
O O3 0.902292 0.955273 0.953665
O O4 0.043243 0.835962 0.007660
O O5 0.431974 0.338663 0.333138
O O6 0.365746 0.439872 0.194858
O O7 0.252324 0.424426 0.348408
O O8 0.899958 0.304192 0.535545
O O9 0.741200 0.415782 0.478850
O O10 0.719516 0.269842 0.609927
O O11 0.756073 0.232066 0.424483
O O12 0.088830 0.668980 0.786824
O O13 0.067595 0.697447 0.141626
O O14 0.282279 0.057098 0.138527
O O15 0.622774 0.123236 0.522927
#
# Coordination Sequence:
#
# PCOD8247777 Si02
#       8
#     8   8   8   4   8   8   8   8
#     4  12  22  41  70 106 139 187 244 303 359 431
#     4  11  24  40  68 108 140 182 252 301 348 434
#     4   9  22  43  65 100 144 192 231 305 361 441
#     4  12  22  40  70 102 136 188 238 290 364 438
#     4  11  22  44  72 101 145 197 236 296 381 430
#     4  12  23  41  69 107 146 186 246 305 364 435
#     4   9  23  42  64 103 140 188 237 295 370 431
#     4  10  22  41  67 102 142 190 239 299 372 436
#
# _framework density 24.716232000000002
#
# number of rings (size 3 to 8) (size 9 to 14) (size 15 to 20)
#    0.800    0.533    4.000    1.200    1.867    3.733 
#    0.000    0.000    0.000    0.000    3.467    0.000 
#    0.000    0.000    0.000    0.000    0.000    0.000 
#
# Total GULP energy -743527.172806 kJ/mol
# GULP energy per Si atom -12392.119547 kJ/mol
# Density = 2.465998 g / cm^3
# Si number density = 24.716232 Si / 1000 Ang^3
#
#
#
# Elastic Constant Matrix: (Units=GPa)
#
#
# Indices 1 2 3 4 5 6 
#
# 1 145.1671 65.9892 22.2254 0.0000 0.0000 0.0000
# 2 65.9892 82.9908 30.2395 0.0000 0.0000 0.0000
# 3 22.2254 30.2395 56.1154 0.0000 0.0000 0.0000
# 4 0.0000 0.0000 0.0000 27.0034 0.0000 0.0000
# 5 0.0000 0.0000 0.0000 0.0000 36.7477 0.0000
# 6 0.0000 0.0000 0.0000 0.0000 0.0000 40.0372
#
#
#
# Elastic Compliance Matrix: (Units=1/GPa)
#
#
# Indices 1 2 3 4 5 6 
#
# 1 0.010796 -0.008743 0.000436 0.000000 0.000000 0.000000
# 2 -0.008743 0.022074 -0.008432 0.000000 0.000000 0.000000
# 3 0.000436 -0.008432 0.022192 0.000000 0.000000 0.000000
# 4 0.000000 0.000000 0.000000 0.037032 0.000000 0.000000
# 5 0.000000 0.000000 0.000000 0.000000 0.027213 0.000000
# 6 0.000000 0.000000 0.000000 0.000000 0.000000 0.024977
#
#
# Mechanical properties :
#
#
# Convention : Reuss Voigt Hill
#
# Bulk Modulus (GPa) = 46.33458 57.90904 52.12181
# Shear Modulus (GPa) = 27.03302 31.81228 29.42265
#
# Velocity S-wave (km/s) = 3.31076 3.59151 3.45399
# Velocity P-wave (km/s) = 5.77946 6.37801 6.08610
#
# Compressibility (1/GPa) = 0.02158215
#
# Stress axis : x y z
#
# Youngs Moduli (GPa) = 92.62318 45.30168 45.06126
#
# Poissons Ratio (x) = 0.39609 -0.01962
# Poissons Ratio (y) = 0.80984 0.37998
# Poissons Ratio (z) = -0.04034 0.38200
#
# Static dielectric constant tensor:
#      x y z
#    x 4.457930 0.000000 0.000000 
#    y 0.000000 4.318320 0.000000 
#    z 0.000000 0.000000 4.213830 
# 
# 
# High freq. dielectric constant tensor:
#      x y z
#    x 1.986920 0.000000 0.000000 
#    y 0.000000 1.963950 0.000000 
#    z 0.000000 0.000000 1.964100 
# 
# From -- ./inp_files/17023.got.cif
#   From: 2010.03.12/outbox.cif.g09.slc.cpg/sg60_9_cif.got.tgz:17023.got - 2010.04.10 18:46:24.
