data_PCOD8247622
_publ_section_title
;
Structure prediction by ZEFSAII (Michael W. Deem and Ramdas Pophale) SiO2 
 PCOD8247622
Probable space group: P B C N
;
_chemical_formula_sum "Si O2"
_cell_formula_units_Z 52
_cell_length_a 8.537529
_cell_length_b 23.531665
_cell_length_c 11.912490
_cell_angle_alpha 90.000000
_cell_angle_beta 90.000000
_cell_angle_gamma 90.000000
_cell_volume 2393.246310
_symmetry_space_group_name_H-M "P B C N"
_symmetry_group_IT_number 60
_symmetry_cell_setting 'orthorhombic'
loop_
_space_group_symop_operation_xyz
x,y,z
1/2-x,1/2-y,1/2+z
1/2+x,1/2-y,-z
-x,y,1/2-z
-x,-y,-z
1/2+x,1/2+y,1/2-z
1/2-x,1/2+y,z
x,-y,1/2+z
loop_
_atom_site_type_symbol
_atom_site_label
_atom_site_fract_x
_atom_site_fract_y
_atom_site_fract_z
Si Si1 0.952425 0.800606 0.124999
Si Si2 0.235066 0.011871 0.520796
Si Si3 0.590392 0.105806 0.081999
Si Si4 0.227354 0.412477 0.678486
Si Si5 0.500000 0.340691 0.750000
Si Si6 0.451038 0.566804 0.874421
Si Si7 0.705727 0.288663 0.560797
O O1 0.000000 0.781016 0.250000
O O2 0.910552 0.866928 0.121314
O O3 0.795574 0.769782 0.083593
O O4 0.096948 0.782628 0.047080
O O5 0.387513 0.051656 0.500705
O O6 0.090604 0.055216 0.537543
O O7 0.257251 0.976618 0.634891
O O8 0.199434 0.969299 0.416415
O O9 0.407982 0.118381 0.105104
O O10 0.681760 0.085629 0.192450
O O11 0.666182 0.162832 0.033782
O O12 0.391744 0.379097 0.667339
O O13 0.606300 0.301497 0.672090
O O14 0.500000 0.547314 0.750000
#
# Coordination Sequence:
#
# PCOD8247622 Si02
#       7
#     8   8   8   8   4   8   8
#     4  11  26  45  68 100 134 183 224 284 344 406
#     4  11  20  36  67  93 131 174 209 268 327 399
#     4  10  22  41  61 101 128 174 214 280 328 398
#     4  10  22  36  64  96 134 163 226 267 334 395
#     4  10  24  42  70 102 124 180 232 280 336 408
#     4  10  22  38  61  96 134 167 215 260 330 401
#     4  11  25  44  71  92 139 169 235 280 336 409
#
# _framework density 21.727809000000001
#
# number of rings (size 3 to 8) (size 9 to 14) (size 15 to 20)
#    0.000    1.538    1.538    2.308   14.000    1.231 
#    0.000    0.000    0.000    0.000    0.000    0.000 
#    0.000    0.000    0.000    0.000    0.000    0.000 
#
# Total GULP energy -644928.491298 kJ/mol
# GULP energy per Si atom -12402.470986 kJ/mol
# Density = 2.167836 g / cm^3
# Si number density = 21.727809 Si / 1000 Ang^3
#
#
#
# Elastic Constant Matrix: (Units=GPa)
#
#
# Indices 1 2 3 4 5 6 
#
# 1 116.6830 48.9154 30.1621 0.0000 0.0000 0.0000
# 2 48.9154 108.3481 41.6127 0.0000 0.0000 0.0000
# 3 30.1621 41.6127 92.4693 0.0000 0.0000 0.0000
# 4 0.0000 0.0000 0.0000 26.5527 0.0000 0.0000
# 5 0.0000 0.0000 0.0000 0.0000 30.5555 0.0000
# 6 0.0000 0.0000 0.0000 0.0000 0.0000 42.4048
#
#
#
# Elastic Compliance Matrix: (Units=1/GPa)
#
#
# Indices 1 2 3 4 5 6 
#
# 1 0.010763 -0.004245 -0.001601 0.000000 0.000000 0.000000
# 2 -0.004245 0.012832 -0.004390 0.000000 0.000000 0.000000
# 3 -0.001601 -0.004390 0.013312 0.000000 0.000000 0.000000
# 4 0.000000 0.000000 0.000000 0.037661 0.000000 0.000000
# 5 0.000000 0.000000 0.000000 0.000000 0.032727 0.000000
# 6 0.000000 0.000000 0.000000 0.000000 0.000000 0.023582
#
#
# Mechanical properties :
#
#
# Convention : Reuss Voigt Hill
#
# Bulk Modulus (GPa) = 60.83931 62.09787 61.46859
# Shear Modulus (GPa) = 31.88219 33.02328 32.45274
#
# Velocity S-wave (km/s) = 3.83475 3.90277 3.86891
# Velocity P-wave (km/s) = 6.90424 6.99648 6.95051
#
# Compressibility (1/GPa) = 0.01643674
#
# Stress axis : x y z
#
# Youngs Moduli (GPa) = 92.90754 77.93131 75.11943
#
# Poissons Ratio (x) = 0.33078 0.12025
# Poissons Ratio (y) = 0.39435 0.32978
# Poissons Ratio (z) = 0.14872 0.34212
#
# Static dielectric constant tensor:
#      x y z
#    x 3.974310 0.000000 0.000000 
#    y 0.000000 3.855690 0.000000 
#    z 0.000000 0.000000 3.874650 
# 
# 
# High freq. dielectric constant tensor:
#      x y z
#    x 1.852580 0.000000 0.000000 
#    y 0.000000 1.854520 0.000000 
#    z 0.000000 0.000000 1.850350 
# 
# From -- ./inp_files/10243.got.cif
#   From: 2010.03.12/outbox.cif.g09.slc.cpg/sg60_6_cif.got.tgz:10243.got - 2010.04.10 18:46:24.
