data_PCOD8247355
_publ_section_title
;
Structure prediction by ZEFSAII (Michael W. Deem and Ramdas Pophale) SiO2 
 PCOD8247355
Probable space group: P B C N
;
_chemical_formula_sum "Si O2"
_cell_formula_units_Z 52
_cell_length_a 25.757038
_cell_length_b 8.654209
_cell_length_c 11.670020
_cell_angle_alpha 90.000000
_cell_angle_beta 90.000000
_cell_angle_gamma 90.000000
_cell_volume 2601.326698
_symmetry_space_group_name_H-M "P B C N"
_symmetry_group_IT_number 60
_symmetry_cell_setting 'orthorhombic'
loop_
_space_group_symop_operation_xyz
x,y,z
1/2-x,1/2-y,1/2+z
1/2+x,1/2-y,-z
-x,y,1/2-z
-x,-y,-z
1/2+x,1/2+y,1/2-z
1/2-x,1/2+y,z
x,-y,1/2+z
loop_
_atom_site_type_symbol
_atom_site_label
_atom_site_fract_x
_atom_site_fract_y
_atom_site_fract_z
Si Si1 0.572445 0.249462 0.636027
Si Si2 0.985999 0.238583 0.905885
Si Si3 0.000000 0.480551 0.250000
Si Si4 0.753357 0.479109 0.647208
Si Si5 0.422522 0.406985 0.289663
Si Si6 0.817022 0.730545 0.531032
Si Si7 0.685798 0.282795 0.264555
O O1 0.529272 0.266870 0.537524
O O2 0.550798 0.122710 0.724503
O O3 0.579495 0.408982 0.702657
O O4 0.627255 0.194172 0.586212
O O5 0.946437 0.133478 0.833568
O O6 0.985160 0.413946 0.859002
O O7 0.043570 0.167049 0.892270
O O8 0.780217 0.582802 0.549174
O O9 0.707909 0.381397 0.588451
O O10 0.796858 0.376955 0.707971
O O11 0.729756 0.587759 0.746224
O O12 0.365633 0.335954 0.301302
O O13 0.824919 0.761040 0.397776
#
# Coordination Sequence:
#
# PCOD8247355 Si02
#       7
#     8   8   4   8   8   8   8
#     4  12  22  40  65  92 125 163 208 249 312 369
#     4  10  23  42  61  87 129 161 202 256 303 367
#     4  10  24  40  60  94 124 158 208 252 306 372
#     4  10  24  41  62  93 124 161 206 260 304 368
#     4  10  21  38  63  90 120 162 199 252 304 364
#     4  11  23  39  67  90 124 163 206 253 312 367
#     4  11  21  43  64  90 126 160 206 255 311 362
#
# _framework density 19.989798
#
# number of rings (size 3 to 8) (size 9 to 14) (size 15 to 20)
#    0.000    1.538    3.077    2.769    4.308    0.000 
#    0.000    0.000    3.385    0.000    0.000    0.000 
#    0.000    0.000    0.000    0.000    0.000    0.000 
#
# Total GULP energy -645024.426941 kJ/mol
# GULP energy per Si atom -12404.315903 kJ/mol
# Density = 1.994430 g / cm^3
# Si number density = 19.989798 Si / 1000 Ang^3
#
#
#
# Elastic Constant Matrix: (Units=GPa)
#
#
# Indices 1 2 3 4 5 6 
#
# 1 114.1444 49.4835 28.4439 0.0000 0.0000 0.0000
# 2 49.4835 114.2477 30.9037 0.0000 0.0000 0.0000
# 3 28.4439 30.9037 50.9252 0.0000 0.0000 0.0000
# 4 0.0000 0.0000 0.0000 18.2265 0.0000 0.0000
# 5 0.0000 0.0000 0.0000 0.0000 31.4278 0.0000
# 6 0.0000 0.0000 0.0000 0.0000 0.0000 -117.2289
#
#
#
# Elastic Compliance Matrix: (Units=1/GPa)
#
#
# Indices 1 2 3 4 5 6 
#
# 1 0.011444 -0.003861 -0.004049 0.000000 0.000000 0.000000
# 2 -0.003861 0.011775 -0.004989 0.000000 0.000000 0.000000
# 3 -0.004049 -0.004989 0.024925 0.000000 0.000000 0.000000
# 4 0.000000 0.000000 0.000000 0.054865 0.000000 0.000000
# 5 0.000000 0.000000 0.000000 0.000000 0.031819 0.000000
# 6 0.000000 0.000000 0.000000 0.000000 0.000000 -0.008530
#
#
# Mechanical properties :
#
#
# Convention : Reuss Voigt Hill
#
# Bulk Modulus (GPa) = 44.74975 55.21996 49.98485
# Shear Modulus (GPa) = 31.33933 -2.14919 14.59507
#
# Velocity S-wave (km/s) = 3.96380 -1.03802 2.70502
# Velocity P-wave (km/s) = 6.58664 5.12322 5.90048
#
# Compressibility (1/GPa) = 0.02234649
#
# Stress axis : x y z
#
# Youngs Moduli (GPa) = 87.38443 84.92691 40.11990
#
# Poissons Ratio (x) = 0.32794 0.16243
# Poissons Ratio (y) = 0.33743 0.20015
# Poissons Ratio (z) = 0.35378 0.42368
#
# Static dielectric constant tensor:
#      x y z
#    x 3.734830 0.000000 0.000000 
#    y 0.000000 3.756580 0.000000 
#    z 0.000000 0.000000 3.401060 
# 
# 
# High freq. dielectric constant tensor:
#      x y z
#    x 1.790280 0.000000 0.000000 
#    y 0.000000 1.793580 0.000000 
#    z 0.000000 0.000000 1.766160 
# 
# From -- ./inp_files/13257.got.cif
#   From: 2010.03.12/outbox.cif.g09.slc.cpg/sg60_7_cif.got.tgz:13257.got - 2010.04.10 18:46:24.
