data_PCOD8247089
_publ_section_title
;
Structure prediction by ZEFSAII (Michael W. Deem and Ramdas Pophale) SiO2 
 PCOD8247089
Probable space group: P B C N
;
_chemical_formula_sum "Si O2"
_cell_formula_units_Z 48
_cell_length_a 13.885206
_cell_length_b 15.051708
_cell_length_c 10.345812
_cell_angle_alpha 90.000000
_cell_angle_beta 90.000000
_cell_angle_gamma 90.000000
_cell_volume 2162.234010
_symmetry_space_group_name_H-M "P B C N"
_symmetry_group_IT_number 60
_symmetry_cell_setting 'orthorhombic'
loop_
_space_group_symop_operation_xyz
x,y,z
1/2-x,1/2-y,1/2+z
1/2+x,1/2-y,-z
-x,y,1/2-z
-x,-y,-z
1/2+x,1/2+y,1/2-z
1/2-x,1/2+y,z
x,-y,1/2+z
loop_
_atom_site_type_symbol
_atom_site_label
_atom_site_fract_x
_atom_site_fract_y
_atom_site_fract_z
Si Si1 0.396853 0.907824 0.727289
Si Si2 0.401583 0.374934 0.174997
Si Si3 0.248916 0.006728 0.581407
Si Si4 0.570858 0.214784 0.511696
Si Si5 0.362298 0.820574 0.991374
Si Si6 0.258507 0.340168 0.401290
O O1 0.500000 0.958054 0.750000
O O2 0.400454 0.857730 0.592978
O O3 0.382924 0.835984 0.839429
O O4 0.306585 0.974196 0.710125
O O5 0.500000 0.393761 0.250000
O O6 0.360375 0.468148 0.120223
O O7 0.422661 0.311777 0.053121
O O8 0.318473 0.336835 0.269234
O O9 0.304672 0.095690 0.541954
O O10 0.242224 0.938119 0.463552
O O11 0.463876 0.194892 0.565113
O O12 0.649733 0.197639 0.625506
O O13 0.302974 0.729345 0.005273
#
# Coordination Sequence:
#
# PCOD8247089 Si02
#       6
#     8   8   8   8   8   8
#     4   9  19  37  63  88 121 159 205 247 312 362
#     4  12  22  41  64  86 123 172 205 248 312 374
#     4  11  25  37  61  97 126 154 210 266 295 362
#     4  10  20  39  66  89 116 165 208 249 303 375
#     4  11  20  40  64  88 127 166 202 255 309 366
#     4  11  23  40  65  93 122 165 212 246 314 366
#
# _framework density 22.199262999999998
#
# number of rings (size 3 to 8) (size 9 to 14) (size 15 to 20)
#    0.000    1.333    5.000    1.500    0.000    8.000 
#    0.000    0.000    0.000    0.000    0.000    0.000 
#    0.000    0.000    0.000    0.000    0.000    0.000 
#
# Total GULP energy -594851.609783 kJ/mol
# GULP energy per Si atom -12392.741870 kJ/mol
# Density = 2.214874 g / cm^3
# Si number density = 22.199263 Si / 1000 Ang^3
#
#
#
# Elastic Constant Matrix: (Units=GPa)
#
#
# Indices 1 2 3 4 5 6 
#
# 1 115.2043 35.6508 7.7651 0.0000 0.0000 0.0000
# 2 35.6508 102.2898 2.0314 0.0000 0.0000 0.0000
# 3 7.7651 2.0314 20.7693 0.0000 0.0000 0.0000
# 4 0.0000 0.0000 0.0000 9.6981 0.0000 0.0000
# 5 0.0000 0.0000 0.0000 0.0000 35.3114 0.0000
# 6 0.0000 0.0000 0.0000 0.0000 0.0000 34.0001
#
#
#
# Elastic Compliance Matrix: (Units=1/GPa)
#
#
# Indices 1 2 3 4 5 6 
#
# 1 0.009962 -0.003405 -0.003392 0.000000 0.000000 0.000000
# 2 -0.003405 0.010959 0.000201 0.000000 0.000000 0.000000
# 3 -0.003392 0.000201 0.049396 0.000000 0.000000 0.000000
# 4 0.000000 0.000000 0.000000 0.103113 0.000000 0.000000
# 5 0.000000 0.000000 0.000000 0.000000 0.028319 0.000000
# 6 0.000000 0.000000 0.000000 0.000000 0.000000 0.029412
#
#
# Mechanical properties :
#
#
# Convention : Reuss Voigt Hill
#
# Bulk Modulus (GPa) = 17.50489 36.57310 27.03900
# Shear Modulus (GPa) = 18.98293 28.65635 23.81964
#
# Velocity S-wave (km/s) = 2.92741 3.59676 3.27921
# Velocity P-wave (km/s) = 4.39645 5.81030 5.15211
#
# Compressibility (1/GPa) = 0.05712688
#
# Stress axis : x y z
#
# Youngs Moduli (GPa) = 100.37651 91.25054 20.24442
#
# Poissons Ratio (x) = 0.31069 0.06866
# Poissons Ratio (y) = 0.34177 -0.00407
# Poissons Ratio (z) = 0.34044 -0.01835
#
# Static dielectric constant tensor:
#      x y z
#    x 4.594000 0.000000 0.000000 
#    y 0.000000 4.073760 0.000000 
#    z 0.000000 0.000000 3.733820 
# 
# 
# High freq. dielectric constant tensor:
#      x y z
#    x 1.893900 0.000000 0.000000 
#    y 0.000000 1.869380 0.000000 
#    z 0.000000 0.000000 1.842280 
# 
# From -- ./inp_files/11864.got.cif
#   From: 2010.03.12/outbox.cif.g09.slc.cpg/sg60_6_cif.got.tgz:11864.got - 2010.04.10 18:46:24.
