data_PCOD8247685
_publ_section_title
;
Structure prediction by ZEFSAII (Michael W. Deem and Ramdas Pophale) SiO2 
 PCOD8247685
Probable space group: P B C N
;
_chemical_formula_sum "Si O2"
_cell_formula_units_Z 52
_cell_length_a 16.719070
_cell_length_b 14.526841
_cell_length_c 10.559080
_cell_angle_alpha 90.000000
_cell_angle_beta 90.000000
_cell_angle_gamma 90.000000
_cell_volume 2564.539422
_symmetry_space_group_name_H-M "P B C N"
_symmetry_group_IT_number 60
_symmetry_cell_setting 'orthorhombic'
loop_
_space_group_symop_operation_xyz
x,y,z
1/2-x,1/2-y,1/2+z
1/2+x,1/2-y,-z
-x,y,1/2-z
-x,-y,-z
1/2+x,1/2+y,1/2-z
1/2-x,1/2+y,z
x,-y,1/2+z
loop_
_atom_site_type_symbol
_atom_site_label
_atom_site_fract_x
_atom_site_fract_y
_atom_site_fract_z
Si Si1 0.578745 0.244113 0.908716
Si Si2 0.637528 0.612062 0.918569
Si Si3 0.603085 0.247669 0.623288
Si Si4 0.118061 0.929871 0.451296
Si Si5 0.796882 0.429503 0.116649
Si Si6 0.000000 0.093245 0.750000
Si Si7 0.685774 0.923589 0.397344
O O1 0.609646 0.272685 0.770345
O O2 0.486066 0.216400 0.912139
O O3 0.624422 0.151948 0.949598
O O4 0.596243 0.328155 0.001783
O O5 0.572003 0.651920 0.817903
O O6 0.728817 0.627043 0.878759
O O7 0.626313 0.659012 0.053627
O O8 0.622766 0.502070 0.933859
O O9 0.664907 0.168607 0.581549
O O10 0.200912 0.923910 0.374138
O O11 0.047030 0.965128 0.357121
O O12 0.833209 0.461129 0.254125
O O13 0.818768 0.497214 0.001822
#
# Coordination Sequence:
#
# PCOD8247685 Si02
#       7
#     8   8   8   8   8   4   8
#     4  10  22  39  61  85 115 152 194 237 288 344
#     4  11  23  37  59  85 119 154 188 235 289 347
#     4  10  22  39  61  85 115 152 194 237 288 344
#     4  11  23  37  59  85 119 154 188 235 289 347
#     4  10  22  42  61  85 116 153 196 241 290 342
#     4  12  22  36  54  88 124 144 192 234 284 346
#     4  10  22  42  61  85 116 153 196 241 290 342
#
# _framework density 20.276544999999999
#
# number of rings (size 3 to 8) (size 9 to 14) (size 15 to 20)
#    0.000    1.538    3.077    1.385    2.154    1.846 
#    2.769    0.000    0.000    0.000    0.000    0.000 
#    0.000    0.000    0.000    0.000    0.000    0.000 
#
# Total GULP energy -644489.514048 kJ/mol
# GULP energy per Si atom -12394.029116 kJ/mol
# Density = 2.023039 g / cm^3
# Si number density = 20.276545 Si / 1000 Ang^3
#
#
#
# Elastic Constant Matrix: (Units=GPa)
#
#
# Indices 1 2 3 4 5 6 
#
# 1 74.1202 30.0335 14.1761 0.0000 0.0000 0.0000
# 2 30.0335 70.1266 36.7354 0.0000 0.0000 0.0000
# 3 14.1761 36.7354 88.4623 0.0000 0.0000 0.0000
# 4 0.0000 0.0000 0.0000 28.1605 0.0000 0.0000
# 5 0.0000 0.0000 0.0000 0.0000 30.6132 0.0000
# 6 0.0000 0.0000 0.0000 0.0000 0.0000 23.8769
#
#
#
# Elastic Compliance Matrix: (Units=1/GPa)
#
#
# Indices 1 2 3 4 5 6 
#
# 1 0.016334 -0.007188 0.000367 0.000000 0.000000 0.000000
# 2 -0.007188 0.021387 -0.007730 0.000000 0.000000 0.000000
# 3 0.000367 -0.007730 0.014455 0.000000 0.000000 0.000000
# 4 0.000000 0.000000 0.000000 0.035511 0.000000 0.000000
# 5 0.000000 0.000000 0.000000 0.000000 0.032666 0.000000
# 6 0.000000 0.000000 0.000000 0.000000 0.000000 0.041882
#
#
# Mechanical properties :
#
#
# Convention : Reuss Voigt Hill
#
# Bulk Modulus (GPa) = 43.33446 43.84434 43.58940
# Shear Modulus (GPa) = 25.12225 26.64771 25.88498
#
# Velocity S-wave (km/s) = 3.52373 3.62914 3.57683
# Velocity P-wave (km/s) = 6.16228 6.26347 6.21308
#
# Compressibility (1/GPa) = 0.02307632
#
# Stress axis : x y z
#
# Youngs Moduli (GPa) = 61.22251 46.75650 69.17921
#
# Poissons Ratio (x) = 0.33608 -0.02541
# Poissons Ratio (y) = 0.44006 0.53473
# Poissons Ratio (z) = -0.02249 0.36141
#
# Static dielectric constant tensor:
#      x y z
#    x 3.968410 0.000000 0.000000 
#    y 0.000000 3.308390 0.000000 
#    z 0.000000 0.000000 3.806170 
# 
# 
# High freq. dielectric constant tensor:
#      x y z
#    x 1.809230 0.000000 0.000000 
#    y 0.000000 1.757490 0.000000 
#    z 0.000000 0.000000 1.803460 
# 
# From -- ./inp_files/12497.got.cif
#   From: 2010.03.12/outbox.cif.g09.slc.cpg/sg60_7_cif.got.tgz:12497.got - 2010.04.10 18:46:24.
