data_PCOD8247817
_publ_section_title
;
Structure prediction by ZEFSAII (Michael W. Deem and Ramdas Pophale) SiO2 
 PCOD8247817
Probable space group: P B C N
;
_chemical_formula_sum "Si O2"
_cell_formula_units_Z 56
_cell_length_a 6.534522
_cell_length_b 26.044628
_cell_length_c 15.475734
_cell_angle_alpha 90.000000
_cell_angle_beta 90.000000
_cell_angle_gamma 90.000000
_cell_volume 2633.802706
_symmetry_space_group_name_H-M "P B C N"
_symmetry_group_IT_number 60
_symmetry_cell_setting 'orthorhombic'
loop_
_space_group_symop_operation_xyz
x,y,z
1/2-x,1/2-y,1/2+z
1/2+x,1/2-y,-z
-x,y,1/2-z
-x,-y,-z
1/2+x,1/2+y,1/2-z
1/2-x,1/2+y,z
x,-y,1/2+z
loop_
_atom_site_type_symbol
_atom_site_label
_atom_site_fract_x
_atom_site_fract_y
_atom_site_fract_z
Si Si1 0.668615 0.920339 0.360465
Si Si2 0.216607 0.262791 0.385520
Si Si3 0.269038 0.898036 0.950936
Si Si4 0.500000 0.169054 0.750000
Si Si5 0.620529 0.986291 0.666183
Si Si6 0.566680 0.194812 0.435144
Si Si7 0.000000 0.023941 0.750000
Si Si8 0.963686 0.163209 0.349975
O O1 0.777611 0.915834 0.452387
O O2 0.602322 0.865161 0.324458
O O3 0.840736 0.940742 0.298255
O O4 0.474537 0.959115 0.363968
O O5 0.453126 0.243273 0.388699
O O6 0.172451 0.297184 0.300104
O O7 0.178628 0.291672 0.475672
O O8 0.062921 0.215663 0.381282
O O9 0.401180 0.942981 0.906292
O O10 0.398684 0.846820 0.957261
O O11 0.056557 0.885238 0.902360
O O12 0.500000 0.965995 0.750000
O O13 0.864440 0.990128 0.684430
O O14 0.723175 0.169414 0.367472
O O15 0.000000 0.151990 0.250000
#
# Coordination Sequence:
#
# PCOD8247817 Si02
#       8
#     8   8   8   4   8   8   4   8
#     4  11  23  45  67 102 134 176 235 284 344 417
#     4  11  23  43  69  96 139 181 223 284 342 405
#     4  11  26  40  72 101 133 181 226 287 348 410
#     4  12  22  46  67 104 132 179 238 284 342 416
#     4  10  23  43  67  99 137 175 228 291 346 417
#     4  11  24  45  69  97 138 179 225 284 341 408
#     4  10  22  42  67  92 138 179 220 282 346 400
#     4  11  26  45  64 101 136 176 232 275 338 425
#
# _framework density 21.262032999999999
#
# number of rings (size 3 to 8) (size 9 to 14) (size 15 to 20)
#    0.000    1.143    5.714    0.429    3.000    5.714 
#    2.571    0.000    0.000    0.000    0.000    0.000 
#    0.000    0.000    0.000    0.000    0.000    0.000 
#
# Total GULP energy -694365.155733 kJ/mol
# GULP energy per Si atom -12399.377781 kJ/mol
# Density = 2.121364 g / cm^3
# Si number density = 21.262033 Si / 1000 Ang^3
#
#
#
# Elastic Constant Matrix: (Units=GPa)
#
#
# Indices 1 2 3 4 5 6 
#
# 1 103.0267 25.0856 25.4992 0.0000 0.0000 0.0000
# 2 25.0856 92.9743 36.3477 0.0000 0.0000 0.0000
# 3 25.4992 36.3477 125.0039 0.0000 0.0000 0.0000
# 4 0.0000 0.0000 0.0000 24.1499 0.0000 0.0000
# 5 0.0000 0.0000 0.0000 0.0000 27.2519 0.0000
# 6 0.0000 0.0000 0.0000 0.0000 0.0000 17.2008
#
#
#
# Elastic Compliance Matrix: (Units=1/GPa)
#
#
# Indices 1 2 3 4 5 6 
#
# 1 0.010634 -0.002280 -0.001506 0.000000 0.000000 0.000000
# 2 -0.002280 0.012624 -0.003206 0.000000 0.000000 0.000000
# 3 -0.001506 -0.003206 0.009239 0.000000 0.000000 0.000000
# 4 0.000000 0.000000 0.000000 0.041408 0.000000 0.000000
# 5 0.000000 0.000000 0.000000 0.000000 0.036695 0.000000
# 6 0.000000 0.000000 0.000000 0.000000 0.000000 0.058137
#
#
# Mechanical properties :
#
#
# Convention : Reuss Voigt Hill
#
# Bulk Modulus (GPa) = 54.01569 54.98555 54.50062
# Shear Modulus (GPa) = 26.47007 29.32533 27.89770
#
# Velocity S-wave (km/s) = 3.53221 3.71783 3.62621
# Velocity P-wave (km/s) = 6.48808 6.65934 6.57427
#
# Compressibility (1/GPa) = 0.01851314
#
# Stress axis : x y z
#
# Youngs Moduli (GPa) = 94.03575 79.21327 108.23584
#
# Poissons Ratio (x) = 0.18064 0.16302
# Poissons Ratio (y) = 0.21444 0.34696
# Poissons Ratio (z) = 0.14163 0.25392
#
# Static dielectric constant tensor:
#      x y z
#    x 4.053300 0.000000 0.000000 
#    y 0.000000 3.944080 0.000000 
#    z 0.000000 0.000000 3.939520 
# 
# 
# High freq. dielectric constant tensor:
#      x y z
#    x 1.827750 0.000000 0.000000 
#    y 0.000000 1.837780 0.000000 
#    z 0.000000 0.000000 1.841210 
# 
# From -- ./inp_files/14130.got.cif
#   From: 2010.03.12/outbox.cif.g09.slc.cpg/sg60_8_cif.got.tgz:14130.got - 2010.04.10 18:46:24.
