data_PCOD8247547
_publ_section_title
;
Structure prediction by ZEFSAII (Michael W. Deem and Ramdas Pophale) SiO2 
 PCOD8247547
Probable space group: P B C N
;
_chemical_formula_sum "Si O2"
_cell_formula_units_Z 60
_cell_length_a 9.197093
_cell_length_b 11.338908
_cell_length_c 25.226465
_cell_angle_alpha 90.000000
_cell_angle_beta 90.000000
_cell_angle_gamma 90.000000
_cell_volume 2630.741685
_symmetry_space_group_name_H-M "P B C N"
_symmetry_group_IT_number 60
_symmetry_cell_setting 'orthorhombic'
loop_
_space_group_symop_operation_xyz
x,y,z
1/2-x,1/2-y,1/2+z
1/2+x,1/2-y,-z
-x,y,1/2-z
-x,-y,-z
1/2+x,1/2+y,1/2-z
1/2-x,1/2+y,z
x,-y,1/2+z
loop_
_atom_site_type_symbol
_atom_site_label
_atom_site_fract_x
_atom_site_fract_y
_atom_site_fract_z
Si Si1 0.802705 0.348482 0.310808
Si Si2 0.171728 0.376390 0.459123
Si Si3 0.902415 0.942704 0.549454
Si Si4 0.000000 0.532800 0.250000
Si Si5 0.175720 0.262483 0.791780
Si Si6 0.475674 0.633002 0.629055
Si Si7 0.965763 0.765574 0.026781
Si Si8 0.928528 0.258238 0.132178
O O1 0.893329 0.452607 0.284337
O O2 0.711016 0.274858 0.268131
O O3 0.684849 0.400697 0.351218
O O4 0.909067 0.263758 0.344657
O O5 0.244074 0.505431 0.468700
O O6 0.290159 0.271139 0.472764
O O7 0.031279 0.347910 0.496235
O O8 0.123910 0.380041 0.396398
O O9 0.992306 0.899440 0.496595
O O10 0.902280 0.819914 0.580363
O O11 0.967400 0.024055 0.595627
O O12 0.908459 0.613470 0.209722
O O13 0.328852 0.282495 0.819728
O O14 0.080237 0.163387 0.821295
O O15 0.474982 0.742773 0.587415
#
# Coordination Sequence:
#
# PCOD8247547 Si02
#       8
#     8   8   8   4   8   8   8   8
#     4  12  27  47  67 103 133 183 235 289 338 425
#     4  10  21  42  65 100 131 176 221 276 334 408
#     4  10  23  42  71  98 130 181 230 272 347 417
#     4  12  28  44  70  96 144 168 240 288 338 414
#     4  12  24  48  65  98 138 180 228 289 345 406
#     4  11  23  44  71  97 139 179 225 287 347 405
#     4  10  22  42  69  95 137 174 223 281 332 414
#     4  11  24  43  69  94 136 180 223 281 346 406
#
# _framework density 22.807255000000001
#
# number of rings (size 3 to 8) (size 9 to 14) (size 15 to 20)
#    0.000    1.067    5.333    1.600    9.333    0.000 
#    2.400    2.667    0.000    0.000    0.000    0.000 
#    0.000    0.000    0.000    0.000    0.000    0.000 
#
# Total GULP energy -743419.413982 kJ/mol
# GULP energy per Si atom -12390.323566 kJ/mol
# Density = 2.275535 g / cm^3
# Si number density = 22.807255 Si / 1000 Ang^3
#
#
#
# Elastic Constant Matrix: (Units=GPa)
#
#
# Indices 1 2 3 4 5 6 
#
# 1 117.7179 22.2118 51.5130 0.0000 0.0000 0.0000
# 2 22.2118 51.0997 11.0097 0.0000 0.0000 0.0000
# 3 51.5130 11.0097 97.7028 0.0000 0.0000 0.0000
# 4 0.0000 0.0000 0.0000 30.0507 0.0000 0.0000
# 5 0.0000 0.0000 0.0000 0.0000 46.6225 0.0000
# 6 0.0000 0.0000 0.0000 0.0000 0.0000 15.1957
#
#
#
# Elastic Compliance Matrix: (Units=1/GPa)
#
#
# Indices 1 2 3 4 5 6 
#
# 1 0.011743 -0.003864 -0.005756 0.000000 0.000000 0.000000
# 2 -0.003864 0.021328 -0.000366 0.000000 0.000000 0.000000
# 3 -0.005756 -0.000366 0.013311 0.000000 0.000000 0.000000
# 4 0.000000 0.000000 0.000000 0.033277 0.000000 0.000000
# 5 0.000000 0.000000 0.000000 0.000000 0.021449 0.000000
# 6 0.000000 0.000000 0.000000 0.000000 0.000000 0.065808
#
#
# Mechanical properties :
#
#
# Convention : Reuss Voigt Hill
#
# Bulk Modulus (GPa) = 37.86458 48.44327 43.15392
# Shear Modulus (GPa) = 25.55044 30.49284 28.02164
#
# Velocity S-wave (km/s) = 3.35068 3.66044 3.50898
# Velocity P-wave (km/s) = 5.62205 6.25712 5.94807
#
# Compressibility (1/GPa) = 0.02640990
#
# Stress axis : x y z
#
# Youngs Moduli (GPa) = 85.15902 46.88649 75.12543
#
# Poissons Ratio (x) = 0.18118 0.43241
# Poissons Ratio (y) = 0.32907 0.02750
# Poissons Ratio (z) = 0.49016 0.01716
#
# Static dielectric constant tensor:
#      x y z
#    x 4.157360 0.000000 0.000000 
#    y 0.000000 4.070420 0.000000 
#    z 0.000000 0.000000 4.466630 
# 
# 
# High freq. dielectric constant tensor:
#      x y z
#    x 1.907990 0.000000 0.000000 
#    y 0.000000 1.883480 0.000000 
#    z 0.000000 0.000000 1.920380 
# 
# From -- ./inp_files/25217.got.cif
#   From: 2010.03.12/outbox.cif.g09.slc.cpg/sg60_13_cif.got.tgz:25217.got - 2010.04.10 18:46:24.
