data_PCOD8247019
_publ_section_title
;
Structure prediction by ZEFSAII (Michael W. Deem and Ramdas Pophale) SiO2 
 PCOD8247019
Probable space group: P B C N
;
_chemical_formula_sum "Si O2"
_cell_formula_units_Z 36
_cell_length_a 9.771099
_cell_length_b 6.426382
_cell_length_c 24.288201
_cell_angle_alpha 90.000000
_cell_angle_beta 90.000000
_cell_angle_gamma 90.000000
_cell_volume 1525.124506
_symmetry_space_group_name_H-M "P B C N"
_symmetry_group_IT_number 60
_symmetry_cell_setting 'orthorhombic'
loop_
_space_group_symop_operation_xyz
x,y,z
1/2-x,1/2-y,1/2+z
1/2+x,1/2-y,-z
-x,y,1/2-z
-x,-y,-z
1/2+x,1/2+y,1/2-z
1/2-x,1/2+y,z
x,-y,1/2+z
loop_
_atom_site_type_symbol
_atom_site_label
_atom_site_fract_x
_atom_site_fract_y
_atom_site_fract_z
Si Si1 0.500000 0.863765 0.250000
Si Si2 0.877354 0.161145 0.050854
Si Si3 0.648476 0.414826 0.671675
Si Si4 0.953312 0.633657 0.157691
Si Si5 0.063332 0.306295 0.962627
O O1 0.382189 0.714165 0.273314
O O2 0.555761 0.012654 0.300226
O O3 0.879499 0.221221 0.115529
O O4 0.722341 0.135881 0.028342
O O5 0.951252 0.941914 0.044135
O O6 0.960360 0.345252 0.016199
O O7 0.556075 0.621901 0.671029
O O8 0.807132 0.476134 0.671361
O O9 0.995374 0.596276 0.094148
#
# Coordination Sequence:
#
# PCOD8247019 Si02
#       5
#     4   8   8   8   8
#     4  12  22  36  62  84 110 164 196 246 290 344
#     4   9  19  36  60  88 118 152 192 243 296 357
#     4  10  20  38  61  85 116 157 201 240 298 361
#     4  10  20  38  61  85 116 157 201 240 298 361
#     4   9  19  36  60  88 118 152 192 243 296 357
#
# _framework density 23.604628999999999
#
# number of rings (size 3 to 8) (size 9 to 14) (size 15 to 20)
#    0.000    2.222    2.222    0.667    3.111    0.889 
#    0.000    2.222    9.778    0.000    0.000    0.000 
#    0.000    0.000    0.000    0.000    0.000    0.000 
#
# Total GULP energy -446099.750786 kJ/mol
# GULP energy per Si atom -12391.659744 kJ/mol
# Density = 2.355090 g / cm^3
# Si number density = 23.604629 Si / 1000 Ang^3
#
#
#
# Elastic Constant Matrix: (Units=GPa)
#
#
# Indices 1 2 3 4 5 6 
#
# 1 62.0224 18.5974 71.7072 0.0000 0.0000 0.0000
# 2 18.5974 82.5770 64.0744 0.0000 0.0000 0.0000
# 3 71.7072 64.0744 199.9024 0.0000 0.0000 0.0000
# 4 0.0000 0.0000 0.0000 50.7396 0.0000 0.0000
# 5 0.0000 0.0000 0.0000 0.0000 40.3971 0.0000
# 6 0.0000 0.0000 0.0000 0.0000 0.0000 37.1416
#
#
#
# Elastic Compliance Matrix: (Units=1/GPa)
#
#
# Indices 1 2 3 4 5 6 
#
# 1 0.027786 0.001965 -0.010597 0.000000 0.000000 0.000000
# 2 0.001965 0.016258 -0.005916 0.000000 0.000000 0.000000
# 3 -0.010597 -0.005916 0.010700 0.000000 0.000000 0.000000
# 4 0.000000 0.000000 0.000000 0.019708 0.000000 0.000000
# 5 0.000000 0.000000 0.000000 0.000000 0.024754 0.000000
# 6 0.000000 0.000000 0.000000 0.000000 0.000000 0.026924
#
#
# Mechanical properties :
#
#
# Convention : Reuss Voigt Hill
#
# Bulk Modulus (GPa) = 38.99035 72.58443 55.78739
# Shear Modulus (GPa) = 30.52978 38.33052 34.43015
#
# Velocity S-wave (km/s) = 3.60026 4.03408 3.82333
# Velocity P-wave (km/s) = 5.81691 7.24674 6.57083
#
# Compressibility (1/GPa) = 0.02564737
#
# Stress axis : x y z
#
# Youngs Moduli (GPa) = 35.98997 61.50922 93.45967
#
# Poissons Ratio (x) = -0.12085 0.99037
# Poissons Ratio (y) = -0.07071 0.55289
# Poissons Ratio (z) = 0.38138 0.36388
#
# Static dielectric constant tensor:
#      x y z
#    x 3.745060 0.000000 0.000000 
#    y 0.000000 4.771390 0.000000 
#    z 0.000000 0.000000 4.777310 
# 
# 
# High freq. dielectric constant tensor:
#      x y z
#    x 1.860680 0.000000 0.000000 
#    y 0.000000 2.001690 0.000000 
#    z 0.000000 0.000000 1.945740 
# 
# From -- ./inp_files/22504.got.cif
#   From: 2010.03.12/outbox.cif.g09.slc.cpg/sg60_12_cif.got.tgz:22504.got - 2010.04.10 18:46:24.
