data_PCOD8247985
_publ_section_title
;
Structure prediction by ZEFSAII (Michael W. Deem and Ramdas Pophale) SiO2 
 PCOD8247985
Probable space group: P B C N
;
_chemical_formula_sum "Si O2"
_cell_formula_units_Z 60
_cell_length_a 9.447119
_cell_length_b 11.641617
_cell_length_c 24.659776
_cell_angle_alpha 90.000000
_cell_angle_beta 90.000000
_cell_angle_gamma 90.000000
_cell_volume 2712.075781
_symmetry_space_group_name_H-M "P B C N"
_symmetry_group_IT_number 60
_symmetry_cell_setting 'orthorhombic'
loop_
_space_group_symop_operation_xyz
x,y,z
1/2-x,1/2-y,1/2+z
1/2+x,1/2-y,-z
-x,y,1/2-z
-x,-y,-z
1/2+x,1/2+y,1/2-z
1/2-x,1/2+y,z
x,-y,1/2+z
loop_
_atom_site_type_symbol
_atom_site_label
_atom_site_fract_x
_atom_site_fract_y
_atom_site_fract_z
Si Si1 0.025256 0.351403 0.309076
Si Si2 0.465023 0.336912 0.453422
Si Si3 0.983708 0.394887 0.836536
Si Si4 0.347585 0.547999 0.053002
Si Si5 0.653743 0.349028 0.838044
Si Si6 0.537088 0.083976 0.452370
Si Si7 0.148289 0.174939 0.831207
Si Si8 0.500000 0.500152 0.250000
O O1 0.906649 0.281141 0.342437
O O2 0.000000 0.299716 0.250000
O O3 0.990940 0.486429 0.304643
O O4 0.182084 0.322694 0.330244
O O5 0.595798 0.422593 0.460290
O O6 0.353051 0.371097 0.499713
O O7 0.528765 0.215126 0.471250
O O8 0.399848 0.344909 0.393391
O O9 0.051382 0.423892 0.896319
O O10 0.085202 0.297304 0.810384
O O11 0.824749 0.342603 0.838433
O O12 0.417793 0.596153 0.107954
O O13 0.185912 0.539241 0.068590
O O14 0.604271 0.420923 0.785577
O O15 0.500000 0.000000 0.500000
O O16 0.094074 0.076510 0.790705
#
# Coordination Sequence:
#
# PCOD8247985 Si02
#       8
#     8   8   8   8   8   8   8   4
#     4  12  28  45  71 107 138 183 238 287 350 423
#     4  10  23  44  65 103 132 180 227 286 348 417
#     4  10  27  46  69 101 140 181 234 283 346 421
#     4  10  23  42  70  94 137 178 230 279 347 415
#     4  11  25  45  70 102 137 187 232 287 349 413
#     4  10  24  41  66 100 132 177 224 284 344 411
#     4  11  27  45  71 100 141 182 231 291 350 412
#     4  12  24  44  74  94 140 186 232 286 348 412
#
# _framework density 22.123275
#
# number of rings (size 3 to 8) (size 9 to 14) (size 15 to 20)
#    0.000    1.333    2.000    0.800   12.133    2.133 
#    4.800    0.000    0.000    0.000    0.000    0.000 
#    0.000    0.000    0.000    0.000    0.000    0.000 
#
# Total GULP energy -743479.176899 kJ/mol
# GULP energy per Si atom -12391.319615 kJ/mol
# Density = 2.207292 g / cm^3
# Si number density = 22.123275 Si / 1000 Ang^3
#
#
#
# Elastic Constant Matrix: (Units=GPa)
#
#
# Indices 1 2 3 4 5 6 
#
# 1 107.7137 48.2512 16.3495 0.0000 0.0000 0.0000
# 2 48.2512 134.5124 39.2319 0.0000 0.0000 0.0000
# 3 16.3495 39.2319 121.1702 0.0000 0.0000 0.0000
# 4 0.0000 0.0000 0.0000 35.8853 0.0000 0.0000
# 5 0.0000 0.0000 0.0000 0.0000 11.5884 0.0000
# 6 0.0000 0.0000 0.0000 0.0000 0.0000 43.5473
#
#
#
# Elastic Compliance Matrix: (Units=1/GPa)
#
#
# Indices 1 2 3 4 5 6 
#
# 1 0.011067 -0.003903 -0.000230 0.000000 0.000000 0.000000
# 2 -0.003903 0.009586 -0.002577 0.000000 0.000000 0.000000
# 3 -0.000230 -0.002577 0.009118 0.000000 0.000000 0.000000
# 4 0.000000 0.000000 0.000000 0.027867 0.000000 0.000000
# 5 0.000000 0.000000 0.000000 0.000000 0.086293 0.000000
# 6 0.000000 0.000000 0.000000 0.000000 0.000000 0.022964
#
#
# Mechanical properties :
#
#
# Convention : Reuss Voigt Hill
#
# Bulk Modulus (GPa) = 61.15455 63.45130 62.30293
# Shear Modulus (GPa) = 26.91581 35.50845 31.21213
#
# Velocity S-wave (km/s) = 3.49180 4.01062 3.76017
# Velocity P-wave (km/s) = 6.63020 7.08448 6.86110
#
# Compressibility (1/GPa) = 0.01635201
#
# Stress axis : x y z
#
# Youngs Moduli (GPa) = 90.35821 104.31983 109.67049
#
# Poissons Ratio (x) = 0.40715 0.02518
# Poissons Ratio (y) = 0.35266 0.28263
# Poissons Ratio (z) = 0.02075 0.26884
#
# Static dielectric constant tensor:
#      x y z
#    x 3.658560 0.000000 0.000000 
#    y 0.000000 3.733110 0.000000 
#    z 0.000000 0.000000 3.019850 
# 
# 
# High freq. dielectric constant tensor:
#      x y z
#    x 1.855970 0.000000 0.000000 
#    y 0.000000 1.882050 0.000000 
#    z 0.000000 0.000000 1.891170 
# 
# From -- ./inp_files/25220.got.cif
#   From: 2010.03.12/outbox.cif.g09.slc.cpg/sg60_13_cif.got.tgz:25220.got - 2010.04.10 18:46:24.
