data_PCOD8247356
_publ_section_title
;
Structure prediction by ZEFSAII (Michael W. Deem and Ramdas Pophale) SiO2 
 PCOD8247356
Probable space group: P B C N
;
_chemical_formula_sum "Si O2"
_cell_formula_units_Z 48
_cell_length_a 17.559399
_cell_length_b 26.163104
_cell_length_c 4.960548
_cell_angle_alpha 90.000000
_cell_angle_beta 90.000000
_cell_angle_gamma 90.000000
_cell_volume 2278.917332
_symmetry_space_group_name_H-M "P B C N"
_symmetry_group_IT_number 60
_symmetry_cell_setting 'orthorhombic'
loop_
_space_group_symop_operation_xyz
x,y,z
1/2-x,1/2-y,1/2+z
1/2+x,1/2-y,-z
-x,y,1/2-z
-x,-y,-z
1/2+x,1/2+y,1/2-z
1/2-x,1/2+y,z
x,-y,1/2+z
loop_
_atom_site_type_symbol
_atom_site_label
_atom_site_fract_x
_atom_site_fract_y
_atom_site_fract_z
Si Si1 0.662608 0.534826 0.230231
Si Si2 0.000000 0.963792 0.750000
Si Si3 0.211758 0.772273 0.547619
Si Si4 0.722934 0.121845 0.371720
Si Si5 0.878736 0.622107 0.870101
Si Si6 0.049868 0.272371 0.018298
Si Si7 0.500000 0.962707 0.250000
O O1 0.668971 0.485856 0.426459
O O2 0.581191 0.566030 0.257169
O O3 0.730194 0.572007 0.301186
O O4 0.000000 0.000000 0.500000
O O5 0.264404 0.766874 0.283250
O O6 0.223475 0.828774 0.668999
O O7 0.124754 0.761509 0.460161
O O8 0.694765 0.122306 0.678443
O O9 0.649432 0.121503 0.178905
O O10 0.926162 0.572658 0.781744
O O11 0.928860 0.673036 0.850158
O O12 0.000000 0.278566 0.750000
O O13 0.000000 0.244381 0.250000
O O14 0.500000 0.000000 0.500000
#
# Coordination Sequence:
#
# PCOD8247356 Si02
#       7
#     8   4   8   8   8   8   4
#     4  10  21  38  63  90 123 163 209 257 315 385
#     4   8  16  34  58  81 110 155 192 232 298 370
#     4  12  23  43  67  97 131 170 214 272 336 392
#     4  12  24  41  67  97 128 168 216 270 325 395
#     4  12  25  42  68  90 125 179 218 259 335 394
#     4  12  24  42  70  95 127 172 221 269 327 411
#     4  12  28  44  62  95 136 171 226 288 322 376
#
# _framework density 21.062633999999999
#
# number of rings (size 3 to 8) (size 9 to 14) (size 15 to 20)
#    0.000    0.667    4.167    4.000    1.167    4.000 
#    1.500    0.000    7.333    0.000    0.000    0.000 
#    0.000    0.000    0.000    0.000    0.000    0.000 
#
# Total GULP energy -595034.079544 kJ/mol
# GULP energy per Si atom -12396.543324 kJ/mol
# Density = 2.101469 g / cm^3
# Si number density = 21.062634 Si / 1000 Ang^3
#
#
#
# Elastic Constant Matrix: (Units=GPa)
#
#
# Indices 1 2 3 4 5 6 
#
# 1 117.8083 44.1302 23.3317 0.0000 0.0000 0.0000
# 2 44.1302 86.8070 7.8600 0.0000 0.0000 0.0000
# 3 23.3317 7.8600 102.2169 0.0000 0.0000 0.0000
# 4 0.0000 0.0000 0.0000 26.5046 0.0000 0.0000
# 5 0.0000 0.0000 0.0000 0.0000 44.2586 0.0000
# 6 0.0000 0.0000 0.0000 0.0000 0.0000 37.2994
#
#
#
# Elastic Compliance Matrix: (Units=1/GPa)
#
#
# Indices 1 2 3 4 5 6 
#
# 1 0.010906 -0.005356 -0.002078 0.000000 0.000000 0.000000
# 2 -0.005356 0.014231 0.000128 0.000000 0.000000 0.000000
# 3 -0.002078 0.000128 0.010247 0.000000 0.000000 0.000000
# 4 0.000000 0.000000 0.000000 0.037729 0.000000 0.000000
# 5 0.000000 0.000000 0.000000 0.000000 0.022594 0.000000
# 6 0.000000 0.000000 0.000000 0.000000 0.000000 0.026810
#
#
# Mechanical properties :
#
#
# Convention : Reuss Voigt Hill
#
# Bulk Modulus (GPa) = 48.13759 50.83067 49.48413
# Shear Modulus (GPa) = 34.70908 37.04654 35.87781
#
# Velocity S-wave (km/s) = 4.06384 4.19844 4.13169
# Velocity P-wave (km/s) = 6.70252 6.90566 6.80485
#
# Compressibility (1/GPa) = 0.02077378
#
# Stress axis : x y z
#
# Youngs Moduli (GPa) = 91.69036 70.26814 97.58510
#
# Poissons Ratio (x) = 0.37638 0.20274
# Poissons Ratio (y) = 0.49112 -0.01252
# Poissons Ratio (z) = 0.19049 -0.00902
#
# Static dielectric constant tensor:
#      x y z
#    x 4.231280 0.000000 0.000000 
#    y 0.000000 6.727050 0.000000 
#    z 0.000000 0.000000 3.988410 
# 
# 
# High freq. dielectric constant tensor:
#      x y z
#    x 1.842150 0.000000 0.000000 
#    y 0.000000 1.796450 0.000000 
#    z 0.000000 0.000000 1.847170 
# 
# From -- ./inp_files/1358.got.cif
#   From: 2010.03.12/outbox.cif.g09.slc.cpg/sg60_1_cif.got.tgz:1358.got - 2010.04.10 18:46:24.
