data_PCOD8247007
_publ_section_title
;
Structure prediction by ZEFSAII (Michael W. Deem and Ramdas Pophale) SiO2 
 PCOD8247007
Probable space group: P B C N
;
_chemical_formula_sum "Si O2"
_cell_formula_units_Z 24
_cell_length_a 7.851724
_cell_length_b 31.028970
_cell_length_c 4.968286
_cell_angle_alpha 90.000000
_cell_angle_beta 90.000000
_cell_angle_gamma 90.000000
_cell_volume 1210.428032
_symmetry_space_group_name_H-M "P B C N"
_symmetry_group_IT_number 60
_symmetry_cell_setting 'orthorhombic'
loop_
_space_group_symop_operation_xyz
x,y,z
1/2-x,1/2-y,1/2+z
1/2+x,1/2-y,-z
-x,y,1/2-z
-x,-y,-z
1/2+x,1/2+y,1/2-z
1/2-x,1/2+y,z
x,-y,1/2+z
loop_
_atom_site_type_symbol
_atom_site_label
_atom_site_fract_x
_atom_site_fract_y
_atom_site_fract_z
Si Si1 0.000000 0.650417 0.250000
Si Si2 0.192489 0.028581 0.770862
Si Si3 0.169834 0.266664 0.871487
Si Si4 0.000000 0.591770 0.750000
O O1 0.158882 0.681249 0.337670
O O2 0.948425 0.620859 0.498160
O O3 0.332342 0.063779 0.689176
O O4 0.000000 0.047638 0.750000
O O5 0.219375 0.987797 0.574273
O O6 0.318570 0.246732 0.684246
O O7 0.000000 0.244749 0.750000
#
# Coordination Sequence:
#
# PCOD8247007 Si02
#       4
#     4   8   8   4
#     4  10  24  35  60  84 122 144 196 244 302 353
#     4  10  21  37  59  85 116 158 201 233 281 361
#     4  10  20  38  60  82 112 153 195 244 292 357
#     4  12  20  39  58  88 122 154 184 256 304 339
#
# _framework density 19.827698000000002
#
# number of rings (size 3 to 8) (size 9 to 14) (size 15 to 20)
#    1.000    0.667    0.000    6.000    0.000    0.000 
#    0.000   10.000    0.000    0.000    0.000    0.000 
#    0.000    0.000    0.000    0.000    0.000    0.000 
#
# Total GULP energy -297471.087919 kJ/mol
# GULP energy per Si atom -12394.628663 kJ/mol
# Density = 1.978257 g / cm^3
# Si number density = 19.827698 Si / 1000 Ang^3
#
#
#
# Elastic Constant Matrix: (Units=GPa)
#
#
# Indices 1 2 3 4 5 6 
#
# 1 84.5749 44.3086 -1.5311 0.0000 0.0000 0.0000
# 2 44.3086 97.2267 19.5328 0.0000 0.0000 0.0000
# 3 -1.5311 19.5328 77.4217 0.0000 0.0000 0.0000
# 4 0.0000 0.0000 0.0000 63.2542 0.0000 0.0000
# 5 0.0000 0.0000 0.0000 0.0000 32.4270 0.0000
# 6 0.0000 0.0000 0.0000 0.0000 0.0000 -29.7818
#
#
#
# Elastic Compliance Matrix: (Units=1/GPa)
#
#
# Indices 1 2 3 4 5 6 
#
# 1 0.015898 -0.007698 0.002257 0.000000 0.000000 0.000000
# 2 -0.007698 0.014562 -0.003826 0.000000 0.000000 0.000000
# 3 0.002257 -0.003826 0.013926 0.000000 0.000000 0.000000
# 4 0.000000 0.000000 0.000000 0.015809 0.000000 0.000000
# 5 0.000000 0.000000 0.000000 0.000000 0.030839 0.000000
# 6 0.000000 0.000000 0.000000 0.000000 0.000000 -0.033578
#
#
# Mechanical properties :
#
#
# Convention : Reuss Voigt Hill
#
# Bulk Modulus (GPa) = 38.68404 42.64933 40.66668
# Shear Modulus (GPa) = 59.09524 26.30741 42.70132
#
# Velocity S-wave (km/s) = 5.46526 3.64648 4.64575
# Velocity P-wave (km/s) = 7.70571 6.26784 7.02366
#
# Compressibility (1/GPa) = 0.02585046
#
# Stress axis : x y z
#
# Youngs Moduli (GPa) = 62.90152 68.67068 71.80705
#
# Poissons Ratio (x) = 0.52865 -0.16204
# Poissons Ratio (y) = 0.48424 0.27475
# Poissons Ratio (z) = -0.14195 0.26275
#
# Static dielectric constant tensor:
#      x y z
#    x 3.468950 0.000000 0.000000 
#    y 0.000000 3.362380 0.000000 
#    z 0.000000 0.000000 3.618910 
# 
# 
# High freq. dielectric constant tensor:
#      x y z
#    x 1.764300 0.000000 0.000000 
#    y 0.000000 1.750920 0.000000 
#    z 0.000000 0.000000 1.794260 
# 
# From -- ./inp_files/282.got.cif
#   From: 2010.03.12/outbox.cif.g09.slc.cpg/sg60_1_cif.got.tgz:282.got - 2010.04.10 18:46:24.
