data_PCOD8247260
_publ_section_title
;
Structure prediction by ZEFSAII (Michael W. Deem and Ramdas Pophale) SiO2 
 PCOD8247260
Probable space group: P B C N
;
_chemical_formula_sum "Si O2"
_cell_formula_units_Z 64
_cell_length_a 18.810050
_cell_length_b 20.379799
_cell_length_c 8.480778
_cell_angle_alpha 90.000000
_cell_angle_beta 90.000000
_cell_angle_gamma 90.000000
_cell_volume 3251.064166
_symmetry_space_group_name_H-M "P B C N"
_symmetry_group_IT_number 60
_symmetry_cell_setting 'orthorhombic'
loop_
_space_group_symop_operation_xyz
x,y,z
1/2-x,1/2-y,1/2+z
1/2+x,1/2-y,-z
-x,y,1/2-z
-x,-y,-z
1/2+x,1/2+y,1/2-z
1/2-x,1/2+y,z
x,-y,1/2+z
loop_
_atom_site_type_symbol
_atom_site_label
_atom_site_fract_x
_atom_site_fract_y
_atom_site_fract_z
Si Si1 0.459878 0.442181 0.090817
Si Si2 0.795052 0.199419 0.799982
Si Si3 0.713479 0.311168 0.669206
Si Si4 0.306154 0.556747 0.710394
Si Si5 0.942231 0.814103 0.618792
Si Si6 0.713053 0.008999 0.050578
Si Si7 0.427694 0.783056 0.654561
Si Si8 0.332333 0.096374 0.188585
O O1 0.500000 0.424391 0.250000
O O2 0.380395 0.465912 0.133678
O O3 0.500000 0.500000 0.000000
O O4 0.459694 0.376142 0.989774
O O5 0.729021 0.236401 0.721280
O O6 0.809371 0.129782 0.717530
O O7 0.866114 0.240545 0.763857
O O8 0.777401 0.185740 0.981921
O O9 0.631897 0.327359 0.708769
O O10 0.762646 0.360948 0.767519
O O11 0.283875 0.507876 0.848857
O O12 0.242265 0.557358 0.582863
O O13 0.939021 0.746230 0.520048
O O14 0.000000 0.803906 0.750000
O O15 0.655805 0.046499 0.162992
O O16 0.678832 0.944076 0.973168
O O17 0.500000 0.777555 0.750000
O O18 0.401183 0.858673 0.655869
#
# Coordination Sequence:
#
# PCOD8247260 Si02
#       8
#     8   8   8   8   8   8   8   8
#     4  12  24  39  58  84 126 177 213 242 298 363
#     4  10  21  36  64  88 121 153 208 256 305 363
#     4  10  21  39  59  91 121 156 203 256 302 363
#     4  11  21  39  58  86 124 155 206 251 300 359
#     4  11  24  40  57  90 128 160 214 254 299 371
#     4  10  22  37  62  92 117 153 197 254 314 374
#     4  10  22  43  62  84 122 161 206 255 310 366
#     4  10  21  41  64  91 123 154 200 258 317 371
#
# _framework density 19.685863000000001
#
# number of rings (size 3 to 8) (size 9 to 14) (size 15 to 20)
#    0.000    1.500    3.750    1.500    5.250    6.000 
#    0.000    0.625    0.000    0.000    0.000    0.000 
#    0.000    0.000    0.000    0.000    0.000    0.000 
#
# Total GULP energy -793381.326939 kJ/mol
# GULP energy per Si atom -12396.583233 kJ/mol
# Density = 1.964106 g / cm^3
# Si number density = 19.685863 Si / 1000 Ang^3
#
#
#
# Elastic Constant Matrix: (Units=GPa)
#
#
# Indices 1 2 3 4 5 6 
#
# 1 81.1728 52.5374 49.9494 0.0000 0.0000 0.0000
# 2 52.5374 120.7219 34.8862 0.0000 0.0000 0.0000
# 3 49.9494 34.8862 61.7363 0.0000 0.0000 0.0000
# 4 0.0000 0.0000 0.0000 34.1317 0.0000 0.0000
# 5 0.0000 0.0000 0.0000 0.0000 32.6841 0.0000
# 6 0.0000 0.0000 0.0000 0.0000 0.0000 26.5313
#
#
#
# Elastic Compliance Matrix: (Units=1/GPa)
#
#
# Indices 1 2 3 4 5 6 
#
# 1 0.028646 -0.006895 -0.019281 0.000000 0.000000 0.000000
# 2 -0.006895 0.011560 -0.000954 0.000000 0.000000 0.000000
# 3 -0.019281 -0.000954 0.032337 0.000000 0.000000 0.000000
# 4 0.000000 0.000000 0.000000 0.029298 0.000000 0.000000
# 5 0.000000 0.000000 0.000000 0.000000 0.030596 0.000000
# 6 0.000000 0.000000 0.000000 0.000000 0.000000 0.037691
#
#
# Mechanical properties :
#
#
# Convention : Reuss Voigt Hill
#
# Bulk Modulus (GPa) = 54.69375 59.81966 57.25670
# Shear Modulus (GPa) = 21.69368 27.08662 24.39015
#
# Velocity S-wave (km/s) = 3.32323 3.71339 3.52372
# Velocity P-wave (km/s) = 6.52447 6.98848 6.76046
#
# Compressibility (1/GPa) = 0.01828363
#
# Stress axis : x y z
#
# Youngs Moduli (GPa) = 34.90837 86.50714 30.92478
#
# Poissons Ratio (x) = 0.59646 0.59626
# Poissons Ratio (y) = 0.24069 0.02949
# Poissons Ratio (z) = 0.67306 0.08250
#
# Static dielectric constant tensor:
#      x y z
#    x 3.533380 0.000000 0.000000 
#    y 0.000000 3.854380 0.000000 
#    z 0.000000 0.000000 3.738880 
# 
# 
# High freq. dielectric constant tensor:
#      x y z
#    x 1.746890 0.000000 0.000000 
#    y 0.000000 1.779110 0.000000 
#    z 0.000000 0.000000 1.765310 
# 
# From -- ./inp_files/7004.got.cif
#   From: 2010.03.12/outbox.cif.g09.slc.cpg/sg60_4_cif.got.tgz:7004.got - 2010.04.10 18:46:24.
