data_PCOD8247621
_publ_section_title
;
Structure prediction by ZEFSAII (Michael W. Deem and Ramdas Pophale) SiO2 
 PCOD8247621
Probable space group: P B C N
;
_chemical_formula_sum "Si O2"
_cell_formula_units_Z 48
_cell_length_a 11.349630
_cell_length_b 21.015421
_cell_length_c 9.969530
_cell_angle_alpha 90.000000
_cell_angle_beta 90.000000
_cell_angle_gamma 90.000000
_cell_volume 2377.904906
_symmetry_space_group_name_H-M "P B C N"
_symmetry_group_IT_number 60
_symmetry_cell_setting 'orthorhombic'
loop_
_space_group_symop_operation_xyz
x,y,z
1/2-x,1/2-y,1/2+z
1/2+x,1/2-y,-z
-x,y,1/2-z
-x,-y,-z
1/2+x,1/2+y,1/2-z
1/2-x,1/2+y,z
x,-y,1/2+z
loop_
_atom_site_type_symbol
_atom_site_label
_atom_site_fract_x
_atom_site_fract_y
_atom_site_fract_z
Si Si1 0.083581 0.800260 0.472315
Si Si2 0.753082 0.550819 0.748516
Si Si3 0.000000 0.771145 0.750000
Si Si4 0.630700 0.971656 0.518224
Si Si5 0.840010 0.330907 0.116452
Si Si6 0.000000 0.891564 0.250000
Si Si7 0.530087 0.155579 0.095497
O O1 0.048464 0.813700 0.627361
O O2 0.219099 0.815158 0.455676
O O3 0.071178 0.726638 0.434551
O O4 0.002588 0.845365 0.379886
O O5 0.798068 0.517665 0.882163
O O6 0.788251 0.506051 0.626385
O O7 0.821634 0.617477 0.732714
O O8 0.612963 0.562568 0.754739
O O9 0.106465 0.729363 0.808209
O O10 0.627599 0.897013 0.557763
O O11 0.500000 0.000000 0.500000
O O12 0.918481 0.359622 0.997835
O O13 0.500000 0.147270 0.250000
#
# Coordination Sequence:
#
# PCOD8247621 Si02
#       7
#     8   8   4   8   8   4   8
#     4  10  22  40  65  92 135 171 223 268 331 401
#     4  11  24  44  67  92 132 173 216 274 327 398
#     4  10  22  36  62  96 130 178 222 262 328 408
#     4  12  24  40  68  96 128 166 221 274 327 383
#     4  10  22  38  62  92 133 171 209 279 334 386
#     4  10  24  48  66  92 134 182 212 270 342 392
#     4  11  22  37  61  96 129 164 219 268 323 387
#
# _framework density 20.185835999999998
#
# number of rings (size 3 to 8) (size 9 to 14) (size 15 to 20)
#    0.000    1.333    2.500    3.500    2.333    4.667 
#    0.000    0.000    0.000    1.000    0.000    0.000 
#    0.000    0.000    0.000    0.000    0.000    0.000 
#
# Total GULP energy -595230.838460 kJ/mol
# GULP energy per Si atom -12400.642468 kJ/mol
# Density = 2.013989 g / cm^3
# Si number density = 20.185836 Si / 1000 Ang^3
#
#
#
# Elastic Constant Matrix: (Units=GPa)
#
#
# Indices 1 2 3 4 5 6 
#
# 1 104.6773 61.1976 62.6016 0.0000 0.0000 0.0000
# 2 61.1976 83.0806 46.1960 0.0000 0.0000 0.0000
# 3 62.6016 46.1960 182.2378 0.0000 0.0000 0.0000
# 4 0.0000 0.0000 0.0000 55.1657 0.0000 0.0000
# 5 0.0000 0.0000 0.0000 0.0000 29.2303 0.0000
# 6 0.0000 0.0000 0.0000 0.0000 0.0000 27.4962
#
#
#
# Elastic Compliance Matrix: (Units=1/GPa)
#
#
# Indices 1 2 3 4 5 6 
#
# 1 0.018388 -0.011678 -0.003356 0.000000 0.000000 0.000000
# 2 -0.011678 0.021429 -0.001420 0.000000 0.000000 0.000000
# 3 -0.003356 -0.001420 0.007000 0.000000 0.000000 0.000000
# 4 0.000000 0.000000 0.000000 0.018127 0.000000 0.000000
# 5 0.000000 0.000000 0.000000 0.000000 0.034211 0.000000
# 6 0.000000 0.000000 0.000000 0.000000 0.000000 0.036369
#
#
# Mechanical properties :
#
#
# Convention : Reuss Voigt Hill
#
# Bulk Modulus (GPa) = 71.90597 78.88732 75.39665
# Shear Modulus (GPa) = 28.89018 35.71180 32.30099
#
# Velocity S-wave (km/s) = 3.78724 4.21069 4.00457
# Velocity P-wave (km/s) = 7.40429 7.92498 7.66906
#
# Compressibility (1/GPa) = 0.01390705
#
# Stress axis : x y z
#
# Youngs Moduli (GPa) = 54.38368 46.66650 142.85223
#
# Poissons Ratio (x) = 0.54499 0.47943
# Poissons Ratio (y) = 0.63512 0.20289
# Poissons Ratio (z) = 0.18252 0.06628
#
# Static dielectric constant tensor:
#      x y z
#    x 3.586560 0.000000 0.000000 
#    y 0.000000 3.751520 0.000000 
#    z 0.000000 0.000000 4.065980 
# 
# 
# High freq. dielectric constant tensor:
#      x y z
#    x 1.784960 0.000000 0.000000 
#    y 0.000000 1.784250 0.000000 
#    z 0.000000 0.000000 1.807120 
# 
# From -- ./inp_files/5101.got.cif
#   From: 2010.03.12/outbox.cif.g09.slc.cpg/sg60_3_cif.got.tgz:5101.got - 2010.04.10 18:46:24.
