data_PCOD8247155
_publ_section_title
;
Structure prediction by ZEFSAII (Michael W. Deem and Ramdas Pophale) SiO2 
 PCOD8247155
Probable space group: P B C N
;
_chemical_formula_sum "Si O2"
_cell_formula_units_Z 32
_cell_length_a 8.191466
_cell_length_b 18.911561
_cell_length_c 9.285808
_cell_angle_alpha 90.000000
_cell_angle_beta 90.000000
_cell_angle_gamma 90.000000
_cell_volume 1438.496172
_symmetry_space_group_name_H-M "P B C N"
_symmetry_group_IT_number 60
_symmetry_cell_setting 'orthorhombic'
loop_
_space_group_symop_operation_xyz
x,y,z
1/2-x,1/2-y,1/2+z
1/2+x,1/2-y,-z
-x,y,1/2-z
-x,-y,-z
1/2+x,1/2+y,1/2-z
1/2-x,1/2+y,z
x,-y,1/2+z
loop_
_atom_site_type_symbol
_atom_site_label
_atom_site_fract_x
_atom_site_fract_y
_atom_site_fract_z
Si Si1 0.917956 0.606639 0.393914
Si Si2 0.820065 0.823503 0.384965
Si Si3 0.680446 0.711179 0.566561
Si Si4 0.134615 0.544351 0.631922
O O1 0.815117 0.663848 0.483004
O O2 0.805901 0.537394 0.356572
O O3 0.000000 0.640964 0.250000
O O4 0.064335 0.568042 0.478075
O O5 0.691369 0.790143 0.499030
O O6 0.789624 0.781215 0.236409
O O7 0.791722 0.905576 0.346588
O O8 0.998687 0.818111 0.455356
O O9 0.000000 0.563480 0.750000
#
# Coordination Sequence:
#
# PCOD8247155 Si02
#       4
#     8   8   8   8
#     4  10  22  39  66  94 124 164 215 258 324 392
#     4  11  25  42  64  93 129 171 216 273 327 380
#     4  11  25  42  64  94 129 170 219 271 325 389
#     4  10  20  41  66  90 124 170 208 266 322 382
#
# _framework density 22.245453999999999
#
# number of rings (size 3 to 8) (size 9 to 14) (size 15 to 20)
#    0.000    1.500    2.500    1.500    7.000    1.000 
#    0.000    0.000    0.000    0.000    0.000    0.000 
#    0.000    0.000    0.000    0.000    0.000    0.000 
#
# Total GULP energy -396576.774760 kJ/mol
# GULP energy per Si atom -12393.024211 kJ/mol
# Density = 2.219482 g / cm^3
# Si number density = 22.245454 Si / 1000 Ang^3
#
#
#
# Elastic Constant Matrix: (Units=GPa)
#
#
# Indices 1 2 3 4 5 6 
#
# 1 71.8466 5.6936 22.1699 0.0000 0.0000 0.0000
# 2 5.6936 81.2542 -0.4516 0.0000 0.0000 0.0000
# 3 22.1699 -0.4516 104.5021 0.0000 0.0000 0.0000
# 4 0.0000 0.0000 0.0000 28.8991 0.0000 0.0000
# 5 0.0000 0.0000 0.0000 0.0000 35.8515 0.0000
# 6 0.0000 0.0000 0.0000 0.0000 0.0000 21.7817
#
#
#
# Elastic Compliance Matrix: (Units=1/GPa)
#
#
# Indices 1 2 3 4 5 6 
#
# 1 0.014986 -0.001068 -0.003184 0.000000 0.000000 0.000000
# 2 -0.001068 0.012383 0.000280 0.000000 0.000000 0.000000
# 3 -0.003184 0.000280 0.010246 0.000000 0.000000 0.000000
# 4 0.000000 0.000000 0.000000 0.034603 0.000000 0.000000
# 5 0.000000 0.000000 0.000000 0.000000 0.027893 0.000000
# 6 0.000000 0.000000 0.000000 0.000000 0.000000 0.045910
#
#
# Mechanical properties :
#
#
# Convention : Reuss Voigt Hill
#
# Bulk Modulus (GPa) = 33.70197 34.71408 34.20803
# Shear Modulus (GPa) = 30.51489 32.65255 31.58372
#
# Velocity S-wave (km/s) = 3.70771 3.83538 3.77209
# Velocity P-wave (km/s) = 5.78899 5.93738 5.86366
#
# Compressibility (1/GPa) = 0.02967186
#
# Stress axis : x y z
#
# Youngs Moduli (GPa) = 66.73080 80.75305 97.60072
#
# Poissons Ratio (x) = 0.08622 0.31074
# Poissons Ratio (y) = 0.07125 -0.02733
# Poissons Ratio (z) = 0.21246 -0.02261
#
# Static dielectric constant tensor:
#      x y z
#    x 3.704430 0.000000 0.000000 
#    y 0.000000 4.573670 0.000000 
#    z 0.000000 0.000000 4.169430 
# 
# 
# High freq. dielectric constant tensor:
#      x y z
#    x 1.842920 0.000000 0.000000 
#    y 0.000000 1.891470 0.000000 
#    z 0.000000 0.000000 1.891280 
# 
# From -- ./inp_files/3565.got.cif
#   From: 2010.03.12/outbox.cif.g09.slc.cpg/sg60_2_cif.got.tgz:3565.got - 2010.04.10 18:46:24.
