data_PCOD8247348
_publ_section_title
;
Structure prediction by ZEFSAII (Michael W. Deem and Ramdas Pophale) SiO2 
 PCOD8247348
Probable space group: P B C N
;
_chemical_formula_sum "Si O2"
_cell_formula_units_Z 48
_cell_length_a 7.613735
_cell_length_b 22.087867
_cell_length_c 12.626148
_cell_angle_alpha 90.000000
_cell_angle_beta 90.000000
_cell_angle_gamma 90.000000
_cell_volume 2123.354032
_symmetry_space_group_name_H-M "P B C N"
_symmetry_group_IT_number 60
_symmetry_cell_setting 'orthorhombic'
loop_
_space_group_symop_operation_xyz
x,y,z
1/2-x,1/2-y,1/2+z
1/2+x,1/2-y,-z
-x,y,1/2-z
-x,-y,-z
1/2+x,1/2+y,1/2-z
1/2-x,1/2+y,z
x,-y,1/2+z
loop_
_atom_site_type_symbol
_atom_site_label
_atom_site_fract_x
_atom_site_fract_y
_atom_site_fract_z
Si Si1 0.344149 0.823825 0.116433
Si Si2 0.330907 0.662889 0.823666
Si Si3 0.517302 0.269672 0.495549
Si Si4 0.244061 0.563560 0.993727
Si Si5 0.532468 0.617133 0.129126
Si Si6 0.359975 0.073435 0.469070
O O1 0.330639 0.819597 0.244335
O O2 0.201909 0.779425 0.061578
O O3 0.517185 0.795454 0.057952
O O4 0.322573 0.894348 0.083685
O O5 0.500000 0.647171 0.750000
O O6 0.372171 0.719329 0.901859
O O7 0.274417 0.602760 0.887517
O O8 0.474316 0.317971 0.586841
O O9 0.208142 0.494586 0.962980
O O10 0.414803 0.567081 0.068005
O O11 0.065987 0.582616 0.057058
O O12 0.500000 0.610299 0.250000
O O13 0.741392 0.609176 0.114724
#
# Coordination Sequence:
#
# PCOD8247348 Si02
#       6
#     8   8   8   8   8   8
#     4  10  21  38  62  90 124 160 210 252 315 379
#     4   9  20  40  64  92 120 168 212 254 320 390
#     4   9  21  38  59  88 127 157 205 261 306 373
#     4  10  22  42  64  87 130 162 206 266 319 364
#     4  10  22  40  61  89 122 166 206 256 320 370
#     4  10  23  40  61  95 123 162 211 264 308 383
#
# _framework density 22.605744999999999
#
# number of rings (size 3 to 8) (size 9 to 14) (size 15 to 20)
#    0.000    2.333    0.000    1.500    4.667    6.000 
#    0.000    3.333    0.000    0.000    0.000    0.000 
#    0.000    0.000    0.000    0.000    0.000    0.000 
#
# Total GULP energy -594730.202079 kJ/mol
# GULP energy per Si atom -12390.212543 kJ/mol
# Density = 2.255429 g / cm^3
# Si number density = 22.605745 Si / 1000 Ang^3
#
#
#
# Elastic Constant Matrix: (Units=GPa)
#
#
# Indices 1 2 3 4 5 6 
#
# 1 84.8968 -2.2171 14.8162 0.0000 0.0000 0.0000
# 2 -2.2171 85.3094 32.9378 0.0000 0.0000 0.0000
# 3 14.8162 32.9378 116.5486 0.0000 0.0000 0.0000
# 4 0.0000 0.0000 0.0000 17.6372 0.0000 0.0000
# 5 0.0000 0.0000 0.0000 0.0000 17.8316 0.0000
# 6 0.0000 0.0000 0.0000 0.0000 0.0000 29.9946
#
#
#
# Elastic Compliance Matrix: (Units=1/GPa)
#
#
# Indices 1 2 3 4 5 6 
#
# 1 0.012125 0.001022 -0.001830 0.000000 0.000000 0.000000
# 2 0.001022 0.013244 -0.003873 0.000000 0.000000 0.000000
# 3 -0.001830 -0.003873 0.009907 0.000000 0.000000 0.000000
# 4 0.000000 0.000000 0.000000 0.056698 0.000000 0.000000
# 5 0.000000 0.000000 0.000000 0.000000 0.056080 0.000000
# 6 0.000000 0.000000 0.000000 0.000000 0.000000 0.033339
#
#
# Mechanical properties :
#
#
# Convention : Reuss Voigt Hill
#
# Bulk Modulus (GPa) = 38.58936 41.98096 40.28516
# Shear Modulus (GPa) = 25.07595 29.17388 27.12491
#
# Velocity S-wave (km/s) = 3.33419 3.59632 3.46773
# Velocity P-wave (km/s) = 5.65067 5.98798 5.82177
#
# Compressibility (1/GPa) = 0.02591388
#
# Stress axis : x y z
#
# Youngs Moduli (GPa) = 82.47365 75.50674 100.93629
#
# Poissons Ratio (x) = -0.07715 0.18473
# Poissons Ratio (y) = -0.08427 0.39090
# Poissons Ratio (z) = 0.15094 0.29242
#
# Static dielectric constant tensor:
#      x y z
#    x 4.658710 0.000000 0.000000 
#    y 0.000000 3.999420 0.000000 
#    z 0.000000 0.000000 4.017060 
# 
# 
# High freq. dielectric constant tensor:
#      x y z
#    x 1.919510 0.000000 0.000000 
#    y 0.000000 1.879340 0.000000 
#    z 0.000000 0.000000 1.876490 
# 
# From -- ./inp_files/10065.got.cif
#   From: 2010.03.12/outbox.cif.g09.slc.cpg/sg60_6_cif.got.tgz:10065.got - 2010.04.10 18:46:24.
