data_PCOD8247164
_publ_section_title
;
Structure prediction by ZEFSAII (Michael W. Deem and Ramdas Pophale) SiO2 
 PCOD8247164
Probable space group: P B C N
;
_chemical_formula_sum "Si O2"
_cell_formula_units_Z 60
_cell_length_a 28.156037
_cell_length_b 4.937417
_cell_length_c 19.960754
_cell_angle_alpha 90.000000
_cell_angle_beta 90.000000
_cell_angle_gamma 90.000000
_cell_volume 2774.906011
_symmetry_space_group_name_H-M "P B C N"
_symmetry_group_IT_number 60
_symmetry_cell_setting 'orthorhombic'
loop_
_space_group_symop_operation_xyz
x,y,z
1/2-x,1/2-y,1/2+z
1/2+x,1/2-y,-z
-x,y,1/2-z
-x,-y,-z
1/2+x,1/2+y,1/2-z
1/2-x,1/2+y,z
x,-y,1/2+z
loop_
_atom_site_type_symbol
_atom_site_label
_atom_site_fract_x
_atom_site_fract_y
_atom_site_fract_z
Si Si1 0.923738 0.217830 0.345247
Si Si2 0.001016 0.254749 0.047023
Si Si3 0.719242 0.394526 0.422709
Si Si4 0.781646 0.114584 0.075484
Si Si5 0.500000 0.103930 0.750000
Si Si6 0.361967 0.767396 0.679390
Si Si7 0.365333 0.424533 0.327933
Si Si8 0.925946 0.569596 0.650736
O O1 0.880985 0.426134 0.328006
O O2 0.948522 0.274906 0.415770
O O3 0.966170 0.204071 0.292472
O O4 0.904530 0.915611 0.346885
O O5 0.953126 0.280074 0.090943
O O6 0.000000 0.500000 0.000000
O O7 0.000000 0.000000 0.000000
O O8 0.734541 0.705088 0.411978
O O9 0.699035 0.384435 0.498823
O O10 0.682201 0.291810 0.368239
O O11 0.736851 0.917787 0.088504
O O12 0.822579 0.032193 0.126660
O O13 0.464977 0.932552 0.798530
O O14 0.348192 0.699506 0.756622
O O15 0.397418 0.687693 0.312566
O O16 0.392164 0.182848 0.368972
#
# Coordination Sequence:
#
# PCOD8247164 Si02
#       8
#     8   8   8   8   4   8   8   8
#     4  11  24  39  64  91 127 170 209 267 320 386
#     4  11  24  43  60  89 128 169 217 261 317 383
#     4  10  23  43  65  90 126 172 214 261 330 397
#     4  10  23  43  65  90 126 172 214 261 330 397
#     4  10  20  42  60  86 124 168 208 244 312 386
#     4  12  23  40  64 100 128 161 221 271 327 390
#     4  12  23  40  64 100 128 161 221 271 327 390
#     4  11  24  39  64  91 127 170 209 267 320 386
#
# _framework density 21.622351999999999
#
# number of rings (size 3 to 8) (size 9 to 14) (size 15 to 20)
#    0.000    1.067    2.667    3.200    0.000    8.533 
#    0.000    0.000    0.000    0.000    0.000    0.000 
#    0.000    0.000    0.000    0.000    0.000    0.000 
#
# Total GULP energy -743573.288003 kJ/mol
# GULP energy per Si atom -12392.888133 kJ/mol
# Density = 2.157314 g / cm^3
# Si number density = 21.622352 Si / 1000 Ang^3
#
#
#
# Elastic Constant Matrix: (Units=GPa)
#
#
# Indices 1 2 3 4 5 6 
#
# 1 90.0468 14.9795 59.7712 0.0000 0.0000 0.0000
# 2 14.9795 91.8284 27.3636 0.0000 0.0000 0.0000
# 3 59.7712 27.3636 135.5127 0.0000 0.0000 0.0000
# 4 0.0000 0.0000 0.0000 33.7711 0.0000 0.0000
# 5 0.0000 0.0000 0.0000 0.0000 38.9879 0.0000
# 6 0.0000 0.0000 0.0000 0.0000 0.0000 26.2533
#
#
#
# Elastic Compliance Matrix: (Units=1/GPa)
#
#
# Indices 1 2 3 4 5 6 
#
# 1 0.015727 -0.000530 -0.006830 0.000000 0.000000 0.000000
# 2 -0.000530 0.011605 -0.002109 0.000000 0.000000 0.000000
# 3 -0.006830 -0.002109 0.010818 0.000000 0.000000 0.000000
# 4 0.000000 0.000000 0.000000 0.029611 0.000000 0.000000
# 5 0.000000 0.000000 0.000000 0.000000 0.025649 0.000000
# 6 0.000000 0.000000 0.000000 0.000000 0.000000 0.038091
#
#
# Mechanical properties :
#
#
# Convention : Reuss Voigt Hill
#
# Bulk Modulus (GPa) = 52.05407 57.95739 55.00573
# Shear Modulus (GPa) = 31.87909 34.15404 33.01656
#
# Velocity S-wave (km/s) = 3.84390 3.97869 3.91188
# Velocity P-wave (km/s) = 6.62021 6.92598 6.77482
#
# Compressibility (1/GPa) = 0.01921080
#
# Stress axis : x y z
#
# Youngs Moduli (GPa) = 63.58518 86.17000 92.44092
#
# Poissons Ratio (x) = 0.04570 0.63134
# Poissons Ratio (y) = 0.03372 0.19500
# Poissons Ratio (z) = 0.43427 0.18177
#
# Static dielectric constant tensor:
#      x y z
#    x 3.998500 0.000000 0.000000 
#    y 0.000000 3.917910 0.000000 
#    z 0.000000 0.000000 4.101210 
# 
# 
# High freq. dielectric constant tensor:
#      x y z
#    x 1.842750 0.000000 0.000000 
#    y 0.000000 1.859270 0.000000 
#    z 0.000000 0.000000 1.856320 
# 
# From -- ./inp_files/21239.got.cif
#   From: 2010.03.12/outbox.cif.g09.slc.cpg/sg60_11_cif.got.tgz:21239.got - 2010.04.10 18:46:24.
