data_PCOD8247939
_publ_section_title
;
Structure prediction by ZEFSAII (Michael W. Deem and Ramdas Pophale) SiO2 
 PCOD8247939
Probable space group: P B C N
;
_chemical_formula_sum "Si O2"
_cell_formula_units_Z 60
_cell_length_a 18.291723
_cell_length_b 19.370589
_cell_length_c 7.860742
_cell_angle_alpha 90.000000
_cell_angle_beta 90.000000
_cell_angle_gamma 90.000000
_cell_volume 2785.229490
_symmetry_space_group_name_H-M "P B C N"
_symmetry_group_IT_number 60
_symmetry_cell_setting 'orthorhombic'
loop_
_space_group_symop_operation_xyz
x,y,z
1/2-x,1/2-y,1/2+z
1/2+x,1/2-y,-z
-x,y,1/2-z
-x,-y,-z
1/2+x,1/2+y,1/2-z
1/2-x,1/2+y,z
x,-y,1/2+z
loop_
_atom_site_type_symbol
_atom_site_label
_atom_site_fract_x
_atom_site_fract_y
_atom_site_fract_z
Si Si1 0.705393 0.079755 0.515148
Si Si2 0.761205 0.061460 0.151945
Si Si3 0.934605 0.640194 0.350690
Si Si4 0.500000 0.504339 0.750000
Si Si5 0.580073 0.413626 0.493231
Si Si6 0.698913 0.784046 0.221956
Si Si7 0.177904 0.309040 0.901820
Si Si8 0.448962 0.737821 0.415492
O O1 0.760984 0.079137 0.354391
O O2 0.621122 0.087100 0.445106
O O3 0.720991 0.141474 0.646404
O O4 0.720957 0.011415 0.623445
O O5 0.841111 0.069700 0.072140
O O6 0.711286 0.116378 0.057061
O O7 0.895068 0.685642 0.206563
O O8 0.973968 0.695372 0.476223
O O9 0.000000 0.599481 0.250000
O O10 0.519846 0.453034 0.600499
O O11 0.430361 0.553013 0.695220
O O12 0.553747 0.334370 0.484135
O O13 0.770330 0.737313 0.216243
O O14 0.665836 0.779299 0.411349
O O15 0.636596 0.749537 0.112390
O O16 0.500000 0.732803 0.250000
#
# Coordination Sequence:
#
# PCOD8247939 Si02
#       8
#     8   8   8   4   8   8   8   8
#     4  10  23  40  65  93 130 164 225 266 339 390
#     4  11  21  40  63  93 123 170 214 280 319 399
#     4  10  23  43  62  94 129 168 217 276 335 400
#     4  10  24  40  54  84 132 176 216 270 308 408
#     4  11  22  40  59  87 130 173 224 263 328 389
#     4  11  22  40  61  95 125 169 210 280 323 393
#     4  11  22  39  65  92 131 162 220 270 333 387
#     4  11  22  39  64  91 130 171 215 267 331 400
#
# _framework density 21.542211000000002
#
# number of rings (size 3 to 8) (size 9 to 14) (size 15 to 20)
#    0.000    1.333    2.000    4.800    0.933    0.000 
#    0.000    2.667    0.000    8.000    0.000    0.000 
#    0.000    0.000    0.000    0.000    0.000    0.000 
#
# Total GULP energy -743438.325904 kJ/mol
# GULP energy per Si atom -12390.638765 kJ/mol
# Density = 2.149318 g / cm^3
# Si number density = 21.542211 Si / 1000 Ang^3
#
#
#
# Elastic Constant Matrix: (Units=GPa)
#
#
# Indices 1 2 3 4 5 6 
#
# 1 70.1684 15.0385 -0.2545 0.0000 0.0000 0.0000
# 2 15.0385 95.5118 7.3689 0.0000 0.0000 0.0000
# 3 -0.2545 7.3689 72.0469 0.0000 0.0000 0.0000
# 4 0.0000 0.0000 0.0000 33.2447 0.0000 0.0000
# 5 0.0000 0.0000 0.0000 0.0000 36.3737 0.0000
# 6 0.0000 0.0000 0.0000 0.0000 0.0000 22.7024
#
#
#
# Elastic Compliance Matrix: (Units=1/GPa)
#
#
# Indices 1 2 3 4 5 6 
#
# 1 0.014755 -0.002346 0.000292 0.000000 0.000000 0.000000
# 2 -0.002346 0.010926 -0.001126 0.000000 0.000000 0.000000
# 3 0.000292 -0.001126 0.013996 0.000000 0.000000 0.000000
# 4 0.000000 0.000000 0.000000 0.030080 0.000000 0.000000
# 5 0.000000 0.000000 0.000000 0.000000 0.027492 0.000000
# 6 0.000000 0.000000 0.000000 0.000000 0.000000 0.044048
#
#
# Mechanical properties :
#
#
# Convention : Reuss Voigt Hill
#
# Bulk Modulus (GPa) = 30.01353 31.33700 30.67527
# Shear Modulus (GPa) = 31.49348 32.83578 32.16463
#
# Velocity S-wave (km/s) = 3.82768 3.90840 3.86825
# Velocity P-wave (km/s) = 5.78771 5.91150 5.84993
#
# Compressibility (1/GPa) = 0.03331831
#
# Stress axis : x y z
#
# Youngs Moduli (GPa) = 67.77260 91.52385 71.44881
#
# Poissons Ratio (x) = 0.21469 -0.02087
# Poissons Ratio (y) = 0.15898 0.08044
# Poissons Ratio (z) = -0.01979 0.10304
#
# Static dielectric constant tensor:
#      x y z
#    x 3.796900 0.000000 0.000000 
#    y 0.000000 4.010410 0.000000 
#    z 0.000000 0.000000 4.242960 
# 
# 
# High freq. dielectric constant tensor:
#      x y z
#    x 1.839760 0.000000 0.000000 
#    y 0.000000 1.845020 0.000000 
#    z 0.000000 0.000000 1.854620 
# 
# From -- ./inp_files/6906.got.cif
#   From: 2010.03.12/outbox.cif.g09.slc.cpg/sg60_4_cif.got.tgz:6906.got - 2010.04.10 18:46:24.
