data_PCOD8247617
_publ_section_title
;
Structure prediction by ZEFSAII (Michael W. Deem and Ramdas Pophale) SiO2 
 PCOD8247617
Probable space group: P B C N
;
_chemical_formula_sum "Si O2"
_cell_formula_units_Z 40
_cell_length_a 10.286249
_cell_length_b 8.584083
_cell_length_c 19.220651
_cell_angle_alpha 90.000000
_cell_angle_beta 90.000000
_cell_angle_gamma 90.000000
_cell_volume 1697.145334
_symmetry_space_group_name_H-M "P B C N"
_symmetry_group_IT_number 60
_symmetry_cell_setting 'orthorhombic'
loop_
_space_group_symop_operation_xyz
x,y,z
1/2-x,1/2-y,1/2+z
1/2+x,1/2-y,-z
-x,y,1/2-z
-x,-y,-z
1/2+x,1/2+y,1/2-z
1/2-x,1/2+y,z
x,-y,1/2+z
loop_
_atom_site_type_symbol
_atom_site_label
_atom_site_fract_x
_atom_site_fract_y
_atom_site_fract_z
Si Si1 0.377167 0.832891 0.557930
Si Si2 0.396946 0.197558 0.549787
Si Si3 0.062404 0.224449 0.325664
Si Si4 0.718365 0.002618 0.210226
Si Si5 0.382734 0.713660 0.710997
O O1 0.496193 0.779512 0.509945
O O2 0.239132 0.775646 0.526577
O O3 0.403217 0.747122 0.630698
O O4 0.373369 0.017469 0.567184
O O5 0.448170 0.290790 0.617783
O O6 0.163584 0.081013 0.332997
O O7 0.137129 0.388995 0.340857
O O8 0.000000 0.225798 0.250000
O O9 0.626628 0.131623 0.242564
O O10 0.760118 0.898544 0.277363
O O11 0.500000 0.622376 0.750000
#
# Coordination Sequence:
#
# PCOD8247617 Si02
#       5
#     8   8   8   8   8
#     4  11  25  45  66  98 135 178 224 277 337 403
#     4  11  26  45  68  96 136 178 225 278 337 405
#     4  11  22  40  64  94 130 171 220 277 333 395
#     4  10  22  36  61  95 126 162 217 275 326 383
#     4  11  21  38  63  91 125 166 213 263 320 386
#
# _framework density 23.568988999999998
#
# number of rings (size 3 to 8) (size 9 to 14) (size 15 to 20)
#    0.000    1.200    0.000    7.200    0.000    8.800 
#    0.000    0.000    0.000    0.000    0.000    0.000 
#    0.000    0.000    0.000    0.000    0.000    0.000 
#
# Total GULP energy -495993.258978 kJ/mol
# GULP energy per Si atom -12399.831474 kJ/mol
# Density = 2.351534 g / cm^3
# Si number density = 23.568989 Si / 1000 Ang^3
#
#
#
# Elastic Constant Matrix: (Units=GPa)
#
#
# Indices 1 2 3 4 5 6 
#
# 1 144.4916 24.6126 39.7738 0.0000 0.0000 0.0000
# 2 24.6126 63.1841 2.6124 0.0000 0.0000 0.0000
# 3 39.7738 2.6124 78.0586 0.0000 0.0000 0.0000
# 4 0.0000 0.0000 0.0000 15.3628 0.0000 0.0000
# 5 0.0000 0.0000 0.0000 0.0000 43.6619 0.0000
# 6 0.0000 0.0000 0.0000 0.0000 0.0000 44.3121
#
#
#
# Elastic Compliance Matrix: (Units=1/GPa)
#
#
# Indices 1 2 3 4 5 6 
#
# 1 0.008648 -0.003191 -0.004300 0.000000 0.000000 0.000000
# 2 -0.003191 0.017026 0.001056 0.000000 0.000000 0.000000
# 3 -0.004300 0.001056 0.014966 0.000000 0.000000 0.000000
# 4 0.000000 0.000000 0.000000 0.065093 0.000000 0.000000
# 5 0.000000 0.000000 0.000000 0.000000 0.022903 0.000000
# 6 0.000000 0.000000 0.000000 0.000000 0.000000 0.022567
#
#
# Mechanical properties :
#
#
# Convention : Reuss Voigt Hill
#
# Bulk Modulus (GPa) = 36.00829 46.63690 41.32259
# Shear Modulus (GPa) = 28.84680 35.24971 32.04825
#
# Velocity S-wave (km/s) = 3.50227 3.87149 3.69150
# Velocity P-wave (km/s) = 5.62721 6.30991 5.97831
#
# Compressibility (1/GPa) = 0.02777138
#
# Stress axis : x y z
#
# Youngs Moduli (GPa) = 115.63489 58.73343 66.81640
#
# Poissons Ratio (x) = 0.18741 0.28729
# Poissons Ratio (y) = 0.36898 -0.07056
# Poissons Ratio (z) = 0.49719 -0.06203
#
# Static dielectric constant tensor:
#      x y z
#    x 4.623690 0.000000 0.000000 
#    y 0.000000 4.414400 0.000000 
#    z 0.000000 0.000000 3.879560 
# 
# 
# High freq. dielectric constant tensor:
#      x y z
#    x 1.958810 0.000000 0.000000 
#    y 0.000000 1.943530 0.000000 
#    z 0.000000 0.000000 1.905800 
# 
# From -- ./inp_files/19847.got.cif
#   From: 2010.03.12/outbox.cif.g09.slc.cpg/sg60_10_cif.got.tgz:19847.got - 2010.04.10 18:46:24.
