data_PCOD8247670
_publ_section_title
;
Structure prediction by ZEFSAII (Michael W. Deem and Ramdas Pophale) SiO2 
 PCOD8247670
Probable space group: P B C N
;
_chemical_formula_sum "Si O2"
_cell_formula_units_Z 48
_cell_length_a 16.553155
_cell_length_b 9.644155
_cell_length_c 13.088362
_cell_angle_alpha 90.000000
_cell_angle_beta 90.000000
_cell_angle_gamma 90.000000
_cell_volume 2089.441718
_symmetry_space_group_name_H-M "P B C N"
_symmetry_group_IT_number 60
_symmetry_cell_setting 'orthorhombic'
loop_
_space_group_symop_operation_xyz
x,y,z
1/2-x,1/2-y,1/2+z
1/2+x,1/2-y,-z
-x,y,1/2-z
-x,-y,-z
1/2+x,1/2+y,1/2-z
1/2-x,1/2+y,z
x,-y,1/2+z
loop_
_atom_site_type_symbol
_atom_site_label
_atom_site_fract_x
_atom_site_fract_y
_atom_site_fract_z
Si Si1 0.350972 0.808644 0.509337
Si Si2 0.087513 0.315765 0.730886
Si Si3 0.288199 0.945250 0.245503
Si Si4 0.634789 0.559085 0.640382
Si Si5 0.722304 0.530669 0.965916
Si Si6 0.084327 0.760621 0.801686
O O1 0.401081 0.772550 0.612549
O O2 0.282482 0.689184 0.491983
O O3 0.309324 0.959072 0.514058
O O4 0.412974 0.808820 0.414419
O O5 0.157014 0.421242 0.760573
O O6 0.089754 0.189569 0.812109
O O7 0.000000 0.384566 0.750000
O O8 0.232185 0.934287 0.344418
O O9 0.343116 0.806996 0.233939
O O10 0.220196 0.958813 0.156920
O O11 0.642192 0.547623 0.515041
O O12 0.593952 0.425301 0.691269
O O13 0.000000 0.722295 0.750000
#
# Coordination Sequence:
#
# PCOD8247670 Si02
#       6
#     8   8   8   8   8   8
#     4  10  22  42  64  94 124 166 218 260 326 378
#     4  11  24  43  63  95 132 168 207 266 326 387
#     4  11  22  42  66  94 126 166 216 263 313 377
#     4  11  22  42  66  94 126 166 216 263 313 377
#     4  10  22  38  66  96 120 160 220 270 308 376
#     4  11  24  43  63  95 132 168 207 266 326 387
#
# _framework density 22.972643000000001
#
# number of rings (size 3 to 8) (size 9 to 14) (size 15 to 20)
#    0.000    1.333    3.333    2.000    4.667    0.000 
#    6.000    5.000    0.000    0.000    0.000    0.000 
#    0.000    0.000    0.000    0.000    0.000    0.000 
#
# Total GULP energy -594731.254954 kJ/mol
# GULP energy per Si atom -12390.234478 kJ/mol
# Density = 2.292036 g / cm^3
# Si number density = 22.972643 Si / 1000 Ang^3
#
#
#
# Elastic Constant Matrix: (Units=GPa)
#
#
# Indices 1 2 3 4 5 6 
#
# 1 86.2278 10.8407 29.9753 0.0000 0.0000 0.0000
# 2 10.8407 73.3970 25.6047 0.0000 0.0000 0.0000
# 3 29.9753 25.6047 106.1619 0.0000 0.0000 0.0000
# 4 0.0000 0.0000 0.0000 28.6086 0.0000 0.0000
# 5 0.0000 0.0000 0.0000 0.0000 36.4906 0.0000
# 6 0.0000 0.0000 0.0000 0.0000 0.0000 24.5413
#
#
#
# Elastic Compliance Matrix: (Units=1/GPa)
#
#
# Indices 1 2 3 4 5 6 
#
# 1 0.012892 -0.000693 -0.003473 0.000000 0.000000 0.000000
# 2 -0.000693 0.014913 -0.003401 0.000000 0.000000 0.000000
# 3 -0.003473 -0.003401 0.011221 0.000000 0.000000 0.000000
# 4 0.000000 0.000000 0.000000 0.034955 0.000000 0.000000
# 5 0.000000 0.000000 0.000000 0.000000 0.027404 0.000000
# 6 0.000000 0.000000 0.000000 0.000000 0.000000 0.040748
#
#
# Mechanical properties :
#
#
# Convention : Reuss Voigt Hill
#
# Bulk Modulus (GPa) = 41.85535 44.29199 43.07367
# Shear Modulus (GPa) = 30.26095 31.21919 30.74007
#
# Velocity S-wave (km/s) = 3.63335 3.69042 3.66200
# Velocity P-wave (km/s) = 5.98839 6.12218 6.05566
#
# Compressibility (1/GPa) = 0.02389181
#
# Stress axis : x y z
#
# Youngs Moduli (GPa) = 77.57022 67.05390 89.12232
#
# Poissons Ratio (x) = 0.04644 0.30952
# Poissons Ratio (y) = 0.05372 0.30314
# Poissons Ratio (z) = 0.26940 0.22807
#
# Static dielectric constant tensor:
#      x y z
#    x 3.776880 0.000000 0.000000 
#    y 0.000000 4.125490 0.000000 
#    z 0.000000 0.000000 4.487640 
# 
# 
# High freq. dielectric constant tensor:
#      x y z
#    x 1.877340 0.000000 0.000000 
#    y 0.000000 1.909240 0.000000 
#    z 0.000000 0.000000 1.922280 
# 
# From -- ./inp_files/17323.got.cif
#   From: 2010.03.12/outbox.cif.g09.slc.cpg/sg60_9_cif.got.tgz:17323.got - 2010.04.10 18:46:24.
