data_PCOD8247158
_publ_section_title
;
Structure prediction by ZEFSAII (Michael W. Deem and Ramdas Pophale) SiO2 
 PCOD8247158
Probable space group: P B C N
;
_chemical_formula_sum "Si O2"
_cell_formula_units_Z 40
_cell_length_a 9.263710
_cell_length_b 23.104640
_cell_length_c 9.129290
_cell_angle_alpha 90.000000
_cell_angle_beta 90.000000
_cell_angle_gamma 90.000000
_cell_volume 1953.984706
_symmetry_space_group_name_H-M "P B C N"
_symmetry_group_IT_number 60
_symmetry_cell_setting 'orthorhombic'
loop_
_space_group_symop_operation_xyz
x,y,z
1/2-x,1/2-y,1/2+z
1/2+x,1/2-y,-z
-x,y,1/2-z
-x,-y,-z
1/2+x,1/2+y,1/2-z
1/2-x,1/2+y,z
x,-y,1/2+z
loop_
_atom_site_type_symbol
_atom_site_label
_atom_site_fract_x
_atom_site_fract_y
_atom_site_fract_z
Si Si1 0.435374 0.087343 0.102248
Si Si2 0.483454 0.297406 0.917479
Si Si3 0.646569 0.368948 0.332369
Si Si4 0.717864 0.188745 0.569934
Si Si5 0.126157 0.461918 0.136272
O O1 0.500000 0.116359 0.250000
O O2 0.338514 0.030403 0.136145
O O3 0.339698 0.132076 0.012638
O O4 0.574931 0.062881 0.018862
O O5 0.500000 0.318562 0.750000
O O6 0.407175 0.235672 0.928678
O O7 0.386190 0.343894 0.005869
O O8 0.640494 0.288603 0.987492
O O9 0.500000 0.381040 0.250000
O O10 0.744303 0.324066 0.239402
O O11 0.724103 0.430597 0.331846
O O12 0.000000 0.445954 0.250000
#
# Coordination Sequence:
#
# PCOD8247158 Si02
#       5
#     8   8   8   8   8
#     4  10  23  37  66 100 124 164 218 262 304 379
#     4  11  26  41  64  95 122 166 213 260 318 378
#     4  10  23  43  64  89 128 167 207 260 324 382
#     4  11  24  42  63  92 129 168 207 257 325 378
#     4  10  20  41  69  91 125 170 214 256 318 372
#
# _framework density 20.47099
#
# number of rings (size 3 to 8) (size 9 to 14) (size 15 to 20)
#    0.000    1.600    2.000    1.200    8.400    2.400 
#    0.000    5.000    0.000    0.000    0.000    0.000 
#    0.000    0.000    0.000    0.000    0.000    0.000 
#
# Total GULP energy -495997.377795 kJ/mol
# GULP energy per Si atom -12399.934445 kJ/mol
# Density = 2.042440 g / cm^3
# Si number density = 20.470990 Si / 1000 Ang^3
#
#
#
# Elastic Constant Matrix: (Units=GPa)
#
#
# Indices 1 2 3 4 5 6 
#
# 1 99.7197 76.8314 40.7467 0.0000 0.0000 0.0000
# 2 76.8314 119.9789 49.5275 0.0000 0.0000 0.0000
# 3 40.7467 49.5275 147.4454 0.0000 0.0000 0.0000
# 4 0.0000 0.0000 0.0000 26.1287 0.0000 0.0000
# 5 0.0000 0.0000 0.0000 0.0000 27.3366 0.0000
# 6 0.0000 0.0000 0.0000 0.0000 0.0000 28.3914
#
#
#
# Elastic Compliance Matrix: (Units=1/GPa)
#
#
# Indices 1 2 3 4 5 6 
#
# 1 0.020049 -0.012251 -0.001426 0.000000 0.000000 0.000000
# 2 -0.012251 0.017162 -0.002379 0.000000 0.000000 0.000000
# 3 -0.001426 -0.002379 0.007975 0.000000 0.000000 0.000000
# 4 0.000000 0.000000 0.000000 0.038272 0.000000 0.000000
# 5 0.000000 0.000000 0.000000 0.000000 0.036581 0.000000
# 6 0.000000 0.000000 0.000000 0.000000 0.000000 0.035222
#
#
# Mechanical properties :
#
#
# Convention : Reuss Voigt Hill
#
# Bulk Modulus (GPa) = 76.47826 77.92838 77.20332
# Shear Modulus (GPa) = 26.07813 29.70723 27.89268
#
# Velocity S-wave (km/s) = 3.57306 3.81358 3.69527
# Velocity P-wave (km/s) = 7.37989 7.58561 7.48346
#
# Compressibility (1/GPa) = 0.01307561
#
# Stress axis : x y z
#
# Youngs Moduli (GPa) = 49.87666 58.26833 125.38610
#
# Poissons Ratio (x) = 0.71382 0.17876
# Poissons Ratio (y) = 0.61102 0.29833
# Poissons Ratio (z) = 0.07111 0.13864
#
# Static dielectric constant tensor:
#      x y z
#    x 3.676240 0.000000 0.000000 
#    y 0.000000 3.636690 0.000000 
#    z 0.000000 0.000000 4.133750 
# 
# 
# High freq. dielectric constant tensor:
#      x y z
#    x 1.796070 0.000000 0.000000 
#    y 0.000000 1.793280 0.000000 
#    z 0.000000 0.000000 1.818330 
# 
# From -- ./inp_files/3823.got.cif
#   From: 2010.03.12/outbox.cif.g09.slc.cpg/sg60_2_cif.got.tgz:3823.got - 2010.04.10 18:46:24.
