data_PCOD8247771
_publ_section_title
;
Structure prediction by ZEFSAII (Michael W. Deem and Ramdas Pophale) SiO2 
 PCOD8247771
Probable space group: P B C N
;
_chemical_formula_sum "Si O2"
_cell_formula_units_Z 36
_cell_length_a 8.095067
_cell_length_b 13.627123
_cell_length_c 14.296060
_cell_angle_alpha 90.000000
_cell_angle_beta 90.000000
_cell_angle_gamma 90.000000
_cell_volume 1577.033743
_symmetry_space_group_name_H-M "P B C N"
_symmetry_group_IT_number 60
_symmetry_cell_setting 'orthorhombic'
loop_
_space_group_symop_operation_xyz
x,y,z
1/2-x,1/2-y,1/2+z
1/2+x,1/2-y,-z
-x,y,1/2-z
-x,-y,-z
1/2+x,1/2+y,1/2-z
1/2-x,1/2+y,z
x,-y,1/2+z
loop_
_atom_site_type_symbol
_atom_site_label
_atom_site_fract_x
_atom_site_fract_y
_atom_site_fract_z
Si Si1 0.622739 0.497637 0.382504
Si Si2 0.500000 0.826941 0.750000
Si Si3 0.786859 0.631522 0.535663
Si Si4 0.245052 0.979899 0.819635
Si Si5 0.454051 0.286434 0.077638
O O1 0.721197 0.576512 0.442980
O O2 0.433438 0.536863 0.369887
O O3 0.711924 0.479644 0.283958
O O4 0.630419 0.393131 0.436355
O O5 0.601058 0.760026 0.823305
O O6 0.363739 0.886565 0.809903
O O7 0.849593 0.556111 0.615500
O O8 0.924853 0.710085 0.506753
O O9 0.648177 0.697386 0.583513
#
# Coordination Sequence:
#
# PCOD8247771 Si02
#       5
#     8   4   8   8   8
#     4  10  22  47  64  91 135 181 217 262 346 393
#     4  12  24  40  66 100 134 170 224 276 328 392
#     4  11  24  43  69  97 131 177 223 274 330 401
#     4  10  22  41  66  92 137 176 210 279 331 389
#     4  11  24  40  67  98 128 173 225 273 322 407
#
# _framework density 22.827667999999999
#
# number of rings (size 3 to 8) (size 9 to 14) (size 15 to 20)
#    0.000    1.333    2.222    5.333    6.222    2.667 
#    0.000    0.000    0.000    0.000    0.000    0.000 
#    0.000    0.000    0.000    0.000    0.000    0.000 
#
# Total GULP energy -446163.162610 kJ/mol
# GULP energy per Si atom -12393.421184 kJ/mol
# Density = 2.277571 g / cm^3
# Si number density = 22.827668 Si / 1000 Ang^3
#
#
#
# Elastic Constant Matrix: (Units=GPa)
#
#
# Indices 1 2 3 4 5 6 
#
# 1 25.6792 35.6671 2.9666 0.0000 0.0000 0.0000
# 2 35.6671 109.5349 28.7968 0.0000 0.0000 0.0000
# 3 2.9666 28.7968 90.3242 0.0000 0.0000 0.0000
# 4 0.0000 0.0000 0.0000 47.3178 0.0000 0.0000
# 5 0.0000 0.0000 0.0000 0.0000 33.8740 0.0000
# 6 0.0000 0.0000 0.0000 0.0000 0.0000 37.3800
#
#
#
# Elastic Compliance Matrix: (Units=1/GPa)
#
#
# Indices 1 2 3 4 5 6 
#
# 1 0.073699 -0.025499 0.005709 0.000000 0.000000 0.000000
# 2 -0.025499 0.018787 -0.005152 0.000000 0.000000 0.000000
# 3 0.005709 -0.005152 0.012526 0.000000 0.000000 0.000000
# 4 0.000000 0.000000 0.000000 0.021134 0.000000 0.000000
# 5 0.000000 0.000000 0.000000 0.000000 0.029521 0.000000
# 6 0.000000 0.000000 0.000000 0.000000 0.000000 0.026752
#
#
# Mechanical properties :
#
#
# Convention : Reuss Voigt Hill
#
# Bulk Modulus (GPa) = 18.13957 40.04437 29.09197
# Shear Modulus (GPa) = 19.94574 34.25489 27.10032
#
# Velocity S-wave (km/s) = 2.95914 3.87794 3.44927
# Velocity P-wave (km/s) = 4.43158 6.13444 5.35118
#
# Compressibility (1/GPa) = 0.05512809
#
# Stress axis : x y z
#
# Youngs Moduli (GPa) = 13.56868 53.22815 79.83199
#
# Poissons Ratio (x) = 1.35726 -0.45575
# Poissons Ratio (y) = 0.34599 0.41130
# Poissons Ratio (z) = -0.07746 0.27424
#
# Static dielectric constant tensor:
#      x y z
#    x 3.900090 0.000000 0.000000 
#    y 0.000000 4.192270 0.000000 
#    z 0.000000 0.000000 4.447730 
# 
# 
# High freq. dielectric constant tensor:
#      x y z
#    x 1.867530 0.000000 0.000000 
#    y 0.000000 1.906800 0.000000 
#    z 0.000000 0.000000 1.918640 
# 
# From -- ./inp_files/14560.got.cif
#   From: 2010.03.12/outbox.cif.g09.slc.cpg/sg60_8_cif.got.tgz:14560.got - 2010.04.10 18:46:24.
