data_PCOD8247095
_publ_section_title
;
Structure prediction by ZEFSAII (Michael W. Deem and Ramdas Pophale) SiO2 
 PCOD8247095
Probable space group: P B C N
;
_chemical_formula_sum "Si O2"
_cell_formula_units_Z 48
_cell_length_a 9.348182
_cell_length_b 32.187537
_cell_length_c 7.849975
_cell_angle_alpha 90.000000
_cell_angle_beta 90.000000
_cell_angle_gamma 90.000000
_cell_volume 2362.017867
_symmetry_space_group_name_H-M "P B C N"
_symmetry_group_IT_number 60
_symmetry_cell_setting 'orthorhombic'
loop_
_space_group_symop_operation_xyz
x,y,z
1/2-x,1/2-y,1/2+z
1/2+x,1/2-y,-z
-x,y,1/2-z
-x,-y,-z
1/2+x,1/2+y,1/2-z
1/2-x,1/2+y,z
x,-y,1/2+z
loop_
_atom_site_type_symbol
_atom_site_label
_atom_site_fract_x
_atom_site_fract_y
_atom_site_fract_z
Si Si1 0.149243 0.549726 0.929413
Si Si2 0.000000 0.242896 0.250000
Si Si3 0.256217 0.676287 0.218008
Si Si4 0.992717 0.685106 0.008984
Si Si5 0.500000 0.979417 0.750000
Si Si6 0.000000 0.107726 0.250000
Si Si7 0.000000 0.619350 0.750000
Si Si8 0.968947 0.953023 0.049189
O O1 0.129905 0.509073 0.810387
O O2 0.126059 0.590514 0.819038
O O3 0.305753 0.552217 0.998907
O O4 0.044378 0.549401 0.092643
O O5 0.142583 0.215653 0.241569
O O6 0.995492 0.270094 0.420423
O O7 0.123816 0.683486 0.344601
O O8 0.355616 0.635252 0.228000
O O9 0.161627 0.674943 0.045839
O O10 0.930705 0.648769 0.890665
O O11 0.039954 0.079915 0.417773
O O12 0.000000 0.943627 0.250000
O O13 0.000000 0.000000 0.000000
#
# Coordination Sequence:
#
# PCOD8247095 Si02
#       8
#     8   4   8   8   4   4   4   8
#     4  10  21  39  57  88 115 155 213 261 334 377
#     4  10  20  39  68  98 130 156 212 248 311 392
#     4  10  22  41  64  93 130 168 203 260 317 378
#     4  10  21  39  63  94 124 169 202 253 312 375
#     4   9  20  37  62  83 114 152 203 278 319 394
#     4  11  26  43  62  93 132 172 225 268 327 396
#     4  10  22  35  58  86 120 156 208 260 301 384
#     4  12  25  42  64  89 125 173 221 278 332 397
#
# _framework density 20.321607
#
# number of rings (size 3 to 8) (size 9 to 14) (size 15 to 20)
#    0.000    1.667    0.833    3.000    2.333    2.667 
#    0.000    0.000    7.333    0.000    0.000    0.000 
#    0.000    0.000    0.000    0.000    0.000    0.000 
#
# Total GULP energy -594659.134390 kJ/mol
# GULP energy per Si atom -12388.731966 kJ/mol
# Density = 2.027535 g / cm^3
# Si number density = 20.321607 Si / 1000 Ang^3
#
#
#
# Elastic Constant Matrix: (Units=GPa)
#
#
# Indices 1 2 3 4 5 6 
#
# 1 116.3682 59.3446 27.3137 0.0000 0.0000 0.0000
# 2 59.3446 141.6717 55.0099 0.0000 0.0000 0.0000
# 3 27.3137 55.0099 102.9532 0.0000 0.0000 0.0000
# 4 0.0000 0.0000 0.0000 46.7732 0.0000 0.0000
# 5 0.0000 0.0000 0.0000 0.0000 19.6458 0.0000
# 6 0.0000 0.0000 0.0000 0.0000 0.0000 17.4499
#
#
#
# Elastic Compliance Matrix: (Units=1/GPa)
#
#
# Indices 1 2 3 4 5 6 
#
# 1 0.010955 -0.004366 -0.000573 0.000000 0.000000 0.000000
# 2 -0.004366 0.010647 -0.004530 0.000000 0.000000 0.000000
# 3 -0.000573 -0.004530 0.012286 0.000000 0.000000 0.000000
# 4 0.000000 0.000000 0.000000 0.021380 0.000000 0.000000
# 5 0.000000 0.000000 0.000000 0.000000 0.050902 0.000000
# 6 0.000000 0.000000 0.000000 0.000000 0.000000 0.057307
#
#
# Mechanical properties :
#
#
# Convention : Reuss Voigt Hill
#
# Bulk Modulus (GPa) = 66.90111 71.59217 69.24664
# Shear Modulus (GPa) = 26.68126 31.39544 29.03835
#
# Velocity S-wave (km/s) = 3.62740 3.93482 3.78423
# Velocity P-wave (km/s) = 7.10891 7.47996 7.29680
#
# Compressibility (1/GPa) = 0.01494743
#
# Stress axis : x y z
#
# Youngs Moduli (GPa) = 91.28592 93.92700 81.39403
#
# Poissons Ratio (x) = 0.41010 0.04667
# Poissons Ratio (y) = 0.39856 0.36874
# Poissons Ratio (z) = 0.05234 0.42552
#
# Static dielectric constant tensor:
#      x y z
#    x 3.588210 0.000000 0.000000 
#    y 0.000000 3.869890 0.000000 
#    z 0.000000 0.000000 4.026370 
# 
# 
# High freq. dielectric constant tensor:
#      x y z
#    x 1.793420 0.000000 0.000000 
#    y 0.000000 1.802310 0.000000 
#    z 0.000000 0.000000 1.803780 
# 
# From -- ./inp_files/4301.got.cif
#   From: 2010.03.12/outbox.cif.g09.slc.cpg/sg60_3_cif.got.tgz:4301.got - 2010.04.10 18:46:24.
