data_PCOD8247996
_publ_section_title
;
Structure prediction by ZEFSAII (Michael W. Deem and Ramdas Pophale) SiO2 
 PCOD8247996
Probable space group: P B C N
;
_chemical_formula_sum "Si O2"
_cell_formula_units_Z 28
_cell_length_a 15.911051
_cell_length_b 7.330046
_cell_length_c 9.101128
_cell_angle_alpha 90.000000
_cell_angle_beta 90.000000
_cell_angle_gamma 90.000000
_cell_volume 1061.453052
_symmetry_space_group_name_H-M "P B C N"
_symmetry_group_IT_number 60
_symmetry_cell_setting 'orthorhombic'
loop_
_space_group_symop_operation_xyz
x,y,z
1/2-x,1/2-y,1/2+z
1/2+x,1/2-y,-z
-x,y,1/2-z
-x,-y,-z
1/2+x,1/2+y,1/2-z
1/2-x,1/2+y,z
x,-y,1/2+z
loop_
_atom_site_type_symbol
_atom_site_label
_atom_site_fract_x
_atom_site_fract_y
_atom_site_fract_z
Si Si1 0.660539 0.809765 0.184870
Si Si2 0.345402 0.611791 0.828130
Si Si3 0.406129 0.913753 0.020306
Si Si4 0.000000 0.691117 0.250000
O O1 0.755437 0.838704 0.242899
O O2 0.640084 0.601868 0.149893
O O3 0.593418 0.903481 0.300575
O O4 0.653082 0.922551 0.034176
O O5 0.359210 0.720135 0.982384
O O6 0.417867 0.686649 0.719762
O O7 0.492446 0.915304 0.911135
#
# Coordination Sequence:
#
# PCOD8247996 Si02
#       4
#     8   8   8   4
#     4  12  24  42  74  95 140 178 231 278 341 399
#     4  10  23  43  64 103 134 181 221 285 328 413
#     4  10  26  44  68 105 130 182 225 280 337 410
#     4   8  22  50  60 106 140 168 238 270 352 394
#
# _framework density 26.378933
#
# number of rings (size 3 to 8) (size 9 to 14) (size 15 to 20)
#    1.714    0.000    2.857    0.000    4.000    5.714 
#    0.000    0.000    0.000    0.000    0.000    0.000 
#    0.000    0.000    0.000    0.000    0.000    0.000 
#
# Total GULP energy -347044.194989 kJ/mol
# GULP energy per Si atom -12394.435535 kJ/mol
# Density = 2.631889 g / cm^3
# Si number density = 26.378933 Si / 1000 Ang^3
#
#
#
# Elastic Constant Matrix: (Units=GPa)
#
#
# Indices 1 2 3 4 5 6 
#
# 1 134.6009 29.0204 34.1144 0.0000 0.0000 0.0000
# 2 29.0204 193.4092 96.1501 0.0000 0.0000 0.0000
# 3 34.1144 96.1501 111.4508 0.0000 0.0000 0.0000
# 4 0.0000 0.0000 0.0000 22.5197 0.0000 0.0000
# 5 0.0000 0.0000 0.0000 0.0000 16.8218 0.0000
# 6 0.0000 0.0000 0.0000 0.0000 0.0000 30.4263
#
#
#
# Elastic Compliance Matrix: (Units=1/GPa)
#
#
# Indices 1 2 3 4 5 6 
#
# 1 0.008054 0.000030 -0.002491 0.000000 0.000000 0.000000
# 2 0.000030 0.009053 -0.007820 0.000000 0.000000 0.000000
# 3 -0.002491 -0.007820 0.016481 0.000000 0.000000 0.000000
# 4 0.000000 0.000000 0.000000 0.044405 0.000000 0.000000
# 5 0.000000 0.000000 0.000000 0.000000 0.059447 0.000000
# 6 0.000000 0.000000 0.000000 0.000000 0.000000 0.032866
#
#
# Mechanical properties :
#
#
# Convention : Reuss Voigt Hill
#
# Bulk Modulus (GPa) = 76.76307 84.22564 80.49435
# Shear Modulus (GPa) = 25.61331 32.63196 29.12264
#
# Velocity S-wave (km/s) = 3.11943 3.52098 3.32627
# Velocity P-wave (km/s) = 6.49136 6.96622 6.73298
#
# Compressibility (1/GPa) = 0.01302710
#
# Stress axis : x y z
#
# Youngs Moduli (GPa) = 124.15715 110.45785 60.67554
#
# Poissons Ratio (x) = -0.00331 0.15116
# Poissons Ratio (y) = -0.00372 0.47445
# Poissons Ratio (z) = 0.30930 0.86373
#
# Static dielectric constant tensor:
#      x y z
#    x 5.012760 0.000000 0.000000 
#    y 0.000000 4.836930 0.000000 
#    z 0.000000 0.000000 4.326410 
# 
# 
# High freq. dielectric constant tensor:
#      x y z
#    x 2.082530 0.000000 0.000000 
#    y 0.000000 2.084630 0.000000 
#    z 0.000000 0.000000 2.051710 
# 
# From -- ./inp_files/6448.got.cif
#   From: 2010.03.12/outbox.cif.g09.slc.cpg/sg60_4_cif.got.tgz:6448.got - 2010.04.10 18:46:24.
