data_PCOD8247369
_publ_section_title
;
Structure prediction by ZEFSAII (Michael W. Deem and Ramdas Pophale) SiO2 
 PCOD8247369
Probable space group: P B C N
;
_chemical_formula_sum "Si O2"
_cell_formula_units_Z 64
_cell_length_a 31.048751
_cell_length_b 10.789763
_cell_length_c 9.534739
_cell_angle_alpha 90.000000
_cell_angle_beta 90.000000
_cell_angle_gamma 90.000000
_cell_volume 3194.220181
_symmetry_space_group_name_H-M "P B C N"
_symmetry_group_IT_number 60
_symmetry_cell_setting 'orthorhombic'
loop_
_space_group_symop_operation_xyz
x,y,z
1/2-x,1/2-y,1/2+z
1/2+x,1/2-y,-z
-x,y,1/2-z
-x,-y,-z
1/2+x,1/2+y,1/2-z
1/2-x,1/2+y,z
x,-y,1/2+z
loop_
_atom_site_type_symbol
_atom_site_label
_atom_site_fract_x
_atom_site_fract_y
_atom_site_fract_z
Si Si1 0.953950 0.127289 0.082305
Si Si2 0.133222 0.775407 0.460982
Si Si3 0.734946 0.632191 0.243141
Si Si4 0.049686 0.876912 0.591239
Si Si5 0.165787 0.615060 0.223860
Si Si6 0.329593 0.829937 0.228126
Si Si7 0.688040 0.490776 0.493209
Si Si8 0.369793 0.263235 0.990564
O O1 0.940338 0.099981 0.244026
O O2 0.921394 0.221592 0.004226
O O3 0.002101 0.184016 0.075743
O O4 0.950401 0.003367 0.993390
O O5 0.084729 0.787980 0.519164
O O6 0.133784 0.698086 0.317890
O O7 0.159908 0.690387 0.566915
O O8 0.156689 0.906952 0.437281
O O9 0.785035 0.656209 0.263857
O O10 0.717958 0.774344 0.243308
O O11 0.713771 0.549423 0.364548
O O12 0.724111 0.561930 0.098719
O O13 0.164947 0.472451 0.266653
O O14 0.147030 0.639209 0.068157
O O15 0.360732 0.748087 0.325059
O O16 0.655988 0.380694 0.444423
#
# Coordination Sequence:
#
# PCOD8247369 Si02
#       8
#     8   8   8   8   8   8   8   8
#     4  10  21  38  66 100 133 161 198 255 322 388
#     4  11  22  40  64  91 126 167 204 265 318 373
#     4  10  25  40  61  87 124 166 214 271 311 369
#     4  10  21  38  66 100 133 161 198 255 322 388
#     4  12  27  38  62  88 121 173 223 255 314 374
#     4  10  24  42  59  85 125 169 215 262 309 377
#     4  10  22  38  63  88 124 158 207 260 320 372
#     4  11  22  40  64  91 126 167 204 265 318 373
#
# _framework density 20.036189
#
# number of rings (size 3 to 8) (size 9 to 14) (size 15 to 20)
#    0.000    1.500    2.500    1.500    8.750    2.000 
#    0.000    0.000    0.000    4.500    0.000    0.000 
#    0.000    0.000    0.000    0.000    0.000    0.000 
#
# Total GULP energy -793352.880881 kJ/mol
# GULP energy per Si atom -12396.138764 kJ/mol
# Density = 1.999059 g / cm^3
# Si number density = 20.036189 Si / 1000 Ang^3
#
#
#
# Elastic Constant Matrix: (Units=GPa)
#
#
# Indices 1 2 3 4 5 6 
#
# 1 138.5581 37.8510 33.4580 0.0000 0.0000 0.0000
# 2 37.8510 97.3204 22.7816 0.0000 0.0000 0.0000
# 3 33.4580 22.7816 72.1936 0.0000 0.0000 0.0000
# 4 0.0000 0.0000 0.0000 27.4239 0.0000 0.0000
# 5 0.0000 0.0000 0.0000 0.0000 30.1739 0.0000
# 6 0.0000 0.0000 0.0000 0.0000 0.0000 23.3982
#
#
#
# Elastic Compliance Matrix: (Units=1/GPa)
#
#
# Indices 1 2 3 4 5 6 
#
# 1 0.008712 -0.002638 -0.003205 0.000000 0.000000 0.000000
# 2 -0.002638 0.011894 -0.002531 0.000000 0.000000 0.000000
# 3 -0.003205 -0.002531 0.016136 0.000000 0.000000 0.000000
# 4 0.000000 0.000000 0.000000 0.036465 0.000000 0.000000
# 5 0.000000 0.000000 0.000000 0.000000 0.033141 0.000000
# 6 0.000000 0.000000 0.000000 0.000000 0.000000 0.042738
#
#
# Mechanical properties :
#
#
# Convention : Reuss Voigt Hill
#
# Bulk Modulus (GPa) = 50.01558 55.13926 52.57742
# Shear Modulus (GPa) = 28.98599 30.46462 29.72530
#
# Velocity S-wave (km/s) = 3.80765 3.90356 3.85591
# Velocity P-wave (km/s) = 6.65941 6.92074 6.79133
#
# Compressibility (1/GPa) = 0.01999377
#
# Stress axis : x y z
#
# Youngs Moduli (GPa) = 114.78739 84.07781 61.97490
#
# Poissons Ratio (x) = 0.22180 0.19863
# Poissons Ratio (y) = 0.30281 0.15684
# Poissons Ratio (z) = 0.36789 0.21277
#
# Static dielectric constant tensor:
#      x y z
#    x 3.835450 0.000000 0.000000 
#    y 0.000000 3.449590 0.000000 
#    z 0.000000 0.000000 3.672040 
# 
# 
# High freq. dielectric constant tensor:
#      x y z
#    x 1.780370 0.000000 0.000000 
#    y 0.000000 1.762280 0.000000 
#    z 0.000000 0.000000 1.793860 
# 
# From -- ./inp_files/8497.got.cif
#   From: 2010.03.12/outbox.cif.g09.slc.cpg/sg60_5_cif.got.tgz:8497.got - 2010.04.10 18:46:24.
