data_PCOD8247057
_publ_section_title
;
Structure prediction by ZEFSAII (Michael W. Deem and Ramdas Pophale) SiO2 
 PCOD8247057
Probable space group: P B C N
;
_chemical_formula_sum "Si O2"
_cell_formula_units_Z 60
_cell_length_a 8.549264
_cell_length_b 13.460079
_cell_length_c 24.408471
_cell_angle_alpha 90.000000
_cell_angle_beta 90.000000
_cell_angle_gamma 90.000000
_cell_volume 2808.774749
_symmetry_space_group_name_H-M "P B C N"
_symmetry_group_IT_number 60
_symmetry_cell_setting 'orthorhombic'
loop_
_space_group_symop_operation_xyz
x,y,z
1/2-x,1/2-y,1/2+z
1/2+x,1/2-y,-z
-x,y,1/2-z
-x,-y,-z
1/2+x,1/2+y,1/2-z
1/2-x,1/2+y,z
x,-y,1/2+z
loop_
_atom_site_type_symbol
_atom_site_label
_atom_site_fract_x
_atom_site_fract_y
_atom_site_fract_z
Si Si1 0.141044 0.063009 0.020038
Si Si2 0.500000 0.665643 0.250000
Si Si3 0.221172 0.291086 0.172034
Si Si4 0.671950 0.996038 0.378111
Si Si5 0.194797 0.918016 0.846325
Si Si6 0.984039 0.341586 0.812220
Si Si7 0.002944 0.781040 0.582977
Si Si8 0.350264 0.074873 0.917228
O O1 0.076537 0.177595 0.025874
O O2 0.191020 0.018991 0.079115
O O3 0.279054 0.052719 0.976359
O O4 0.000000 0.000000 0.000000
O O5 0.616965 0.742698 0.279739
O O6 0.403632 0.590782 0.289784
O O7 0.210434 0.409741 0.166020
O O8 0.405519 0.267479 0.182124
O O9 0.158404 0.248447 0.115149
O O10 0.518914 0.975495 0.414445
O O11 0.647966 0.090191 0.339637
O O12 0.349175 0.848992 0.841632
O O13 0.086998 0.876184 0.893818
O O14 0.246065 0.030138 0.866011
O O15 0.000000 0.375943 0.750000
O O16 0.874993 0.693455 0.584221
#
# Coordination Sequence:
#
# PCOD8247057 Si02
#       8
#     8   4   8   8   8   8   8   8
#     4  12  23  42  69  98 132 177 231 277 342 403
#     4  10  20  38  70  94 142 180 222 276 342 400
#     4  10  21  41  65  94 131 174 221 272 340 400
#     4  10  24  42  66  95 137 175 218 285 339 406
#     4  10  21  41  65  95 136 176 219 282 330 407
#     4  11  21  40  65  95 126 172 224 272 335 405
#     4  10  22  42  64  94 134 173 217 285 335 398
#     4  10  23  43  67  99 133 179 226 269 354 403
#
# _framework density 21.361626999999999
#
# number of rings (size 3 to 8) (size 9 to 14) (size 15 to 20)
#    0.000    1.600    4.000    0.400    0.933    3.200 
#    4.800    0.000    2.933    0.000    0.000    0.000 
#    0.000    0.000    0.000    0.000    0.000    0.000 
#
# Total GULP energy -743315.966706 kJ/mol
# GULP energy per Si atom -12388.599445 kJ/mol
# Density = 2.131301 g / cm^3
# Si number density = 21.361627 Si / 1000 Ang^3
#
#
#
# Elastic Constant Matrix: (Units=GPa)
#
#
# Indices 1 2 3 4 5 6 
#
# 1 94.6884 33.5872 34.0415 0.0000 0.0000 0.0000
# 2 33.5872 85.5624 36.2897 0.0000 0.0000 0.0000
# 3 34.0415 36.2897 99.6094 0.0000 0.0000 0.0000
# 4 0.0000 0.0000 0.0000 25.7885 0.0000 0.0000
# 5 0.0000 0.0000 0.0000 0.0000 37.0716 0.0000
# 6 0.0000 0.0000 0.0000 0.0000 0.0000 30.0027
#
#
#
# Elastic Compliance Matrix: (Units=1/GPa)
#
#
# Indices 1 2 3 4 5 6 
#
# 1 0.013012 -0.003811 -0.003059 0.000000 0.000000 0.000000
# 2 -0.003811 0.014939 -0.004140 0.000000 0.000000 0.000000
# 3 -0.003059 -0.004140 0.012593 0.000000 0.000000 0.000000
# 4 0.000000 0.000000 0.000000 0.038777 0.000000 0.000000
# 5 0.000000 0.000000 0.000000 0.000000 0.026975 0.000000
# 6 0.000000 0.000000 0.000000 0.000000 0.000000 0.033330
#
#
# Mechanical properties :
#
#
# Convention : Reuss Voigt Hill
#
# Bulk Modulus (GPa) = 53.98076 54.18855 54.08465
# Shear Modulus (GPa) = 29.79365 30.30202 30.04783
#
# Velocity S-wave (km/s) = 3.73866 3.77042 3.75457
# Velocity P-wave (km/s) = 6.63035 6.66161 6.64600
#
# Compressibility (1/GPa) = 0.01852512
#
# Stress axis : x y z
#
# Youngs Moduli (GPa) = 76.85061 66.93759 79.40957
#
# Poissons Ratio (x) = 0.25507 0.24289
# Poissons Ratio (y) = 0.29285 0.32879
# Poissons Ratio (z) = 0.23506 0.27715
#
# Static dielectric constant tensor:
#      x y z
#    x 4.459900 0.000000 0.000000 
#    y 0.000000 3.935770 0.000000 
#    z 0.000000 0.000000 4.066210 
# 
# 
# High freq. dielectric constant tensor:
#      x y z
#    x 1.854020 0.000000 0.000000 
#    y 0.000000 1.825200 0.000000 
#    z 0.000000 0.000000 1.831100 
# 
# From -- ./inp_files/25215.got.cif
#   From: 2010.03.12/outbox.cif.g09.slc.cpg/sg60_13_cif.got.tgz:25215.got - 2010.04.10 18:46:24.
