data_PCOD8247690
_publ_section_title
;
Structure prediction by ZEFSAII (Michael W. Deem and Ramdas Pophale) SiO2 
 PCOD8247690
Probable space group: P B C N
;
_chemical_formula_sum "Si O2"
_cell_formula_units_Z 40
_cell_length_a 16.224894
_cell_length_b 15.126510
_cell_length_c 8.453457
_cell_angle_alpha 90.000000
_cell_angle_beta 90.000000
_cell_angle_gamma 90.000000
_cell_volume 2074.698318
_symmetry_space_group_name_H-M "P B C N"
_symmetry_group_IT_number 60
_symmetry_cell_setting 'orthorhombic'
loop_
_space_group_symop_operation_xyz
x,y,z
1/2-x,1/2-y,1/2+z
1/2+x,1/2-y,-z
-x,y,1/2-z
-x,-y,-z
1/2+x,1/2+y,1/2-z
1/2-x,1/2+y,z
x,-y,1/2+z
loop_
_atom_site_type_symbol
_atom_site_label
_atom_site_fract_x
_atom_site_fract_y
_atom_site_fract_z
Si Si1 0.445398 0.066359 0.105756
Si Si2 0.810544 0.981638 0.001149
Si Si3 0.403765 0.397034 0.772979
Si Si4 0.413452 0.797648 0.335775
Si Si5 0.695940 0.938774 0.275407
O O1 0.500000 0.103057 0.250000
O O2 0.366582 0.018792 0.184688
O O3 0.417373 0.150766 0.002506
O O4 0.500000 0.000000 0.000000
O O5 0.732387 0.944969 0.097967
O O6 0.879411 0.023979 0.111384
O O7 0.853509 0.906257 0.892567
O O8 0.773113 0.059984 0.893129
O O9 0.500000 0.407914 0.750000
O O10 0.382687 0.302988 0.854523
O O11 0.500000 0.798151 0.250000
O O12 0.351192 0.846100 0.215194
#
# Coordination Sequence:
#
# PCOD8247690 Si02
#       5
#     8   8   8   8   8
#     4  12  19  34  61  90 129 171 191 236 304 377
#     4  10  22  39  62  86 114 168 199 255 318 348
#     4  10  23  43  63  83 116 158 216 262 303 363
#     4  11  22  37  60  93 126 163 203 249 299 373
#     4  11  19  35  60  90 126 155 199 239 311 376
#
# _framework density 19.279911999999999
#
# number of rings (size 3 to 8) (size 9 to 14) (size 15 to 20)
#    0.000    1.200    6.000    0.600    0.000    1.600 
#    0.000    9.000    0.000    0.000    0.000    0.000 
#    0.000    0.000    0.000    0.000    0.000    0.000 
#
# Total GULP energy -495788.875189 kJ/mol
# GULP energy per Si atom -12394.721880 kJ/mol
# Density = 1.923603 g / cm^3
# Si number density = 19.279912 Si / 1000 Ang^3
#
#
#
# Elastic Constant Matrix: (Units=GPa)
#
#
# Indices 1 2 3 4 5 6 
#
# 1 91.8818 39.8960 37.5629 0.0000 0.0000 0.0000
# 2 39.8960 109.6254 38.9533 0.0000 0.0000 0.0000
# 3 37.5629 38.9533 95.0361 0.0000 0.0000 0.0000
# 4 0.0000 0.0000 0.0000 32.0997 0.0000 0.0000
# 5 0.0000 0.0000 0.0000 0.0000 37.0650 0.0000
# 6 0.0000 0.0000 0.0000 0.0000 0.0000 -4.3552
#
#
#
# Elastic Compliance Matrix: (Units=1/GPa)
#
#
# Indices 1 2 3 4 5 6 
#
# 1 0.014159 -0.003704 -0.004078 0.000000 0.000000 0.000000
# 2 -0.003704 0.011646 -0.003309 0.000000 0.000000 0.000000
# 3 -0.004078 -0.003309 0.013491 0.000000 0.000000 0.000000
# 4 0.000000 0.000000 0.000000 0.031153 0.000000 0.000000
# 5 0.000000 0.000000 0.000000 0.000000 0.026980 0.000000
# 6 0.000000 0.000000 0.000000 0.000000 0.000000 -0.229611
#
#
# Mechanical properties :
#
#
# Convention : Reuss Voigt Hill
#
# Bulk Modulus (GPa) = 58.43644 58.81866 58.62755
# Shear Modulus (GPa) = -47.94057 24.97064 -11.48497
#
# Velocity S-wave (km/s) = -4.99195 3.60274 -2.44334
# Velocity P-wave (km/s) = 1.68842 6.91956 4.74497
#
# Compressibility (1/GPa) = 0.01711261
#
# Stress axis : x y z
#
# Youngs Moduli (GPa) = 70.62636 85.86754 74.12502
#
# Poissons Ratio (x) = 0.31803 0.30230
# Poissons Ratio (y) = 0.26158 0.24532
# Poissons Ratio (z) = 0.28803 0.28418
#
# Static dielectric constant tensor:
#      x y z
#    x 3.659900 0.000000 0.000000 
#    y 0.000000 3.520130 0.000000 
#    z 0.000000 0.000000 3.761380 
# 
# 
# High freq. dielectric constant tensor:
#      x y z
#    x 1.768510 0.000000 0.000000 
#    y 0.000000 1.720280 0.000000 
#    z 0.000000 0.000000 1.758170 
# 
# From -- ./inp_files/5650.got.cif
#   From: 2010.03.12/outbox.cif.g09.slc.cpg/sg60_3_cif.got.tgz:5650.got - 2010.04.10 18:46:24.
