data_PCOD8247680
_publ_section_title
;
Structure prediction by ZEFSAII (Michael W. Deem and Ramdas Pophale) SiO2 
 PCOD8247680
Probable space group: P B C N
;
_chemical_formula_sum "Si O2"
_cell_formula_units_Z 64
_cell_length_a 16.888801
_cell_length_b 21.459038
_cell_length_c 8.656393
_cell_angle_alpha 90.000000
_cell_angle_beta 90.000000
_cell_angle_gamma 90.000000
_cell_volume 3137.227639
_symmetry_space_group_name_H-M "P B C N"
_symmetry_group_IT_number 60
_symmetry_cell_setting 'orthorhombic'
loop_
_space_group_symop_operation_xyz
x,y,z
1/2-x,1/2-y,1/2+z
1/2+x,1/2-y,-z
-x,y,1/2-z
-x,-y,-z
1/2+x,1/2+y,1/2-z
1/2-x,1/2+y,z
x,-y,1/2+z
loop_
_atom_site_type_symbol
_atom_site_label
_atom_site_fract_x
_atom_site_fract_y
_atom_site_fract_z
Si Si1 0.337459 0.636874 0.464199
Si Si2 0.349247 0.352461 0.465944
Si Si3 0.410126 0.269796 0.724938
Si Si4 0.710136 0.450475 0.790583
Si Si5 0.554828 0.972221 0.628099
Si Si6 0.155656 0.456962 0.148011
Si Si7 0.272239 0.170926 0.723643
Si Si8 0.412770 0.440173 0.220266
O O1 0.389946 0.681556 0.358638
O O2 0.279454 0.592550 0.362123
O O3 0.284480 0.681517 0.574838
O O4 0.397572 0.590466 0.552885
O O5 0.400958 0.302282 0.558834
O O6 0.318428 0.407192 0.572816
O O7 0.275855 0.317177 0.382024
O O8 0.404613 0.383377 0.339072
O O9 0.500000 0.246066 0.750000
O O10 0.351214 0.211341 0.725760
O O11 0.792141 0.479889 0.849840
O O12 0.646951 0.503608 0.749786
O O13 0.500000 0.930634 0.750000
O O14 0.624880 0.939583 0.527309
O O15 0.500000 0.000000 0.500000
O O16 0.585439 0.029784 0.731916
O O17 0.207796 0.401891 0.215475
O O18 0.500000 0.467784 0.250000
#
# Coordination Sequence:
#
# PCOD8247680 Si02
#       8
#     8   8   8   8   8   8   8   8
#     4  10  22  39  60  86 124 157 207 250 310 359
#     4  10  22  39  60  85 122 157 204 244 308 356
#     4  11  24  41  61  86 117 161 212 262 304 349
#     4  11  21  35  59  93 120 160 194 242 305 379
#     4   9  20  34  52  81 114 153 189 247 306 350
#     4  11  19  34  60  84 119 150 200 243 300 370
#     4  11  22  39  63  87 115 162 207 254 297 365
#     4  11  22  35  58  90 127 160 195 243 307 374
#
# _framework density 20.400176999999999
#
# number of rings (size 3 to 8) (size 9 to 14) (size 15 to 20)
#    0.000    1.500    2.500    3.750    0.000    5.500 
#    0.000    0.000    0.000    5.250    0.000    0.000 
#    0.000    0.000    0.000    0.000    0.000    0.000 
#
# Total GULP energy -793098.625932 kJ/mol
# GULP energy per Si atom -12392.166030 kJ/mol
# Density = 2.035375 g / cm^3
# Si number density = 20.400177 Si / 1000 Ang^3
#
#
#
# Elastic Constant Matrix: (Units=GPa)
#
#
# Indices 1 2 3 4 5 6 
#
# 1 116.5901 19.3450 37.7786 0.0000 0.0000 0.0000
# 2 19.3450 52.3131 17.1588 0.0000 0.0000 0.0000
# 3 37.7786 17.1588 97.6460 0.0000 0.0000 0.0000
# 4 0.0000 0.0000 0.0000 57.2455 0.0000 0.0000
# 5 0.0000 0.0000 0.0000 0.0000 27.7835 0.0000
# 6 0.0000 0.0000 0.0000 0.0000 0.0000 23.4149
#
#
#
# Elastic Compliance Matrix: (Units=1/GPa)
#
#
# Indices 1 2 3 4 5 6 
#
# 1 0.010132 -0.002611 -0.003461 0.000000 0.000000 0.000000
# 2 -0.002611 0.020958 -0.002672 0.000000 0.000000 0.000000
# 3 -0.003461 -0.002672 0.012050 0.000000 0.000000 0.000000
# 4 0.000000 0.000000 0.000000 0.017469 0.000000 0.000000
# 5 0.000000 0.000000 0.000000 0.000000 0.035993 0.000000
# 6 0.000000 0.000000 0.000000 0.000000 0.000000 0.042708
#
#
# Mechanical properties :
#
#
# Convention : Reuss Voigt Hill
#
# Bulk Modulus (GPa) = 38.98698 46.12379 42.55538
# Shear Modulus (GPa) = 30.23917 34.50656 32.37287
#
# Velocity S-wave (km/s) = 3.85424 4.11723 3.98790
# Velocity P-wave (km/s) = 6.24175 6.72760 6.48923
#
# Compressibility (1/GPa) = 0.02564959
#
# Stress axis : x y z
#
# Youngs Moduli (GPa) = 98.69883 47.71459 82.98925
#
# Poissons Ratio (x) = 0.12460 0.28723
# Poissons Ratio (y) = 0.25775 0.22179
# Poissons Ratio (z) = 0.34160 0.12752
#
# Static dielectric constant tensor:
#      x y z
#    x 4.105970 0.000000 0.000000 
#    y 0.000000 3.396720 0.000000 
#    z 0.000000 0.000000 4.574470 
# 
# 
# High freq. dielectric constant tensor:
#      x y z
#    x 1.805860 0.000000 0.000000 
#    y 0.000000 1.760340 0.000000 
#    z 0.000000 0.000000 1.821550 
# 
# From -- ./inp_files/7018.got.cif
#   From: 2010.03.12/outbox.cif.g09.slc.cpg/sg60_4_cif.got.tgz:7018.got - 2010.04.10 18:46:24.
