data_PCOD8247866
_publ_section_title
;
Structure prediction by ZEFSAII (Michael W. Deem and Ramdas Pophale) SiO2 
 PCOD8247866
Probable space group: P B C N
;
_chemical_formula_sum "Si O2"
_cell_formula_units_Z 40
_cell_length_a 16.241475
_cell_length_b 9.086588
_cell_length_c 11.617396
_cell_angle_alpha 90.000000
_cell_angle_beta 90.000000
_cell_angle_gamma 90.000000
_cell_volume 1714.490560
_symmetry_space_group_name_H-M "P B C N"
_symmetry_group_IT_number 60
_symmetry_cell_setting 'orthorhombic'
loop_
_space_group_symop_operation_xyz
x,y,z
1/2-x,1/2-y,1/2+z
1/2+x,1/2-y,-z
-x,y,1/2-z
-x,-y,-z
1/2+x,1/2+y,1/2-z
1/2-x,1/2+y,z
x,-y,1/2+z
loop_
_atom_site_type_symbol
_atom_site_label
_atom_site_fract_x
_atom_site_fract_y
_atom_site_fract_z
Si Si1 0.144672 0.560769 0.334684
Si Si2 0.146854 0.709046 0.570212
Si Si3 0.925996 0.214432 0.824884
Si Si4 0.723360 0.497092 0.825912
Si Si5 0.971805 0.650122 0.556749
O O1 0.137370 0.684934 0.433348
O O2 0.094385 0.624735 0.225905
O O3 0.241275 0.546345 0.300275
O O4 0.105434 0.398343 0.362632
O O5 0.197993 0.568779 0.612196
O O6 0.053107 0.714886 0.622525
O O7 0.194853 0.857729 0.599739
O O8 0.849663 0.108362 0.808294
O O9 0.000000 0.144265 0.750000
O O10 0.944520 0.231065 0.960616
O O11 0.000000 0.500000 0.500000
#
# Coordination Sequence:
#
# PCOD8247866 Si02
#       5
#     8   8   8   8   8
#     4  11  24  46  75 101 141 195 237 300 355 442
#     4  11  26  44  73 107 145 186 248 297 361 437
#     4  12  24  47  71 103 146 186 242 298 358 434
#     4  12  28  45  71 112 142 188 243 303 364 425
#     4  10  22  43  76 102 138 193 238 287 365 436
#
# _framework density 23.330545000000001
#
# number of rings (size 3 to 8) (size 9 to 14) (size 15 to 20)
#    0.000    0.800    6.000    2.400    2.800    0.800 
#    3.600    0.000    0.000    0.000    0.000    0.000 
#    0.000    0.000    0.000    0.000    0.000    0.000 
#
# Total GULP energy -495800.122932 kJ/mol
# GULP energy per Si atom -12395.003073 kJ/mol
# Density = 2.327744 g / cm^3
# Si number density = 23.330545 Si / 1000 Ang^3
#
#
#
# Elastic Constant Matrix: (Units=GPa)
#
#
# Indices 1 2 3 4 5 6 
#
# 1 189.8808 66.5240 64.3457 0.0000 0.0000 0.0000
# 2 66.5240 79.1502 44.1684 0.0000 0.0000 0.0000
# 3 64.3457 44.1684 69.9889 0.0000 0.0000 0.0000
# 4 0.0000 0.0000 0.0000 21.0302 0.0000 0.0000
# 5 0.0000 0.0000 0.0000 0.0000 45.9536 0.0000
# 6 0.0000 0.0000 0.0000 0.0000 0.0000 50.1695
#
#
#
# Elastic Compliance Matrix: (Units=1/GPa)
#
#
# Indices 1 2 3 4 5 6 
#
# 1 0.008502 -0.004297 -0.005104 0.000000 0.000000 0.000000
# 2 -0.004297 0.021674 -0.009727 0.000000 0.000000 0.000000
# 3 -0.005104 -0.009727 0.025120 0.000000 0.000000 0.000000
# 4 0.000000 0.000000 0.000000 0.047551 0.000000 0.000000
# 5 0.000000 0.000000 0.000000 0.000000 0.021761 0.000000
# 6 0.000000 0.000000 0.000000 0.000000 0.000000 0.019932
#
#
# Mechanical properties :
#
#
# Convention : Reuss Voigt Hill
#
# Bulk Modulus (GPa) = 58.69399 76.56624 67.63011
# Shear Modulus (GPa) = 26.52852 34.36277 30.44564
#
# Velocity S-wave (km/s) = 3.37571 3.84196 3.61635
# Velocity P-wave (km/s) = 6.35658 7.25052 6.81822
#
# Compressibility (1/GPa) = 0.01703752
#
# Stress axis : x y z
#
# Youngs Moduli (GPa) = 117.62404 46.13825 39.80955
#
# Poissons Ratio (x) = 0.19826 0.20320
# Poissons Ratio (y) = 0.50543 0.38724
# Poissons Ratio (z) = 0.60040 0.44881
#
# Static dielectric constant tensor:
#      x y z
#    x 5.002060 0.000000 0.000000 
#    y 0.000000 4.030850 0.000000 
#    z 0.000000 0.000000 4.573970 
# 
# 
# High freq. dielectric constant tensor:
#      x y z
#    x 1.948410 0.000000 0.000000 
#    y 0.000000 1.894480 0.000000 
#    z 0.000000 0.000000 1.914000 
# 
# From -- ./inp_files/12278.got.cif
#   From: 2010.03.12/outbox.cif.g09.slc.cpg/sg60_7_cif.got.tgz:12278.got - 2010.04.10 18:46:24.
