data_PCOD8247718
_publ_section_title
;
Structure prediction by ZEFSAII (Michael W. Deem and Ramdas Pophale) SiO2 
 PCOD8247718
Probable space group: P B C N
;
_chemical_formula_sum "Si O2"
_cell_formula_units_Z 40
_cell_length_a 22.121262
_cell_length_b 8.063542
_cell_length_c 9.451934
_cell_angle_alpha 90.000000
_cell_angle_beta 90.000000
_cell_angle_gamma 90.000000
_cell_volume 1685.995582
_symmetry_space_group_name_H-M "P B C N"
_symmetry_group_IT_number 60
_symmetry_cell_setting 'orthorhombic'
loop_
_space_group_symop_operation_xyz
x,y,z
1/2-x,1/2-y,1/2+z
1/2+x,1/2-y,-z
-x,y,1/2-z
-x,-y,-z
1/2+x,1/2+y,1/2-z
1/2-x,1/2+y,z
x,-y,1/2+z
loop_
_atom_site_type_symbol
_atom_site_label
_atom_site_fract_x
_atom_site_fract_y
_atom_site_fract_z
Si Si1 0.841814 0.003236 0.413359
Si Si2 0.833776 0.667983 0.066972
Si Si3 0.456960 0.977471 0.870298
Si Si4 0.624298 0.289193 0.667438
Si Si5 0.716136 0.052343 0.791062
O O1 0.816326 0.146395 0.518857
O O2 0.887328 0.076947 0.293966
O O3 0.875475 0.868980 0.510898
O O4 0.786363 0.920284 0.328139
O O5 0.904947 0.657547 0.101192
O O6 0.794135 0.617649 0.203649
O O7 0.821018 0.540454 0.938132
O O8 0.500000 0.905058 0.750000
O O9 0.427979 0.153000 0.824317
O O10 0.500000 0.000000 0.000000
O O11 0.689882 0.206009 0.698876
#
# Coordination Sequence:
#
# PCOD8247718 Si02
#       5
#     8   8   8   8   8
#     4  11  23  41  64  98 140 171 210 272 320 385
#     4  10  23  41  64  98 126 169 222 261 318 393
#     4  11  23  46  70  89 123 171 223 280 333 389
#     4  10  25  42  63  98 131 174 223 262 323 395
#     4  10  22  40  61  93 139 177 203 249 322 400
#
# _framework density 23.724853
#
# number of rings (size 3 to 8) (size 9 to 14) (size 15 to 20)
#    0.000    1.600    0.000    4.800    0.000   22.400 
#    0.000    5.000    0.000    0.000    0.000    0.000 
#    0.000    0.000    0.000    0.000    0.000    0.000 
#
# Total GULP energy -495966.735561 kJ/mol
# GULP energy per Si atom -12399.168389 kJ/mol
# Density = 2.367085 g / cm^3
# Si number density = 23.724853 Si / 1000 Ang^3
#
#
#
# Elastic Constant Matrix: (Units=GPa)
#
#
# Indices 1 2 3 4 5 6 
#
# 1 63.3753 10.5565 16.0634 0.0000 0.0000 0.0000
# 2 10.5565 63.3512 20.3644 0.0000 0.0000 0.0000
# 3 16.0634 20.3644 99.0819 0.0000 0.0000 0.0000
# 4 0.0000 0.0000 0.0000 45.7099 0.0000 0.0000
# 5 0.0000 0.0000 0.0000 0.0000 48.6230 0.0000
# 6 0.0000 0.0000 0.0000 0.0000 0.0000 21.6028
#
#
#
# Elastic Compliance Matrix: (Units=1/GPa)
#
#
# Indices 1 2 3 4 5 6 
#
# 1 0.016700 -0.002048 -0.002287 0.000000 0.000000 0.000000
# 2 -0.002048 0.017153 -0.003193 0.000000 0.000000 0.000000
# 3 -0.002287 -0.003193 0.011120 0.000000 0.000000 0.000000
# 4 0.000000 0.000000 0.000000 0.021877 0.000000 0.000000
# 5 0.000000 0.000000 0.000000 0.000000 0.020566 0.000000
# 6 0.000000 0.000000 0.000000 0.000000 0.000000 0.046290
#
#
# Mechanical properties :
#
#
# Convention : Reuss Voigt Hill
#
# Bulk Modulus (GPa) = 33.42608 35.53078 34.47843
# Shear Modulus (GPa) = 31.49933 35.10874 33.30404
#
# Velocity S-wave (km/s) = 3.64771 3.85103 3.75075
# Velocity P-wave (km/s) = 5.64452 5.89768 5.77249
#
# Compressibility (1/GPa) = 0.02991676
#
# Stress axis : x y z
#
# Youngs Moduli (GPa) = 59.88145 58.29960 89.93039
#
# Poissons Ratio (x) = 0.11938 0.20563
# Poissons Ratio (y) = 0.12262 0.28719
# Poissons Ratio (z) = 0.13692 0.18618
#
# Static dielectric constant tensor:
#      x y z
#    x 3.914600 0.000000 0.000000 
#    y 0.000000 5.009140 0.000000 
#    z 0.000000 0.000000 4.807470 
# 
# 
# High freq. dielectric constant tensor:
#      x y z
#    x 1.908290 0.000000 0.000000 
#    y 0.000000 1.929290 0.000000 
#    z 0.000000 0.000000 1.969960 
# 
# From -- ./inp_files/7762.got.cif
#   From: 2010.03.12/outbox.cif.g09.slc.cpg/sg60_4_cif.got.tgz:7762.got - 2010.04.10 18:46:24.
