data_PCOD8247097
_publ_section_title
;
Structure prediction by ZEFSAII (Michael W. Deem and Ramdas Pophale) SiO2 
 PCOD8247097
Probable space group: P B C N
;
_chemical_formula_sum "Si O2"
_cell_formula_units_Z 56
_cell_length_a 20.504981
_cell_length_b 9.357653
_cell_length_c 13.474523
_cell_angle_alpha 90.000000
_cell_angle_beta 90.000000
_cell_angle_gamma 90.000000
_cell_volume 2585.471221
_symmetry_space_group_name_H-M "P B C N"
_symmetry_group_IT_number 60
_symmetry_cell_setting 'orthorhombic'
loop_
_space_group_symop_operation_xyz
x,y,z
1/2-x,1/2-y,1/2+z
1/2+x,1/2-y,-z
-x,y,1/2-z
-x,-y,-z
1/2+x,1/2+y,1/2-z
1/2-x,1/2+y,z
x,-y,1/2+z
loop_
_atom_site_type_symbol
_atom_site_label
_atom_site_fract_x
_atom_site_fract_y
_atom_site_fract_z
Si Si1 0.928258 0.916817 0.244198
Si Si2 0.712828 0.233502 0.962628
Si Si3 0.906175 0.057443 0.437984
Si Si4 0.550813 0.355528 0.596393
Si Si5 0.571325 0.953487 0.030433
Si Si6 0.817983 0.438654 0.878361
Si Si7 0.153189 0.333330 0.840227
O O1 0.881282 0.817739 0.179851
O O2 0.000000 0.842660 0.250000
O O3 0.896621 0.940995 0.351013
O O4 0.938677 0.079296 0.205121
O O5 0.648447 0.322180 0.935300
O O6 0.777003 0.321871 0.938740
O O7 0.715108 0.092933 0.893622
O O8 0.711783 0.193190 0.080543
O O9 0.975873 0.136233 0.438005
O O10 0.901549 0.957968 0.533619
O O11 0.573132 0.193249 0.591555
O O12 0.600939 0.066863 0.106055
O O13 0.610475 0.939300 0.927074
O O14 0.500000 0.000000 0.000000
O O15 0.820390 0.404017 0.761053
#
# Coordination Sequence:
#
# PCOD8247097 Si02
#       7
#     8   8   8   8   8   8   8
#     4  10  22  37  67 104 131 179 230 277 346 422
#     4  11  26  49  68 100 139 184 236 295 347 430
#     4  10  21  40  69  97 138 170 236 288 337 419
#     4  10  20  39  69  98 131 179 224 280 357 410
#     4  11  26  44  68 105 146 182 228 298 364 427
#     4  11  28  45  71 101 139 186 243 290 364 427
#     4  11  25  47  70 103 139 187 230 299 356 426
#
# _framework density 21.659493999999999
#
# number of rings (size 3 to 8) (size 9 to 14) (size 15 to 20)
#    0.000    1.429    1.429    2.571   12.000    2.286 
#    2.571    0.000    0.000    0.000    0.000    0.000 
#    0.000    0.000    0.000    0.000    0.000    0.000 
#
# Total GULP energy -694349.805502 kJ/mol
# GULP energy per Si atom -12399.103670 kJ/mol
# Density = 2.161020 g / cm^3
# Si number density = 21.659494 Si / 1000 Ang^3
#
#
#
# Elastic Constant Matrix: (Units=GPa)
#
#
# Indices 1 2 3 4 5 6 
#
# 1 88.3253 42.5182 47.9488 0.0000 0.0000 0.0000
# 2 42.5182 118.8707 39.5442 0.0000 0.0000 0.0000
# 3 47.9488 39.5442 134.1590 0.0000 0.0000 0.0000
# 4 0.0000 0.0000 0.0000 27.9491 0.0000 0.0000
# 5 0.0000 0.0000 0.0000 0.0000 26.9937 0.0000
# 6 0.0000 0.0000 0.0000 0.0000 0.0000 30.7959
#
#
#
# Elastic Compliance Matrix: (Units=1/GPa)
#
#
# Indices 1 2 3 4 5 6 
#
# 1 0.015705 -0.004158 -0.004387 0.000000 0.000000 0.000000
# 2 -0.004158 0.010428 -0.001588 0.000000 0.000000 0.000000
# 3 -0.004387 -0.001588 0.009490 0.000000 0.000000 0.000000
# 4 0.000000 0.000000 0.000000 0.035779 0.000000 0.000000
# 5 0.000000 0.000000 0.000000 0.000000 0.037046 0.000000
# 6 0.000000 0.000000 0.000000 0.000000 0.000000 0.032472
#
#
# Mechanical properties :
#
#
# Convention : Reuss Voigt Hill
#
# Bulk Modulus (GPa) = 65.11750 66.81970 65.96860
# Shear Modulus (GPa) = 30.06527 31.23732 30.65130
#
# Velocity S-wave (km/s) = 3.72975 3.80175 3.76592
# Velocity P-wave (km/s) = 6.97692 7.08436 7.03085
#
# Compressibility (1/GPa) = 0.01535685
#
# Stress axis : x y z
#
# Youngs Moduli (GPa) = 63.67341 95.89680 105.37515
#
# Poissons Ratio (x) = 0.39873 0.46233
# Poissons Ratio (y) = 0.26475 0.16730
# Poissons Ratio (z) = 0.27937 0.15225
#
# Static dielectric constant tensor:
#      x y z
#    x 3.770790 0.000000 0.000000 
#    y 0.000000 4.073450 0.000000 
#    z 0.000000 0.000000 4.114040 
# 
# 
# High freq. dielectric constant tensor:
#      x y z
#    x 1.838110 0.000000 0.000000 
#    y 0.000000 1.863180 0.000000 
#    z 0.000000 0.000000 1.858930 
# 
# From -- ./inp_files/17733.got.cif
#   From: 2010.03.12/outbox.cif.g09.slc.cpg/sg60_9_cif.got.tgz:17733.got - 2010.04.10 18:46:24.
