data_PCOD8247740
_publ_section_title
;
Structure prediction by ZEFSAII (Michael W. Deem and Ramdas Pophale) SiO2 
 PCOD8247740
Probable space group: P B C N
;
_chemical_formula_sum "Si O2"
_cell_formula_units_Z 52
_cell_length_a 27.907725
_cell_length_b 8.704232
_cell_length_c 10.355573
_cell_angle_alpha 90.000000
_cell_angle_beta 90.000000
_cell_angle_gamma 90.000000
_cell_volume 2515.527257
_symmetry_space_group_name_H-M "P B C N"
_symmetry_group_IT_number 60
_symmetry_cell_setting 'orthorhombic'
loop_
_space_group_symop_operation_xyz
x,y,z
1/2-x,1/2-y,1/2+z
1/2+x,1/2-y,-z
-x,y,1/2-z
-x,-y,-z
1/2+x,1/2+y,1/2-z
1/2-x,1/2+y,z
x,-y,1/2+z
loop_
_atom_site_type_symbol
_atom_site_label
_atom_site_fract_x
_atom_site_fract_y
_atom_site_fract_z
Si Si1 0.961969 0.866719 0.981470
Si Si2 0.299861 0.914541 0.278312
Si Si3 0.500000 0.836473 0.250000
Si Si4 0.350340 0.940531 0.018011
Si Si5 0.645483 0.583577 0.498318
Si Si6 0.045951 0.445571 0.923674
Si Si7 0.195624 0.946913 0.759166
O O1 0.975178 0.771855 0.854166
O O2 0.910447 0.945786 0.968547
O O3 0.959240 0.739973 0.098367
O O4 0.000000 0.000000 0.000000
O O5 0.298294 0.733217 0.271555
O O6 0.320643 0.962402 0.415517
O O7 0.246117 0.971951 0.269992
O O8 0.332058 0.983570 0.161624
O O9 0.456309 0.949551 0.295258
O O10 0.341741 0.762223 0.988525
O O11 0.406194 0.983154 0.004280
O O12 0.674101 0.507832 0.379800
O O13 0.659338 0.501485 0.630508
O O14 0.000000 0.500000 0.000000
#
# Coordination Sequence:
#
# PCOD8247740 Si02
#       7
#     8   8   4   8   8   8   8
#     4  10  23  41  64  99 133 173 224 276 332 391
#     4  11  24  41  66  94 126 169 212 270 327 389
#     4  10  22  40  68  86 146 174 222 276 330 400
#     4  10  23  41  66  94 129 165 219 261 324 391
#     4  10  24  43  64  95 130 167 216 269 326 396
#     4   9  21  39  62  94 127 172 216 261 321 393
#     4  11  24  42  65  92 130 165 216 269 327 391
#
# _framework density 20.671609
#
# number of rings (size 3 to 8) (size 9 to 14) (size 15 to 20)
#    0.000    1.846    0.000    1.846   10.769    6.769 
#    2.769    0.000    0.000    0.000    0.000    0.000 
#    0.000    0.000    0.000    0.000    0.000    0.000 
#
# Total GULP energy -644650.884632 kJ/mol
# GULP energy per Si atom -12397.132397 kJ/mol
# Density = 2.062456 g / cm^3
# Si number density = 20.671609 Si / 1000 Ang^3
#
#
#
# Elastic Constant Matrix: (Units=GPa)
#
#
# Indices 1 2 3 4 5 6 
#
# 1 137.5902 43.6126 29.0653 0.0000 0.0000 0.0000
# 2 43.6126 78.1234 38.3932 0.0000 0.0000 0.0000
# 3 29.0653 38.3932 99.5120 0.0000 0.0000 0.0000
# 4 0.0000 0.0000 0.0000 41.6684 0.0000 0.0000
# 5 0.0000 0.0000 0.0000 0.0000 37.2620 0.0000
# 6 0.0000 0.0000 0.0000 0.0000 0.0000 33.9599
#
#
#
# Elastic Compliance Matrix: (Units=1/GPa)
#
#
# Indices 1 2 3 4 5 6 
#
# 1 0.008887 -0.004548 -0.000841 0.000000 0.000000 0.000000
# 2 -0.004548 0.018122 -0.005664 0.000000 0.000000 0.000000
# 3 -0.000841 -0.005664 0.012480 0.000000 0.000000 0.000000
# 4 0.000000 0.000000 0.000000 0.023999 0.000000 0.000000
# 5 0.000000 0.000000 0.000000 0.000000 0.026837 0.000000
# 6 0.000000 0.000000 0.000000 0.000000 0.000000 0.029446
#
#
# Mechanical properties :
#
#
# Convention : Reuss Voigt Hill
#
# Bulk Modulus (GPa) = 57.52330 59.70754 58.61542
# Shear Modulus (GPa) = 33.85883 36.18837 35.02360
#
# Velocity S-wave (km/s) = 4.05154 4.18859 4.12063
# Velocity P-wave (km/s) = 7.05508 7.23457 7.14539
#
# Compressibility (1/GPa) = 0.01738426
#
# Stress axis : x y z
#
# Youngs Moduli (GPa) = 112.52096 55.18004 80.12960
#
# Poissons Ratio (x) = 0.25096 0.06740
# Poissons Ratio (y) = 0.51174 0.45382
# Poissons Ratio (z) = 0.09464 0.31252
#
# Static dielectric constant tensor:
#      x y z
#    x 3.985070 0.000000 0.000000 
#    y 0.000000 3.673960 0.000000 
#    z 0.000000 0.000000 4.075270 
# 
# 
# High freq. dielectric constant tensor:
#      x y z
#    x 1.824290 0.000000 0.000000 
#    y 0.000000 1.811850 0.000000 
#    z 0.000000 0.000000 1.809080 
# 
# From -- ./inp_files/13251.got.cif
#   From: 2010.03.12/outbox.cif.g09.slc.cpg/sg60_7_cif.got.tgz:13251.got - 2010.04.10 18:46:24.
