data_PCOD8247562
_publ_section_title
;
Structure prediction by ZEFSAII (Michael W. Deem and Ramdas Pophale) SiO2 
 PCOD8247562
Probable space group: P B C N
;
_chemical_formula_sum "Si O2"
_cell_formula_units_Z 52
_cell_length_a 14.970376
_cell_length_b 18.282994
_cell_length_c 9.509444
_cell_angle_alpha 90.000000
_cell_angle_beta 90.000000
_cell_angle_gamma 90.000000
_cell_volume 2602.766152
_symmetry_space_group_name_H-M "P B C N"
_symmetry_group_IT_number 60
_symmetry_cell_setting 'orthorhombic'
loop_
_space_group_symop_operation_xyz
x,y,z
1/2-x,1/2-y,1/2+z
1/2+x,1/2-y,-z
-x,y,1/2-z
-x,-y,-z
1/2+x,1/2+y,1/2-z
1/2-x,1/2+y,z
x,-y,1/2+z
loop_
_atom_site_type_symbol
_atom_site_label
_atom_site_fract_x
_atom_site_fract_y
_atom_site_fract_z
Si Si1 0.711402 0.149472 0.412039
Si Si2 0.572382 0.543711 0.087333
Si Si3 0.237902 0.636163 0.779607
Si Si4 0.638192 0.234522 0.909626
Si Si5 0.100912 0.747479 0.282366
Si Si6 0.000000 0.828737 0.750000
Si Si7 0.683934 0.497397 0.838695
O O1 0.684096 0.135297 0.573031
O O2 0.774973 0.217743 0.427214
O O3 0.629377 0.178152 0.315620
O O4 0.762506 0.078723 0.350537
O O5 0.536990 0.625828 0.114343
O O6 0.593626 0.515736 0.246160
O O7 0.500000 0.500000 0.000000
O O8 0.660420 0.535651 0.988745
O O9 0.167211 0.659324 0.662194
O O10 0.330122 0.684063 0.775442
O O11 0.257039 0.552101 0.750615
O O12 0.576697 0.277300 0.803041
O O13 0.595507 0.216504 0.059518
O O14 0.000000 0.774646 0.250000
#
# Coordination Sequence:
#
# PCOD8247562 Si02
#       7
#     8   8   8   8   8   4   8
#     4  10  21  43  61  88 128 166 215 259 317 380
#     4  12  23  37  59  97 132 165 201 259 321 390
#     4  10  24  40  64  91 125 167 215 252 319 388
#     4  10  23  40  60  91 122 175 207 256 320 385
#     4  10  24  41  64  92 124 163 214 269 312 378
#     4  12  24  38  64  90 144 162 210 264 326 388
#     4  12  23  39  64  92 127 169 211 260 323 384
#
# _framework density 19.978745
#
# number of rings (size 3 to 8) (size 9 to 14) (size 15 to 20)
#    0.000    1.231    4.615    0.000    8.615    1.231 
#    0.000    0.000    1.692    1.846    0.000    0.000 
#    0.000    0.000    0.000    0.000    0.000    0.000 
#
# Total GULP energy -644363.691212 kJ/mol
# GULP energy per Si atom -12391.609446 kJ/mol
# Density = 1.993327 g / cm^3
# Si number density = 19.978745 Si / 1000 Ang^3
#
#
#
# Elastic Constant Matrix: (Units=GPa)
#
#
# Indices 1 2 3 4 5 6 
#
# 1 46.1390 16.5230 32.9151 0.0000 0.0000 0.0000
# 2 16.5230 73.4716 22.5300 0.0000 0.0000 0.0000
# 3 32.9151 22.5300 114.9976 0.0000 0.0000 0.0000
# 4 0.0000 0.0000 0.0000 29.5554 0.0000 0.0000
# 5 0.0000 0.0000 0.0000 0.0000 34.7001 0.0000
# 6 0.0000 0.0000 0.0000 0.0000 0.0000 26.5223
#
#
#
# Elastic Compliance Matrix: (Units=1/GPa)
#
#
# Indices 1 2 3 4 5 6 
#
# 1 0.028370 -0.004139 -0.007309 0.000000 0.000000 0.000000
# 2 -0.004139 0.015084 -0.001771 0.000000 0.000000 0.000000
# 3 -0.007309 -0.001771 0.011135 0.000000 0.000000 0.000000
# 4 0.000000 0.000000 0.000000 0.033835 0.000000 0.000000
# 5 0.000000 0.000000 0.000000 0.000000 0.028818 0.000000
# 6 0.000000 0.000000 0.000000 0.000000 0.000000 0.037704
#
#
# Mechanical properties :
#
#
# Convention : Reuss Voigt Hill
#
# Bulk Modulus (GPa) = 35.52162 42.06048 38.79105
# Shear Modulus (GPa) = 26.20980 28.99825 27.60403
#
# Velocity S-wave (km/s) = 3.62592 3.81393 3.72111
# Velocity P-wave (km/s) = 5.94542 6.36342 6.15797
#
# Compressibility (1/GPa) = 0.02815187
#
# Stress axis : x y z
#
# Youngs Moduli (GPa) = 35.24819 66.29344 89.80804
#
# Poissons Ratio (x) = 0.27437 0.65644
# Poissons Ratio (y) = 0.14588 0.15902
# Poissons Ratio (z) = 0.25764 0.11738
#
# Static dielectric constant tensor:
#      x y z
#    x 3.517120 0.000000 0.000000 
#    y 0.000000 3.526010 0.000000 
#    z 0.000000 0.000000 4.460350 
# 
# 
# High freq. dielectric constant tensor:
#      x y z
#    x 1.751570 0.000000 0.000000 
#    y 0.000000 1.762200 0.000000 
#    z 0.000000 0.000000 1.806340 
# 
# From -- ./inp_files/6880.got.cif
#   From: 2010.03.12/outbox.cif.g09.slc.cpg/sg60_4_cif.got.tgz:6880.got - 2010.04.10 18:46:24.
