data_PCOD8247143
_publ_section_title
;
Structure prediction by ZEFSAII (Michael W. Deem and Ramdas Pophale) SiO2 
 PCOD8247143
Probable space group: P B C N
;
_chemical_formula_sum "Si O2"
_cell_formula_units_Z 60
_cell_length_a 13.973464
_cell_length_b 8.749311
_cell_length_c 24.967345
_cell_angle_alpha 90.000000
_cell_angle_beta 90.000000
_cell_angle_gamma 90.000000
_cell_volume 3052.462216
_symmetry_space_group_name_H-M "P B C N"
_symmetry_group_IT_number 60
_symmetry_cell_setting 'orthorhombic'
loop_
_space_group_symop_operation_xyz
x,y,z
1/2-x,1/2-y,1/2+z
1/2+x,1/2-y,-z
-x,y,1/2-z
-x,-y,-z
1/2+x,1/2+y,1/2-z
1/2-x,1/2+y,z
x,-y,1/2+z
loop_
_atom_site_type_symbol
_atom_site_label
_atom_site_fract_x
_atom_site_fract_y
_atom_site_fract_z
Si Si1 0.793956 0.899260 0.736005
Si Si2 0.349999 0.687955 0.701834
Si Si3 0.896946 0.583311 0.559500
Si Si4 0.500000 0.099908 0.250000
Si Si5 0.726555 0.379894 0.984639
Si Si6 0.361276 0.897891 0.317087
Si Si7 0.358012 0.340057 0.077394
Si Si8 0.530780 0.228296 0.020650
O O1 0.736251 0.796460 0.778755
O O2 0.856887 0.776943 0.703646
O O3 0.856329 0.025707 0.767240
O O4 0.732120 0.998055 0.693525
O O5 0.443434 0.788085 0.710865
O O6 0.341277 0.644237 0.640160
O O7 0.789835 0.572032 0.535679
O O8 0.884931 0.620314 0.621170
O O9 0.956145 0.429217 0.551876
O O10 0.962314 0.714097 0.531698
O O11 0.444935 0.986946 0.288380
O O12 0.798454 0.304771 0.942449
O O13 0.686878 0.521661 0.953677
O O14 0.635688 0.284554 0.004881
O O15 0.471486 0.333383 0.062578
#
# Coordination Sequence:
#
# PCOD8247143 Si02
#       8
#     8   8   8   4   8   8   8   8
#     4   9  21  39  61  86 122 146 216 247 291 375
#     4  10  20  41  59  88 116 161 194 256 304 359
#     4  10  22  40  64  88 128 163 199 255 315 358
#     4  10  22  40  60  84 128 150 208 254 302 362
#     4  11  22  40  60  93 125 158 206 252 295 376
#     4  10  21  39  62  90 116 168 195 255 310 359
#     4  11  22  38  65  88 123 164 200 247 313 358
#     4  10  22  40  58  94 126 155 209 252 292 380
#
# _framework density 19.656262999999999
#
# number of rings (size 3 to 8) (size 9 to 14) (size 15 to 20)
#    0.000    1.867    1.333    2.000    1.867    0.533 
#   14.400    0.000    0.000    0.000    0.000    0.000 
#    0.000    0.000    0.000    0.000    0.000    0.000 
#
# Total GULP energy -743645.307123 kJ/mol
# GULP energy per Si atom -12394.088452 kJ/mol
# Density = 1.961152 g / cm^3
# Si number density = 19.656263 Si / 1000 Ang^3
#
#
#
# Elastic Constant Matrix: (Units=GPa)
#
#
# Indices 1 2 3 4 5 6 
#
# 1 100.2324 31.5870 34.7594 0.0000 0.0000 0.0000
# 2 31.5870 114.9072 42.7580 0.0000 0.0000 0.0000
# 3 34.7594 42.7580 121.9052 0.0000 0.0000 0.0000
# 4 0.0000 0.0000 0.0000 24.2727 0.0000 0.0000
# 5 0.0000 0.0000 0.0000 0.0000 -10.9004 0.0000
# 6 0.0000 0.0000 0.0000 0.0000 0.0000 16.1961
#
#
#
# Elastic Compliance Matrix: (Units=1/GPa)
#
#
# Indices 1 2 3 4 5 6 
#
# 1 0.011553 -0.002243 -0.002508 0.000000 0.000000 0.000000
# 2 -0.002243 0.010444 -0.003024 0.000000 0.000000 0.000000
# 3 -0.002508 -0.003024 0.009979 0.000000 0.000000 0.000000
# 4 0.000000 0.000000 0.000000 0.041199 0.000000 0.000000
# 5 0.000000 0.000000 0.000000 0.000000 -0.091739 0.000000
# 6 0.000000 0.000000 0.000000 0.000000 0.000000 0.061743
#
#
# Mechanical properties :
#
#
# Convention : Reuss Voigt Hill
#
# Bulk Modulus (GPa) = 60.87212 61.69484 61.28348
# Shear Modulus (GPa) = 77.87779 21.10970 49.49374
#
# Velocity S-wave (km/s) = 6.30126 3.28066 5.02337
# Velocity P-wave (km/s) = 9.16388 6.76796 8.05549
#
# Compressibility (1/GPa) = 0.01642788
#
# Stress axis : x y z
#
# Youngs Moduli (GPa) = 86.55620 95.74513 100.21343
#
# Poissons Ratio (x) = 0.21474 0.25129
# Poissons Ratio (y) = 0.19413 0.30303
# Poissons Ratio (z) = 0.21705 0.28952
#
# Static dielectric constant tensor:
#      x y z
#    x 3.862600 0.000000 0.000000 
#    y 0.000000 3.641910 0.000000 
#    z 0.000000 0.000000 3.359540 
# 
# 
# High freq. dielectric constant tensor:
#      x y z
#    x 1.768790 0.000000 0.000000 
#    y 0.000000 1.777110 0.000000 
#    z 0.000000 0.000000 1.764380 
# 
# From -- ./inp_files/24417.got.cif
#   From: 2010.03.12/outbox.cif.g09.slc.cpg/sg60_13_cif.got.tgz:24417.got - 2010.04.10 18:46:24.
