data_PCOD8247441
_publ_section_title
;
Structure prediction by ZEFSAII (Michael W. Deem and Ramdas Pophale) SiO2 
 PCOD8247441
Probable space group: P B C N
;
_chemical_formula_sum "Si O2"
_cell_formula_units_Z 20
_cell_length_a 7.410771
_cell_length_b 19.842448
_cell_length_c 5.395209
_cell_angle_alpha 90.000000
_cell_angle_beta 90.000000
_cell_angle_gamma 90.000000
_cell_volume 793.353820
_symmetry_space_group_name_H-M "P B C N"
_symmetry_group_IT_number 60
_symmetry_cell_setting 'orthorhombic'
loop_
_space_group_symop_operation_xyz
x,y,z
1/2-x,1/2-y,1/2+z
1/2+x,1/2-y,-z
-x,y,1/2-z
-x,-y,-z
1/2+x,1/2+y,1/2-z
1/2-x,1/2+y,z
x,-y,1/2+z
loop_
_atom_site_type_symbol
_atom_site_label
_atom_site_fract_x
_atom_site_fract_y
_atom_site_fract_z
Si Si1 0.000000 0.278060 0.250000
Si Si2 0.198612 0.972438 0.704828
Si Si3 0.644895 0.339739 0.059937
O O1 0.836186 0.326849 0.185730
O O2 0.940177 0.230823 0.475985
O O3 0.184517 0.891660 0.665079
O O4 0.000000 0.003985 0.750000
O O5 0.297166 0.008878 0.467172
O O6 0.500000 0.372543 0.250000
#
# Coordination Sequence:
#
# PCOD8247441 Si02
#       3
#     4   8   8
#     4  12  26  42  66 104 134 186 230 292 354 418
#     4  10  21  39  69 101 133 183 235 285 349 417
#     4  12  24  43  68  99 139 178 236 289 350 419
#
# _framework density 25.209434999999999
#
# number of rings (size 3 to 8) (size 9 to 14) (size 15 to 20)
#    0.000    0.800    6.000    3.600    0.000    0.000 
#    0.000    2.000    0.000    0.000    0.000    2.800 
#    0.000    0.000    0.000    0.000    0.000    0.000 
#
# Total GULP energy -247892.142081 kJ/mol
# GULP energy per Si atom -12394.607104 kJ/mol
# Density = 2.515206 g / cm^3
# Si number density = 25.209435 Si / 1000 Ang^3
#
#
#
# Elastic Constant Matrix: (Units=GPa)
#
#
# Indices 1 2 3 4 5 6 
#
# 1 126.4204 33.1051 37.5962 0.0000 0.0000 0.0000
# 2 33.1051 118.5897 47.3136 0.0000 0.0000 0.0000
# 3 37.5962 47.3136 172.8301 0.0000 0.0000 0.0000
# 4 0.0000 0.0000 0.0000 58.4943 0.0000 0.0000
# 5 0.0000 0.0000 0.0000 0.0000 23.9844 0.0000
# 6 0.0000 0.0000 0.0000 0.0000 0.0000 0.3678
#
#
#
# Elastic Compliance Matrix: (Units=1/GPa)
#
#
# Indices 1 2 3 4 5 6 
#
# 1 0.008825 -0.001906 -0.001398 0.000000 0.000000 0.000000
# 2 -0.001906 0.009878 -0.002290 0.000000 0.000000 0.000000
# 3 -0.001398 -0.002290 0.006717 0.000000 0.000000 0.000000
# 4 0.000000 0.000000 0.000000 0.017096 0.000000 0.000000
# 5 0.000000 0.000000 0.000000 0.000000 0.041694 0.000000
# 6 0.000000 0.000000 0.000000 0.000000 0.000000 2.718937
#
#
# Mechanical properties :
#
#
# Convention : Reuss Voigt Hill
#
# Bulk Modulus (GPa) = 70.25897 72.65223 71.45560
# Shear Modulus (GPa) = 1.77363 36.55764 19.16563
#
# Velocity S-wave (km/s) = 0.83969 3.81222 2.76027
# Velocity P-wave (km/s) = 5.37315 6.94690 6.21008
#
# Compressibility (1/GPa) = 0.01423306
#
# Stress axis : x y z
#
# Youngs Moduli (GPa) = 113.31541 101.23588 148.87751
#
# Poissons Ratio (x) = 0.19293 0.20813
# Poissons Ratio (y) = 0.21595 0.34087
# Poissons Ratio (z) = 0.15841 0.23179
#
# Static dielectric constant tensor:
#      x y z
#    x 4.134550 0.000000 0.000000 
#    y 0.000000 4.225010 0.000000 
#    z 0.000000 0.000000 5.061760 
# 
# 
# High freq. dielectric constant tensor:
#      x y z
#    x 1.966360 0.000000 0.000000 
#    y 0.000000 2.011110 0.000000 
#    z 0.000000 0.000000 2.017440 
# 
# From -- ./inp_files/158.got.cif
#   From: 2010.03.12/outbox.cif.g09.slc.cpg/sg60_1_cif.got.tgz:158.got - 2010.04.10 18:46:24.
