data_PCOD8247524
_publ_section_title
;
Structure prediction by ZEFSAII (Michael W. Deem and Ramdas Pophale) SiO2 
 PCOD8247524
Probable space group: P B C N
;
_chemical_formula_sum "Si O2"
_cell_formula_units_Z 60
_cell_length_a 11.430921
_cell_length_b 17.171283
_cell_length_c 13.574552
_cell_angle_alpha 90.000000
_cell_angle_beta 90.000000
_cell_angle_gamma 90.000000
_cell_volume 2664.461656
_symmetry_space_group_name_H-M "P B C N"
_symmetry_group_IT_number 60
_symmetry_cell_setting 'orthorhombic'
loop_
_space_group_symop_operation_xyz
x,y,z
1/2-x,1/2-y,1/2+z
1/2+x,1/2-y,-z
-x,y,1/2-z
-x,-y,-z
1/2+x,1/2+y,1/2-z
1/2-x,1/2+y,z
x,-y,1/2+z
loop_
_atom_site_type_symbol
_atom_site_label
_atom_site_fract_x
_atom_site_fract_y
_atom_site_fract_z
Si Si1 0.897301 0.502262 0.922676
Si Si2 0.000000 0.596121 0.250000
Si Si3 0.815930 0.997926 0.048450
Si Si4 0.458086 0.162237 0.644817
Si Si5 0.328014 0.682527 0.131644
Si Si6 0.270066 0.137323 0.334709
Si Si7 0.356769 0.753450 0.485422
Si Si8 0.495073 0.384444 0.480742
O O1 0.880594 0.594091 0.902806
O O2 0.923190 0.455883 0.823311
O O3 0.778954 0.467272 0.969368
O O4 0.000000 0.500000 0.000000
O O5 0.909456 0.648516 0.185452
O O6 0.751538 0.047585 0.132370
O O7 0.890631 0.921840 0.087994
O O8 0.904917 0.052099 0.989325
O O9 0.500000 0.130997 0.750000
O O10 0.371501 0.232740 0.661134
O O11 0.569328 0.185221 0.577961
O O12 0.297095 0.641855 0.232814
O O13 0.218564 0.693660 0.058298
O O14 0.433200 0.632002 0.086041
O O15 0.225887 0.200017 0.414905
O O16 0.445006 0.697739 0.550200
#
# Coordination Sequence:
#
# PCOD8247524 Si02
#       8
#     8   4   8   8   8   8   8   8
#     4  12  25  43  66  96 133 180 223 286 339 402
#     4  12  26  38  64 100 132 178 230 282 342 408
#     4  10  21  41  66  94 135 171 224 278 340 403
#     4  11  22  42  64  93 129 175 227 269 335 413
#     4  11  23  39  69  96 137 179 226 275 343 412
#     4  11  23  41  63  97 134 178 232 280 336 409
#     4  10  23  40  66  97 135 178 221 282 339 413
#     4   9  21  40  67  97 129 176 218 279 342 400
#
# _framework density 22.518619999999999
#
# number of rings (size 3 to 8) (size 9 to 14) (size 15 to 20)
#    0.000    1.333    3.333    2.400    3.733    1.067 
#    0.000    0.000    0.000    4.800    0.000    0.000 
#    0.000    0.000    0.000    0.000    0.000    0.000 
#
# Total GULP energy -743624.903606 kJ/mol
# GULP energy per Si atom -12393.748393 kJ/mol
# Density = 2.246737 g / cm^3
# Si number density = 22.518620 Si / 1000 Ang^3
#
#
#
# Elastic Constant Matrix: (Units=GPa)
#
#
# Indices 1 2 3 4 5 6 
#
# 1 114.1629 20.3205 19.8490 0.0000 0.0000 0.0000
# 2 20.3205 55.7046 13.8005 0.0000 0.0000 0.0000
# 3 19.8490 13.8005 78.7574 0.0000 0.0000 0.0000
# 4 0.0000 0.0000 0.0000 15.7446 0.0000 0.0000
# 5 0.0000 0.0000 0.0000 0.0000 27.9704 0.0000
# 6 0.0000 0.0000 0.0000 0.0000 0.0000 34.5954
#
#
#
# Elastic Compliance Matrix: (Units=1/GPa)
#
#
# Indices 1 2 3 4 5 6 
#
# 1 0.009630 -0.003044 -0.001894 0.000000 0.000000 0.000000
# 2 -0.003044 0.019729 -0.002690 0.000000 0.000000 0.000000
# 3 -0.001894 -0.002690 0.013646 0.000000 0.000000 0.000000
# 4 0.000000 0.000000 0.000000 0.063514 0.000000 0.000000
# 5 0.000000 0.000000 0.000000 0.000000 0.035752 0.000000
# 6 0.000000 0.000000 0.000000 0.000000 0.000000 0.028906
#
#
# Mechanical properties :
#
#
# Convention : Reuss Voigt Hill
#
# Bulk Modulus (GPa) = 36.03621 39.61831 37.82726
# Shear Modulus (GPa) = 25.55173 28.63908 27.09540
#
# Velocity S-wave (km/s) = 3.37218 3.57009 3.47254
# Velocity P-wave (km/s) = 5.58567 5.88437 5.73697
#
# Compressibility (1/GPa) = 0.02774987
#
# Stress axis : x y z
#
# Youngs Moduli (GPa) = 103.83695 50.68772 73.28248
#
# Poissons Ratio (x) = 0.15429 0.13878
# Poissons Ratio (y) = 0.31607 0.19712
# Poissons Ratio (z) = 0.19664 0.13634
#
# Static dielectric constant tensor:
#      x y z
#    x 4.615340 0.000000 0.000000 
#    y 0.000000 4.467470 0.000000 
#    z 0.000000 0.000000 3.901600 
# 
# 
# High freq. dielectric constant tensor:
#      x y z
#    x 1.907510 0.000000 0.000000 
#    y 0.000000 1.896770 0.000000 
#    z 0.000000 0.000000 1.857780 
# 
# From -- ./inp_files/16343.got.cif
#   From: 2010.03.12/outbox.cif.g09.slc.cpg/sg60_9_cif.got.tgz:16343.got - 2010.04.10 18:46:24.
