data_PCOD8247251
_publ_section_title
;
Structure prediction by ZEFSAII (Michael W. Deem and Ramdas Pophale) SiO2 
 PCOD8247251
Probable space group: P B C N
;
_chemical_formula_sum "Si O2"
_cell_formula_units_Z 52
_cell_length_a 14.823746
_cell_length_b 8.917858
_cell_length_c 18.912148
_cell_angle_alpha 90.000000
_cell_angle_beta 90.000000
_cell_angle_gamma 90.000000
_cell_volume 2500.111487
_symmetry_space_group_name_H-M "P B C N"
_symmetry_group_IT_number 60
_symmetry_cell_setting 'orthorhombic'
loop_
_space_group_symop_operation_xyz
x,y,z
1/2-x,1/2-y,1/2+z
1/2+x,1/2-y,-z
-x,y,1/2-z
-x,-y,-z
1/2+x,1/2+y,1/2-z
1/2-x,1/2+y,z
x,-y,1/2+z
loop_
_atom_site_type_symbol
_atom_site_label
_atom_site_fract_x
_atom_site_fract_y
_atom_site_fract_z
Si Si1 0.500000 0.706646 0.250000
Si Si2 0.922176 0.701271 0.548312
Si Si3 0.232051 0.333983 0.057296
Si Si4 0.936162 0.006917 0.128841
Si Si5 0.274599 0.412568 0.455959
Si Si6 0.581033 0.746306 0.888767
Si Si7 0.433612 0.061581 0.642276
O O1 0.435130 0.600885 0.297613
O O2 0.564933 0.818011 0.294291
O O3 0.820037 0.657299 0.569461
O O4 0.942366 0.685454 0.465613
O O5 0.982599 0.585468 0.590826
O O6 0.949083 0.872157 0.566865
O O7 0.314858 0.304487 0.110746
O O8 0.159256 0.424300 0.100416
O O9 0.188675 0.183452 0.023439
O O10 0.265018 0.421117 0.987107
O O11 0.843452 0.916671 0.111153
O O12 0.019360 0.893019 0.132808
O O13 0.564623 0.885703 0.834058
#
# Coordination Sequence:
#
# PCOD8247251 Si02
#       7
#     4   8   8   8   8   8   8
#     4  10  28  46  62  84 130 190 224 252 310 388
#     4  10  21  36  61 101 127 165 202 269 345 368
#     4  11  22  37  64 103 129 155 207 268 337 378
#     4  11  23  42  62  90 134 171 217 260 313 399
#     4  11  21  37  63 101 132 157 205 269 332 384
#     4  11  22  36  68  99 122 166 210 273 335 368
#     4  11  23  42  61  88 133 169 215 262 309 389
#
# _framework density 20.799071999999999
#
# number of rings (size 3 to 8) (size 9 to 14) (size 15 to 20)
#    0.000    1.231    6.154    1.846    6.462    0.615 
#    0.000    6.154    0.000    0.000    0.000    0.000 
#    0.000    0.000    0.000    0.000    0.000    0.000 
#
# Total GULP energy -644512.347493 kJ/mol
# GULP energy per Si atom -12394.468221 kJ/mol
# Density = 2.075173 g / cm^3
# Si number density = 20.799072 Si / 1000 Ang^3
#
#
#
# Elastic Constant Matrix: (Units=GPa)
#
#
# Indices 1 2 3 4 5 6 
#
# 1 86.9704 62.1025 30.3089 0.0000 0.0000 0.0000
# 2 62.1025 134.0681 28.3278 0.0000 0.0000 0.0000
# 3 30.3089 28.3278 67.1608 0.0000 0.0000 0.0000
# 4 0.0000 0.0000 0.0000 23.5110 0.0000 0.0000
# 5 0.0000 0.0000 0.0000 0.0000 14.9578 0.0000
# 6 0.0000 0.0000 0.0000 0.0000 0.0000 30.7700
#
#
#
# Elastic Compliance Matrix: (Units=1/GPa)
#
#
# Indices 1 2 3 4 5 6 
#
# 1 0.018735 -0.007566 -0.005264 0.000000 0.000000 0.000000
# 2 -0.007566 0.011244 -0.001328 0.000000 0.000000 0.000000
# 3 -0.005264 -0.001328 0.017825 0.000000 0.000000 0.000000
# 4 0.000000 0.000000 0.000000 0.042533 0.000000 0.000000
# 5 0.000000 0.000000 0.000000 0.000000 0.066855 0.000000
# 6 0.000000 0.000000 0.000000 0.000000 0.000000 0.032499
#
#
# Mechanical properties :
#
#
# Convention : Reuss Voigt Hill
#
# Bulk Modulus (GPa) = 51.31180 58.85310 55.08245
# Shear Modulus (GPa) = 22.27124 25.01178 23.64151
#
# Velocity S-wave (km/s) = 3.27583 3.47153 3.37510
# Velocity P-wave (km/s) = 6.24755 6.66530 6.45980
#
# Compressibility (1/GPa) = 0.01948870
#
# Stress axis : x y z
#
# Youngs Moduli (GPa) = 53.37492 88.93332 56.10010
#
# Poissons Ratio (x) = 0.67290 0.29529
# Poissons Ratio (y) = 0.40385 0.07451
# Poissons Ratio (z) = 0.28095 0.11812
#
# Static dielectric constant tensor:
#      x y z
#    x 3.749650 0.000000 0.000000 
#    y 0.000000 4.129670 0.000000 
#    z 0.000000 0.000000 3.487240 
# 
# 
# High freq. dielectric constant tensor:
#      x y z
#    x 1.810650 0.000000 0.000000 
#    y 0.000000 1.843400 0.000000 
#    z 0.000000 0.000000 1.769330 
# 
# From -- ./inp_files/22843.got.cif
#   From: 2010.03.12/outbox.cif.g09.slc.cpg/sg60_12_cif.got.tgz:22843.got - 2010.04.10 18:46:24.
