data_PCOD8247857
_publ_section_title
;
Structure prediction by ZEFSAII (Michael W. Deem and Ramdas Pophale) SiO2 
 PCOD8247857
Probable space group: P B C N
;
_chemical_formula_sum "Si O2"
_cell_formula_units_Z 24
_cell_length_a 15.698723
_cell_length_b 12.518515
_cell_length_c 5.228089
_cell_angle_alpha 90.000000
_cell_angle_beta 90.000000
_cell_angle_gamma 90.000000
_cell_volume 1027.448619
_symmetry_space_group_name_H-M "P B C N"
_symmetry_group_IT_number 60
_symmetry_cell_setting 'orthorhombic'
loop_
_space_group_symop_operation_xyz
x,y,z
1/2-x,1/2-y,1/2+z
1/2+x,1/2-y,-z
-x,y,1/2-z
-x,-y,-z
1/2+x,1/2+y,1/2-z
1/2-x,1/2+y,z
x,-y,1/2+z
loop_
_atom_site_type_symbol
_atom_site_label
_atom_site_fract_x
_atom_site_fract_y
_atom_site_fract_z
Si Si1 0.037434 0.879881 0.998790
Si Si2 0.100517 0.444081 0.270183
Si Si3 0.696380 0.739016 0.074237
O O1 0.000000 0.820720 0.250000
O O2 0.140885 0.868730 0.989484
O O3 0.000000 0.820784 0.750000
O O4 0.000000 0.000000 0.000000
O O5 0.137876 0.521627 0.493939
O O6 0.127617 0.325565 0.340368
O O7 0.000000 0.451979 0.250000
O O8 0.758532 0.721062 0.314348
#
# Coordination Sequence:
#
# PCOD8247857 Si02
#       3
#     8   8   8
#     4  10  22  44  68  96 131 190 237 275 343 436
#     4  10  22  43  68  93 128 182 231 274 340 430
#     4  12  25  43  66 106 144 176 229 306 356 405
#
# _framework density 23.358830999999999
#
# number of rings (size 3 to 8) (size 9 to 14) (size 15 to 20)
#    0.000    1.333    0.000    5.000    0.000    4.000 
#   36.000    0.000    0.000    0.000    0.000    0.000 
#    0.000    0.000    0.000    0.000    0.000    0.000 
#
# Total GULP energy -297334.730645 kJ/mol
# GULP energy per Si atom -12388.947110 kJ/mol
# Density = 2.330567 g / cm^3
# Si number density = 23.358831 Si / 1000 Ang^3
#
#
#
# Elastic Constant Matrix: (Units=GPa)
#
#
# Indices 1 2 3 4 5 6 
#
# 1 116.2198 41.8992 81.2305 0.0000 0.0000 0.0000
# 2 41.8992 79.6771 31.3445 0.0000 0.0000 0.0000
# 3 81.2305 31.3445 233.2608 0.0000 0.0000 0.0000
# 4 0.0000 0.0000 0.0000 24.2779 0.0000 0.0000
# 5 0.0000 0.0000 0.0000 0.0000 45.7097 0.0000
# 6 0.0000 0.0000 0.0000 0.0000 0.0000 37.7174
#
#
#
# Elastic Compliance Matrix: (Units=1/GPa)
#
#
# Indices 1 2 3 4 5 6 
#
# 1 0.013296 -0.005459 -0.003897 0.000000 0.000000 0.000000
# 2 -0.005459 0.015492 -0.000181 0.000000 0.000000 0.000000
# 3 -0.003897 -0.000181 0.005668 0.000000 0.000000 0.000000
# 4 0.000000 0.000000 0.000000 0.041190 0.000000 0.000000
# 5 0.000000 0.000000 0.000000 0.000000 0.021877 0.000000
# 6 0.000000 0.000000 0.000000 0.000000 0.000000 0.026513
#
#
# Mechanical properties :
#
#
# Convention : Reuss Voigt Hill
#
# Bulk Modulus (GPa) = 65.00268 82.01180 73.50724
# Shear Modulus (GPa) = 33.72976 39.85324 36.79150
#
# Velocity S-wave (km/s) = 3.80410 4.13502 3.97300
# Velocity P-wave (km/s) = 6.86900 7.61469 7.25144
#
# Compressibility (1/GPa) = 0.01538398
#
# Stress axis : x y z
#
# Youngs Moduli (GPa) = 75.21117 64.54775 176.41996
#
# Poissons Ratio (x) = 0.35236 0.68744
# Poissons Ratio (y) = 0.41057 0.03190
# Poissons Ratio (z) = 0.29307 0.01167
#
# Static dielectric constant tensor:
#      x y z
#    x 4.111330 0.000000 0.000000 
#    y 0.000000 3.813940 0.000000 
#    z 0.000000 0.000000 7.217270 
# 
# 
# High freq. dielectric constant tensor:
#      x y z
#    x 1.913680 0.000000 0.000000 
#    y 0.000000 1.896130 0.000000 
#    z 0.000000 0.000000 1.965070 
# 
# From -- ./inp_files/550.got.cif
#   From: 2010.03.12/outbox.cif.g09.slc.cpg/sg60_1_cif.got.tgz:550.got - 2010.04.10 18:46:24.
