data_PCOD8247465
_publ_section_title
;
Structure prediction by ZEFSAII (Michael W. Deem and Ramdas Pophale) SiO2 
 PCOD8247465
Probable space group: P B C N
;
_chemical_formula_sum "Si O2"
_cell_formula_units_Z 40
_cell_length_a 8.558064
_cell_length_b 24.039144
_cell_length_c 8.757309
_cell_angle_alpha 90.000000
_cell_angle_beta 90.000000
_cell_angle_gamma 90.000000
_cell_volume 1801.628332
_symmetry_space_group_name_H-M "P B C N"
_symmetry_group_IT_number 60
_symmetry_cell_setting 'orthorhombic'
loop_
_space_group_symop_operation_xyz
x,y,z
1/2-x,1/2-y,1/2+z
1/2+x,1/2-y,-z
-x,y,1/2-z
-x,-y,-z
1/2+x,1/2+y,1/2-z
1/2-x,1/2+y,z
x,-y,1/2+z
loop_
_atom_site_type_symbol
_atom_site_label
_atom_site_fract_x
_atom_site_fract_y
_atom_site_fract_z
Si Si1 0.486830 0.744503 0.925732
Si Si2 0.303071 0.950796 0.923550
Si Si3 0.146895 0.137149 0.640735
Si Si4 0.330861 0.936709 0.576832
Si Si5 0.306848 0.824880 0.422234
O O1 0.500000 0.764679 0.750000
O O2 0.599963 0.691599 0.955297
O O3 0.526452 0.796789 0.036062
O O4 0.312795 0.724637 0.962800
O O5 0.265166 0.946512 0.745681
O O6 0.483083 0.934959 0.945611
O O7 0.193718 0.911155 0.024734
O O8 0.265420 0.013922 0.971407
O O9 0.000000 0.119926 0.750000
O O10 0.295270 0.153806 0.747803
O O11 0.264793 0.877495 0.527136
#
# Coordination Sequence:
#
# PCOD8247465 Si02
#       5
#     8   8   8   8   8
#     4   9  22  40  59  90 128 162 210 255 302 368
#     4  10  21  40  63  93 126 160 204 264 316 374
#     4   9  21  42  62  87 127 166 208 260 311 380
#     4  10  22  37  65  92 123 160 210 259 312 383
#     4  10  21  40  63  91 125 167 208 254 312 365
#
# _framework density 22.202138999999999
#
# number of rings (size 3 to 8) (size 9 to 14) (size 15 to 20)
#    0.000    2.800    0.000    1.200    5.600    4.000 
#    3.600   21.000    0.000    0.000    0.000    0.000 
#    0.000    0.000    0.000    0.000    0.000    0.000 
#
# Total GULP energy -495789.128017 kJ/mol
# GULP energy per Si atom -12394.728200 kJ/mol
# Density = 2.215161 g / cm^3
# Si number density = 22.202139 Si / 1000 Ang^3
#
#
#
# Elastic Constant Matrix: (Units=GPa)
#
#
# Indices 1 2 3 4 5 6 
#
# 1 27.5797 27.0098 30.2312 0.0000 0.0000 0.0000
# 2 27.0098 114.9016 53.2092 0.0000 0.0000 0.0000
# 3 30.2312 53.2092 87.8968 0.0000 0.0000 0.0000
# 4 0.0000 0.0000 0.0000 32.8953 0.0000 0.0000
# 5 0.0000 0.0000 0.0000 0.0000 37.5120 0.0000
# 6 0.0000 0.0000 0.0000 0.0000 0.0000 30.5875
#
#
#
# Elastic Compliance Matrix: (Units=1/GPa)
#
#
# Indices 1 2 3 4 5 6 
#
# 1 0.061483 -0.006475 -0.017226 0.000000 0.000000 0.000000
# 2 -0.006475 0.012775 -0.005506 0.000000 0.000000 0.000000
# 3 -0.017226 -0.005506 0.020635 0.000000 0.000000 0.000000
# 4 0.000000 0.000000 0.000000 0.030399 0.000000 0.000000
# 5 0.000000 0.000000 0.000000 0.000000 0.026658 0.000000
# 6 0.000000 0.000000 0.000000 0.000000 0.000000 0.032693
#
#
# Mechanical properties :
#
#
# Convention : Reuss Voigt Hill
#
# Bulk Modulus (GPa) = 27.41479 50.14206 38.77842
# Shear Modulus (GPa) = 19.59097 28.19413 23.89255
#
# Velocity S-wave (km/s) = 2.97373 3.56741 3.28401
# Velocity P-wave (km/s) = 4.91583 6.29300 5.64656
#
# Compressibility (1/GPa) = 0.03647666
#
# Stress axis : x y z
#
# Youngs Moduli (GPa) = 16.26471 78.27649 48.46074
#
# Poissons Ratio (x) = 0.50687 0.83481
# Poissons Ratio (y) = 0.10532 0.26685
# Poissons Ratio (z) = 0.28018 0.43103
#
# Static dielectric constant tensor:
#      x y z
#    x 3.791000 0.000000 0.000000 
#    y 0.000000 3.961900 0.000000 
#    z 0.000000 0.000000 3.860230 
# 
# 
# High freq. dielectric constant tensor:
#      x y z
#    x 1.857330 0.000000 0.000000 
#    y 0.000000 1.883510 0.000000 
#    z 0.000000 0.000000 1.866040 
# 
# From -- ./inp_files/3842.got.cif
#   From: 2010.03.12/outbox.cif.g09.slc.cpg/sg60_2_cif.got.tgz:3842.got - 2010.04.10 18:46:24.
