data_PCOD8247022
_publ_section_title
;
Structure prediction by ZEFSAII (Michael W. Deem and Ramdas Pophale) SiO2 
 PCOD8247022
Probable space group: P B C N
;
_chemical_formula_sum "Si O2"
_cell_formula_units_Z 48
_cell_length_a 9.955544
_cell_length_b 10.634967
_cell_length_c 21.738275
_cell_angle_alpha 90.000000
_cell_angle_beta 90.000000
_cell_angle_gamma 90.000000
_cell_volume 2301.580775
_symmetry_space_group_name_H-M "P B C N"
_symmetry_group_IT_number 60
_symmetry_cell_setting 'orthorhombic'
loop_
_space_group_symop_operation_xyz
x,y,z
1/2-x,1/2-y,1/2+z
1/2+x,1/2-y,-z
-x,y,1/2-z
-x,-y,-z
1/2+x,1/2+y,1/2-z
1/2-x,1/2+y,z
x,-y,1/2+z
loop_
_atom_site_type_symbol
_atom_site_label
_atom_site_fract_x
_atom_site_fract_y
_atom_site_fract_z
Si Si1 0.878696 0.155508 0.173976
Si Si2 0.192278 0.843439 0.693546
Si Si3 0.284859 0.905149 0.122793
Si Si4 0.921552 0.356089 0.073842
Si Si5 0.933055 0.160008 0.976398
Si Si6 0.343219 0.474493 0.423703
O O1 0.779617 0.163053 0.233104
O O2 0.848823 0.265597 0.124385
O O3 0.033969 0.159150 0.189192
O O4 0.851300 0.017364 0.146748
O O5 0.249431 0.715128 0.664928
O O6 0.255105 0.965546 0.659616
O O7 0.438918 0.909080 0.100101
O O8 0.193190 0.884713 0.063499
O O9 0.814241 0.466024 0.060602
O O10 0.934342 0.299080 0.005086
O O11 0.071963 0.152644 0.937239
O O12 0.928954 0.074931 0.037296
#
# Coordination Sequence:
#
# PCOD8247022 Si02
#       6
#     8   8   8   8   8   8
#     4   9  20  41  62  82 122 174 207 243 320 379
#     4  10  22  41  65  88 123 170 207 257 306 379
#     4  11  23  41  64  94 125 164 209 258 318 366
#     4  10  22  37  62  93 124 159 207 269 310 361
#     4  10  21  38  62  88 125 167 207 251 315 382
#     4  10  20  38  62  85 121 166 211 247 312 381
#
# _framework density 20.855231
#
# number of rings (size 3 to 8) (size 9 to 14) (size 15 to 20)
#    0.000    2.000    1.667    1.000    7.000    0.667 
#    6.000    0.000    0.000    0.000    0.000    0.000 
#    0.000    0.000    0.000    0.000    0.000    0.000 
#
# Total GULP energy -594627.681349 kJ/mol
# GULP energy per Si atom -12388.076695 kJ/mol
# Density = 2.080776 g / cm^3
# Si number density = 20.855231 Si / 1000 Ang^3
#
#
#
# Elastic Constant Matrix: (Units=GPa)
#
#
# Indices 1 2 3 4 5 6 
#
# 1 73.7478 8.1642 22.6573 0.0000 0.0000 0.0000
# 2 8.1642 66.3590 12.8312 0.0000 0.0000 0.0000
# 3 22.6573 12.8312 75.3074 0.0000 0.0000 0.0000
# 4 0.0000 0.0000 0.0000 12.7532 0.0000 0.0000
# 5 0.0000 0.0000 0.0000 0.0000 16.2726 0.0000
# 6 0.0000 0.0000 0.0000 0.0000 0.0000 28.2164
#
#
#
# Elastic Compliance Matrix: (Units=1/GPa)
#
#
# Indices 1 2 3 4 5 6 
#
# 1 0.015005 -0.001006 -0.004343 0.000000 0.000000 0.000000
# 2 -0.001006 0.015650 -0.002364 0.000000 0.000000 0.000000
# 3 -0.004343 -0.002364 0.014988 0.000000 0.000000 0.000000
# 4 0.000000 0.000000 0.000000 0.078412 0.000000 0.000000
# 5 0.000000 0.000000 0.000000 0.000000 0.061453 0.000000
# 6 0.000000 0.000000 0.000000 0.000000 0.000000 0.035440
#
#
# Mechanical properties :
#
#
# Convention : Reuss Voigt Hill
#
# Bulk Modulus (GPa) = 33.09322 33.63549 33.36436
# Shear Modulus (GPa) = 20.28822 22.89920 21.59371
#
# Velocity S-wave (km/s) = 3.12238 3.31721 3.22127
# Velocity P-wave (km/s) = 5.37601 5.55293 5.46518
#
# Compressibility (1/GPa) = 0.03021767
#
# Stress axis : x y z
#
# Youngs Moduli (GPa) = 66.64234 63.89599 66.71838
#
# Poissons Ratio (x) = 0.06430 0.28977
# Poissons Ratio (y) = 0.06706 0.15771
# Poissons Ratio (z) = 0.28944 0.15104
#
# Static dielectric constant tensor:
#      x y z
#    x 3.615670 0.000000 0.000000 
#    y 0.000000 3.786220 0.000000 
#    z 0.000000 0.000000 4.344700 
# 
# 
# High freq. dielectric constant tensor:
#      x y z
#    x 1.806770 0.000000 0.000000 
#    y 0.000000 1.804920 0.000000 
#    z 0.000000 0.000000 1.827450 
# 
# From -- ./inp_files/23924.got.cif
#   From: 2010.03.12/outbox.cif.g09.slc.cpg/sg60_12_cif.got.tgz:23924.got - 2010.04.10 18:46:24.
