data_PCOD8247314
_publ_section_title
;
Structure prediction by ZEFSAII (Michael W. Deem and Ramdas Pophale) SiO2 
 PCOD8247314
Probable space group: P B C N
;
_chemical_formula_sum "Si O2"
_cell_formula_units_Z 60
_cell_length_a 5.234293
_cell_length_b 29.317893
_cell_length_c 19.555019
_cell_angle_alpha 90.000000
_cell_angle_beta 90.000000
_cell_angle_gamma 90.000000
_cell_volume 3000.882751
_symmetry_space_group_name_H-M "P B C N"
_symmetry_group_IT_number 60
_symmetry_cell_setting 'orthorhombic'
loop_
_space_group_symop_operation_xyz
x,y,z
1/2-x,1/2-y,1/2+z
1/2+x,1/2-y,-z
-x,y,1/2-z
-x,-y,-z
1/2+x,1/2+y,1/2-z
1/2-x,1/2+y,z
x,-y,1/2+z
loop_
_atom_site_type_symbol
_atom_site_label
_atom_site_fract_x
_atom_site_fract_y
_atom_site_fract_z
Si Si1 0.255907 0.837518 0.294222
Si Si2 0.336256 0.562283 0.818530
Si Si3 0.739081 0.210490 0.567118
Si Si4 0.736308 0.690441 0.013034
Si Si5 0.276429 0.593398 0.431462
Si Si6 0.794951 0.448887 0.872693
Si Si7 0.500000 0.992122 0.750000
Si Si8 0.846803 0.030934 0.948347
O O1 0.500000 0.825561 0.250000
O O2 0.291092 0.888030 0.326513
O O3 0.258152 0.800072 0.353187
O O4 0.000000 0.833246 0.250000
O O5 0.500000 0.562406 0.750000
O O6 0.488500 0.552598 0.887456
O O7 0.127583 0.522974 0.808878
O O8 0.498703 0.187259 0.529431
O O9 0.730049 0.264951 0.560282
O O10 0.999114 0.189878 0.538018
O O11 0.701406 0.647538 0.062712
O O12 0.524607 0.573096 0.393370
O O13 0.227715 0.572158 0.507436
O O14 0.027416 0.585109 0.385944
O O15 0.795606 0.460981 0.791531
O O16 0.854138 0.495863 0.914684
O O17 0.000000 0.000000 0.000000
#
# Coordination Sequence:
#
# PCOD8247314 Si02
#       8
#     8   8   8   8   8   8   4   8
#     4  11  23  39  59  94 129 162 198 245 313 383
#     4  11  22  38  56  87 123 160 204 247 309 379
#     4  10  21  39  65  95 122 158 198 250 315 379
#     4  10  21  39  66  93 120 159 201 256 314 365
#     4  11  23  40  60  90 122 155 204 264 305 361
#     4  11  24  38  59  84 119 165 205 254 304 357
#     4  12  22  38  60  78 118 166 212 246 294 368
#     4  10  21  38  57  86 119 158 205 255 310 350
#
# _framework density 19.994118
#
# number of rings (size 3 to 8) (size 9 to 14) (size 15 to 20)
#    0.000    1.333    2.000    4.400    0.000    4.267 
#    0.000    0.000    4.400    0.000    0.000    0.000 
#    0.000    0.000    0.000    0.000    0.000    0.000 
#
# Total GULP energy -743883.509725 kJ/mol
# GULP energy per Si atom -12398.058495 kJ/mol
# Density = 1.994861 g / cm^3
# Si number density = 19.994118 Si / 1000 Ang^3
#
#
#
# Elastic Constant Matrix: (Units=GPa)
#
#
# Indices 1 2 3 4 5 6 
#
# 1 78.7992 30.6095 25.0866 0.0000 0.0000 0.0000
# 2 30.6095 101.0836 48.0824 0.0000 0.0000 0.0000
# 3 25.0866 48.0824 107.9961 0.0000 0.0000 0.0000
# 4 0.0000 0.0000 0.0000 24.1106 0.0000 0.0000
# 5 0.0000 0.0000 0.0000 0.0000 30.0646 0.0000
# 6 0.0000 0.0000 0.0000 0.0000 0.0000 4.4093
#
#
#
# Elastic Compliance Matrix: (Units=1/GPa)
#
#
# Indices 1 2 3 4 5 6 
#
# 1 0.014657 -0.003576 -0.001812 0.000000 0.000000 0.000000
# 2 -0.003576 0.013423 -0.005146 0.000000 0.000000 0.000000
# 3 -0.001812 -0.005146 0.011972 0.000000 0.000000 0.000000
# 4 0.000000 0.000000 0.000000 0.041476 0.000000 0.000000
# 5 0.000000 0.000000 0.000000 0.000000 0.033262 0.000000
# 6 0.000000 0.000000 0.000000 0.000000 0.000000 0.226795
#
#
# Mechanical properties :
#
#
# Convention : Reuss Voigt Hill
#
# Bulk Modulus (GPa) = 52.67848 55.04844 53.86346
# Shear Modulus (GPa) = 13.55087 23.99023 18.77055
#
# Velocity S-wave (km/s) = 2.60617 3.46766 3.06731
# Velocity P-wave (km/s) = 5.95486 6.60492 6.28830
#
# Compressibility (1/GPa) = 0.01898308
#
# Stress axis : x y z
#
# Youngs Moduli (GPa) = 68.22843 74.49704 83.53109
#
# Poissons Ratio (x) = 0.26641 0.15140
# Poissons Ratio (y) = 0.24399 0.42983
# Poissons Ratio (z) = 0.12366 0.38334
#
# Static dielectric constant tensor:
#      x y z
#    x 3.758800 0.000000 0.000000 
#    y 0.000000 3.773890 0.000000 
#    z 0.000000 0.000000 3.713870 
# 
# 
# High freq. dielectric constant tensor:
#      x y z
#    x 1.787880 0.000000 0.000000 
#    y 0.000000 1.773350 0.000000 
#    z 0.000000 0.000000 1.780730 
# 
# From -- ./inp_files/18812.got.cif
#   From: 2010.03.12/outbox.cif.g09.slc.cpg/sg60_10_cif.got.tgz:18812.got - 2010.04.10 18:46:24.
