data_PCOD8247432
_publ_section_title
;
Structure prediction by ZEFSAII (Michael W. Deem and Ramdas Pophale) SiO2 
 PCOD8247432
Probable space group: P B C N
;
_chemical_formula_sum "Si O2"
_cell_formula_units_Z 64
_cell_length_a 13.829282
_cell_length_b 22.835762
_cell_length_c 9.229231
_cell_angle_alpha 90.000000
_cell_angle_beta 90.000000
_cell_angle_gamma 90.000000
_cell_volume 2914.611384
_symmetry_space_group_name_H-M "P B C N"
_symmetry_group_IT_number 60
_symmetry_cell_setting 'orthorhombic'
loop_
_space_group_symop_operation_xyz
x,y,z
1/2-x,1/2-y,1/2+z
1/2+x,1/2-y,-z
-x,y,1/2-z
-x,-y,-z
1/2+x,1/2+y,1/2-z
1/2-x,1/2+y,z
x,-y,1/2+z
loop_
_atom_site_type_symbol
_atom_site_label
_atom_site_fract_x
_atom_site_fract_y
_atom_site_fract_z
Si Si1 0.356415 0.241303 0.051884
Si Si2 0.456321 0.281058 0.592280
Si Si3 0.153240 0.983969 0.986630
Si Si4 0.478352 0.587523 0.081456
Si Si5 0.596977 0.097479 0.672912
Si Si6 0.595813 0.881179 0.846280
Si Si7 0.296182 0.789021 0.240058
Si Si8 0.714254 0.008234 0.270555
O O1 0.347493 0.179979 0.137020
O O2 0.310335 0.287767 0.166057
O O3 0.470417 0.252025 0.023150
O O4 0.301869 0.243912 0.895520
O O5 0.500000 0.282813 0.750000
O O6 0.440430 0.347814 0.539993
O O7 0.359482 0.242720 0.612273
O O8 0.187985 0.988429 0.822076
O O9 0.077777 0.930070 0.003339
O O10 0.106059 0.045288 0.030608
O O11 0.251057 0.977771 0.080307
O O12 0.500000 0.580125 0.250000
O O13 0.500000 0.116413 0.750000
O O14 0.568181 0.097874 0.505810
O O15 0.676634 0.144005 0.726684
O O16 0.630263 0.032169 0.706603
O O17 0.500000 0.875750 0.750000
O O18 0.671626 0.926766 0.779835
#
# Coordination Sequence:
#
# PCOD8247432 Si02
#       8
#     8   8   8   8   8   8   8   8
#     4  10  23  42  66  98 128 169 215 264 322 385
#     4   9  20  40  66  95 128 171 213 262 324 384
#     4  11  24  41  63  99 130 173 216 268 317 389
#     4  10  21  39  66  94 138 171 211 266 329 378
#     4  11  25  44  65  95 132 166 213 272 324 382
#     4  11  26  45  66  94 133 169 212 271 324 386
#     4  10  22  41  66  93 131 169 213 266 321 380
#     4  12  25  42  66  94 128 169 223 263 323 383
#
# _framework density 21.95833
#
# number of rings (size 3 to 8) (size 9 to 14) (size 15 to 20)
#    0.000    1.500    2.500    2.250    5.250    4.000 
#    0.000    0.000    2.750    0.000    0.000    0.000 
#    0.000    0.000    0.000    0.000    0.000    0.000 
#
# Total GULP energy -793350.321410 kJ/mol
# GULP energy per Si atom -12396.098772 kJ/mol
# Density = 2.190835 g / cm^3
# Si number density = 21.958330 Si / 1000 Ang^3
#
#
#
# Elastic Constant Matrix: (Units=GPa)
#
#
# Indices 1 2 3 4 5 6 
#
# 1 71.4581 26.0335 49.2815 0.0000 0.0000 0.0000
# 2 26.0335 113.7939 45.6327 0.0000 0.0000 0.0000
# 3 49.2815 45.6327 95.5534 0.0000 0.0000 0.0000
# 4 0.0000 0.0000 0.0000 34.1446 0.0000 0.0000
# 5 0.0000 0.0000 0.0000 0.0000 50.3362 0.0000
# 6 0.0000 0.0000 0.0000 0.0000 0.0000 15.8826
#
#
#
# Elastic Compliance Matrix: (Units=1/GPa)
#
#
# Indices 1 2 3 4 5 6 
#
# 1 0.021752 -0.000591 -0.010936 0.000000 0.000000 0.000000
# 2 -0.000591 0.010885 -0.004894 0.000000 0.000000 0.000000
# 3 -0.010936 -0.004894 0.018443 0.000000 0.000000 0.000000
# 4 0.000000 0.000000 0.000000 0.029287 0.000000 0.000000
# 5 0.000000 0.000000 0.000000 0.000000 0.019866 0.000000
# 6 0.000000 0.000000 0.000000 0.000000 0.000000 0.062962
#
#
# Mechanical properties :
#
#
# Convention : Reuss Voigt Hill
#
# Bulk Modulus (GPa) = 54.82962 58.07786 56.45374
# Shear Modulus (GPa) = 24.73819 30.72986 27.73403
#
# Velocity S-wave (km/s) = 3.36012 3.74500 3.55777
# Velocity P-wave (km/s) = 6.33072 6.72358 6.53010
#
# Compressibility (1/GPa) = 0.01823832
#
# Stress axis : x y z
#
# Youngs Moduli (GPa) = 45.97345 91.86580 54.22159
#
# Poissons Ratio (x) = 0.05427 0.59298
# Poissons Ratio (y) = 0.02716 0.26535
# Poissons Ratio (z) = 0.50278 0.44958
#
# Static dielectric constant tensor:
#      x y z
#    x 3.887450 0.000000 0.000000 
#    y 0.000000 3.982270 0.000000 
#    z 0.000000 0.000000 4.057860 
# 
# 
# High freq. dielectric constant tensor:
#      x y z
#    x 1.859910 0.000000 0.000000 
#    y 0.000000 1.860510 0.000000 
#    z 0.000000 0.000000 1.864960 
# 
# From -- ./inp_files/6299.got.cif
#   From: 2010.03.12/outbox.cif.g09.slc.cpg/sg60_4_cif.got.tgz:6299.got - 2010.04.10 18:46:24.
