data_PCOD8247463
_publ_section_title
;
Structure prediction by ZEFSAII (Michael W. Deem and Ramdas Pophale) SiO2 
 PCOD8247463
Probable space group: P B C N
;
_chemical_formula_sum "Si O2"
_cell_formula_units_Z 32
_cell_length_a 22.799724
_cell_length_b 12.336697
_cell_length_c 4.795063
_cell_angle_alpha 90.000000
_cell_angle_beta 90.000000
_cell_angle_gamma 90.000000
_cell_volume 1348.723130
_symmetry_space_group_name_H-M "P B C N"
_symmetry_group_IT_number 60
_symmetry_cell_setting 'orthorhombic'
loop_
_space_group_symop_operation_xyz
x,y,z
1/2-x,1/2-y,1/2+z
1/2+x,1/2-y,-z
-x,y,1/2-z
-x,-y,-z
1/2+x,1/2+y,1/2-z
1/2-x,1/2+y,z
x,-y,1/2+z
loop_
_atom_site_type_symbol
_atom_site_label
_atom_site_fract_x
_atom_site_fract_y
_atom_site_fract_z
Si Si1 0.385696 0.574571 0.231564
Si Si2 0.242489 0.072688 0.294171
Si Si3 0.862299 0.422884 0.894072
Si Si4 0.038352 0.739930 0.992193
O O1 0.393338 0.465091 0.414723
O O2 0.320568 0.629801 0.248670
O O3 0.433171 0.661495 0.321784
O O4 0.300332 0.138809 0.186831
O O5 0.245752 0.040693 0.618462
O O6 0.866672 0.530125 0.704014
O O7 0.914836 0.338565 0.861097
O O8 0.000000 0.679688 0.750000
O O9 0.000000 0.784222 0.250000
#
# Coordination Sequence:
#
# PCOD8247463 Si02
#       4
#     8   8   8   8
#     4  10  21  40  63  87 119 156 197 254 307 351
#     4   8  16  34  60  86 110 142 190 242 302 360
#     4  10  21  40  63  87 119 156 197 254 307 351
#     4  12  26  40  58  90 124 164 214 242 286 370
#
# _framework density 23.726146
#
# number of rings (size 3 to 8) (size 9 to 14) (size 15 to 20)
#    0.000    2.000    0.000    3.000    0.000    6.000 
#    0.000   17.500    0.000    0.000    0.000    0.000 
#    0.000    0.000    0.000    0.000    0.000    0.000 
#
# Total GULP energy -396423.214546 kJ/mol
# GULP energy per Si atom -12388.225455 kJ/mol
# Density = 2.367214 g / cm^3
# Si number density = 23.726146 Si / 1000 Ang^3
#
#
#
# Elastic Constant Matrix: (Units=GPa)
#
#
# Indices 1 2 3 4 5 6 
#
# 1 146.7759 21.5517 28.6812 0.0000 0.0000 0.0000
# 2 21.5517 25.1036 -2.1642 0.0000 0.0000 0.0000
# 3 28.6812 -2.1642 86.7110 0.0000 0.0000 0.0000
# 4 0.0000 0.0000 0.0000 23.3227 0.0000 0.0000
# 5 0.0000 0.0000 0.0000 0.0000 45.7829 0.0000
# 6 0.0000 0.0000 0.0000 0.0000 0.0000 37.9088
#
#
#
# Elastic Compliance Matrix: (Units=1/GPa)
#
#
# Indices 1 2 3 4 5 6 
#
# 1 0.008511 -0.007566 -0.003004 0.000000 0.000000 0.000000
# 2 -0.007566 0.046646 0.003667 0.000000 0.000000 0.000000
# 3 -0.003004 0.003667 0.012618 0.000000 0.000000 0.000000
# 4 0.000000 0.000000 0.000000 0.042877 0.000000 0.000000
# 5 0.000000 0.000000 0.000000 0.000000 0.021842 0.000000
# 6 0.000000 0.000000 0.000000 0.000000 0.000000 0.026379
#
#
# Mechanical properties :
#
#
# Convention : Reuss Voigt Hill
#
# Bulk Modulus (GPa) = 18.52919 39.41421 28.97170
# Shear Modulus (GPa) = 26.22351 35.43767 30.83059
#
# Velocity S-wave (km/s) = 3.32815 3.86892 3.60868
# Velocity P-wave (km/s) = 4.75345 6.05031 5.44066
#
# Compressibility (1/GPa) = 0.05396891
#
# Stress axis : x y z
#
# Youngs Moduli (GPa) = 117.49477 21.43797 79.25374
#
# Poissons Ratio (x) = 0.16219 0.23808
# Poissons Ratio (y) = 0.88894 -0.29060
# Poissons Ratio (z) = 0.35295 -0.07861
#
# Static dielectric constant tensor:
#      x y z
#    x 4.919750 0.000000 0.000000 
#    y 0.000000 3.311790 0.000000 
#    z 0.000000 0.000000 4.377330 
# 
# 
# High freq. dielectric constant tensor:
#      x y z
#    x 1.971190 0.000000 0.000000 
#    y 0.000000 1.861220 0.000000 
#    z 0.000000 0.000000 1.966990 
# 
# From -- ./inp_files/1929.got.cif
#   From: 2010.03.12/outbox.cif.g09.slc.cpg/sg60_1_cif.got.tgz:1929.got - 2010.04.10 18:46:24.
