data_PCOD8247852
_publ_section_title
;
Structure prediction by ZEFSAII (Michael W. Deem and Ramdas Pophale) SiO2 
 PCOD8247852
Probable space group: P B C N
;
_chemical_formula_sum "Si O2"
_cell_formula_units_Z 40
_cell_length_a 11.700686
_cell_length_b 18.341825
_cell_length_c 8.595441
_cell_angle_alpha 90.000000
_cell_angle_beta 90.000000
_cell_angle_gamma 90.000000
_cell_volume 1844.684225
_symmetry_space_group_name_H-M "P B C N"
_symmetry_group_IT_number 60
_symmetry_cell_setting 'orthorhombic'
loop_
_space_group_symop_operation_xyz
x,y,z
1/2-x,1/2-y,1/2+z
1/2+x,1/2-y,-z
-x,y,1/2-z
-x,-y,-z
1/2+x,1/2+y,1/2-z
1/2-x,1/2+y,z
x,-y,1/2+z
loop_
_atom_site_type_symbol
_atom_site_label
_atom_site_fract_x
_atom_site_fract_y
_atom_site_fract_z
Si Si1 0.043498 0.427145 0.572718
Si Si2 0.969761 0.143465 0.570720
Si Si3 0.796254 0.040817 0.415613
Si Si4 0.305953 0.603274 0.412496
Si Si5 0.084277 0.299874 0.898310
O O1 0.177781 0.417811 0.554039
O O2 0.000000 0.427559 0.750000
O O3 0.000000 0.500000 0.500000
O O4 0.984256 0.356802 0.489858
O O5 0.892720 0.074644 0.525815
O O6 0.900811 0.218718 0.533243
O O7 0.000000 0.133180 0.750000
O O8 0.082700 0.147615 0.464603
O O9 0.832001 0.053286 0.237362
O O10 0.777688 0.954639 0.449529
O O11 0.208342 0.662924 0.372327
O O12 0.000000 0.289858 0.750000
#
# Coordination Sequence:
#
# PCOD8247852 Si02
#       5
#     8   8   8   8   8
#     4  11  20  40  65  98 130 171 218 273 334 389
#     4  11  27  44  66  97 139 181 223 272 335 401
#     4  12  23  43  70 100 132 173 225 279 330 396
#     4  12  24  43  73  98 134 177 224 278 336 400
#     4  10  22  43  66  97 136 172 217 275 339 389
#
# _framework density 21.683928000000002
#
# number of rings (size 3 to 8) (size 9 to 14) (size 15 to 20)
#    0.000    0.800    6.000    2.400    2.800    0.000 
#    0.000    2.000    0.000    0.000    0.000    0.000 
#    0.000    0.000    0.000    0.000    0.000    0.000 
#
# Total GULP energy -495586.097223 kJ/mol
# GULP energy per Si atom -12389.652431 kJ/mol
# Density = 2.163457 g / cm^3
# Si number density = 21.683928 Si / 1000 Ang^3
#
#
#
# Elastic Constant Matrix: (Units=GPa)
#
#
# Indices 1 2 3 4 5 6 
#
# 1 139.9086 38.1845 32.8583 0.0000 0.0000 0.0000
# 2 38.1845 103.8882 20.8089 0.0000 0.0000 0.0000
# 3 32.8583 20.8089 76.4823 0.0000 0.0000 0.0000
# 4 0.0000 0.0000 0.0000 21.7550 0.0000 0.0000
# 5 0.0000 0.0000 0.0000 0.0000 28.5424 0.0000
# 6 0.0000 0.0000 0.0000 0.0000 0.0000 40.0507
#
#
#
# Elastic Compliance Matrix: (Units=1/GPa)
#
#
# Indices 1 2 3 4 5 6 
#
# 1 0.008541 -0.002543 -0.002977 0.000000 0.000000 0.000000
# 2 -0.002543 0.010938 -0.001883 0.000000 0.000000 0.000000
# 3 -0.002977 -0.001883 0.014867 0.000000 0.000000 0.000000
# 4 0.000000 0.000000 0.000000 0.045966 0.000000 0.000000
# 5 0.000000 0.000000 0.000000 0.000000 0.035036 0.000000
# 6 0.000000 0.000000 0.000000 0.000000 0.000000 0.024968
#
#
# Mechanical properties :
#
#
# Convention : Reuss Voigt Hill
#
# Bulk Modulus (GPa) = 51.18344 55.99805 53.59075
# Shear Modulus (GPa) = 30.93388 33.29813 32.11600
#
# Velocity S-wave (km/s) = 3.78111 3.92294 3.85268
# Velocity P-wave (km/s) = 6.53590 6.81176 6.67525
#
# Compressibility (1/GPa) = 0.01953757
#
# Stress axis : x y z
#
# Youngs Moduli (GPa) = 117.08521 91.42774 67.26521
#
# Poissons Ratio (x) = 0.23248 0.20028
# Poissons Ratio (y) = 0.29773 0.12669
# Poissons Ratio (z) = 0.34862 0.17220
#
# Static dielectric constant tensor:
#      x y z
#    x 4.113660 0.000000 0.000000 
#    y 0.000000 1.314220 0.000000 
#    z 0.000000 0.000000 3.752880 
# 
# 
# High freq. dielectric constant tensor:
#      x y z
#    x 1.864830 0.000000 0.000000 
#    y 0.000000 1.868720 0.000000 
#    z 0.000000 0.000000 1.822930 
# 
# From -- ./inp_files/4755.got.cif
#   From: 2010.03.12/outbox.cif.g09.slc.cpg/sg60_3_cif.got.tgz:4755.got - 2010.04.10 18:46:24.
