data_PCOD8247166
_publ_section_title
;
Structure prediction by ZEFSAII (Michael W. Deem and Ramdas Pophale) SiO2 
 PCOD8247166
Probable space group: P B C N
;
_chemical_formula_sum "Si O2"
_cell_formula_units_Z 56
_cell_length_a 12.735637
_cell_length_b 13.755758
_cell_length_c 14.405525
_cell_angle_alpha 90.000000
_cell_angle_beta 90.000000
_cell_angle_gamma 90.000000
_cell_volume 2523.680019
_symmetry_space_group_name_H-M "P B C N"
_symmetry_group_IT_number 60
_symmetry_cell_setting 'orthorhombic'
loop_
_space_group_symop_operation_xyz
x,y,z
1/2-x,1/2-y,1/2+z
1/2+x,1/2-y,-z
-x,y,1/2-z
-x,-y,-z
1/2+x,1/2+y,1/2-z
1/2-x,1/2+y,z
x,-y,1/2+z
loop_
_atom_site_type_symbol
_atom_site_label
_atom_site_fract_x
_atom_site_fract_y
_atom_site_fract_z
Si Si1 0.634007 0.290927 0.587064
Si Si2 0.984008 0.143328 0.903987
Si Si3 0.000000 0.285495 0.250000
Si Si4 0.223134 0.632534 0.273032
Si Si5 0.186993 0.009857 0.630546
Si Si6 0.310085 0.800132 0.145029
Si Si7 0.200373 0.845156 0.487326
Si Si8 0.000000 0.700785 0.250000
O O1 0.570879 0.336267 0.502398
O O2 0.554235 0.282410 0.672958
O O3 0.728470 0.361436 0.623111
O O4 0.689758 0.187811 0.559706
O O5 0.937360 0.039186 0.866639
O O6 0.960833 0.231897 0.834619
O O7 0.109887 0.133172 0.911943
O O8 0.912548 0.347758 0.304828
O O9 0.271747 0.536213 0.226002
O O10 0.253083 0.729776 0.217393
O O11 0.096367 0.630067 0.278915
O O12 0.236744 0.114577 0.611344
O O13 0.220738 0.942105 0.545716
O O14 0.343177 0.739869 0.054285
#
# Coordination Sequence:
#
# PCOD8247166 Si02
#       8
#     8   8   4   8   8   8   8   4
#     4  11  22  45  71  98 140 187 237 289 368 430
#     4  12  23  43  71 102 136 184 237 294 360 428
#     4  10  22  39  71  92 130 194 228 285 359 430
#     4  10  23  42  69  97 143 185 229 293 359 422
#     4  11  23  43  68 103 138 178 240 299 348 429
#     4  10  20  42  63  96 136 180 233 289 350 425
#     4  11  22  42  67  99 138 183 231 300 361 419
#     4  12  22  45  75 100 138 192 232 293 369 426
#
# _framework density 22.189819
#
# number of rings (size 3 to 8) (size 9 to 14) (size 15 to 20)
#    0.000    1.143    5.714    1.286    0.000    0.571 
#   10.286    0.714    0.000    0.000    0.000    0.000 
#    0.000    0.000    0.000    0.000    0.000    0.000 
#
# Total GULP energy -694118.683933 kJ/mol
# GULP energy per Si atom -12394.976499 kJ/mol
# Density = 2.213931 g / cm^3
# Si number density = 22.189819 Si / 1000 Ang^3
#
#
#
# Elastic Constant Matrix: (Units=GPa)
#
#
# Indices 1 2 3 4 5 6 
#
# 1 89.6235 14.9391 28.4754 0.0000 0.0000 0.0000
# 2 14.9391 88.2239 16.4784 0.0000 0.0000 0.0000
# 3 28.4754 16.4784 94.5856 0.0000 0.0000 0.0000
# 4 0.0000 0.0000 0.0000 18.5939 0.0000 0.0000
# 5 0.0000 0.0000 0.0000 0.0000 44.5210 0.0000
# 6 0.0000 0.0000 0.0000 0.0000 0.0000 22.7455
#
#
#
# Elastic Compliance Matrix: (Units=1/GPa)
#
#
# Indices 1 2 3 4 5 6 
#
# 1 0.012518 -0.001463 -0.003514 0.000000 0.000000 0.000000
# 2 -0.001463 0.011887 -0.001630 0.000000 0.000000 0.000000
# 3 -0.003514 -0.001630 0.011914 0.000000 0.000000 0.000000
# 4 0.000000 0.000000 0.000000 0.053781 0.000000 0.000000
# 5 0.000000 0.000000 0.000000 0.000000 0.022461 0.000000
# 6 0.000000 0.000000 0.000000 0.000000 0.000000 0.043965
#
#
# Mechanical properties :
#
#
# Convention : Reuss Voigt Hill
#
# Bulk Modulus (GPa) = 43.28149 43.57986 43.43068
# Shear Modulus (GPa) = 28.17807 31.34143 29.75975
#
# Velocity S-wave (km/s) = 3.56738 3.76230 3.66614
# Velocity P-wave (km/s) = 6.04283 6.20930 6.12663
#
# Compressibility (1/GPa) = 0.02310456
#
# Stress axis : x y z
#
# Youngs Moduli (GPa) = 79.88430 84.12472 83.93283
#
# Poissons Ratio (x) = 0.12311 0.29491
# Poissons Ratio (y) = 0.11690 0.13684
# Poissons Ratio (z) = 0.28069 0.13715
#
# Static dielectric constant tensor:
#      x y z
#    x 4.427050 0.000000 0.000000 
#    y 0.000000 3.647920 0.000000 
#    z 0.000000 0.000000 4.190430 
# 
# 
# High freq. dielectric constant tensor:
#      x y z
#    x 1.887780 0.000000 0.000000 
#    y 0.000000 1.835120 0.000000 
#    z 0.000000 0.000000 1.882760 
# 
# From -- ./inp_files/16886.got.cif
#   From: 2010.03.12/outbox.cif.g09.slc.cpg/sg60_9_cif.got.tgz:16886.got - 2010.04.10 18:46:24.
