data_PCOD8247159
_publ_section_title
;
Structure prediction by ZEFSAII (Michael W. Deem and Ramdas Pophale) SiO2 
 PCOD8247159
Probable space group: P B C N
;
_chemical_formula_sum "Si O2"
_cell_formula_units_Z 48
_cell_length_a 24.118454
_cell_length_b 9.114201
_cell_length_c 10.172750
_cell_angle_alpha 90.000000
_cell_angle_beta 90.000000
_cell_angle_gamma 90.000000
_cell_volume 2236.178356
_symmetry_space_group_name_H-M "P B C N"
_symmetry_group_IT_number 60
_symmetry_cell_setting 'orthorhombic'
loop_
_space_group_symop_operation_xyz
x,y,z
1/2-x,1/2-y,1/2+z
1/2+x,1/2-y,-z
-x,y,1/2-z
-x,-y,-z
1/2+x,1/2+y,1/2-z
1/2-x,1/2+y,z
x,-y,1/2+z
loop_
_atom_site_type_symbol
_atom_site_label
_atom_site_fract_x
_atom_site_fract_y
_atom_site_fract_z
Si Si1 0.658948 0.198083 0.334095
Si Si2 0.168478 0.954140 0.348549
Si Si3 0.870966 0.366098 0.316067
Si Si4 0.283215 0.638824 0.113848
Si Si5 0.011147 0.371798 0.102907
Si Si6 0.593486 0.697459 0.073702
O O1 0.658438 0.287808 0.197720
O O2 0.719962 0.187876 0.394781
O O3 0.618493 0.287495 0.429457
O O4 0.634447 0.039304 0.309684
O O5 0.202402 0.954275 0.484284
O O6 0.205741 0.039385 0.241582
O O7 0.109172 0.036261 0.369915
O O8 0.818615 0.288542 0.382649
O O9 0.877134 0.318464 0.165119
O O10 0.924866 0.320751 0.402869
O O11 0.972636 0.228915 0.073075
O O12 0.000000 0.433264 0.250000
O O13 0.000000 0.500000 0.000000
#
# Coordination Sequence:
#
# PCOD8247159 Si02
#       6
#     8   8   8   8   8   8
#     4  12  24  39  68  96 133 178 224 276 337 406
#     4  11  25  45  63  94 140 183 219 274 344 412
#     4  10  24  41  69  99 129 175 226 285 334 398
#     4  11  26  41  65  95 137 177 223 274 338 410
#     4  10  20  41  69  96 131 165 223 285 331 390
#     4  10  23  44  65  96 136 175 224 282 339 402
#
# _framework density 21.465194
#
# number of rings (size 3 to 8) (size 9 to 14) (size 15 to 20)
#    0.000    1.333    3.333    1.000    9.333    0.000 
#    0.000    0.833    7.333    0.000    0.000    0.000 
#    0.000    0.000    0.000    0.000    0.000    0.000 
#
# Total GULP energy -595285.938785 kJ/mol
# GULP energy per Si atom -12401.790391 kJ/mol
# Density = 2.141634 g / cm^3
# Si number density = 21.465194 Si / 1000 Ang^3
#
#
#
# Elastic Constant Matrix: (Units=GPa)
#
#
# Indices 1 2 3 4 5 6 
#
# 1 119.9647 45.5876 7.0563 0.0000 0.0000 0.0000
# 2 45.5876 111.3485 29.0893 0.0000 0.0000 0.0000
# 3 7.0563 29.0893 84.4820 0.0000 0.0000 0.0000
# 4 0.0000 0.0000 0.0000 34.0872 0.0000 0.0000
# 5 0.0000 0.0000 0.0000 0.0000 21.8977 0.0000
# 6 0.0000 0.0000 0.0000 0.0000 0.0000 34.1246
#
#
#
# Elastic Compliance Matrix: (Units=1/GPa)
#
#
# Indices 1 2 3 4 5 6 
#
# 1 0.009902 -0.004217 0.000625 0.000000 0.000000 0.000000
# 2 -0.004217 0.011665 -0.003664 0.000000 0.000000 0.000000
# 3 0.000625 -0.003664 0.013046 0.000000 0.000000 0.000000
# 4 0.000000 0.000000 0.000000 0.029337 0.000000 0.000000
# 5 0.000000 0.000000 0.000000 0.000000 0.045667 0.000000
# 6 0.000000 0.000000 0.000000 0.000000 0.000000 0.029304
#
#
# Mechanical properties :
#
#
# Convention : Reuss Voigt Hill
#
# Bulk Modulus (GPa) = 49.75138 53.25127 51.50133
# Shear Modulus (GPa) = 31.22411 33.62605 32.42508
#
# Velocity S-wave (km/s) = 3.81811 3.96225 3.89085
# Velocity P-wave (km/s) = 6.53187 6.76717 6.65056
#
# Compressibility (1/GPa) = 0.02009995
#
# Stress axis : x y z
#
# Youngs Moduli (GPa) = 100.99421 85.72936 76.65001
#
# Poissons Ratio (x) = 0.36153 -0.04791
# Poissons Ratio (y) = 0.42590 0.28086
# Poissons Ratio (z) = -0.06313 0.31413
#
# Static dielectric constant tensor:
#      x y z
#    x 4.033700 0.000000 0.000000 
#    y 0.000000 3.861890 0.000000 
#    z 0.000000 0.000000 3.914980 
# 
# 
# High freq. dielectric constant tensor:
#      x y z
#    x 1.841120 0.000000 0.000000 
#    y 0.000000 1.836010 0.000000 
#    z 0.000000 0.000000 1.848110 
# 
# From -- ./inp_files/13048.got.cif
#   From: 2010.03.12/outbox.cif.g09.slc.cpg/sg60_7_cif.got.tgz:13048.got - 2010.04.10 18:46:24.
