data_PCOD8247576
_publ_section_title
;
Structure prediction by ZEFSAII (Michael W. Deem and Ramdas Pophale) SiO2 
 PCOD8247576
Probable space group: P B C N
;
_chemical_formula_sum "Si O2"
_cell_formula_units_Z 56
_cell_length_a 16.808255
_cell_length_b 14.673958
_cell_length_c 11.168408
_cell_angle_alpha 90.000000
_cell_angle_beta 90.000000
_cell_angle_gamma 90.000000
_cell_volume 2754.616667
_symmetry_space_group_name_H-M "P B C N"
_symmetry_group_IT_number 60
_symmetry_cell_setting 'orthorhombic'
loop_
_space_group_symop_operation_xyz
x,y,z
1/2-x,1/2-y,1/2+z
1/2+x,1/2-y,-z
-x,y,1/2-z
-x,-y,-z
1/2+x,1/2+y,1/2-z
1/2-x,1/2+y,z
x,-y,1/2+z
loop_
_atom_site_type_symbol
_atom_site_label
_atom_site_fract_x
_atom_site_fract_y
_atom_site_fract_z
Si Si1 0.499623 0.929022 0.109685
Si Si2 0.821043 0.833691 0.391369
Si Si3 0.355517 0.790768 0.066868
Si Si4 0.586243 0.477440 0.552271
Si Si5 0.652438 0.813516 0.062583
Si Si6 0.411016 0.671701 0.263517
Si Si7 0.826148 0.154259 0.619677
O O1 0.500000 0.965945 0.250000
O O2 0.426479 0.860366 0.092208
O O3 0.582255 0.881390 0.085972
O O4 0.500000 0.000000 0.000000
O O5 0.725398 0.844141 0.401213
O O6 0.866174 0.911365 0.464366
O O7 0.844590 0.729990 0.429594
O O8 0.849725 0.845292 0.257068
O O9 0.366685 0.694188 0.138922
O O10 0.352122 0.753839 0.931165
O O11 0.500000 0.500000 0.500000
O O12 0.583180 0.432153 0.686602
O O13 0.629035 0.573068 0.555351
O O14 0.642735 0.725027 0.143248
O O15 0.733179 0.864551 0.097158
O O16 0.500000 0.712137 0.250000
#
# Coordination Sequence:
#
# PCOD8247576 Si02
#       7
#     8   8   8   8   8   8   8
#     4  12  25  43  69  99 133 173 227 277 336 400
#     4  10  24  43  64  95 132 166 225 271 323 412
#     4  11  22  44  70  92 128 184 215 269 343 396
#     4  11  27  40  62 101 133 174 215 277 339 391
#     4  10  21  44  66  91 125 175 212 266 333 392
#     4  11  19  40  70  87 127 174 218 254 327 410
#     4  11  24  41  67  97 132 166 222 274 329 398
#
# _framework density 20.329507
#
# number of rings (size 3 to 8) (size 9 to 14) (size 15 to 20)
#    0.000    1.143    4.286    0.857    8.000    1.143 
#    0.000    0.000    0.000    0.000    0.000    0.000 
#    0.000    0.000    0.000    0.000    0.000    0.000 
#
# Total GULP energy -693741.933185 kJ/mol
# GULP energy per Si atom -12388.248807 kJ/mol
# Density = 2.028324 g / cm^3
# Si number density = 20.329507 Si / 1000 Ang^3
#
#
#
# Elastic Constant Matrix: (Units=GPa)
#
#
# Indices 1 2 3 4 5 6 
#
# 1 136.7040 43.5973 43.1835 0.0000 0.0000 0.0000
# 2 43.5973 78.2928 53.2645 0.0000 0.0000 0.0000
# 3 43.1835 53.2645 127.5073 0.0000 0.0000 0.0000
# 4 0.0000 0.0000 0.0000 31.9261 0.0000 0.0000
# 5 0.0000 0.0000 0.0000 0.0000 23.3002 0.0000
# 6 0.0000 0.0000 0.0000 0.0000 0.0000 25.6646
#
#
#
# Elastic Compliance Matrix: (Units=1/GPa)
#
#
# Indices 1 2 3 4 5 6 
#
# 1 0.009056 -0.004130 -0.001342 0.000000 0.000000 0.000000
# 2 -0.004130 0.019727 -0.006842 0.000000 0.000000 0.000000
# 3 -0.001342 -0.006842 0.011155 0.000000 0.000000 0.000000
# 4 0.000000 0.000000 0.000000 0.031322 0.000000 0.000000
# 5 0.000000 0.000000 0.000000 0.000000 0.042918 0.000000
# 6 0.000000 0.000000 0.000000 0.000000 0.000000 0.038964
#
#
# Mechanical properties :
#
#
# Convention : Reuss Voigt Hill
#
# Bulk Modulus (GPa) = 65.31323 69.17718 67.24520
# Shear Modulus (GPa) = 27.34119 29.67545 28.50832
#
# Velocity S-wave (km/s) = 3.67127 3.82478 3.74881
# Velocity P-wave (km/s) = 7.08294 7.32168 7.20330
#
# Compressibility (1/GPa) = 0.01531083
#
# Stress axis : x y z
#
# Youngs Moduli (GPa) = 110.42320 50.69154 89.64361
#
# Poissons Ratio (x) = 0.20936 0.12028
# Poissons Ratio (y) = 0.45605 0.61334
# Poissons Ratio (z) = 0.14817 0.34683
#
# Static dielectric constant tensor:
#      x y z
#    x 3.754730 0.000000 0.000000 
#    y 0.000000 3.992740 0.000000 
#    z 0.000000 0.000000 4.110590 
# 
# 
# High freq. dielectric constant tensor:
#      x y z
#    x 1.808580 0.000000 0.000000 
#    y 0.000000 1.777800 0.000000 
#    z 0.000000 0.000000 1.807820 
# 
# From -- ./inp_files/11976.got.cif
#   From: 2010.03.12/outbox.cif.g09.slc.cpg/sg60_6_cif.got.tgz:11976.got - 2010.04.10 18:46:24.
