data_PCOD8247102
_publ_section_title
;
Structure prediction by ZEFSAII (Michael W. Deem and Ramdas Pophale) SiO2 
 PCOD8247102
Probable space group: P B C N
;
_chemical_formula_sum "Si O2"
_cell_formula_units_Z 64
_cell_length_a 12.463167
_cell_length_b 17.682736
_cell_length_c 13.478291
_cell_angle_alpha 90.000000
_cell_angle_beta 90.000000
_cell_angle_gamma 90.000000
_cell_volume 2970.384747
_symmetry_space_group_name_H-M "P B C N"
_symmetry_group_IT_number 60
_symmetry_cell_setting 'orthorhombic'
loop_
_space_group_symop_operation_xyz
x,y,z
1/2-x,1/2-y,1/2+z
1/2+x,1/2-y,-z
-x,y,1/2-z
-x,-y,-z
1/2+x,1/2+y,1/2-z
1/2-x,1/2+y,z
x,-y,1/2+z
loop_
_atom_site_type_symbol
_atom_site_label
_atom_site_fract_x
_atom_site_fract_y
_atom_site_fract_z
Si Si1 0.361998 0.780905 0.332964
Si Si2 0.661042 0.312836 0.847587
Si Si3 0.602185 0.519342 0.357658
Si Si4 0.627551 0.509898 0.084755
Si Si5 0.689393 0.608566 0.722250
Si Si6 0.370440 0.276799 0.134504
Si Si7 0.247361 0.845003 0.956527
Si Si8 0.460900 0.782123 0.007654
O O1 0.403142 0.729794 0.241171
O O2 0.308507 0.855803 0.284587
O O3 0.275074 0.729862 0.391400
O O4 0.455103 0.808607 0.407741
O O5 0.657963 0.401704 0.836718
O O6 0.786208 0.290395 0.846866
O O7 0.604046 0.290154 0.950824
O O8 0.472948 0.525011 0.339138
O O9 0.602094 0.491424 0.470099
O O10 0.675482 0.462858 0.294590
O O11 0.667451 0.425260 0.112955
O O12 0.712918 0.578444 0.101329
O O13 0.610762 0.675493 0.763341
O O14 0.321680 0.337700 0.057070
O O15 0.480724 0.241998 0.094085
O O16 0.374902 0.847973 0.981848
#
# Coordination Sequence:
#
# PCOD8247102 Si02
#       8
#     8   8   8   8   8   8   8   8
#     4  10  22  39  63  96 122 169 221 261 327 390
#     4  10  21  38  65  88 127 166 207 267 313 386
#     4  11  23  38  61  93 130 165 206 262 335 383
#     4  11  24  37  61  93 131 165 207 261 331 392
#     4  11  23  39  61  93 132 161 206 272 320 386
#     4   9  20  39  61  93 122 158 211 262 314 375
#     4  10  20  40  61  89 130 166 207 273 317 382
#     4  10  21  36  68  91 125 165 224 265 322 382
#
# _framework density 21.546029999999998
#
# number of rings (size 3 to 8) (size 9 to 14) (size 15 to 20)
#    0.000    1.750    1.250    3.000    7.000    2.000 
#    0.000    2.500    0.000    0.000    0.000    0.000 
#    0.000    0.000    0.000    0.000    0.000    0.000 
#
# Total GULP energy -793030.839818 kJ/mol
# GULP energy per Si atom -12391.106872 kJ/mol
# Density = 2.149699 g / cm^3
# Si number density = 21.546030 Si / 1000 Ang^3
#
#
#
# Elastic Constant Matrix: (Units=GPa)
#
#
# Indices 1 2 3 4 5 6 
#
# 1 113.4759 66.8797 39.2436 0.0000 0.0000 0.0000
# 2 66.8797 136.3960 27.0421 0.0000 0.0000 0.0000
# 3 39.2436 27.0421 39.6051 0.0000 0.0000 0.0000
# 4 0.0000 0.0000 0.0000 40.1665 0.0000 0.0000
# 5 0.0000 0.0000 0.0000 0.0000 36.1334 0.0000
# 6 0.0000 0.0000 0.0000 0.0000 0.0000 12.0519
#
#
#
# Elastic Compliance Matrix: (Units=1/GPa)
#
#
# Indices 1 2 3 4 5 6 
#
# 1 0.016403 -0.005575 -0.012446 0.000000 0.000000 0.000000
# 2 -0.005575 0.010374 -0.001559 0.000000 0.000000 0.000000
# 3 -0.012446 -0.001559 0.038647 0.000000 0.000000 0.000000
# 4 0.000000 0.000000 0.000000 0.024896 0.000000 0.000000
# 5 0.000000 0.000000 0.000000 0.000000 0.027675 0.000000
# 6 0.000000 0.000000 0.000000 0.000000 0.000000 0.082975
#
#
# Mechanical properties :
#
#
# Convention : Reuss Voigt Hill
#
# Bulk Modulus (GPa) = 38.07751 61.75641 49.91696
# Shear Modulus (GPa) = 20.08957 28.09112 24.09035
#
# Velocity S-wave (km/s) = 3.05684 3.61470 3.34741
# Velocity P-wave (km/s) = 5.49272 6.79310 6.17722
#
# Compressibility (1/GPa) = 0.02626222
#
# Stress axis : x y z
#
# Youngs Moduli (GPa) = 60.96603 96.39077 25.87555
#
# Poissons Ratio (x) = 0.53739 0.32205
# Poissons Ratio (y) = 0.33989 0.04035
# Poissons Ratio (z) = 0.75879 0.15030
#
# Static dielectric constant tensor:
#      x y z
#    x 3.776630 0.000000 0.000000 
#    y 0.000000 3.702100 0.000000 
#    z 0.000000 0.000000 4.306030 
# 
# 
# High freq. dielectric constant tensor:
#      x y z
#    x 1.826480 0.000000 0.000000 
#    y 0.000000 1.824060 0.000000 
#    z 0.000000 0.000000 1.869810 
# 
# From -- ./inp_files/16378.got.cif
#   From: 2010.03.12/outbox.cif.g09.slc.cpg/sg60_9_cif.got.tgz:16378.got - 2010.04.10 18:46:24.
