data_PCOD8247600
_publ_section_title
;
Structure prediction by ZEFSAII (Michael W. Deem and Ramdas Pophale) SiO2 
 PCOD8247600
Probable space group: P B C N
;
_chemical_formula_sum "Si O2"
_cell_formula_units_Z 60
_cell_length_a 20.541228
_cell_length_b 28.207591
_cell_length_c 5.217693
_cell_angle_alpha 90.000000
_cell_angle_beta 90.000000
_cell_angle_gamma 90.000000
_cell_volume 3023.228154
_symmetry_space_group_name_H-M "P B C N"
_symmetry_group_IT_number 60
_symmetry_cell_setting 'orthorhombic'
loop_
_space_group_symop_operation_xyz
x,y,z
1/2-x,1/2-y,1/2+z
1/2+x,1/2-y,-z
-x,y,1/2-z
-x,-y,-z
1/2+x,1/2+y,1/2-z
1/2-x,1/2+y,z
x,-y,1/2+z
loop_
_atom_site_type_symbol
_atom_site_label
_atom_site_fract_x
_atom_site_fract_y
_atom_site_fract_z
Si Si1 0.736408 0.721316 0.741787
Si Si2 0.922724 0.365292 0.742641
Si Si3 0.422461 0.474271 0.768239
Si Si4 0.633917 0.818015 0.242106
Si Si5 0.922604 0.526514 0.258331
Si Si6 0.889670 0.785451 0.942501
Si Si7 0.427912 0.630227 0.364106
Si Si8 0.000000 0.181248 0.750000
O O1 0.764134 0.757322 0.526439
O O2 0.787081 0.676777 0.742275
O O3 0.662809 0.708068 0.670079
O O4 0.897681 0.348962 0.465916
O O5 0.899407 0.419274 0.780856
O O6 0.000000 0.360966 0.750000
O O7 0.893348 0.333055 0.966585
O O8 0.500000 0.475189 0.750000
O O9 0.395535 0.491562 0.493706
O O10 0.396595 0.421675 0.835737
O O11 0.618882 0.762501 0.283743
O O12 0.894593 0.497631 0.501018
O O13 0.000000 0.524111 0.250000
O O14 0.880150 0.831405 0.762895
O O15 0.964155 0.784525 0.047174
O O16 0.500000 0.631141 0.250000
O O17 0.441222 0.646770 0.655091
#
# Coordination Sequence:
#
# PCOD8247600 Si02
#       8
#     8   8   8   8   8   8   8   4
#     4  10  22  41  60  78 108 154 208 244 271 332
#     4  11  23  36  55  89 123 150 190 241 293 352
#     4   9  18  29  48  71 102 139 174 221 279 327
#     4  11  23  38  56  83 118 155 192 239 286 340
#     4   9  17  32  54  78 112 152 187 227 283 342
#     4  10  23  37  57  79 114 155 194 230 289 337
#     4   9  20  33  49  79 110 141 183 225 272 348
#     4  10  22  34  54  82 118 144 192 228 284 352
#
# _framework density 19.846335
#
# number of rings (size 3 to 8) (size 9 to 14) (size 15 to 20)
#    0.000    2.133    0.000    2.800   13.067    4.267 
#    0.000    0.000    0.000    0.000    0.000    5.600 
#    0.000    0.000    0.000    0.000    0.000    0.000 
#
# Total GULP energy -743561.248818 kJ/mol
# GULP energy per Si atom -12392.687480 kJ/mol
# Density = 1.980116 g / cm^3
# Si number density = 19.846335 Si / 1000 Ang^3
#
#
#
# Elastic Constant Matrix: (Units=GPa)
#
#
# Indices 1 2 3 4 5 6 
#
# 1 46.3337 25.4512 5.1799 0.0000 0.0000 0.0000
# 2 25.4512 116.1185 22.8956 0.0000 0.0000 0.0000
# 3 5.1799 22.8956 81.3944 0.0000 0.0000 0.0000
# 4 0.0000 0.0000 0.0000 27.2553 0.0000 0.0000
# 5 0.0000 0.0000 0.0000 0.0000 28.6718 0.0000
# 6 0.0000 0.0000 0.0000 0.0000 0.0000 1.9664
#
#
#
# Elastic Compliance Matrix: (Units=1/GPa)
#
#
# Indices 1 2 3 4 5 6 
#
# 1 0.024537 -0.005368 -0.000052 0.000000 0.000000 0.000000
# 2 -0.005368 0.010292 -0.002553 0.000000 0.000000 0.000000
# 3 -0.000052 -0.002553 0.013007 0.000000 0.000000 0.000000
# 4 0.000000 0.000000 0.000000 0.036690 0.000000 0.000000
# 5 0.000000 0.000000 0.000000 0.000000 0.034877 0.000000
# 6 0.000000 0.000000 0.000000 0.000000 0.000000 0.508543
#
#
# Mechanical properties :
#
#
# Convention : Reuss Voigt Hill
#
# Bulk Modulus (GPa) = 31.35735 38.98890 35.17313
# Shear Modulus (GPa) = 7.63915 24.26670 15.95292
#
# Velocity S-wave (km/s) = 1.96405 3.50055 2.83825
# Velocity P-wave (km/s) = 4.58014 6.00221 5.33874
#
# Compressibility (1/GPa) = 0.03189045
#
# Stress axis : x y z
#
# Youngs Moduli (GPa) = 40.75485 97.16362 76.87931
#
# Poissons Ratio (x) = 0.52157 0.00396
# Poissons Ratio (y) = 0.21877 0.19631
# Poissons Ratio (z) = 0.00210 0.24810
#
# Static dielectric constant tensor:
#      x y z
#    x 3.444020 0.000000 0.000000 
#    y 0.000000 3.721230 0.000000 
#    z 0.000000 0.000000 3.974970 
# 
# 
# High freq. dielectric constant tensor:
#      x y z
#    x 1.727550 0.000000 0.000000 
#    y 0.000000 1.766130 0.000000 
#    z 0.000000 0.000000 1.796330 
# 
# From -- ./inp_files/2181.got.cif
#   From: 2010.03.12/outbox.cif.g09.slc.cpg/sg60_2_cif.got.tgz:2181.got - 2010.04.10 18:46:24.
