data_PCOD8247549
_publ_section_title
;
Structure prediction by ZEFSAII (Michael W. Deem and Ramdas Pophale) SiO2 
 PCOD8247549
Probable space group: P B C N
;
_chemical_formula_sum "Si O2"
_cell_formula_units_Z 56
_cell_length_a 10.555771
_cell_length_b 10.661621
_cell_length_c 22.292354
_cell_angle_alpha 90.000000
_cell_angle_beta 90.000000
_cell_angle_gamma 90.000000
_cell_volume 2508.817850
_symmetry_space_group_name_H-M "P B C N"
_symmetry_group_IT_number 60
_symmetry_cell_setting 'orthorhombic'
loop_
_space_group_symop_operation_xyz
x,y,z
1/2-x,1/2-y,1/2+z
1/2+x,1/2-y,-z
-x,y,1/2-z
-x,-y,-z
1/2+x,1/2+y,1/2-z
1/2-x,1/2+y,z
x,-y,1/2+z
loop_
_atom_site_type_symbol
_atom_site_label
_atom_site_fract_x
_atom_site_fract_y
_atom_site_fract_z
Si Si1 0.500000 0.674966 0.750000
Si Si2 0.667857 0.274980 0.678745
Si Si3 0.193771 0.615408 0.216994
Si Si4 0.353510 0.700566 0.554569
Si Si5 0.500000 0.083268 0.750000
Si Si6 0.214627 0.941730 0.589497
Si Si7 0.067770 0.899385 0.929311
Si Si8 0.903174 0.857216 0.127324
O O1 0.384313 0.755652 0.722003
O O2 0.548414 0.593845 0.693377
O O3 0.711376 0.383860 0.725669
O O4 0.598287 0.161364 0.711061
O O5 0.565276 0.318494 0.630955
O O6 0.789991 0.238229 0.638978
O O7 0.281569 0.602699 0.158537
O O8 0.092442 0.503684 0.210924
O O9 0.298427 0.841607 0.553553
O O10 0.256310 0.592067 0.580929
O O11 0.374483 0.672334 0.484885
O O12 0.482532 0.711814 0.592686
O O13 0.076541 0.937738 0.558779
O O14 0.145672 0.026274 0.912711
#
# Coordination Sequence:
#
# PCOD8247549 Si02
#       8
#     4   8   8   8   4   8   8   8
#     4   9  18  37  66  94 126 171 222 263 348 413
#     4  11  24  40  69  97 143 176 227 288 358 408
#     4  10  22  40  65  99 137 174 222 292 345 417
#     4  11  26  45  71  98 135 183 239 286 351 423
#     4  11  24  41  64 106 142 175 234 281 350 437
#     4  11  24  45  72  96 133 181 231 290 351 411
#     4  11  26  41  64  98 133 179 234 284 344 420
#     4  10  21  42  65  93 132 181 219 281 347 413
#
# _framework density 22.321269999999998
#
# number of rings (size 3 to 8) (size 9 to 14) (size 15 to 20)
#    0.000    1.429    1.429    3.429    8.000    4.000 
#    0.000    0.714    0.000    0.000    0.000    0.000 
#    0.000    0.000    0.000    0.000    0.000    0.000 
#
# Total GULP energy -693822.554194 kJ/mol
# GULP energy per Si atom -12389.688468 kJ/mol
# Density = 2.227047 g / cm^3
# Si number density = 22.321270 Si / 1000 Ang^3
#
#
#
# Elastic Constant Matrix: (Units=GPa)
#
#
# Indices 1 2 3 4 5 6 
#
# 1 58.3292 30.1764 17.9472 0.0000 0.0000 0.0000
# 2 30.1764 69.1902 2.4397 0.0000 0.0000 0.0000
# 3 17.9472 2.4397 81.7021 0.0000 0.0000 0.0000
# 4 0.0000 0.0000 0.0000 16.5050 0.0000 0.0000
# 5 0.0000 0.0000 0.0000 0.0000 40.0026 0.0000
# 6 0.0000 0.0000 0.0000 0.0000 0.0000 32.5487
#
#
#
# Elastic Compliance Matrix: (Units=1/GPa)
#
#
# Indices 1 2 3 4 5 6 
#
# 1 0.023995 -0.010290 -0.004964 0.000000 0.000000 0.000000
# 2 -0.010290 0.018881 0.001697 0.000000 0.000000 0.000000
# 3 -0.004964 0.001697 0.013279 0.000000 0.000000 0.000000
# 4 0.000000 0.000000 0.000000 0.060588 0.000000 0.000000
# 5 0.000000 0.000000 0.000000 0.000000 0.024998 0.000000
# 6 0.000000 0.000000 0.000000 0.000000 0.000000 0.030723
#
#
# Mechanical properties :
#
#
# Convention : Reuss Voigt Hill
#
# Bulk Modulus (GPa) = 34.43412 34.48313 34.45862
# Shear Modulus (GPa) = 23.89390 28.38850 26.14120
#
# Velocity S-wave (km/s) = 3.27533 3.57012 3.42590
# Velocity P-wave (km/s) = 5.45562 5.69881 5.57854
#
# Compressibility (1/GPa) = 0.02904096
#
# Stress axis : x y z
#
# Youngs Moduli (GPa) = 41.67572 52.96349 75.30546
#
# Poissons Ratio (x) = 0.54499 0.37378
# Poissons Ratio (y) = 0.42884 -0.12776
# Poissons Ratio (z) = 0.20686 -0.08986
#
# Static dielectric constant tensor:
#      x y z
#    x 3.994910 0.000000 0.000000 
#    y 0.000000 4.062370 0.000000 
#    z 0.000000 0.000000 4.108700 
# 
# 
# High freq. dielectric constant tensor:
#      x y z
#    x 1.868090 0.000000 0.000000 
#    y 0.000000 1.873280 0.000000 
#    z 0.000000 0.000000 1.888660 
# 
# From -- ./inp_files/22640.got.cif
#   From: 2010.03.12/outbox.cif.g09.slc.cpg/sg60_12_cif.got.tgz:22640.got - 2010.04.10 18:46:24.
