data_PCOD8247000
_publ_section_title
;
Structure prediction by ZEFSAII (Michael W. Deem and Ramdas Pophale) SiO2 
 PCOD8247000
Probable space group: P B C N
;
_chemical_formula_sum "Si O2"
_cell_formula_units_Z 24
_cell_length_a 15.325139
_cell_length_b 15.978827
_cell_length_c 4.838606
_cell_angle_alpha 90.000000
_cell_angle_beta 90.000000
_cell_angle_gamma 90.000000
_cell_volume 1184.866925
_symmetry_space_group_name_H-M "P B C N"
_symmetry_group_IT_number 60
_symmetry_cell_setting 'orthorhombic'
loop_
_space_group_symop_operation_xyz
x,y,z
1/2-x,1/2-y,1/2+z
1/2+x,1/2-y,-z
-x,y,1/2-z
-x,-y,-z
1/2+x,1/2+y,1/2-z
1/2-x,1/2+y,z
x,-y,1/2+z
loop_
_atom_site_type_symbol
_atom_site_label
_atom_site_fract_x
_atom_site_fract_y
_atom_site_fract_z
Si Si1 0.558780 0.672801 0.494852
Si Si2 0.297843 0.215959 0.726671
Si Si3 0.219274 0.056671 0.925418
O O1 0.500000 0.633738 0.250000
O O2 0.606959 0.755744 0.376813
O O3 0.626893 0.603856 0.604350
O O4 0.500000 0.702070 0.750000
O O5 0.230701 0.220298 0.469580
O O6 0.296705 0.121689 0.848446
O O7 0.227331 0.974304 0.738693
#
# Coordination Sequence:
#
# PCOD8247000 Si02
#       3
#     8   8   8
#     4  11  22  36  57  84 114 147 184 230 280 330
#     4  10  20  38  58  77 108 153 196 220 258 336
#     4  11  22  36  57  84 114 147 182 228 280 330
#
# _framework density 20.255441000000001
#
# number of rings (size 3 to 8) (size 9 to 14) (size 15 to 20)
#    0.000    1.333    0.000   10.000    0.000    4.000 
#    0.000    0.000    0.000    6.000    0.000    0.000 
#    0.000    0.000    0.000    0.000    0.000    0.000 
#
# Total GULP energy -297587.750548 kJ/mol
# GULP energy per Si atom -12399.489606 kJ/mol
# Density = 2.020934 g / cm^3
# Si number density = 20.255441 Si / 1000 Ang^3
#
#
#
# Elastic Constant Matrix: (Units=GPa)
#
#
# Indices 1 2 3 4 5 6 
#
# 1 24.9766 33.1673 18.4086 0.0000 0.0000 0.0000
# 2 33.1673 91.5135 17.9116 0.0000 0.0000 0.0000
# 3 18.4086 17.9116 104.6780 0.0000 0.0000 0.0000
# 4 0.0000 0.0000 0.0000 38.6200 0.0000 0.0000
# 5 0.0000 0.0000 0.0000 0.0000 39.5482 0.0000
# 6 0.0000 0.0000 0.0000 0.0000 0.0000 13.4428
#
#
#
# Elastic Compliance Matrix: (Units=1/GPa)
#
#
# Indices 1 2 3 4 5 6 
#
# 1 0.086565 -0.029378 -0.010196 0.000000 0.000000 0.000000
# 2 -0.029378 0.021276 0.001526 0.000000 0.000000 0.000000
# 3 -0.010196 0.001526 0.011085 0.000000 0.000000 0.000000
# 4 0.000000 0.000000 0.000000 0.025893 0.000000 0.000000
# 5 0.000000 0.000000 0.000000 0.000000 0.025286 0.000000
# 6 0.000000 0.000000 0.000000 0.000000 0.000000 0.074389
#
#
# Mechanical properties :
#
#
# Convention : Reuss Voigt Hill
#
# Bulk Modulus (GPa) = 23.34867 40.01591 31.68229
# Shear Modulus (GPa) = 14.93128 28.43424 21.68276
#
# Velocity S-wave (km/s) = 2.71799 3.75077 3.27535
# Velocity P-wave (km/s) = 4.62624 6.20937 5.47533
#
# Compressibility (1/GPa) = 0.04282900
#
# Stress axis : x y z
#
# Youngs Moduli (GPa) = 11.55205 47.00087 90.21083
#
# Poissons Ratio (x) = 1.38079 0.91982
# Poissons Ratio (y) = 0.33938 -0.13764
# Poissons Ratio (z) = 0.11779 -0.07171
#
# Static dielectric constant tensor:
#      x y z
#    x 3.507930 0.000000 0.000000 
#    y 0.000000 3.462670 0.000000 
#    z 0.000000 0.000000 4.101310 
# 
# 
# High freq. dielectric constant tensor:
#      x y z
#    x 1.760240 0.000000 0.000000 
#    y 0.000000 1.772900 0.000000 
#    z 0.000000 0.000000 1.825660 
# 
# From -- ./inp_files/987.got.cif
#   From: 2010.03.12/outbox.cif.g09.slc.cpg/sg60_1_cif.got.tgz:987.got - 2010.04.10 18:46:24.
