data_PCOD8247518
_publ_section_title
;
Structure prediction by ZEFSAII (Michael W. Deem and Ramdas Pophale) SiO2 
 PCOD8247518
Probable space group: P B C N
;
_chemical_formula_sum "Si O2"
_cell_formula_units_Z 44
_cell_length_a 5.168937
_cell_length_b 16.768901
_cell_length_c 22.457090
_cell_angle_alpha 90.000000
_cell_angle_beta 90.000000
_cell_angle_gamma 90.000000
_cell_volume 1946.522012
_symmetry_space_group_name_H-M "P B C N"
_symmetry_group_IT_number 60
_symmetry_cell_setting 'orthorhombic'
loop_
_space_group_symop_operation_xyz
x,y,z
1/2-x,1/2-y,1/2+z
1/2+x,1/2-y,-z
-x,y,1/2-z
-x,-y,-z
1/2+x,1/2+y,1/2-z
1/2-x,1/2+y,z
x,-y,1/2+z
loop_
_atom_site_type_symbol
_atom_site_label
_atom_site_fract_x
_atom_site_fract_y
_atom_site_fract_z
Si Si1 0.536887 0.048267 0.645004
Si Si2 0.311443 0.812538 0.700963
Si Si3 0.000000 0.330176 0.250000
Si Si4 0.976981 0.965569 0.815580
Si Si5 0.928876 0.670890 0.548927
Si Si6 0.930215 0.268030 0.924753
O O1 0.593862 0.115795 0.694818
O O2 0.263061 0.006391 0.652065
O O3 0.537575 0.084847 0.578758
O O4 0.761727 0.981961 0.648005
O O5 0.500000 0.853529 0.750000
O O6 0.471608 0.806630 0.639663
O O7 0.229729 0.725978 0.725648
O O8 0.065669 0.870147 0.689794
O O9 0.000000 0.003892 0.750000
O O10 0.644452 0.700887 0.565872
O O11 0.955334 0.665504 0.477076
O O12 0.144472 0.730354 0.574786
#
# Coordination Sequence:
#
# PCOD8247518 Si02
#       6
#     8   8   4   8   8   8
#     4  12  24  41  65  96 127 173 216 268 321 392
#     4  12  26  42  65 101 132 177 213 279 328 402
#     4  12  24  36  72  96 126 156 236 272 316 386
#     4  12  25  43  59  91 141 173 205 262 343 387
#     4  10  21  41  65  98 127 172 214 284 320 382
#     4  10  22  40  67  95 134 163 222 273 336 371
#
# _framework density 22.604420000000001
#
# number of rings (size 3 to 8) (size 9 to 14) (size 15 to 20)
#    0.000    0.727    4.545    3.273    2.545    0.000 
#    0.000    1.818    0.000    0.000    0.000    0.000 
#    0.000    0.000    0.000    0.000    0.000    0.000 
#
# Total GULP energy -545722.901423 kJ/mol
# GULP energy per Si atom -12402.793214 kJ/mol
# Density = 2.255297 g / cm^3
# Si number density = 22.604420 Si / 1000 Ang^3
#
#
#
# Elastic Constant Matrix: (Units=GPa)
#
#
# Indices 1 2 3 4 5 6 
#
# 1 89.3800 6.5651 21.8886 0.0000 0.0000 0.0000
# 2 6.5651 61.1649 13.6141 0.0000 0.0000 0.0000
# 3 21.8886 13.6141 135.3325 0.0000 0.0000 0.0000
# 4 0.0000 0.0000 0.0000 13.3118 0.0000 0.0000
# 5 0.0000 0.0000 0.0000 0.0000 28.5795 0.0000
# 6 0.0000 0.0000 0.0000 0.0000 0.0000 27.7130
#
#
#
# Elastic Compliance Matrix: (Units=1/GPa)
#
#
# Indices 1 2 3 4 5 6 
#
# 1 0.011693 -0.000853 -0.001805 0.000000 0.000000 0.000000
# 2 -0.000853 0.016786 -0.001551 0.000000 0.000000 0.000000
# 3 -0.001805 -0.001551 0.007837 0.000000 0.000000 0.000000
# 4 0.000000 0.000000 0.000000 0.075121 0.000000 0.000000
# 5 0.000000 0.000000 0.000000 0.000000 0.034990 0.000000
# 6 0.000000 0.000000 0.000000 0.000000 0.000000 0.036084
#
#
# Mechanical properties :
#
#
# Convention : Reuss Voigt Hill
#
# Bulk Modulus (GPa) = 35.84525 41.11255 38.47890
# Shear Modulus (GPa) = 24.97136 30.17483 27.57309
#
# Velocity S-wave (km/s) = 3.32733 3.65760 3.49637
# Velocity P-wave (km/s) = 5.53656 6.00539 5.77574
#
# Compressibility (1/GPa) = 0.02789770
#
# Stress axis : x y z
#
# Youngs Moduli (GPa) = 85.52141 59.57359 127.59662
#
# Poissons Ratio (x) = 0.05083 0.23036
# Poissons Ratio (y) = 0.07297 0.19785
# Poissons Ratio (z) = 0.15440 0.09238
#
# Static dielectric constant tensor:
#      x y z
#    x 4.043100 0.000000 0.000000 
#    y 0.000000 3.790420 0.000000 
#    z 0.000000 0.000000 4.363720 
# 
# 
# High freq. dielectric constant tensor:
#      x y z
#    x 1.903960 0.000000 0.000000 
#    y 0.000000 1.867860 0.000000 
#    z 0.000000 0.000000 1.893320 
# 
# From -- ./inp_files/23574.got.cif
#   From: 2010.03.12/outbox.cif.g09.slc.cpg/sg60_12_cif.got.tgz:23574.got - 2010.04.10 18:46:24.
