data_PCOD8247438
_publ_section_title
;
Structure prediction by ZEFSAII (Michael W. Deem and Ramdas Pophale) SiO2 
 PCOD8247438
Probable space group: P B C N
;
_chemical_formula_sum "Si O2"
_cell_formula_units_Z 36
_cell_length_a 6.150094
_cell_length_b 16.557016
_cell_length_c 17.699921
_cell_angle_alpha 90.000000
_cell_angle_beta 90.000000
_cell_angle_gamma 90.000000
_cell_volume 1802.333480
_symmetry_space_group_name_H-M "P B C N"
_symmetry_group_IT_number 60
_symmetry_cell_setting 'orthorhombic'
loop_
_space_group_symop_operation_xyz
x,y,z
1/2-x,1/2-y,1/2+z
1/2+x,1/2-y,-z
-x,y,1/2-z
-x,-y,-z
1/2+x,1/2+y,1/2-z
1/2-x,1/2+y,z
x,-y,1/2+z
loop_
_atom_site_type_symbol
_atom_site_label
_atom_site_fract_x
_atom_site_fract_y
_atom_site_fract_z
Si Si1 0.796063 0.501003 0.946722
Si Si2 0.727909 0.765177 0.109826
Si Si3 0.009157 0.862786 0.513488
Si Si4 0.380670 0.884215 0.174600
Si Si5 0.500000 0.704958 0.750000
O O1 0.699066 0.410869 0.942666
O O2 0.864691 0.528039 0.863440
O O3 0.629902 0.570038 0.971872
O O4 0.000000 0.500000 0.000000
O O5 0.635547 0.682415 0.075827
O O6 0.522234 0.823871 0.122541
O O7 0.846673 0.745360 0.190825
O O8 0.894347 0.802059 0.048797
O O9 0.500000 0.905375 0.250000
O O10 0.144683 0.848372 0.193390
#
# Coordination Sequence:
#
# PCOD8247438 Si02
#       5
#     8   8   8   8   4
#     4  11  22  41  63  97 124 165 213 270 326 383
#     4  11  22  40  65  97 123 175 216 269 322 396
#     4  11  24  36  69  94 128 162 218 270 325 384
#     4  10  21  39  68  88 124 171 215 259 323 394
#     4  10  22  40  68  88 128 172 218 258 328 392
#
# _framework density 19.974107
#
# number of rings (size 3 to 8) (size 9 to 14) (size 15 to 20)
#    0.000    1.333    4.444    1.333    0.000    0.000 
#    0.000    0.000   31.778    0.000    0.000    0.000 
#    0.000    0.000    0.000    0.000    0.000    0.000 
#
# Total GULP energy -446243.177216 kJ/mol
# GULP energy per Si atom -12395.643812 kJ/mol
# Density = 1.992864 g / cm^3
# Si number density = 19.974107 Si / 1000 Ang^3
#
#
#
# Elastic Constant Matrix: (Units=GPa)
#
#
# Indices 1 2 3 4 5 6 
#
# 1 94.9649 32.1137 33.2217 0.0000 0.0000 0.0000
# 2 32.1137 94.5189 52.1186 0.0000 0.0000 0.0000
# 3 33.2217 52.1186 106.9243 0.0000 0.0000 0.0000
# 4 0.0000 0.0000 0.0000 35.8546 0.0000 0.0000
# 5 0.0000 0.0000 0.0000 0.0000 40.0824 0.0000
# 6 0.0000 0.0000 0.0000 0.0000 0.0000 31.9707
#
#
#
# Elastic Compliance Matrix: (Units=1/GPa)
#
#
# Indices 1 2 3 4 5 6 
#
# 1 0.012349 -0.002845 -0.002450 0.000000 0.000000 0.000000
# 2 -0.002845 0.015124 -0.006488 0.000000 0.000000 0.000000
# 3 -0.002450 -0.006488 0.013276 0.000000 0.000000 0.000000
# 4 0.000000 0.000000 0.000000 0.027890 0.000000 0.000000
# 5 0.000000 0.000000 0.000000 0.000000 0.024949 0.000000
# 6 0.000000 0.000000 0.000000 0.000000 0.000000 0.031279
#
#
# Mechanical properties :
#
#
# Convention : Reuss Voigt Hill
#
# Bulk Modulus (GPa) = 58.19592 59.03511 58.61551
# Shear Modulus (GPa) = 32.43351 33.51181 32.97266
#
# Velocity S-wave (km/s) = 4.03398 4.10049 4.06738
# Velocity P-wave (km/s) = 7.13416 7.21379 7.17409
#
# Compressibility (1/GPa) = 0.01718334
#
# Stress axis : x y z
#
# Youngs Moduli (GPa) = 80.97571 66.12005 75.32218
#
# Poissons Ratio (x) = 0.18809 0.18457
# Poissons Ratio (y) = 0.23035 0.48870
# Poissons Ratio (z) = 0.19842 0.42900
#
# Static dielectric constant tensor:
#      x y z
#    x 4.274290 0.000000 0.000000 
#    y 0.000000 3.501220 0.000000 
#    z 0.000000 0.000000 3.807760 
# 
# 
# High freq. dielectric constant tensor:
#      x y z
#    x 1.803780 0.000000 0.000000 
#    y 0.000000 1.753250 0.000000 
#    z 0.000000 0.000000 1.787330 
# 
# From -- ./inp_files/18499.got.cif
#   From: 2010.03.12/outbox.cif.g09.slc.cpg/sg60_10_cif.got.tgz:18499.got - 2010.04.10 18:46:24.
