data_PCOD8247511
_publ_section_title
;
Structure prediction by ZEFSAII (Michael W. Deem and Ramdas Pophale) SiO2 
 PCOD8247511
Probable space group: P B C N
;
_chemical_formula_sum "Si O2"
_cell_formula_units_Z 48
_cell_length_a 8.915744
_cell_length_b 28.687949
_cell_length_c 9.197248
_cell_angle_alpha 90.000000
_cell_angle_beta 90.000000
_cell_angle_gamma 90.000000
_cell_volume 2352.420673
_symmetry_space_group_name_H-M "P B C N"
_symmetry_group_IT_number 60
_symmetry_cell_setting 'orthorhombic'
loop_
_space_group_symop_operation_xyz
x,y,z
1/2-x,1/2-y,1/2+z
1/2+x,1/2-y,-z
-x,y,1/2-z
-x,-y,-z
1/2+x,1/2+y,1/2-z
1/2-x,1/2+y,z
x,-y,1/2+z
loop_
_atom_site_type_symbol
_atom_site_label
_atom_site_fract_x
_atom_site_fract_y
_atom_site_fract_z
Si Si1 0.572920 0.539299 0.904120
Si Si2 0.113047 0.218051 0.141399
Si Si3 0.059833 0.121564 0.394648
Si Si4 0.117031 0.724655 0.355737
Si Si5 0.913636 0.376098 0.609037
Si Si6 0.573535 0.959606 0.406113
O O1 0.500000 0.535576 0.750000
O O2 0.750062 0.531238 0.895400
O O3 0.500000 0.500000 0.000000
O O4 0.528031 0.590056 0.965648
O O5 0.251506 0.208673 0.247465
O O6 0.000000 0.246403 0.250000
O O7 0.028675 0.170691 0.090800
O O8 0.164102 0.245015 0.995683
O O9 0.236083 0.126355 0.371722
O O10 0.000000 0.095496 0.250000
O O11 0.036753 0.677670 0.417901
O O12 0.000000 0.752043 0.250000
O O13 0.960037 0.409092 0.475930
O O14 0.000000 0.396233 0.750000
O O15 0.500000 0.959763 0.250000
O O16 0.500000 0.000000 0.500000
#
# Coordination Sequence:
#
# PCOD8247511 Si02
#       6
#     8   8   8   8   8   8
#     4  11  24  42  65  99 130 169 220 269 330 397
#     4  11  22  43  65  93 133 173 219 273 333 394
#     4  10  21  41  64  90 126 170 210 265 325 383
#     4  11  23  40  65  98 128 175 221 270 333 396
#     4  10  22  41  65  91 125 167 218 260 322 390
#     4  11  24  43  66  95 132 172 214 272 332 393
#
# _framework density 20.404513999999999
#
# number of rings (size 3 to 8) (size 9 to 14) (size 15 to 20)
#    0.000    1.333    3.333    3.000    0.000    6.667 
#    3.000    0.000    0.000    0.000    0.000    0.000 
#    0.000    0.000    0.000    0.000    0.000    0.000 
#
# Total GULP energy -594691.338683 kJ/mol
# GULP energy per Si atom -12389.402889 kJ/mol
# Density = 2.035807 g / cm^3
# Si number density = 20.404514 Si / 1000 Ang^3
#
#
#
# Elastic Constant Matrix: (Units=GPa)
#
#
# Indices 1 2 3 4 5 6 
#
# 1 89.1169 56.1156 64.6585 0.0000 0.0000 0.0000
# 2 56.1156 109.2928 89.8574 0.0000 0.0000 0.0000
# 3 64.6585 89.8574 185.4379 0.0000 0.0000 0.0000
# 4 0.0000 0.0000 0.0000 23.2789 0.0000 0.0000
# 5 0.0000 0.0000 0.0000 0.0000 42.2338 0.0000
# 6 0.0000 0.0000 0.0000 0.0000 0.0000 24.4679
#
#
#
# Elastic Compliance Matrix: (Units=1/GPa)
#
#
# Indices 1 2 3 4 5 6 
#
# 1 0.017473 -0.006586 -0.002901 0.000000 0.000000 0.000000
# 2 -0.006586 0.017692 -0.006276 0.000000 0.000000 0.000000
# 3 -0.002901 -0.006276 0.009445 0.000000 0.000000 0.000000
# 4 0.000000 0.000000 0.000000 0.042957 0.000000 0.000000
# 5 0.000000 0.000000 0.000000 0.000000 0.023678 0.000000
# 6 0.000000 0.000000 0.000000 0.000000 0.000000 0.040870
#
#
# Mechanical properties :
#
#
# Convention : Reuss Voigt Hill
#
# Bulk Modulus (GPa) = 76.43486 89.45674 82.94580
# Shear Modulus (GPa) = 26.59516 29.54386 28.06951
#
# Velocity S-wave (km/s) = 3.61417 3.80927 3.71300
# Velocity P-wave (km/s) = 7.41333 7.95513 7.68901
#
# Compressibility (1/GPa) = 0.01308304
#
# Stress axis : x y z
#
# Youngs Moduli (GPa) = 57.22960 56.52377 105.87101
#
# Poissons Ratio (x) = 0.37229 0.30714
# Poissons Ratio (y) = 0.37694 0.66447
# Poissons Ratio (z) = 0.16603 0.35476
#
# Static dielectric constant tensor:
#      x y z
#    x 3.085600 0.000000 0.000000 
#    y 0.000000 3.895710 0.000000 
#    z 0.000000 0.000000 3.817120 
# 
# 
# High freq. dielectric constant tensor:
#      x y z
#    x 1.813180 0.000000 0.000000 
#    y 0.000000 1.791260 0.000000 
#    z 0.000000 0.000000 1.803360 
# 
# From -- ./inp_files/4206.got.cif
#   From: 2010.03.12/outbox.cif.g09.slc.cpg/sg60_3_cif.got.tgz:4206.got - 2010.04.10 18:46:24.
