data_PCOD8247519
_publ_section_title
;
Structure prediction by ZEFSAII (Michael W. Deem and Ramdas Pophale) SiO2 
 PCOD8247519
Probable space group: P B C N
;
_chemical_formula_sum "Si O2"
_cell_formula_units_Z 56
_cell_length_a 5.425473
_cell_length_b 35.941726
_cell_length_c 13.441579
_cell_angle_alpha 90.000000
_cell_angle_beta 90.000000
_cell_angle_gamma 90.000000
_cell_volume 2621.119518
_symmetry_space_group_name_H-M "P B C N"
_symmetry_group_IT_number 60
_symmetry_cell_setting 'orthorhombic'
loop_
_space_group_symop_operation_xyz
x,y,z
1/2-x,1/2-y,1/2+z
1/2+x,1/2-y,-z
-x,y,1/2-z
-x,-y,-z
1/2+x,1/2+y,1/2-z
1/2-x,1/2+y,z
x,-y,1/2+z
loop_
_atom_site_type_symbol
_atom_site_label
_atom_site_fract_x
_atom_site_fract_y
_atom_site_fract_z
Si Si1 0.000000 0.731002 0.750000
Si Si2 0.916342 0.233920 0.456281
Si Si3 0.109354 0.154369 0.957354
Si Si4 0.500000 0.315841 0.250000
Si Si5 0.487008 0.111462 0.855560
Si Si6 0.124672 0.919067 0.001728
Si Si7 0.661959 0.540819 0.653575
Si Si8 0.758548 0.539353 0.189356
O O1 0.033656 0.758422 0.658017
O O2 0.251230 0.707869 0.767391
O O3 0.653068 0.252152 0.482139
O O4 0.893402 0.190030 0.473249
O O5 0.389753 0.142903 0.931433
O O6 0.961863 0.159806 0.851356
O O7 0.011003 0.119771 0.022161
O O8 0.500000 0.133265 0.750000
O O9 0.713423 0.090524 0.902529
O O10 0.305906 0.078236 0.825228
O O11 0.962043 0.953129 0.044715
O O12 0.259936 0.932212 0.903013
O O13 0.500000 0.533770 0.750000
O O14 0.811901 0.502053 0.646123
O O15 0.500000 0.543270 0.250000
O O16 0.000000 0.551687 0.250000
#
# Coordination Sequence:
#
# PCOD8247519 Si02
#       8
#     4   8   8   4   8   8   8   8
#     4  12  24  46  70 102 132 175 224 283 336 404
#     4  12  25  46  71 101 137 175 229 278 333 414
#     4  11  26  40  66 102 138 178 223 280 348 413
#     4  12  24  42  74 102 134 173 218 283 354 402
#     4  11  22  38  67 103 145 171 225 284 355 421
#     4  11  25  43  67  99 140 184 226 283 354 409
#     4  10  21  41  66 103 133 176 230 293 349 404
#     4  11  27  47  70  95 137 189 245 286 329 403
#
# _framework density 21.364916999999998
#
# number of rings (size 3 to 8) (size 9 to 14) (size 15 to 20)
#    0.000    0.857    4.286    1.714   13.000    0.571 
#    1.286    0.000    0.000    0.000    0.000    0.000 
#    0.000    0.000    0.000    0.000    0.000    0.000 
#
# Total GULP energy -693828.382783 kJ/mol
# GULP energy per Si atom -12389.792550 kJ/mol
# Density = 2.131629 g / cm^3
# Si number density = 21.364917 Si / 1000 Ang^3
#
#
#
# Elastic Constant Matrix: (Units=GPa)
#
#
# Indices 1 2 3 4 5 6 
#
# 1 95.2092 24.2206 23.0961 0.0000 0.0000 0.0000
# 2 24.2206 118.7501 50.7089 0.0000 0.0000 0.0000
# 3 23.0961 50.7089 100.9896 0.0000 0.0000 0.0000
# 4 0.0000 0.0000 0.0000 57.7231 0.0000 0.0000
# 5 0.0000 0.0000 0.0000 0.0000 31.6690 0.0000
# 6 0.0000 0.0000 0.0000 0.0000 0.0000 -23.4220
#
#
#
# Elastic Compliance Matrix: (Units=1/GPa)
#
#
# Indices 1 2 3 4 5 6 
#
# 1 0.011335 -0.001534 -0.001822 0.000000 0.000000 0.000000
# 2 -0.001534 0.010927 -0.005136 0.000000 0.000000 0.000000
# 3 -0.001822 -0.005136 0.012898 0.000000 0.000000 0.000000
# 4 0.000000 0.000000 0.000000 0.017324 0.000000 0.000000
# 5 0.000000 0.000000 0.000000 0.000000 0.031577 0.000000
# 6 0.000000 0.000000 0.000000 0.000000 0.000000 -0.042695
#
#
# Mechanical properties :
#
#
# Convention : Reuss Voigt Hill
#
# Bulk Modulus (GPa) = 55.01730 56.77779 55.89755
# Shear Modulus (GPa) = 77.62943 27.65556 52.64250
#
# Velocity S-wave (km/s) = 6.03439 3.60173 4.96922
# Velocity P-wave (km/s) = 8.62317 6.62794 7.69053
#
# Compressibility (1/GPa) = 0.01817610
#
# Stress axis : x y z
#
# Youngs Moduli (GPa) = 88.21899 91.51602 77.53393
#
# Poissons Ratio (x) = 0.14038 0.14128
# Poissons Ratio (y) = 0.13532 0.39821
# Poissons Ratio (z) = 0.16075 0.47002
#
# Static dielectric constant tensor:
#      x y z
#    x 3.821670 0.000000 0.000000 
#    y 0.000000 4.150620 0.000000 
#    z 0.000000 0.000000 3.709970 
# 
# 
# High freq. dielectric constant tensor:
#      x y z
#    x 1.844240 0.000000 0.000000 
#    y 0.000000 1.844470 0.000000 
#    z 0.000000 0.000000 1.827940 
# 
# From -- ./inp_files/14136.got.cif
#   From: 2010.03.12/outbox.cif.g09.slc.cpg/sg60_8_cif.got.tgz:14136.got - 2010.04.10 18:46:24.
