data_PCOD8247009
_publ_section_title
;
Structure prediction by ZEFSAII (Michael W. Deem and Ramdas Pophale) SiO2 
 PCOD8247009
Probable space group: P B C N
;
_chemical_formula_sum "Si O2"
_cell_formula_units_Z 40
_cell_length_a 13.357989
_cell_length_b 8.932134
_cell_length_c 17.207242
_cell_angle_alpha 90.000000
_cell_angle_beta 90.000000
_cell_angle_gamma 90.000000
_cell_volume 2053.088063
_symmetry_space_group_name_H-M "P B C N"
_symmetry_group_IT_number 60
_symmetry_cell_setting 'orthorhombic'
loop_
_space_group_symop_operation_xyz
x,y,z
1/2-x,1/2-y,1/2+z
1/2+x,1/2-y,-z
-x,y,1/2-z
-x,-y,-z
1/2+x,1/2+y,1/2-z
1/2-x,1/2+y,z
x,-y,1/2+z
loop_
_atom_site_type_symbol
_atom_site_label
_atom_site_fract_x
_atom_site_fract_y
_atom_site_fract_z
Si Si1 0.249025 0.048873 0.877530
Si Si2 0.439682 0.210276 0.642438
Si Si3 0.645945 0.305132 0.704499
Si Si4 0.463576 0.935704 0.919477
Si Si5 0.572974 0.635881 0.517570
O O1 0.279150 0.210057 0.847755
O O2 0.175266 0.066373 0.950592
O O3 0.192146 0.970238 0.804674
O O4 0.346012 0.959900 0.906562
O O5 0.536465 0.306223 0.666436
O O6 0.355081 0.242892 0.707232
O O7 0.400289 0.270151 0.560089
O O8 0.470324 0.031840 0.643038
O O9 0.478452 0.754438 0.921015
O O10 0.500000 0.000000 0.000000
O O11 0.500000 0.500000 0.500000
#
# Coordination Sequence:
#
# PCOD8247009 Si02
#       5
#     8   8   8   8   8
#     4  11  20  37  62  87 121 162 203 249 307 368
#     4   9  20  39  59  83 124 161 198 253 310 365
#     4  10  20  38  60  83 122 163 200 250 312 362
#     4   9  20  37  60  87 117 156 199 254 311 361
#     4  11  20  36  64  96 118 158 207 256 302 368
#
# _framework density 19.482845000000001
#
# number of rings (size 3 to 8) (size 9 to 14) (size 15 to 20)
#    0.000    2.000    4.000    0.000    0.000    0.000 
#    7.200    2.000    4.400    0.000    0.000    0.000 
#    0.000    0.000    0.000    0.000    0.000    0.000 
#
# Total GULP energy -495626.068715 kJ/mol
# GULP energy per Si atom -12390.651718 kJ/mol
# Density = 1.943850 g / cm^3
# Si number density = 19.482845 Si / 1000 Ang^3
#
#
#
# Elastic Constant Matrix: (Units=GPa)
#
#
# Indices 1 2 3 4 5 6 
#
# 1 77.0184 36.6302 43.4790 0.0000 0.0000 0.0000
# 2 36.6302 94.3522 27.1764 0.0000 0.0000 0.0000
# 3 43.4790 27.1764 94.7591 0.0000 0.0000 0.0000
# 4 0.0000 0.0000 0.0000 34.7914 0.0000 0.0000
# 5 0.0000 0.0000 0.0000 0.0000 37.6605 0.0000
# 6 0.0000 0.0000 0.0000 0.0000 0.0000 17.8084
#
#
#
# Elastic Compliance Matrix: (Units=1/GPa)
#
#
# Indices 1 2 3 4 5 6 
#
# 1 0.019871 -0.005546 -0.007527 0.000000 0.000000 0.000000
# 2 -0.005546 0.013101 -0.001212 0.000000 0.000000 0.000000
# 3 -0.007527 -0.001212 0.014354 0.000000 0.000000 0.000000
# 4 0.000000 0.000000 0.000000 0.028743 0.000000 0.000000
# 5 0.000000 0.000000 0.000000 0.000000 0.026553 0.000000
# 6 0.000000 0.000000 0.000000 0.000000 0.000000 0.056153
#
#
# Mechanical properties :
#
#
# Convention : Reuss Voigt Hill
#
# Bulk Modulus (GPa) = 53.31911 53.41120 53.36516
# Shear Modulus (GPa) = 25.82664 28.64167 27.23416
#
# Velocity S-wave (km/s) = 3.64484 3.83834 3.74284
# Velocity P-wave (km/s) = 6.71861 6.86424 6.79182
#
# Compressibility (1/GPa) = 0.01875500
#
# Stress axis : x y z
#
# Youngs Moduli (GPa) = 50.32475 76.32950 69.66519
#
# Poissons Ratio (x) = 0.42336 0.52436
# Poissons Ratio (y) = 0.27913 0.08446
# Poissons Ratio (z) = 0.37879 0.09254
#
# Static dielectric constant tensor:
#      x y z
#    x 3.417370 0.000000 0.000000 
#    y 0.000000 3.949320 0.000000 
#    z 0.000000 0.000000 3.633150 
# 
# 
# High freq. dielectric constant tensor:
#      x y z
#    x 1.744330 0.000000 0.000000 
#    y 0.000000 1.767730 0.000000 
#    z 0.000000 0.000000 1.744790 
# 
# From -- ./inp_files/19839.got.cif
#   From: 2010.03.12/outbox.cif.g09.slc.cpg/sg60_10_cif.got.tgz:19839.got - 2010.04.10 18:46:24.
