data_PCOD8247743
_publ_section_title
;
Structure prediction by ZEFSAII (Michael W. Deem and Ramdas Pophale) SiO2 
 PCOD8247743
Probable space group: P B C N
;
_chemical_formula_sum "Si O2"
_cell_formula_units_Z 40
_cell_length_a 8.757293
_cell_length_b 17.996491
_cell_length_c 11.371481
_cell_angle_alpha 90.000000
_cell_angle_beta 90.000000
_cell_angle_gamma 90.000000
_cell_volume 1792.151599
_symmetry_space_group_name_H-M "P B C N"
_symmetry_group_IT_number 60
_symmetry_cell_setting 'orthorhombic'
loop_
_space_group_symop_operation_xyz
x,y,z
1/2-x,1/2-y,1/2+z
1/2+x,1/2-y,-z
-x,y,1/2-z
-x,-y,-z
1/2+x,1/2+y,1/2-z
1/2-x,1/2+y,z
x,-y,1/2+z
loop_
_atom_site_type_symbol
_atom_site_label
_atom_site_fract_x
_atom_site_fract_y
_atom_site_fract_z
Si Si1 0.844799 0.084471 0.087893
Si Si2 0.007986 0.447919 0.884031
Si Si3 0.948317 0.074258 0.627885
Si Si4 0.993885 0.235131 0.375323
Si Si5 0.211907 0.334441 0.521245
O O1 0.664271 0.097285 0.097856
O O2 0.925349 0.155638 0.143253
O O3 0.890067 0.008995 0.155685
O O4 0.901892 0.074253 0.953905
O O5 0.000000 0.484021 0.750000
O O6 0.863165 0.392696 0.888327
O O7 0.000000 0.500000 0.000000
O O8 0.809504 0.122032 0.576109
O O9 0.000000 0.111327 0.750000
O O10 0.074837 0.287304 0.468218
O O11 0.000000 0.276397 0.250000
O O12 0.818592 0.223632 0.411295
#
# Coordination Sequence:
#
# PCOD8247743 Si02
#       5
#     8   8   8   8   8
#     4  10  22  41  65  99 134 180 227 284 348 409
#     4  12  26  43  70 103 142 179 233 290 354 411
#     4  10  22  40  68  96 138 176 236 287 348 408
#     4  11  24  43  70  93 141 184 229 281 347 412
#     4  11  25  44  63 106 130 186 231 284 347 413
#
# _framework density 22.319541000000001
#
# number of rings (size 3 to 8) (size 9 to 14) (size 15 to 20)
#    0.000    1.200    2.000    3.000    2.800    5.600 
#    0.000    2.000    0.000    0.000    0.000    0.000 
#    0.000    0.000    0.000    0.000    0.000    0.000 
#
# Total GULP energy -495858.991899 kJ/mol
# GULP energy per Si atom -12396.474797 kJ/mol
# Density = 2.226874 g / cm^3
# Si number density = 22.319541 Si / 1000 Ang^3
#
#
#
# Elastic Constant Matrix: (Units=GPa)
#
#
# Indices 1 2 3 4 5 6 
#
# 1 130.8630 11.1985 52.7417 0.0000 0.0000 0.0000
# 2 11.1985 56.6425 27.0719 0.0000 0.0000 0.0000
# 3 52.7417 27.0719 151.2727 0.0000 0.0000 0.0000
# 4 0.0000 0.0000 0.0000 -32.2449 0.0000 0.0000
# 5 0.0000 0.0000 0.0000 0.0000 23.8657 0.0000
# 6 0.0000 0.0000 0.0000 0.0000 0.0000 41.4625
#
#
#
# Elastic Compliance Matrix: (Units=1/GPa)
#
#
# Indices 1 2 3 4 5 6 
#
# 1 0.008896 -0.000302 -0.003047 0.000000 0.000000 0.000000
# 2 -0.000302 0.019316 -0.003351 0.000000 0.000000 0.000000
# 3 -0.003047 -0.003351 0.008273 0.000000 0.000000 0.000000
# 4 0.000000 0.000000 0.000000 -0.031013 0.000000 0.000000
# 5 0.000000 0.000000 0.000000 0.000000 0.041901 0.000000
# 6 0.000000 0.000000 0.000000 0.000000 0.000000 0.024118
#
#
# Mechanical properties :
#
#
# Convention : Reuss Voigt Hill
#
# Bulk Modulus (GPa) = 43.32297 57.86695 50.59496
# Shear Modulus (GPa) = 54.00295 23.13442 38.56868
#
# Velocity S-wave (km/s) = 4.92422 3.22298 4.16146
# Velocity P-wave (km/s) = 7.19604 6.31134 6.76816
#
# Compressibility (1/GPa) = 0.02308244
#
# Stress axis : x y z
#
# Youngs Moduli (GPa) = 112.41467 51.77014 120.87741
#
# Poissons Ratio (x) = 0.01565 0.36836
# Poissons Ratio (y) = 0.03398 0.40512
# Poissons Ratio (z) = 0.34257 0.17351
#
# Static dielectric constant tensor:
#      x y z
#    x 4.201240 0.000000 0.000000 
#    y 0.000000 3.876190 0.000000 
#    z 0.000000 0.000000 3.970230 
# 
# 
# High freq. dielectric constant tensor:
#      x y z
#    x 1.895560 0.000000 0.000000 
#    y 0.000000 1.859800 0.000000 
#    z 0.000000 0.000000 1.882400 
# 
# From -- ./inp_files/9735.got.cif
#   From: 2010.03.12/outbox.cif.g09.slc.cpg/sg60_5_cif.got.tgz:9735.got - 2010.04.10 18:46:24.
