data_PCOD8247086
_publ_section_title
;
Structure prediction by ZEFSAII (Michael W. Deem and Ramdas Pophale) SiO2 
 PCOD8247086
Probable space group: P B C N
;
_chemical_formula_sum "Si O2"
_cell_formula_units_Z 40
_cell_length_a 8.167981
_cell_length_b 24.110215
_cell_length_c 10.277745
_cell_angle_alpha 90.000000
_cell_angle_beta 90.000000
_cell_angle_gamma 90.000000
_cell_volume 2024.014597
_symmetry_space_group_name_H-M "P B C N"
_symmetry_group_IT_number 60
_symmetry_cell_setting 'orthorhombic'
loop_
_space_group_symop_operation_xyz
x,y,z
1/2-x,1/2-y,1/2+z
1/2+x,1/2-y,-z
-x,y,1/2-z
-x,-y,-z
1/2+x,1/2+y,1/2-z
1/2-x,1/2+y,z
x,-y,1/2+z
loop_
_atom_site_type_symbol
_atom_site_label
_atom_site_fract_x
_atom_site_fract_y
_atom_site_fract_z
Si Si1 0.868533 0.526964 0.360154
Si Si2 0.415721 0.197632 0.617607
Si Si3 0.312019 0.620398 0.263145
Si Si4 0.637904 0.084452 0.981853
Si Si5 0.379168 0.222259 0.139116
O O1 0.715845 0.561557 0.306581
O O2 0.786785 0.471368 0.419014
O O3 0.000000 0.510458 0.250000
O O4 0.960768 0.565814 0.464258
O O5 0.500000 0.218305 0.750000
O O6 0.383417 0.131671 0.627319
O O7 0.247709 0.230376 0.601845
O O8 0.527490 0.208594 0.493021
O O9 0.500000 0.638050 0.250000
O O10 0.257502 0.612303 0.411982
O O11 0.202994 0.666965 0.195252
O O12 0.500000 0.245921 0.250000
#
# Coordination Sequence:
#
# PCOD8247086 Si02
#       5
#     8   8   8   8   8
#     4   9  18  38  65  93 124 165 212 262 318 387
#     4  12  25  40  66  98 125 169 217 271 315 383
#     4  11  22  39  66  92 129 176 211 259 326 388
#     4  10  20  39  65  91 125 168 217 262 319 382
#     4  12  24  46  65  91 130 171 218 264 325 393
#
# _framework density 19.762702999999998
#
# number of rings (size 3 to 8) (size 9 to 14) (size 15 to 20)
#    0.000    1.200    4.000    3.000    2.800    0.800 
#    0.000    1.000    0.000    0.000    0.000    0.000 
#    0.000    0.000    0.000    0.000    0.000    0.000 
#
# Total GULP energy -495996.600823 kJ/mol
# GULP energy per Si atom -12399.915021 kJ/mol
# Density = 1.971772 g / cm^3
# Si number density = 19.762703 Si / 1000 Ang^3
#
#
#
# Elastic Constant Matrix: (Units=GPa)
#
#
# Indices 1 2 3 4 5 6 
#
# 1 98.5471 47.2230 36.4903 0.0000 0.0000 0.0000
# 2 47.2230 120.8978 44.6179 0.0000 0.0000 0.0000
# 3 36.4903 44.6179 98.0022 0.0000 0.0000 0.0000
# 4 0.0000 0.0000 0.0000 3.5587 0.0000 0.0000
# 5 0.0000 0.0000 0.0000 0.0000 23.4768 0.0000
# 6 0.0000 0.0000 0.0000 0.0000 0.0000 12.2071
#
#
#
# Elastic Compliance Matrix: (Units=1/GPa)
#
#
# Indices 1 2 3 4 5 6 
#
# 1 0.013220 -0.004023 -0.003091 0.000000 0.000000 0.000000
# 2 -0.004023 0.011166 -0.003586 0.000000 0.000000 0.000000
# 3 -0.003091 -0.003586 0.012987 0.000000 0.000000 0.000000
# 4 0.000000 0.000000 0.000000 0.280999 0.000000 0.000000
# 5 0.000000 0.000000 0.000000 0.000000 0.042595 0.000000
# 6 0.000000 0.000000 0.000000 0.000000 0.000000 0.081920
#
#
# Mechanical properties :
#
#
# Convention : Reuss Voigt Hill
#
# Bulk Modulus (GPa) = 62.60115 63.78995 63.19555
# Shear Modulus (GPa) = 10.64712 20.45625 15.55169
#
# Velocity S-wave (km/s) = 2.32361 3.22078 2.80825
# Velocity P-wave (km/s) = 6.24052 6.79553 6.52393
#
# Compressibility (1/GPa) = 0.01597415
#
# Stress axis : x y z
#
# Youngs Moduli (GPa) = 75.64499 89.55604 76.99937
#
# Poissons Ratio (x) = 0.36029 0.23798
# Poissons Ratio (y) = 0.30432 0.27610
# Poissons Ratio (z) = 0.23379 0.32113
#
# Static dielectric constant tensor:
#      x y z
#    x 3.427720 0.000000 0.000000 
#    y 0.000000 3.769140 0.000000 
#    z 0.000000 0.000000 3.820950 
# 
# 
# High freq. dielectric constant tensor:
#      x y z
#    x 1.746130 0.000000 0.000000 
#    y 0.000000 1.786450 0.000000 
#    z 0.000000 0.000000 1.777350 
# 
# From -- ./inp_files/9916.got.cif
#   From: 2010.03.12/outbox.cif.g09.slc.cpg/sg60_5_cif.got.tgz:9916.got - 2010.04.10 18:46:24.
