data_PCOD8247871
_publ_section_title
;
Structure prediction by ZEFSAII (Michael W. Deem and Ramdas Pophale) SiO2 
 PCOD8247871
Probable space group: P B C N
;
_chemical_formula_sum "Si O2"
_cell_formula_units_Z 48
_cell_length_a 6.348445
_cell_length_b 13.510174
_cell_length_c 26.107510
_cell_angle_alpha 90.000000
_cell_angle_beta 90.000000
_cell_angle_gamma 90.000000
_cell_volume 2239.204493
_symmetry_space_group_name_H-M "P B C N"
_symmetry_group_IT_number 60
_symmetry_cell_setting 'orthorhombic'
loop_
_space_group_symop_operation_xyz
x,y,z
1/2-x,1/2-y,1/2+z
1/2+x,1/2-y,-z
-x,y,1/2-z
-x,-y,-z
1/2+x,1/2+y,1/2-z
1/2-x,1/2+y,z
x,-y,1/2+z
loop_
_atom_site_type_symbol
_atom_site_label
_atom_site_fract_x
_atom_site_fract_y
_atom_site_fract_z
Si Si1 0.156809 0.248414 0.556287
Si Si2 0.726298 0.471674 0.626807
Si Si3 0.657748 0.228916 0.145711
Si Si4 0.954805 0.637482 0.867889
Si Si5 0.499688 0.395228 0.971234
Si Si6 0.068814 0.896787 0.194045
O O1 0.306496 0.173695 0.586968
O O2 0.267717 0.354533 0.544470
O O3 0.945496 0.265254 0.588993
O O4 0.103818 0.192673 0.503854
O O5 0.821544 0.385539 0.663250
O O6 0.638762 0.410818 0.578873
O O7 0.539103 0.531348 0.653050
O O8 0.912397 0.545218 0.610622
O O9 0.511895 0.284460 0.186807
O O10 0.890093 0.275134 0.148069
O O11 0.818928 0.603406 0.817708
O O12 0.500000 0.500000 0.000000
O O13 0.000000 0.934109 0.250000
#
# Coordination Sequence:
#
# PCOD8247871 Si02
#       6
#     8   8   8   8   8   8
#     4  11  25  42  63  97 141 182 242 284 332 410
#     4  11  24  41  66  99 133 176 227 273 346 409
#     4  10  22  44  65  96 130 181 222 274 349 394
#     4  10  22  44  69  90 138 177 216 291 331 408
#     4  12  25  40  65  98 137 188 236 283 344 409
#     4  10  24  46  68 100 132 168 221 282 347 415
#
# _framework density 21.436183
#
# number of rings (size 3 to 8) (size 9 to 14) (size 15 to 20)
#    0.000    1.333    1.667    4.000    7.000    3.333 
#    6.000    0.000    0.000    0.000    0.000    0.000 
#    0.000    0.000    0.000    0.000    0.000    0.000 
#
# Total GULP energy -595100.027311 kJ/mol
# GULP energy per Si atom -12397.917236 kJ/mol
# Density = 2.138739 g / cm^3
# Si number density = 21.436183 Si / 1000 Ang^3
#
#
#
# Elastic Constant Matrix: (Units=GPa)
#
#
# Indices 1 2 3 4 5 6 
#
# 1 129.9726 44.8006 42.1841 0.0000 0.0000 0.0000
# 2 44.8006 127.4324 10.8607 0.0000 0.0000 0.0000
# 3 42.1841 10.8607 80.8604 0.0000 0.0000 0.0000
# 4 0.0000 0.0000 0.0000 14.9957 0.0000 0.0000
# 5 0.0000 0.0000 0.0000 0.0000 27.5603 0.0000
# 6 0.0000 0.0000 0.0000 0.0000 0.0000 37.2649
#
#
#
# Elastic Compliance Matrix: (Units=1/GPa)
#
#
# Indices 1 2 3 4 5 6 
#
# 1 0.010438 -0.003242 -0.005010 0.000000 0.000000 0.000000
# 2 -0.003242 0.008945 0.000490 0.000000 0.000000 0.000000
# 3 -0.005010 0.000490 0.014915 0.000000 0.000000 0.000000
# 4 0.000000 0.000000 0.000000 0.066686 0.000000 0.000000
# 5 0.000000 0.000000 0.000000 0.000000 0.036284 0.000000
# 6 0.000000 0.000000 0.000000 0.000000 0.000000 0.026835
#
#
# Mechanical properties :
#
#
# Convention : Reuss Voigt Hill
#
# Bulk Modulus (GPa) = 53.26651 59.32847 56.29749
# Shear Modulus (GPa) = 26.89844 31.99217 29.44530
#
# Velocity S-wave (km/s) = 3.54618 3.86740 3.71027
# Velocity P-wave (km/s) = 6.45523 6.90502 6.68391
#
# Compressibility (1/GPa) = 0.01877352
#
# Stress axis : x y z
#
# Youngs Moduli (GPa) = 95.80812 111.78838 67.04814
#
# Poissons Ratio (x) = 0.36247 0.33589
# Poissons Ratio (y) = 0.31066 -0.03286
# Poissons Ratio (z) = 0.47996 -0.05478
#
# Static dielectric constant tensor:
#      x y z
#    x 4.196090 0.000000 0.000000 
#    y 0.000000 4.146110 0.000000 
#    z 0.000000 0.000000 3.689510 
# 
# 
# High freq. dielectric constant tensor:
#      x y z
#    x 1.853960 0.000000 0.000000 
#    y 0.000000 1.855390 0.000000 
#    z 0.000000 0.000000 1.814560 
# 
# From -- ./inp_files/24856.got.cif
#   From: 2010.03.12/outbox.cif.g09.slc.cpg/sg60_13_cif.got.tgz:24856.got - 2010.04.10 18:46:24.
