data_PCOD8247700
_publ_section_title
;
Structure prediction by ZEFSAII (Michael W. Deem and Ramdas Pophale) SiO2 
 PCOD8247700
Probable space group: P B C N
;
_chemical_formula_sum "Si O2"
_cell_formula_units_Z 28
_cell_length_a 11.580623
_cell_length_b 8.825775
_cell_length_c 13.523705
_cell_angle_alpha 90.000000
_cell_angle_beta 90.000000
_cell_angle_gamma 90.000000
_cell_volume 1382.230475
_symmetry_space_group_name_H-M "P B C N"
_symmetry_group_IT_number 60
_symmetry_cell_setting 'orthorhombic'
loop_
_space_group_symop_operation_xyz
x,y,z
1/2-x,1/2-y,1/2+z
1/2+x,1/2-y,-z
-x,y,1/2-z
-x,-y,-z
1/2+x,1/2+y,1/2-z
1/2-x,1/2+y,z
x,-y,1/2+z
loop_
_atom_site_type_symbol
_atom_site_label
_atom_site_fract_x
_atom_site_fract_y
_atom_site_fract_z
Si Si1 0.500000 0.675811 0.250000
Si Si2 0.167560 0.613652 0.986537
Si Si3 0.960434 0.465507 0.350241
Si Si4 0.108738 0.946876 0.937871
O O1 0.421346 0.572336 0.321224
O O2 0.424958 0.790533 0.178902
O O3 0.073098 0.533191 0.918699
O O4 0.157240 0.793712 0.985677
O O5 0.294277 0.574805 0.947074
O O6 0.146506 0.550711 0.098055
O O7 0.000000 0.553177 0.250000
O O8 0.000000 0.000000 0.000000
#
# Coordination Sequence:
#
# PCOD8247700 Si02
#       4
#     4   8   8   8
#     4   8  20  44  60  96 130 164 226 268 318 402
#     4  10  22  39  66  92 132 172 215 271 328 383
#     4   8  18  40  64  90 126 169 217 265 322 384
#     4  11  25  43  66  96 135 171 224 271 333 394
#
# _framework density 20.257116
#
# number of rings (size 3 to 8) (size 9 to 14) (size 15 to 20)
#    0.857    1.714    0.000    0.000   12.000    2.286 
#    2.571    0.000    0.000    0.000    0.000    0.000 
#    0.000    0.000    0.000    0.000    0.000    0.000 
#
# Total GULP energy -346964.593544 kJ/mol
# GULP energy per Si atom -12391.592627 kJ/mol
# Density = 2.021101 g / cm^3
# Si number density = 20.257116 Si / 1000 Ang^3
#
#
#
# Elastic Constant Matrix: (Units=GPa)
#
#
# Indices 1 2 3 4 5 6 
#
# 1 117.1463 60.9410 50.6238 0.0000 0.0000 0.0000
# 2 60.9410 105.7397 45.5773 0.0000 0.0000 0.0000
# 3 50.6238 45.5773 132.3516 0.0000 0.0000 0.0000
# 4 0.0000 0.0000 0.0000 32.1419 0.0000 0.0000
# 5 0.0000 0.0000 0.0000 0.0000 29.4456 0.0000
# 6 0.0000 0.0000 0.0000 0.0000 0.0000 35.2734
#
#
#
# Elastic Compliance Matrix: (Units=1/GPa)
#
#
# Indices 1 2 3 4 5 6 
#
# 1 0.013028 -0.006295 -0.002815 0.000000 0.000000 0.000000
# 2 -0.006295 0.014147 -0.002464 0.000000 0.000000 0.000000
# 3 -0.002815 -0.002464 0.009481 0.000000 0.000000 0.000000
# 4 0.000000 0.000000 0.000000 0.031112 0.000000 0.000000
# 5 0.000000 0.000000 0.000000 0.000000 0.033961 0.000000
# 6 0.000000 0.000000 0.000000 0.000000 0.000000 0.028350
#
#
# Mechanical properties :
#
#
# Convention : Reuss Voigt Hill
#
# Bulk Modulus (GPa) = 74.03281 74.39130 74.21206
# Shear Modulus (GPa) = 31.69992 32.57855 32.13923
#
# Velocity S-wave (km/s) = 3.96015 4.01465 3.98749
# Velocity P-wave (km/s) = 7.58527 7.63500 7.61017
#
# Compressibility (1/GPa) = 0.01350752
#
# Stress axis : x y z
#
# Youngs Moduli (GPa) = 76.76070 70.68590 105.47397
#
# Poissons Ratio (x) = 0.44494 0.29694
# Poissons Ratio (y) = 0.48318 0.25990
# Poissons Ratio (z) = 0.21610 0.17418
#
# Static dielectric constant tensor:
#      x y z
#    x 3.385440 0.000000 0.000000 
#    y 0.000000 3.489010 0.000000 
#    z 0.000000 0.000000 4.043310 
# 
# 
# High freq. dielectric constant tensor:
#      x y z
#    x 1.768030 0.000000 0.000000 
#    y 0.000000 1.775670 0.000000 
#    z 0.000000 0.000000 1.803020 
# 
# From -- ./inp_files/15549.got.cif
#   From: 2010.03.12/outbox.cif.g09.slc.cpg/sg60_8_cif.got.tgz:15549.got - 2010.04.10 18:46:24.
