data_PCOD8247976
_publ_section_title
;
Structure prediction by ZEFSAII (Michael W. Deem and Ramdas Pophale) SiO2 
 PCOD8247976
Probable space group: P B C N
;
_chemical_formula_sum "Si O2"
_cell_formula_units_Z 64
_cell_length_a 8.792827
_cell_length_b 23.106071
_cell_length_c 14.611941
_cell_angle_alpha 90.000000
_cell_angle_beta 90.000000
_cell_angle_gamma 90.000000
_cell_volume 2968.674226
_symmetry_space_group_name_H-M "P B C N"
_symmetry_group_IT_number 60
_symmetry_cell_setting 'orthorhombic'
loop_
_space_group_symop_operation_xyz
x,y,z
1/2-x,1/2-y,1/2+z
1/2+x,1/2-y,-z
-x,y,1/2-z
-x,-y,-z
1/2+x,1/2+y,1/2-z
1/2-x,1/2+y,z
x,-y,1/2+z
loop_
_atom_site_type_symbol
_atom_site_label
_atom_site_fract_x
_atom_site_fract_y
_atom_site_fract_z
Si Si1 0.862392 0.444442 0.414914
Si Si2 0.752856 0.173221 0.960989
Si Si3 0.653071 0.750769 0.619872
Si Si4 0.310139 0.765471 0.675336
Si Si5 0.915725 0.136034 0.531732
Si Si6 0.376551 0.375541 0.674271
Si Si7 0.788421 0.525911 0.575338
Si Si8 0.827944 0.001330 0.763497
O O1 0.865943 0.378421 0.448785
O O2 0.774321 0.485476 0.486841
O O3 0.773795 0.452131 0.318545
O O4 0.038330 0.458145 0.406150
O O5 0.708182 0.224902 0.890552
O O6 0.913947 0.144778 0.929832
O O7 0.740504 0.198161 0.064661
O O8 0.476757 0.766501 0.631369
O O9 0.713932 0.740938 0.722346
O O10 0.680696 0.692146 0.562091
O O11 0.264594 0.832361 0.679207
O O12 0.948869 0.131623 0.424724
O O13 0.825703 0.080235 0.567679
O O14 0.500000 0.358895 0.750000
O O15 0.317263 0.440564 0.684274
O O16 0.738097 0.489444 0.663109
O O17 0.000000 0.024170 0.750000
#
# Coordination Sequence:
#
# PCOD8247976 Si02
#       8
#     8   8   8   8   8   8   8   8
#     4  11  26  45  67 100 133 178 230 272 348 403
#     4  11  24  40  71  97 134 178 225 278 340 405
#     4  10  23  42  67  97 135 180 218 278 342 399
#     4  10  23  43  63  99 136 174 226 273 339 405
#     4  11  23  43  69  94 140 173 230 283 337 402
#     4  11  23  42  67  99 131 175 226 282 334 405
#     4  11  26  45  68  97 139 178 224 285 332 409
#     4  11  25  44  70  98 135 175 225 278 342 401
#
# _framework density 21.558446
#
# number of rings (size 3 to 8) (size 9 to 14) (size 15 to 20)
#    0.000    1.250    2.500    1.875    8.750    1.000 
#    4.500    0.000    0.000    0.000    0.000    0.000 
#    0.000    0.000    0.000    0.000    0.000    0.000 
#
# Total GULP energy -793471.363116 kJ/mol
# GULP energy per Si atom -12397.990049 kJ/mol
# Density = 2.150938 g / cm^3
# Si number density = 21.558446 Si / 1000 Ang^3
#
#
#
# Elastic Constant Matrix: (Units=GPa)
#
#
# Indices 1 2 3 4 5 6 
#
# 1 47.0046 18.0795 38.1170 0.0000 0.0000 0.0000
# 2 18.0795 86.3981 35.8944 0.0000 0.0000 0.0000
# 3 38.1170 35.8944 122.2414 0.0000 0.0000 0.0000
# 4 0.0000 0.0000 0.0000 33.6159 0.0000 0.0000
# 5 0.0000 0.0000 0.0000 0.0000 36.8620 0.0000
# 6 0.0000 0.0000 0.0000 0.0000 0.0000 32.3456
#
#
#
# Elastic Compliance Matrix: (Units=1/GPa)
#
#
# Indices 1 2 3 4 5 6 
#
# 1 0.028991 -0.002632 -0.008267 0.000000 0.000000 0.000000
# 2 -0.002632 0.013421 -0.003120 0.000000 0.000000 0.000000
# 3 -0.008267 -0.003120 0.011675 0.000000 0.000000 0.000000
# 4 0.000000 0.000000 0.000000 0.029748 0.000000 0.000000
# 5 0.000000 0.000000 0.000000 0.000000 0.027128 0.000000
# 6 0.000000 0.000000 0.000000 0.000000 0.000000 0.030916
#
#
# Mechanical properties :
#
#
# Convention : Reuss Voigt Hill
#
# Bulk Modulus (GPa) = 38.39044 48.86955 43.63000
# Shear Modulus (GPa) = 27.99550 31.46823 29.73187
#
# Velocity S-wave (km/s) = 3.60750 3.82471 3.71769
# Velocity P-wave (km/s) = 5.93282 6.49786 6.22176
#
# Compressibility (1/GPa) = 0.02604815
#
# Stress axis : x y z
#
# Youngs Moduli (GPa) = 34.49384 74.50763 85.65644
#
# Poissons Ratio (x) = 0.19611 0.70812
# Poissons Ratio (y) = 0.09079 0.26727
# Poissons Ratio (z) = 0.28516 0.23249
#
# Static dielectric constant tensor:
#      x y z
#    x 3.688390 0.000000 0.000000 
#    y 0.000000 3.940680 0.000000 
#    z 0.000000 0.000000 4.109260 
# 
# 
# High freq. dielectric constant tensor:
#      x y z
#    x 1.836520 0.000000 0.000000 
#    y 0.000000 1.848880 0.000000 
#    z 0.000000 0.000000 1.862490 
# 
# From -- ./inp_files/15429.got.cif
#   From: 2010.03.12/outbox.cif.g09.slc.cpg/sg60_8_cif.got.tgz:15429.got - 2010.04.10 18:46:24.
