data_PCOD8247333
_publ_section_title
;
Structure prediction by ZEFSAII (Michael W. Deem and Ramdas Pophale) SiO2 
 PCOD8247333
Probable space group: P B C N
;
_chemical_formula_sum "Si O2"
_cell_formula_units_Z 44
_cell_length_a 5.025475
_cell_length_b 15.966995
_cell_length_c 23.817007
_cell_angle_alpha 90.000000
_cell_angle_beta 90.000000
_cell_angle_gamma 90.000000
_cell_volume 1911.117945
_symmetry_space_group_name_H-M "P B C N"
_symmetry_group_IT_number 60
_symmetry_cell_setting 'orthorhombic'
loop_
_space_group_symop_operation_xyz
x,y,z
1/2-x,1/2-y,1/2+z
1/2+x,1/2-y,-z
-x,y,1/2-z
-x,-y,-z
1/2+x,1/2+y,1/2-z
1/2-x,1/2+y,z
x,-y,1/2+z
loop_
_atom_site_type_symbol
_atom_site_label
_atom_site_fract_x
_atom_site_fract_y
_atom_site_fract_z
Si Si1 0.071877 0.222962 0.469074
Si Si2 0.322973 0.590299 0.094060
Si Si3 0.836427 0.498406 0.636190
Si Si4 0.727663 0.806890 0.146517
Si Si5 0.243386 0.276708 0.684516
Si Si6 0.500000 0.912573 0.750000
O O1 0.825295 0.281498 0.489102
O O2 0.948194 0.127677 0.463987
O O3 0.196309 0.255354 0.410837
O O4 0.548549 0.539430 0.126116
O O5 0.240008 0.674694 0.125647
O O6 0.057044 0.532755 0.090324
O O7 0.804992 0.596757 0.631608
O O8 0.921370 0.471263 0.698559
O O9 0.505091 0.779118 0.191481
O O10 0.996795 0.787580 0.180226
O O11 0.234124 0.347536 0.733038
#
# Coordination Sequence:
#
# PCOD8247333 Si02
#       6
#     8   8   8   8   8   4
#     4  11  21  38  64  87 113 158 212 242 284 370
#     4  10  21  40  60  86 121 159 187 242 307 345
#     4  11  23  39  61  88 126 153 191 249 307 347
#     4  11  23  41  60  90 122 154 192 259 304 331
#     4  10  21  38  61  83 117 157 200 232 283 357
#     4  10  22  38  62  88 114 164 202 230 286 370
#
# _framework density 23.023171000000001
#
# number of rings (size 3 to 8) (size 9 to 14) (size 15 to 20)
#    0.000    1.455    0.000    8.727    0.000    8.000 
#    0.000    5.455    0.000    0.000    0.000    0.000 
#    0.000    0.000    0.000    0.000    0.000    0.000 
#
# Total GULP energy -545233.784554 kJ/mol
# GULP energy per Si atom -12391.676922 kJ/mol
# Density = 2.297077 g / cm^3
# Si number density = 23.023171 Si / 1000 Ang^3
#
#
#
# Elastic Constant Matrix: (Units=GPa)
#
#
# Indices 1 2 3 4 5 6 
#
# 1 114.3662 15.7863 -5.7017 0.0000 0.0000 0.0000
# 2 15.7863 94.6237 -7.1513 0.0000 0.0000 0.0000
# 3 -5.7017 -7.1513 34.6652 0.0000 0.0000 0.0000
# 4 0.0000 0.0000 0.0000 17.9130 0.0000 0.0000
# 5 0.0000 0.0000 0.0000 0.0000 -1.1500 0.0000
# 6 0.0000 0.0000 0.0000 0.0000 0.0000 15.7001
#
#
#
# Elastic Compliance Matrix: (Units=1/GPa)
#
#
# Indices 1 2 3 4 5 6 
#
# 1 0.008998 -0.001411 0.001189 0.000000 0.000000 0.000000
# 2 -0.001411 0.010957 0.002028 0.000000 0.000000 0.000000
# 3 0.001189 0.002028 0.029461 0.000000 0.000000 0.000000
# 4 0.000000 0.000000 0.000000 0.055825 0.000000 0.000000
# 5 0.000000 0.000000 0.000000 0.000000 -0.869603 0.000000
# 6 0.000000 0.000000 0.000000 0.000000 0.000000 0.063694
#
#
# Mechanical properties :
#
#
# Convention : Reuss Voigt Hill
#
# Bulk Modulus (GPa) = 18.85805 27.72461 23.29133
# Shear Modulus (GPa) = -7.28223 22.54075 7.62926
#
# Velocity S-wave (km/s) = -1.78041 3.13237 1.82234
# Velocity P-wave (km/s) = 1.99554 5.01503 3.81659
#
# Compressibility (1/GPa) = 0.05302774
#
# Stress axis : x y z
#
# Youngs Moduli (GPa) = 111.13686 91.26657 33.94281
#
# Poissons Ratio (x) = 0.12880 -0.04035
# Poissons Ratio (y) = 0.15685 -0.06884
# Poissons Ratio (z) = -0.13212 -0.18511
#
# Static dielectric constant tensor:
#      x y z
#    x 4.630760 0.000000 0.000000 
#    y 0.000000 4.074690 0.000000 
#    z 0.000000 0.000000 4.316810 
# 
# 
# High freq. dielectric constant tensor:
#      x y z
#    x 1.932770 0.000000 0.000000 
#    y 0.000000 1.898250 0.000000 
#    z 0.000000 0.000000 1.888730 
# 
# From -- ./inp_files/24805.got.cif
#   From: 2010.03.12/outbox.cif.g09.slc.cpg/sg60_13_cif.got.tgz:24805.got - 2010.04.10 18:46:24.
