data_PCOD8247502
_publ_section_title
;
Structure prediction by ZEFSAII (Michael W. Deem and Ramdas Pophale) SiO2 
 PCOD8247502
Probable space group: P B C N
;
_chemical_formula_sum "Si O2"
_cell_formula_units_Z 44
_cell_length_a 13.509616
_cell_length_b 27.470707
_cell_length_c 5.174785
_cell_angle_alpha 90.000000
_cell_angle_beta 90.000000
_cell_angle_gamma 90.000000
_cell_volume 1920.459497
_symmetry_space_group_name_H-M "P B C N"
_symmetry_group_IT_number 60
_symmetry_cell_setting 'orthorhombic'
loop_
_space_group_symop_operation_xyz
x,y,z
1/2-x,1/2-y,1/2+z
1/2+x,1/2-y,-z
-x,y,1/2-z
-x,-y,-z
1/2+x,1/2+y,1/2-z
1/2-x,1/2+y,z
x,-y,1/2+z
loop_
_atom_site_type_symbol
_atom_site_label
_atom_site_fract_x
_atom_site_fract_y
_atom_site_fract_z
Si Si1 0.105635 0.032514 0.420982
Si Si2 0.000000 0.649635 0.750000
Si Si3 0.334141 0.969689 0.898211
Si Si4 0.686965 0.312190 0.880374
Si Si5 0.000000 0.123143 0.250000
Si Si6 0.195231 0.696858 0.619021
Si Si7 0.500000 0.900538 0.750000
O O1 0.220723 0.046875 0.415561
O O2 0.050643 0.084863 0.452359
O O3 0.078550 0.994312 0.647799
O O4 0.916383 0.680140 0.890706
O O5 0.949366 0.624393 0.499944
O O6 0.408911 0.925365 0.898994
O O7 0.361080 0.998507 0.642571
O O8 0.582272 0.341478 0.879838
O O9 0.750384 0.325620 0.629436
O O10 0.677773 0.254300 0.876872
O O11 0.744138 0.325593 0.141483
#
# Coordination Sequence:
#
# PCOD8247502 Si02
#       7
#     8   4   8   8   4   8   4
#     4  10  24  42  63  92 134 172 209 273 332 375
#     4  12  25  37  66  94 138 158 208 259 343 372
#     4  10  21  41  62  87 125 170 212 267 323 376
#     4  10  24  43  70  95 129 171 221 260 317 384
#     4  12  25  42  72 100 128 174 232 264 311 408
#     4  10  23  46  64  96 135 170 204 270 330 384
#     4  12  24  37  64 102 118 172 216 273 304 410
#
# _framework density 22.911185
#
# number of rings (size 3 to 8) (size 9 to 14) (size 15 to 20)
#    0.000    1.455    0.000    3.818    5.091    3.636 
#    0.000    5.455    0.000    0.000    0.000    0.000 
#    0.000    0.000    0.000    0.000    0.000    0.000 
#
# Total GULP energy -545147.150899 kJ/mol
# GULP energy per Si atom -12389.707975 kJ/mol
# Density = 2.285904 g / cm^3
# Si number density = 22.911185 Si / 1000 Ang^3
#
#
#
# Elastic Constant Matrix: (Units=GPa)
#
#
# Indices 1 2 3 4 5 6 
#
# 1 117.5802 44.0952 31.8658 0.0000 0.0000 0.0000
# 2 44.0952 58.2788 24.4664 0.0000 0.0000 0.0000
# 3 31.8658 24.4664 157.8401 0.0000 0.0000 0.0000
# 4 0.0000 0.0000 0.0000 34.4821 0.0000 0.0000
# 5 0.0000 0.0000 0.0000 0.0000 12.1641 0.0000
# 6 0.0000 0.0000 0.0000 0.0000 0.0000 130.9547
#
#
#
# Elastic Compliance Matrix: (Units=1/GPa)
#
#
# Indices 1 2 3 4 5 6 
#
# 1 0.012047 -0.008657 -0.001090 0.000000 0.000000 0.000000
# 2 -0.008657 0.024575 -0.002061 0.000000 0.000000 0.000000
# 3 -0.001090 -0.002061 0.006875 0.000000 0.000000 0.000000
# 4 0.000000 0.000000 0.000000 0.029001 0.000000 0.000000
# 5 0.000000 0.000000 0.000000 0.000000 0.082209 0.000000
# 6 0.000000 0.000000 0.000000 0.000000 0.000000 0.007636
#
#
# Mechanical properties :
#
#
# Convention : Reuss Voigt Hill
#
# Bulk Modulus (GPa) = 50.30472 59.39487 54.84980
# Shear Modulus (GPa) = 25.96225 51.07163 38.51694
#
# Velocity S-wave (km/s) = 3.36991 4.72647 4.10462
# Velocity P-wave (km/s) = 6.09473 7.46768 6.81587
#
# Compressibility (1/GPa) = 0.01987885
#
# Stress axis : x y z
#
# Youngs Moduli (GPa) = 83.00830 40.69228 145.45125
#
# Poissons Ratio (x) = 0.35229 0.15857
# Poissons Ratio (y) = 0.71863 0.29984
# Poissons Ratio (z) = 0.09049 0.08389
#
# Static dielectric constant tensor:
#      x y z
#    x 4.205090 0.000000 0.000000 
#    y 0.000000 4.072250 0.000000 
#    z 0.000000 0.000000 3.820890 
# 
# 
# High freq. dielectric constant tensor:
#      x y z
#    x 1.929520 0.000000 0.000000 
#    y 0.000000 1.897450 0.000000 
#    z 0.000000 0.000000 1.915890 
# 
# From -- ./inp_files/1307.got.cif
#   From: 2010.03.12/outbox.cif.g09.slc.cpg/sg60_1_cif.got.tgz:1307.got - 2010.04.10 18:46:24.
