data_PCOD8247304
_publ_section_title
;
Structure prediction by ZEFSAII (Michael W. Deem and Ramdas Pophale) SiO2 
 PCOD8247304
Probable space group: P B C N
;
_chemical_formula_sum "Si O2"
_cell_formula_units_Z 32
_cell_length_a 9.691662
_cell_length_b 8.625108
_cell_length_c 16.588072
_cell_angle_alpha 90.000000
_cell_angle_beta 90.000000
_cell_angle_gamma 90.000000
_cell_volume 1386.624001
_symmetry_space_group_name_H-M "P B C N"
_symmetry_group_IT_number 60
_symmetry_cell_setting 'orthorhombic'
loop_
_space_group_symop_operation_xyz
x,y,z
1/2-x,1/2-y,1/2+z
1/2+x,1/2-y,-z
-x,y,1/2-z
-x,-y,-z
1/2+x,1/2+y,1/2-z
1/2-x,1/2+y,z
x,-y,1/2+z
loop_
_atom_site_type_symbol
_atom_site_label
_atom_site_fract_x
_atom_site_fract_y
_atom_site_fract_z
Si Si1 0.339611 0.763195 0.876547
Si Si2 0.156957 0.198475 0.065305
Si Si3 0.433516 0.024917 0.086567
Si Si4 0.066955 0.937582 0.833790
O O1 0.447317 0.902680 0.856207
O O2 0.186992 0.816690 0.855096
O O3 0.375017 0.611222 0.825127
O O4 0.352836 0.717699 0.969940
O O5 0.310675 0.148371 0.086887
O O6 0.123431 0.357577 0.114355
O O7 0.047153 0.070339 0.095152
O O8 0.500000 0.000000 0.000000
O O9 0.000000 0.885928 0.750000
#
# Coordination Sequence:
#
# PCOD8247304 Si02
#       4
#     8   8   8   8
#     4  11  22  44  68  96 134 178 229 277 338 416
#     4  11  21  41  69 100 131 176 230 280 338 411
#     4  10  21  37  66  99 128 167 222 281 327 387
#     4  12  27  44  67 101 140 181 226 290 355 412
#
# _framework density 23.077632999999999
#
# number of rings (size 3 to 8) (size 9 to 14) (size 15 to 20)
#    0.000    1.000    0.000    9.750    0.000    4.000 
#    0.000    2.500    0.000    0.000    0.000    0.000 
#    0.000    0.000    0.000    0.000    0.000    0.000 
#
# Total GULP energy -396824.908941 kJ/mol
# GULP energy per Si atom -12400.778404 kJ/mol
# Density = 2.302511 g / cm^3
# Si number density = 23.077633 Si / 1000 Ang^3
#
#
#
# Elastic Constant Matrix: (Units=GPa)
#
#
# Indices 1 2 3 4 5 6 
#
# 1 175.4954 43.3791 53.5842 0.0000 0.0000 0.0000
# 2 43.3791 98.2410 32.8264 0.0000 0.0000 0.0000
# 3 53.5842 32.8264 78.5211 0.0000 0.0000 0.0000
# 4 0.0000 0.0000 0.0000 16.6042 0.0000 0.0000
# 5 0.0000 0.0000 0.0000 0.0000 26.3689 0.0000
# 6 0.0000 0.0000 0.0000 0.0000 0.0000 59.7110
#
#
#
# Elastic Compliance Matrix: (Units=1/GPa)
#
#
# Indices 1 2 3 4 5 6 
#
# 1 0.007478 -0.001856 -0.004327 0.000000 0.000000 0.000000
# 2 -0.001856 0.012293 -0.003872 0.000000 0.000000 0.000000
# 3 -0.004327 -0.003872 0.017307 0.000000 0.000000 0.000000
# 4 0.000000 0.000000 0.000000 0.060226 0.000000 0.000000
# 5 0.000000 0.000000 0.000000 0.000000 0.037923 0.000000
# 6 0.000000 0.000000 0.000000 0.000000 0.000000 0.016747
#
#
# Mechanical properties :
#
#
# Convention : Reuss Voigt Hill
#
# Bulk Modulus (GPa) = 58.93956 67.98190 63.46073
# Shear Modulus (GPa) = 28.13072 35.36801 31.74936
#
# Velocity S-wave (km/s) = 3.49515 3.91905 3.71315
# Velocity P-wave (km/s) = 6.47172 7.07110 6.77804
#
# Compressibility (1/GPa) = 0.01696653
#
# Stress axis : x y z
#
# Youngs Moduli (GPa) = 133.72170 81.35009 57.77898
#
# Poissons Ratio (x) = 0.15100 0.25003
# Poissons Ratio (y) = 0.24821 0.22374
# Poissons Ratio (z) = 0.57865 0.31502
#
# Static dielectric constant tensor:
#      x y z
#    x 4.472080 0.000000 0.000000 
#    y 0.000000 4.771030 0.000000 
#    z 0.000000 0.000000 3.710660 
# 
# 
# High freq. dielectric constant tensor:
#      x y z
#    x 1.937610 0.000000 0.000000 
#    y 0.000000 1.928270 0.000000 
#    z 0.000000 0.000000 1.867500 
# 
# From -- ./inp_files/21881.got.cif
#   From: 2010.03.12/outbox.cif.g09.slc.cpg/sg60_11_cif.got.tgz:21881.got - 2010.04.10 18:46:24.
