data_PCOD8247234
_publ_section_title
;
Structure prediction by ZEFSAII (Michael W. Deem and Ramdas Pophale) SiO2 
 PCOD8247234
Probable space group: P B C N
;
_chemical_formula_sum "Si O2"
_cell_formula_units_Z 60
_cell_length_a 16.815680
_cell_length_b 21.215772
_cell_length_c 9.221491
_cell_angle_alpha 90.000000
_cell_angle_beta 90.000000
_cell_angle_gamma 90.000000
_cell_volume 3289.837301
_symmetry_space_group_name_H-M "P B C N"
_symmetry_group_IT_number 60
_symmetry_cell_setting 'orthorhombic'
loop_
_space_group_symop_operation_xyz
x,y,z
1/2-x,1/2-y,1/2+z
1/2+x,1/2-y,-z
-x,y,1/2-z
-x,-y,-z
1/2+x,1/2+y,1/2-z
1/2-x,1/2+y,z
x,-y,1/2+z
loop_
_atom_site_type_symbol
_atom_site_label
_atom_site_fract_x
_atom_site_fract_y
_atom_site_fract_z
Si Si1 0.000000 0.002892 0.250000
Si Si2 0.045567 0.739174 0.108677
Si Si3 0.287116 0.762068 0.250418
Si Si4 0.333357 0.597717 0.974352
Si Si5 0.562128 0.701797 0.368202
Si Si6 0.301985 0.819879 0.548049
Si Si7 0.603750 0.538341 0.003649
Si Si8 0.335608 0.646055 0.661532
O O1 0.065652 0.045310 0.335256
O O2 0.963868 0.959212 0.377861
O O3 0.101880 0.680195 0.057239
O O4 0.100272 0.798886 0.145504
O O5 0.000000 0.715418 0.250000
O O6 0.981934 0.757256 0.988686
O O7 0.378313 0.751118 0.208161
O O8 0.277211 0.769131 0.423330
O O9 0.233799 0.702828 0.201329
O O10 0.252995 0.825095 0.171974
O O11 0.392363 0.642077 0.065829
O O12 0.240244 0.613840 0.008167
O O13 0.345923 0.525366 0.015651
O O14 0.354824 0.606244 0.806168
O O15 0.500000 0.675832 0.250000
O O16 0.659755 0.599002 0.976686
#
# Coordination Sequence:
#
# PCOD8247234 Si02
#       8
#     4   8   8   8   8   8   8   8
#     4  10  24  32  48  68 112 126 178 220 236 290
#     4  11  21  33  55  78 107 138 168 209 270 318
#     4   9  19  36  51  72 102 136 173 218 255 313
#     4  10  21  36  53  70 106 142 175 212 252 303
#     4  11  21  33  53  81 105 129 175 216 259 310
#     4   9  19  36  51  73 101 137 174 213 259 308
#     4  11  22  37  49  74 100 146 181 207 255 301
#     4  10  21  37  53  69 105 147 174 204 262 309
#
# _framework density 18.237983
#
# number of rings (size 3 to 8) (size 9 to 14) (size 15 to 20)
#    0.000    1.867    4.000    0.000    7.467    0.000 
#    2.400    0.000    0.000    0.000    0.000    1.867 
#    0.000    0.000    0.000    0.000    0.000    0.000 
#
# Total GULP energy -743655.220998 kJ/mol
# GULP energy per Si atom -12394.253683 kJ/mol
# Density = 1.819647 g / cm^3
# Si number density = 18.237983 Si / 1000 Ang^3
#
#
#
# Elastic Constant Matrix: (Units=GPa)
#
#
# Indices 1 2 3 4 5 6 
#
# 1 80.2137 39.4639 15.5851 0.0000 0.0000 0.0000
# 2 39.4639 58.9455 13.4873 0.0000 0.0000 0.0000
# 3 15.5851 13.4873 70.5497 0.0000 0.0000 0.0000
# 4 0.0000 0.0000 0.0000 22.4310 0.0000 0.0000
# 5 0.0000 0.0000 0.0000 0.0000 30.9015 0.0000
# 6 0.0000 0.0000 0.0000 0.0000 0.0000 14.2905
#
#
#
# Elastic Compliance Matrix: (Units=1/GPa)
#
#
# Indices 1 2 3 4 5 6 
#
# 1 0.018813 -0.012177 -0.001828 0.000000 0.000000 0.000000
# 2 -0.012177 0.025622 -0.002208 0.000000 0.000000 0.000000
# 3 -0.001828 -0.002208 0.015000 0.000000 0.000000 0.000000
# 4 0.000000 0.000000 0.000000 0.044581 0.000000 0.000000
# 5 0.000000 0.000000 0.000000 0.000000 0.032361 0.000000
# 6 0.000000 0.000000 0.000000 0.000000 0.000000 0.069977
#
#
# Mechanical properties :
#
#
# Convention : Reuss Voigt Hill
#
# Bulk Modulus (GPa) = 37.02444 38.53126 37.77785
# Shear Modulus (GPa) = 20.17889 22.93609 21.55749
#
# Velocity S-wave (km/s) = 3.32990 3.55011 3.44177
# Velocity P-wave (km/s) = 5.92698 6.16256 6.04592
#
# Compressibility (1/GPa) = 0.02700919
#
# Stress axis : x y z
#
# Youngs Moduli (GPa) = 53.15572 39.02830 66.66485
#
# Poissons Ratio (x) = 0.47524 0.12186
# Poissons Ratio (y) = 0.64726 0.14722
# Poissons Ratio (z) = 0.09717 0.08619
#
# Static dielectric constant tensor:
#      x y z
#    x 3.588900 0.000000 0.000000 
#    y 0.000000 3.068250 0.000000 
#    z 0.000000 0.000000 3.663860 
# 
# 
# High freq. dielectric constant tensor:
#      x y z
#    x 1.694700 0.000000 0.000000 
#    y 0.000000 1.662560 0.000000 
#    z 0.000000 0.000000 1.728700 
# 
# From -- ./inp_files/6273.got.cif
#   From: 2010.03.12/outbox.cif.g09.slc.cpg/sg60_4_cif.got.tgz:6273.got - 2010.04.10 18:46:24.
