data_PCOD8247495
_publ_section_title
;
Structure prediction by ZEFSAII (Michael W. Deem and Ramdas Pophale) SiO2 
 PCOD8247495
Probable space group: P B C N
;
_chemical_formula_sum "Si O2"
_cell_formula_units_Z 36
_cell_length_a 8.665012
_cell_length_b 22.526169
_cell_length_c 9.278257
_cell_angle_alpha 90.000000
_cell_angle_beta 90.000000
_cell_angle_gamma 90.000000
_cell_volume 1811.018574
_symmetry_space_group_name_H-M "P B C N"
_symmetry_group_IT_number 60
_symmetry_cell_setting 'orthorhombic'
loop_
_space_group_symop_operation_xyz
x,y,z
1/2-x,1/2-y,1/2+z
1/2+x,1/2-y,-z
-x,y,1/2-z
-x,-y,-z
1/2+x,1/2+y,1/2-z
1/2-x,1/2+y,z
x,-y,1/2+z
loop_
_atom_site_type_symbol
_atom_site_label
_atom_site_fract_x
_atom_site_fract_y
_atom_site_fract_z
Si Si1 0.332469 0.029378 0.791865
Si Si2 0.355632 0.533936 0.062463
Si Si3 0.500000 0.252857 0.750000
Si Si4 0.739709 0.341047 0.266676
Si Si5 0.481317 0.341733 0.493130
O O1 0.500000 0.002799 0.750000
O O2 0.332824 0.098410 0.752410
O O3 0.195516 0.991918 0.715926
O O4 0.294518 0.024676 0.960857
O O5 0.500000 0.500000 0.000000
O O6 0.408982 0.602077 0.077198
O O7 0.646221 0.213221 0.790561
O O8 0.524160 0.291869 0.608156
O O9 0.638816 0.354695 0.408301
O O10 0.641853 0.321895 0.126897
#
# Coordination Sequence:
#
# PCOD8247495 Si02
#       5
#     8   8   4   8   8
#     4  11  22  39  61  90 124 162 200 252 310 357
#     4  11  22  38  64  89 122 157 204 250 299 370
#     4  12  22  38  64  86 122 152 206 254 294 354
#     4  10  21  41  60  85 121 163 198 243 306 363
#     4  10  23  38  61  91 116 159 204 244 301 360
#
# _framework density 19.878316000000002
#
# number of rings (size 3 to 8) (size 9 to 14) (size 15 to 20)
#    0.000    1.333    3.333    2.667    3.111    0.000 
#    0.000    0.000    4.889    0.000    0.000    0.000 
#    0.000    0.000    0.000    0.000    0.000    0.000 
#
# Total GULP energy -446323.513065 kJ/mol
# GULP energy per Si atom -12397.875363 kJ/mol
# Density = 1.983307 g / cm^3
# Si number density = 19.878316 Si / 1000 Ang^3
#
#
#
# Elastic Constant Matrix: (Units=GPa)
#
#
# Indices 1 2 3 4 5 6 
#
# 1 79.6270 11.1264 5.6518 0.0000 0.0000 0.0000
# 2 11.1264 73.4819 27.1554 0.0000 0.0000 0.0000
# 3 5.6518 27.1554 72.3162 0.0000 0.0000 0.0000
# 4 0.0000 0.0000 0.0000 36.1755 0.0000 0.0000
# 5 0.0000 0.0000 0.0000 0.0000 24.0855 0.0000
# 6 0.0000 0.0000 0.0000 0.0000 0.0000 35.6462
#
#
#
# Elastic Compliance Matrix: (Units=1/GPa)
#
#
# Indices 1 2 3 4 5 6 
#
# 1 0.012836 -0.001826 -0.000317 0.000000 0.000000 0.000000
# 2 -0.001826 0.016061 -0.005888 0.000000 0.000000 0.000000
# 3 -0.000317 -0.005888 0.016064 0.000000 0.000000 0.000000
# 4 0.000000 0.000000 0.000000 0.027643 0.000000 0.000000
# 5 0.000000 0.000000 0.000000 0.000000 0.041519 0.000000
# 6 0.000000 0.000000 0.000000 0.000000 0.000000 0.028053
#
#
# Mechanical properties :
#
#
# Convention : Reuss Voigt Hill
#
# Bulk Modulus (GPa) = 34.60515 34.81025 34.70770
# Shear Modulus (GPa) = 29.78425 31.28089 30.53257
#
# Velocity S-wave (km/s) = 3.87502 3.97119 3.92340
# Velocity P-wave (km/s) = 6.12106 6.21102 6.16621
#
# Compressibility (1/GPa) = 0.02889743
#
# Stress axis : x y z
#
# Youngs Moduli (GPa) = 77.90423 62.26100 62.25049
#
# Poissons Ratio (x) = 0.11371 0.01976
# Poissons Ratio (y) = 0.14228 0.36656
# Poissons Ratio (z) = 0.02473 0.36662
#
# Static dielectric constant tensor:
#      x y z
#    x 3.632580 0.000000 0.000000 
#    y 0.000000 3.624990 0.000000 
#    z 0.000000 0.000000 2.689170 
# 
# 
# High freq. dielectric constant tensor:
#      x y z
#    x 1.781500 0.000000 0.000000 
#    y 0.000000 1.770900 0.000000 
#    z 0.000000 0.000000 1.778220 
# 
# From -- ./inp_files/3671.got.cif
#   From: 2010.03.12/outbox.cif.g09.slc.cpg/sg60_2_cif.got.tgz:3671.got - 2010.04.10 18:46:24.
