data_PCOD8247128
_publ_section_title
;
Structure prediction by ZEFSAII (Michael W. Deem and Ramdas Pophale) SiO2 
 PCOD8247128
Probable space group: P B C N
;
_chemical_formula_sum "Si O2"
_cell_formula_units_Z 60
_cell_length_a 8.863138
_cell_length_b 27.208905
_cell_length_c 11.208144
_cell_angle_alpha 90.000000
_cell_angle_beta 90.000000
_cell_angle_gamma 90.000000
_cell_volume 2702.914311
_symmetry_space_group_name_H-M "P B C N"
_symmetry_group_IT_number 60
_symmetry_cell_setting 'orthorhombic'
loop_
_space_group_symop_operation_xyz
x,y,z
1/2-x,1/2-y,1/2+z
1/2+x,1/2-y,-z
-x,y,1/2-z
-x,-y,-z
1/2+x,1/2+y,1/2-z
1/2-x,1/2+y,z
x,-y,1/2+z
loop_
_atom_site_type_symbol
_atom_site_label
_atom_site_fract_x
_atom_site_fract_y
_atom_site_fract_z
Si Si1 0.247765 0.617332 0.780438
Si Si2 0.659365 0.010397 0.438370
Si Si3 0.895661 0.663618 0.068300
Si Si4 0.711874 0.182956 0.318925
Si Si5 0.858770 0.105001 0.466314
Si Si6 0.500000 0.954305 0.250000
Si Si7 0.817054 0.081929 0.974571
Si Si8 0.139071 0.717716 0.672738
O O1 0.104398 0.583880 0.825567
O O2 0.333895 0.593746 0.666937
O O3 0.200585 0.672369 0.748765
O O4 0.352513 0.621540 0.895818
O O5 0.730900 0.064428 0.434515
O O6 0.500000 0.000000 0.500000
O O7 0.624644 0.989797 0.307335
O O8 0.783294 0.975239 0.498537
O O9 0.787224 0.680309 0.175682
O O10 0.063221 0.659682 0.120631
O O11 0.828431 0.612190 0.021548
O O12 0.904884 0.702271 0.960862
O O13 0.844794 0.150647 0.376279
O O14 0.734654 0.240465 0.346479
O O15 0.031709 0.089066 0.449388
O O16 0.000000 0.739612 0.750000
#
# Coordination Sequence:
#
# PCOD8247128 Si02
#       8
#     8   8   8   8   8   4   8   8
#     4  10  21  42  69 100 136 177 237 290 347 416
#     4  11  22  40  67  98 135 180 229 280 351 424
#     4  10  25  49  63  98 137 181 229 287 345 426
#     4  11  27  43  68  97 139 181 229 283 360 416
#     4  12  24  41  68 104 139 180 228 294 352 418
#     4  10  20  40  68 104 130 182 236 282 350 430
#     4  10  24  43  68  97 140 178 232 289 346 416
#     4  11  24  41  75  99 134 180 235 290 344 413
#
# _framework density 22.198262
#
# number of rings (size 3 to 8) (size 9 to 14) (size 15 to 20)
#    0.000    1.333    2.000    2.400    7.467    3.200 
#    4.800    0.000    0.000    0.000    0.000    0.000 
#    0.000    0.000    0.000    0.000    0.000    0.000 
#
# Total GULP energy -743399.862567 kJ/mol
# GULP energy per Si atom -12389.997709 kJ/mol
# Density = 2.214774 g / cm^3
# Si number density = 22.198262 Si / 1000 Ang^3
#
#
#
# Elastic Constant Matrix: (Units=GPa)
#
#
# Indices 1 2 3 4 5 6 
#
# 1 95.1627 28.9655 24.0562 0.0000 0.0000 0.0000
# 2 28.9655 114.3957 39.5767 0.0000 0.0000 0.0000
# 3 24.0562 39.5767 104.4336 0.0000 0.0000 0.0000
# 4 0.0000 0.0000 0.0000 15.1866 0.0000 0.0000
# 5 0.0000 0.0000 0.0000 0.0000 29.2042 0.0000
# 6 0.0000 0.0000 0.0000 0.0000 0.0000 33.7465
#
#
#
# Elastic Compliance Matrix: (Units=1/GPa)
#
#
# Indices 1 2 3 4 5 6 
#
# 1 0.011674 -0.002331 -0.001806 0.000000 0.000000 0.000000
# 2 -0.002331 0.010526 -0.003452 0.000000 0.000000 0.000000
# 3 -0.001806 -0.003452 0.011300 0.000000 0.000000 0.000000
# 4 0.000000 0.000000 0.000000 0.065847 0.000000 0.000000
# 5 0.000000 0.000000 0.000000 0.000000 0.034242 0.000000
# 6 0.000000 0.000000 0.000000 0.000000 0.000000 0.029633
#
#
# Mechanical properties :
#
#
# Convention : Reuss Voigt Hill
#
# Bulk Modulus (GPa) = 54.57900 55.46544 55.02222
# Shear Modulus (GPa) = 27.09920 30.38704 28.74312
#
# Velocity S-wave (km/s) = 3.49776 3.70387 3.60229
# Velocity P-wave (km/s) = 6.39944 6.58272 6.49173
#
# Compressibility (1/GPa) = 0.01832206
#
# Stress axis : x y z
#
# Youngs Moduli (GPa) = 85.65767 95.00146 88.49869
#
# Poissons Ratio (x) = 0.22148 0.15980
# Poissons Ratio (y) = 0.19969 0.30550
# Poissons Ratio (z) = 0.15467 0.32795
#
# Static dielectric constant tensor:
#      x y z
#    x 3.686860 0.000000 0.000000 
#    y 0.000000 4.636550 0.000000 
#    z 0.000000 0.000000 2.493960 
# 
# 
# High freq. dielectric constant tensor:
#      x y z
#    x 1.871490 0.000000 0.000000 
#    y 0.000000 1.873050 0.000000 
#    z 0.000000 0.000000 1.875740 
# 
# From -- ./inp_files/10318.got.cif
#   From: 2010.03.12/outbox.cif.g09.slc.cpg/sg60_6_cif.got.tgz:10318.got - 2010.04.10 18:46:24.
