data_PCOD8247654
_publ_section_title
;
Structure prediction by ZEFSAII (Michael W. Deem and Ramdas Pophale) SiO2 
 PCOD8247654
Probable space group: P B C N
;
_chemical_formula_sum "Si O2"
_cell_formula_units_Z 56
_cell_length_a 6.689843
_cell_length_b 29.968445
_cell_length_c 13.064873
_cell_angle_alpha 90.000000
_cell_angle_beta 90.000000
_cell_angle_gamma 90.000000
_cell_volume 2619.300507
_symmetry_space_group_name_H-M "P B C N"
_symmetry_group_IT_number 60
_symmetry_cell_setting 'orthorhombic'
loop_
_space_group_symop_operation_xyz
x,y,z
1/2-x,1/2-y,1/2+z
1/2+x,1/2-y,-z
-x,y,1/2-z
-x,-y,-z
1/2+x,1/2+y,1/2-z
1/2-x,1/2+y,z
x,-y,1/2+z
loop_
_atom_site_type_symbol
_atom_site_label
_atom_site_fract_x
_atom_site_fract_y
_atom_site_fract_z
Si Si1 0.500000 0.741131 0.750000
Si Si2 0.000000 0.618198 0.250000
Si Si3 0.938631 0.610282 0.638524
Si Si4 0.144470 0.900604 0.042919
Si Si5 0.619848 0.466424 0.146671
Si Si6 0.624857 0.677633 0.566181
Si Si7 0.311447 0.688287 0.172460
Si Si8 0.839525 0.066437 0.161525
O O1 0.592031 0.715279 0.651837
O O2 0.312768 0.768439 0.706236
O O3 0.157836 0.646930 0.183555
O O4 0.118186 0.582953 0.317302
O O5 0.809778 0.565781 0.653102
O O6 0.831894 0.651555 0.582660
O O7 0.000000 0.627852 0.750000
O O8 0.123851 0.596451 0.568672
O O9 0.038952 0.947272 0.067845
O O10 0.052620 0.856800 0.094229
O O11 0.092831 0.897587 0.922976
O O12 0.500000 0.467065 0.250000
O O13 0.685832 0.516361 0.117970
O O14 0.619591 0.694449 0.447205
O O15 0.500000 0.682241 0.250000
O O16 0.000000 0.069966 0.250000
#
# Coordination Sequence:
#
# PCOD8247654 Si02
#       8
#     4   4   8   8   8   8   8   8
#     4  11  28  46  72 108 132 172 224 272 340 429
#     4  11  22  42  66  98 130 180 230 266 330 403
#     4  11  22  39  68  96 136 180 221 282 339 392
#     4  11  22  40  66  93 132 177 221 275 331 391
#     4  10  22  38  60  94 136 176 230 280 324 388
#     4  11  25  45  68 103 133 170 226 272 334 414
#     4  11  26  48  72  98 139 174 219 281 343 403
#     4  11  24  39  63  94 136 184 230 276 327 382
#
# _framework density 21.379752
#
# number of rings (size 3 to 8) (size 9 to 14) (size 15 to 20)
#    0.000    1.143    1.429    4.286    5.000    4.571 
#    0.000    0.000    0.000    0.000    0.000    0.000 
#    0.000    0.000    0.000    0.000    0.000    0.000 
#
# Total GULP energy -693874.364050 kJ/mol
# GULP energy per Si atom -12390.613644 kJ/mol
# Density = 2.133109 g / cm^3
# Si number density = 21.379752 Si / 1000 Ang^3
#
#
#
# Elastic Constant Matrix: (Units=GPa)
#
#
# Indices 1 2 3 4 5 6 
#
# 1 126.3750 64.1820 45.4560 0.0000 0.0000 0.0000
# 2 64.1820 125.9211 40.9592 0.0000 0.0000 0.0000
# 3 45.4560 40.9592 134.5617 0.0000 0.0000 0.0000
# 4 0.0000 0.0000 0.0000 27.0555 0.0000 0.0000
# 5 0.0000 0.0000 0.0000 0.0000 32.4276 0.0000
# 6 0.0000 0.0000 0.0000 0.0000 0.0000 31.5176
#
#
#
# Elastic Compliance Matrix: (Units=1/GPa)
#
#
# Indices 1 2 3 4 5 6 
#
# 1 0.011277 -0.005004 -0.002286 0.000000 0.000000 0.000000
# 2 -0.005004 0.011035 -0.001668 0.000000 0.000000 0.000000
# 3 -0.002286 -0.001668 0.008712 0.000000 0.000000 0.000000
# 4 0.000000 0.000000 0.000000 0.036961 0.000000 0.000000
# 5 0.000000 0.000000 0.000000 0.000000 0.030838 0.000000
# 6 0.000000 0.000000 0.000000 0.000000 0.000000 0.031728
#
#
# Mechanical properties :
#
#
# Convention : Reuss Voigt Hill
#
# Bulk Modulus (GPa) = 76.30246 76.45023 76.37634
# Shear Modulus (GPa) = 32.71471 33.95085 33.33278
#
# Velocity S-wave (km/s) = 3.91599 3.98928 3.95280
# Velocity P-wave (km/s) = 7.49755 7.55348 7.52556
#
# Compressibility (1/GPa) = 0.01310574
#
# Stress axis : x y z
#
# Youngs Moduli (GPa) = 88.67847 90.62265 114.78847
#
# Poissons Ratio (x) = 0.45348 0.26243
# Poissons Ratio (y) = 0.44376 0.19152
# Poissons Ratio (z) = 0.20273 0.15120
#
# Static dielectric constant tensor:
#      x y z
#    x 3.941270 0.000000 0.000000 
#    y 0.000000 4.147080 0.000000 
#    z 0.000000 0.000000 3.956450 
# 
# 
# High freq. dielectric constant tensor:
#      x y z
#    x 1.849290 0.000000 0.000000 
#    y 0.000000 1.842450 0.000000 
#    z 0.000000 0.000000 1.850910 
# 
# From -- ./inp_files/14113.got.cif
#   From: 2010.03.12/outbox.cif.g09.slc.cpg/sg60_8_cif.got.tgz:14113.got - 2010.04.10 18:46:24.
