data_PCOD8247924
_publ_section_title
;
Structure prediction by ZEFSAII (Michael W. Deem and Ramdas Pophale) SiO2 
 PCOD8247924
Probable space group: P B C N
;
_chemical_formula_sum "Si O2"
_cell_formula_units_Z 52
_cell_length_a 15.484482
_cell_length_b 22.516430
_cell_length_c 7.318118
_cell_angle_alpha 90.000000
_cell_angle_beta 90.000000
_cell_angle_gamma 90.000000
_cell_volume 2551.500298
_symmetry_space_group_name_H-M "P B C N"
_symmetry_group_IT_number 60
_symmetry_cell_setting 'orthorhombic'
loop_
_space_group_symop_operation_xyz
x,y,z
1/2-x,1/2-y,1/2+z
1/2+x,1/2-y,-z
-x,y,1/2-z
-x,-y,-z
1/2+x,1/2+y,1/2-z
1/2-x,1/2+y,z
x,-y,1/2+z
loop_
_atom_site_type_symbol
_atom_site_label
_atom_site_fract_x
_atom_site_fract_y
_atom_site_fract_z
Si Si1 0.892835 0.054069 0.921391
Si Si2 0.076670 0.924026 0.494720
Si Si3 0.178456 0.291855 0.808512
Si Si4 0.281172 0.887031 0.099541
Si Si5 0.215981 0.833777 0.460333
Si Si6 0.533970 0.935488 0.444866
Si Si7 0.500000 0.845545 0.750000
O O1 0.914522 0.075086 0.721227
O O2 0.803252 0.082154 0.988813
O O3 0.973808 0.076749 0.048311
O O4 0.882110 0.982995 0.918347
O O5 0.132239 0.866350 0.551403
O O6 0.228172 0.314783 0.631753
O O7 0.188864 0.222232 0.839061
O O8 0.079182 0.301546 0.765634
O O9 0.206193 0.325440 0.993051
O O10 0.269109 0.875975 0.318058
O O11 0.361570 0.931135 0.058256
O O12 0.500000 0.916802 0.250000
O O13 0.490588 0.887956 0.576606
O O14 0.500000 0.000000 0.500000
#
# Coordination Sequence:
#
# PCOD8247924 Si02
#       7
#     8   8   8   8   8   8   4
#     4   9  19  37  57  90 121 153 198 246 307 378
#     4   9  20  36  60  87 124 156 193 251 311 364
#     4  11  23  41  64  87 120 163 210 252 306 357
#     4  10  23  39  63  88 120 163 205 251 308 364
#     4  11  22  42  64  89 124 162 206 260 300 372
#     4  11  22  40  61  90 126 160 205 255 310 374
#     4  10  24  42  62  88 122 166 204 260 308 364
#
# _framework density 20.380168000000001
#
# number of rings (size 3 to 8) (size 9 to 14) (size 15 to 20)
#    0.000    1.846    2.308    0.923    2.154    6.154 
#    0.000    0.000    0.000    0.000    0.000    0.000 
#    0.000    0.000    0.000    0.000    0.000    0.000 
#
# Total GULP energy -644619.820931 kJ/mol
# GULP energy per Si atom -12396.535018 kJ/mol
# Density = 2.033378 g / cm^3
# Si number density = 20.380168 Si / 1000 Ang^3
#
#
#
# Elastic Constant Matrix: (Units=GPa)
#
#
# Indices 1 2 3 4 5 6 
#
# 1 116.7737 52.3852 23.1574 0.0000 0.0000 0.0000
# 2 52.3852 87.3424 12.2164 0.0000 0.0000 0.0000
# 3 23.1574 12.2164 66.2683 0.0000 0.0000 0.0000
# 4 0.0000 0.0000 0.0000 27.9073 0.0000 0.0000
# 5 0.0000 0.0000 0.0000 0.0000 27.0343 0.0000
# 6 0.0000 0.0000 0.0000 0.0000 0.0000 34.0148
#
#
#
# Elastic Compliance Matrix: (Units=1/GPa)
#
#
# Indices 1 2 3 4 5 6 
#
# 1 0.012274 -0.006941 -0.003010 0.000000 0.000000 0.000000
# 2 -0.006941 0.015677 -0.000465 0.000000 0.000000 0.000000
# 3 -0.003010 -0.000465 0.016228 0.000000 0.000000 0.000000
# 4 0.000000 0.000000 0.000000 0.035833 0.000000 0.000000
# 5 0.000000 0.000000 0.000000 0.000000 0.036990 0.000000
# 6 0.000000 0.000000 0.000000 0.000000 0.000000 0.029399
#
#
# Mechanical properties :
#
#
# Convention : Reuss Voigt Hill
#
# Bulk Modulus (GPa) = 42.82888 49.54471 46.18680
# Shear Modulus (GPa) = 28.56931 29.96632 29.26781
#
# Velocity S-wave (km/s) = 3.74815 3.83870 3.79369
# Velocity P-wave (km/s) = 6.30810 6.63404 6.47312
#
# Compressibility (1/GPa) = 0.02334873
#
# Stress axis : x y z
#
# Youngs Moduli (GPa) = 81.47302 63.78795 61.62366
#
# Poissons Ratio (x) = 0.44273 0.18547
# Poissons Ratio (y) = 0.56547 0.02863
# Poissons Ratio (z) = 0.24521 0.02964
#
# Static dielectric constant tensor:
#      x y z
#    x 4.217240 0.000000 0.000000 
#    y 0.000000 3.985320 0.000000 
#    z 0.000000 0.000000 3.838920 
# 
# 
# High freq. dielectric constant tensor:
#      x y z
#    x 1.805600 0.000000 0.000000 
#    y 0.000000 1.788280 0.000000 
#    z 0.000000 0.000000 1.801210 
# 
# From -- ./inp_files/6078.got.cif
#   From: 2010.03.12/outbox.cif.g09.slc.cpg/sg60_4_cif.got.tgz:6078.got - 2010.04.10 18:46:24.
