data_PCOD8247001
_publ_section_title
;
Structure prediction by ZEFSAII (Michael W. Deem and Ramdas Pophale) SiO2 
 PCOD8247001
Probable space group: P B C N
;
_chemical_formula_sum "Si O2"
_cell_formula_units_Z 52
_cell_length_a 19.710321
_cell_length_b 14.064766
_cell_length_c 8.998303
_cell_angle_alpha 90.000000
_cell_angle_beta 90.000000
_cell_angle_gamma 90.000000
_cell_volume 2494.519030
_symmetry_space_group_name_H-M "P B C N"
_symmetry_group_IT_number 60
_symmetry_cell_setting 'orthorhombic'
loop_
_space_group_symop_operation_xyz
x,y,z
1/2-x,1/2-y,1/2+z
1/2+x,1/2-y,-z
-x,y,1/2-z
-x,-y,-z
1/2+x,1/2+y,1/2-z
1/2-x,1/2+y,z
x,-y,1/2+z
loop_
_atom_site_type_symbol
_atom_site_label
_atom_site_fract_x
_atom_site_fract_y
_atom_site_fract_z
Si Si1 0.500000 0.232172 0.250000
Si Si2 0.162868 0.758188 0.745317
Si Si3 0.426126 0.083712 0.819183
Si Si4 0.706911 0.749803 0.927492
Si Si5 0.585993 0.618661 0.885341
Si Si6 0.574116 0.570193 0.215191
Si Si7 0.109551 0.596718 0.159777
O O1 0.476450 0.304401 0.117855
O O2 0.564526 0.162903 0.228204
O O3 0.102304 0.682976 0.758890
O O4 0.215293 0.731991 0.615924
O O5 0.129607 0.860601 0.710242
O O6 0.205897 0.758940 0.895937
O O7 0.500000 0.067515 0.750000
O O8 0.378568 0.000628 0.749859
O O9 0.427927 0.081278 0.999375
O O10 0.657087 0.671584 0.856664
O O11 0.682090 0.854273 0.872588
O O12 0.580583 0.538991 0.760721
O O13 0.584793 0.566030 0.040315
O O14 0.500000 0.611126 0.250000
#
# Coordination Sequence:
#
# PCOD8247001 Si02
#       7
#     4   8   8   8   8   8   8
#     4  10  20  38  58  84 120 156 182 244 302 348
#     4  10  23  41  61  84 126 157 207 246 294 362
#     4  11  22  40  61  94 122 157 199 253 302 361
#     4   9  22  43  57  87 118 167 200 248 298 357
#     4  10  22  39  63  86 127 153 202 248 302 358
#     4  11  22  40  61  94 122 157 199 253 302 361
#     4  10  22  39  63  86 127 153 202 248 302 358
#
# _framework density 20.845700999999998
#
# number of rings (size 3 to 8) (size 9 to 14) (size 15 to 20)
#    0.000    1.846    1.538    2.308    0.000    3.692 
#    5.538    6.154    0.000    0.000    0.000    0.000 
#    0.000    0.000    0.000    0.000    0.000    0.000 
#
# Total GULP energy -644497.197845 kJ/mol
# GULP energy per Si atom -12394.176882 kJ/mol
# Density = 2.079826 g / cm^3
# Si number density = 20.845701 Si / 1000 Ang^3
#
#
#
# Elastic Constant Matrix: (Units=GPa)
#
#
# Indices 1 2 3 4 5 6 
#
# 1 61.6975 5.9512 26.2516 0.0000 0.0000 0.0000
# 2 5.9512 92.8186 36.6393 0.0000 0.0000 0.0000
# 3 26.2516 36.6393 57.6569 0.0000 0.0000 0.0000
# 4 0.0000 0.0000 0.0000 24.1746 0.0000 0.0000
# 5 0.0000 0.0000 0.0000 0.0000 33.0328 0.0000
# 6 0.0000 0.0000 0.0000 0.0000 0.0000 18.2299
#
#
#
# Elastic Compliance Matrix: (Units=1/GPa)
#
#
# Indices 1 2 3 4 5 6 
#
# 1 0.020795 0.003209 -0.011507 0.000000 0.000000 0.000000
# 2 0.003209 0.014876 -0.010915 0.000000 0.000000 0.000000
# 3 -0.011507 -0.010915 0.029519 0.000000 0.000000 0.000000
# 4 0.000000 0.000000 0.000000 0.041366 0.000000 0.000000
# 5 0.000000 0.000000 0.000000 0.000000 0.030273 0.000000
# 6 0.000000 0.000000 0.000000 0.000000 0.000000 0.054855
#
#
# Mechanical properties :
#
#
# Convention : Reuss Voigt Hill
#
# Bulk Modulus (GPa) = 37.36255 38.87303 38.11779
# Shear Modulus (GPa) = 20.91773 24.64284 22.78028
#
# Velocity S-wave (km/s) = 3.17117 3.44198 3.30935
# Velocity P-wave (km/s) = 5.60096 5.87237 5.73827
#
# Compressibility (1/GPa) = 0.02676477
#
# Stress axis : x y z
#
# Youngs Moduli (GPa) = 48.08888 67.22044 33.87608
#
# Poissons Ratio (x) = -0.21572 0.38982
# Poissons Ratio (y) = -0.15432 0.36975
# Poissons Ratio (z) = 0.55338 0.73369
#
# Static dielectric constant tensor:
#      x y z
#    x 3.610620 0.000000 0.000000 
#    y 0.000000 3.987890 0.000000 
#    z 0.000000 0.000000 3.648200 
# 
# 
# High freq. dielectric constant tensor:
#      x y z
#    x 1.801350 0.000000 0.000000 
#    y 0.000000 1.831430 0.000000 
#    z 0.000000 0.000000 1.804530 
# 
# From -- ./inp_files/7369.got.cif
#   From: 2010.03.12/outbox.cif.g09.slc.cpg/sg60_4_cif.got.tgz:7369.got - 2010.04.10 18:46:24.
