data_PCOD8247380
_publ_section_title
;
Structure prediction by ZEFSAII (Michael W. Deem and Ramdas Pophale) SiO2 
 PCOD8247380
Probable space group: P B C N
;
_chemical_formula_sum "Si O2"
_cell_formula_units_Z 48
_cell_length_a 17.997946
_cell_length_b 8.866181
_cell_length_c 13.985782
_cell_angle_alpha 90.000000
_cell_angle_beta 90.000000
_cell_angle_gamma 90.000000
_cell_volume 2231.753847
_symmetry_space_group_name_H-M "P B C N"
_symmetry_group_IT_number 60
_symmetry_cell_setting 'orthorhombic'
loop_
_space_group_symop_operation_xyz
x,y,z
1/2-x,1/2-y,1/2+z
1/2+x,1/2-y,-z
-x,y,1/2-z
-x,-y,-z
1/2+x,1/2+y,1/2-z
1/2-x,1/2+y,z
x,-y,1/2+z
loop_
_atom_site_type_symbol
_atom_site_label
_atom_site_fract_x
_atom_site_fract_y
_atom_site_fract_z
Si Si1 0.995228 0.151672 0.353231
Si Si2 0.738507 0.077401 0.634735
Si Si3 0.850925 0.320403 0.688930
Si Si4 0.574149 0.667653 0.858710
Si Si5 0.846742 0.842682 0.545359
Si Si6 0.041956 0.344747 0.978464
O O1 0.075789 0.119718 0.400362
O O2 0.000000 0.234564 0.250000
O O3 0.945255 0.258447 0.421236
O O4 0.950240 0.999391 0.328972
O O5 0.794743 0.180985 0.692672
O O6 0.680603 0.176944 0.574679
O O7 0.693783 0.974667 0.712183
O O8 0.785310 0.968457 0.565512
O O9 0.911488 0.276914 0.768027
O O10 0.882013 0.357337 0.581652
O O11 0.506278 0.739010 0.912861
O O12 0.643616 0.659261 0.930906
O O13 0.000000 0.500000 0.000000
#
# Coordination Sequence:
#
# PCOD8247380 Si02
#       6
#     8   8   8   8   8   8
#     4  11  22  39  64  89 116 155 202 252 305 363
#     4  10  22  39  59  81 124 163 196 244 290 369
#     4  11  22  40  61  89 121 160 202 244 306 363
#     4  11  22  38  64  88 116 155 202 253 304 364
#     4  10  21  39  59  87 118 156 199 242 302 361
#     4  11  23  39  62  92 122 153 197 261 313 358
#
# _framework density 21.507747999999999
#
# number of rings (size 3 to 8) (size 9 to 14) (size 15 to 20)
#    0.000    1.333    0.000    8.500    0.000    4.000 
#    0.000    6.667    0.000    0.000    0.000    0.000 
#    0.000    0.000    0.000    0.000    0.000    0.000 
#
# Total GULP energy -595006.968568 kJ/mol
# GULP energy per Si atom -12395.978512 kJ/mol
# Density = 2.145880 g / cm^3
# Si number density = 21.507748 Si / 1000 Ang^3
#
#
#
# Elastic Constant Matrix: (Units=GPa)
#
#
# Indices 1 2 3 4 5 6 
#
# 1 63.6656 25.6023 19.2862 0.0000 0.0000 0.0000
# 2 25.6023 120.6161 28.1591 0.0000 0.0000 0.0000
# 3 19.2862 28.1591 124.8476 0.0000 0.0000 0.0000
# 4 0.0000 0.0000 0.0000 26.4805 0.0000 0.0000
# 5 0.0000 0.0000 0.0000 0.0000 25.4661 0.0000
# 6 0.0000 0.0000 0.0000 0.0000 0.0000 43.5768
#
#
#
# Elastic Compliance Matrix: (Units=1/GPa)
#
#
# Indices 1 2 3 4 5 6 
#
# 1 0.017626 -0.003278 -0.001983 0.000000 0.000000 0.000000
# 2 -0.003278 0.009361 -0.001605 0.000000 0.000000 0.000000
# 3 -0.001983 -0.001605 0.008678 0.000000 0.000000 0.000000
# 4 0.000000 0.000000 0.000000 0.037764 0.000000 0.000000
# 5 0.000000 0.000000 0.000000 0.000000 0.039268 0.000000
# 6 0.000000 0.000000 0.000000 0.000000 0.000000 0.022948
#
#
# Mechanical properties :
#
#
# Convention : Reuss Voigt Hill
#
# Bulk Modulus (GPa) = 45.59506 50.58051 48.08779
# Shear Modulus (GPa) = 31.91022 34.84345 33.37684
#
# Velocity S-wave (km/s) = 3.85601 4.02934 3.94363
# Velocity P-wave (km/s) = 6.40863 6.72427 6.56835
#
# Compressibility (1/GPa) = 0.02193220
#
# Stress axis : x y z
#
# Youngs Moduli (GPa) = 56.73350 106.82231 115.23167
#
# Poissons Ratio (x) = 0.35020 0.22856
# Poissons Ratio (y) = 0.18599 0.18495
# Poissons Ratio (z) = 0.11253 0.17145
#
# Static dielectric constant tensor:
#      x y z
#    x 4.012930 0.000000 0.000000 
#    y 0.000000 2.457170 0.000000 
#    z 0.000000 0.000000 3.934040 
# 
# 
# High freq. dielectric constant tensor:
#      x y z
#    x 1.845370 0.000000 0.000000 
#    y 0.000000 1.858040 0.000000 
#    z 0.000000 0.000000 1.834870 
# 
# From -- ./inp_files/17325.got.cif
#   From: 2010.03.12/outbox.cif.g09.slc.cpg/sg60_9_cif.got.tgz:17325.got - 2010.04.10 18:46:24.
