data_PCOD8247358
_publ_section_title
;
Structure prediction by ZEFSAII (Michael W. Deem and Ramdas Pophale) SiO2 
 PCOD8247358
Probable space group: P B C N
;
_chemical_formula_sum "Si O2"
_cell_formula_units_Z 48
_cell_length_a 12.705647
_cell_length_b 22.300606
_cell_length_c 7.488744
_cell_angle_alpha 90.000000
_cell_angle_beta 90.000000
_cell_angle_gamma 90.000000
_cell_volume 2121.887892
_symmetry_space_group_name_H-M "P B C N"
_symmetry_group_IT_number 60
_symmetry_cell_setting 'orthorhombic'
loop_
_space_group_symop_operation_xyz
x,y,z
1/2-x,1/2-y,1/2+z
1/2+x,1/2-y,-z
-x,y,1/2-z
-x,-y,-z
1/2+x,1/2+y,1/2-z
1/2-x,1/2+y,z
x,-y,1/2+z
loop_
_atom_site_type_symbol
_atom_site_label
_atom_site_fract_x
_atom_site_fract_y
_atom_site_fract_z
Si Si1 0.798075 0.979671 0.806389
Si Si2 0.120937 0.610371 0.208993
Si Si3 0.068509 0.105490 0.414637
Si Si4 0.376256 0.586172 0.859111
Si Si5 0.738669 0.186610 0.004870
Si Si6 0.285319 0.179825 0.890377
O O1 0.681075 0.953587 0.759182
O O2 0.881886 0.954071 0.665732
O O3 0.824648 0.051831 0.814616
O O4 0.818417 0.956655 0.001160
O O5 0.163219 0.661621 0.342017
O O6 0.000000 0.597293 0.250000
O O7 0.137529 0.638139 0.010157
O O8 0.150122 0.152932 0.490426
O O9 0.000000 0.134158 0.250000
O O10 0.001540 0.088475 0.595511
O O11 0.332881 0.652785 0.885223
O O12 0.676744 0.180488 0.816150
O O13 0.771013 0.255112 0.029054
#
# Coordination Sequence:
#
# PCOD8247358 Si02
#       6
#     8   8   8   8   8   8
#     4   9  20  38  62  89 134 162 209 272 322 388
#     4  10  23  45  66  92 125 179 224 272 328 390
#     4   9  20  38  63  96 130 171 211 261 335 396
#     4  10  21  38  63  96 128 167 211 261 332 403
#     4  11  23  43  66  90 138 174 217 284 320 385
#     4  11  24  42  65  95 131 173 224 266 336 388
#
# _framework density 22.621364
#
# number of rings (size 3 to 8) (size 9 to 14) (size 15 to 20)
#    0.000    2.000    1.667    1.500    4.667    2.667 
#    0.000    3.333    0.000    0.000    0.000    0.000 
#    0.000    0.000    0.000    0.000    0.000    0.000 
#
# Total GULP energy -594695.640278 kJ/mol
# GULP energy per Si atom -12389.492506 kJ/mol
# Density = 2.256988 g / cm^3
# Si number density = 22.621364 Si / 1000 Ang^3
#
#
#
# Elastic Constant Matrix: (Units=GPa)
#
#
# Indices 1 2 3 4 5 6 
#
# 1 114.4825 36.9652 0.0917 0.0000 0.0000 0.0000
# 2 36.9652 115.3122 -6.0107 0.0000 0.0000 0.0000
# 3 0.0917 -6.0107 117.2947 0.0000 0.0000 0.0000
# 4 0.0000 0.0000 0.0000 30.2318 0.0000 0.0000
# 5 0.0000 0.0000 0.0000 0.0000 11.4343 0.0000
# 6 0.0000 0.0000 0.0000 0.0000 0.0000 18.6108
#
#
#
# Elastic Compliance Matrix: (Units=1/GPa)
#
#
# Indices 1 2 3 4 5 6 
#
# 1 0.009747 -0.003133 -0.000168 0.000000 0.000000 0.000000
# 2 -0.003133 0.009703 0.000500 0.000000 0.000000 0.000000
# 3 -0.000168 0.000500 0.008551 0.000000 0.000000 0.000000
# 4 0.000000 0.000000 0.000000 0.033078 0.000000 0.000000
# 5 0.000000 0.000000 0.000000 0.000000 0.087456 0.000000
# 6 0.000000 0.000000 0.000000 0.000000 0.000000 0.053732
#
#
# Mechanical properties :
#
#
# Convention : Reuss Voigt Hill
#
# Bulk Modulus (GPa) = 44.64872 45.46464 45.05668
# Shear Modulus (GPa) = 23.21951 33.12494 28.17223
#
# Velocity S-wave (km/s) = 3.20729 3.83080 3.53282
# Velocity P-wave (km/s) = 5.78756 6.30146 6.04997
#
# Compressibility (1/GPa) = 0.02239706
#
# Stress axis : x y z
#
# Youngs Moduli (GPa) = 102.59790 103.06551 116.94171
#
# Poissons Ratio (x) = 0.32293 0.01967
# Poissons Ratio (y) = 0.32147 -0.05843
# Poissons Ratio (z) = 0.01725 -0.05150
#
# Static dielectric constant tensor:
#      x y z
#    x 4.028490 0.000000 0.000000 
#    y 0.000000 4.149580 0.000000 
#    z 0.000000 0.000000 4.840130 
# 
# 
# High freq. dielectric constant tensor:
#      x y z
#    x 1.862120 0.000000 0.000000 
#    y 0.000000 1.888960 0.000000 
#    z 0.000000 0.000000 1.935010 
# 
# From -- ./inp_files/5049.got.cif
#   From: 2010.03.12/outbox.cif.g09.slc.cpg/sg60_3_cif.got.tgz:5049.got - 2010.04.10 18:46:24.
