data_PCOD8247787
_publ_section_title
;
Structure prediction by ZEFSAII (Michael W. Deem and Ramdas Pophale) SiO2 
 PCOD8247787
Probable space group: P B C N
;
_chemical_formula_sum "Si O2"
_cell_formula_units_Z 64
_cell_length_a 18.075199
_cell_length_b 10.093003
_cell_length_c 15.937200
_cell_angle_alpha 90.000000
_cell_angle_beta 90.000000
_cell_angle_gamma 90.000000
_cell_volume 2907.471809
_symmetry_space_group_name_H-M "P B C N"
_symmetry_group_IT_number 60
_symmetry_cell_setting 'orthorhombic'
loop_
_space_group_symop_operation_xyz
x,y,z
1/2-x,1/2-y,1/2+z
1/2+x,1/2-y,-z
-x,y,1/2-z
-x,-y,-z
1/2+x,1/2+y,1/2-z
1/2-x,1/2+y,z
x,-y,1/2+z
loop_
_atom_site_type_symbol
_atom_site_label
_atom_site_fract_x
_atom_site_fract_y
_atom_site_fract_z
Si Si1 0.825866 0.518021 0.568453
Si Si2 0.853899 0.598491 0.893526
Si Si3 0.317389 0.386298 0.119622
Si Si4 0.699001 0.691116 0.062241
Si Si5 0.420047 0.009027 0.272566
Si Si6 0.918034 0.190861 0.735102
Si Si7 0.084280 0.887859 0.579068
Si Si8 0.424294 0.485020 0.896862
O O1 0.863159 0.492056 0.477336
O O2 0.778927 0.654701 0.568886
O O3 0.771445 0.394696 0.585595
O O4 0.884746 0.548882 0.642210
O O5 0.769706 0.630976 0.870682
O O6 0.875180 0.515227 0.812075
O O7 0.901776 0.731281 0.908924
O O8 0.362507 0.301209 0.186651
O O9 0.347067 0.538001 0.124742
O O10 0.336138 0.329707 0.029085
O O11 0.629407 0.641910 0.116827
O O12 0.500000 0.948117 0.250000
O O13 0.425311 0.161540 0.298871
O O14 0.000000 0.135474 0.750000
O O15 0.887960 0.090055 0.666559
O O16 0.007075 0.932380 0.622214
O O17 0.080083 0.932924 0.483105
#
# Coordination Sequence:
#
# PCOD8247787 Si02
#       8
#     8   8   8   8   8   8   8   8
#     4  11  26  48  71 105 141 190 232 297 360 426
#     4  11  26  44  75  97 148 184 230 303 359 416
#     4  10  23  40  68 101 136 176 240 281 355 418
#     4  10  25  42  72 101 139 185 239 288 355 430
#     4  11  28  45  66 102 141 179 242 283 357 438
#     4  11  22  42  65  97 134 183 224 291 344 414
#     4  10  22  43  67 105 133 187 238 292 350 436
#     4  10  22  41  70 101 138 181 241 289 353 431
#
# _framework density 22.012250999999999
#
# number of rings (size 3 to 8) (size 9 to 14) (size 15 to 20)
#    0.000    1.500    1.250    1.500   17.500    1.500 
#    0.000    0.000    0.000    0.000    0.000    0.000 
#    0.000    0.000    0.000    0.000    0.000    0.000 
#
# Total GULP energy -792910.786384 kJ/mol
# GULP energy per Si atom -12389.231037 kJ/mol
# Density = 2.196215 g / cm^3
# Si number density = 22.012251 Si / 1000 Ang^3
#
#
#
# Elastic Constant Matrix: (Units=GPa)
#
#
# Indices 1 2 3 4 5 6 
#
# 1 87.0667 13.0104 40.5949 0.0000 0.0000 0.0000
# 2 13.0104 111.3977 12.6525 0.0000 0.0000 0.0000
# 3 40.5949 12.6525 84.7451 0.0000 0.0000 0.0000
# 4 0.0000 0.0000 0.0000 17.6726 0.0000 0.0000
# 5 0.0000 0.0000 0.0000 0.0000 33.3813 0.0000
# 6 0.0000 0.0000 0.0000 0.0000 0.0000 29.8348
#
#
#
# Elastic Compliance Matrix: (Units=1/GPa)
#
#
# Indices 1 2 3 4 5 6 
#
# 1 0.014885 -0.000945 -0.006989 0.000000 0.000000 0.000000
# 2 -0.000945 0.009192 -0.000920 0.000000 0.000000 0.000000
# 3 -0.006989 -0.000920 0.015286 0.000000 0.000000 0.000000
# 4 0.000000 0.000000 0.000000 0.056585 0.000000 0.000000
# 5 0.000000 0.000000 0.000000 0.000000 0.029957 0.000000
# 6 0.000000 0.000000 0.000000 0.000000 0.000000 0.033518
#
#
# Mechanical properties :
#
#
# Convention : Reuss Voigt Hill
#
# Bulk Modulus (GPa) = 46.17910 46.19167 46.18538
# Shear Modulus (GPa) = 27.12255 30.64117 28.88186
#
# Velocity S-wave (km/s) = 3.51402 3.73501 3.62620
# Velocity P-wave (km/s) = 6.12281 6.29527 6.20964
#
# Compressibility (1/GPa) = 0.02165482
#
# Stress axis : x y z
#
# Youngs Moduli (GPa) = 67.17967 108.79441 65.42129
#
# Poissons Ratio (x) = 0.10277 0.45726
# Poissons Ratio (y) = 0.06346 0.06017
# Poissons Ratio (z) = 0.46955 0.10007
#
# Static dielectric constant tensor:
#      x y z
#    x 4.081560 0.000000 0.000000 
#    y 0.000000 3.893350 0.000000 
#    z 0.000000 0.000000 4.089860 
# 
# 
# High freq. dielectric constant tensor:
#      x y z
#    x 1.867420 0.000000 0.000000 
#    y 0.000000 1.868550 0.000000 
#    z 0.000000 0.000000 1.860240 
# 
# From -- ./inp_files/17492.got.cif
#   From: 2010.03.12/outbox.cif.g09.slc.cpg/sg60_9_cif.got.tgz:17492.got - 2010.04.10 18:46:24.
