data_PCOD8247068
_publ_section_title
;
Structure prediction by ZEFSAII (Michael W. Deem and Ramdas Pophale) SiO2 
 PCOD8247068
Probable space group: P B C N
;
_chemical_formula_sum "Si O2"
_cell_formula_units_Z 52
_cell_length_a 16.677075
_cell_length_b 16.015706
_cell_length_c 9.426233
_cell_angle_alpha 90.000000
_cell_angle_beta 90.000000
_cell_angle_gamma 90.000000
_cell_volume 2517.700930
_symmetry_space_group_name_H-M "P B C N"
_symmetry_group_IT_number 60
_symmetry_cell_setting 'orthorhombic'
loop_
_space_group_symop_operation_xyz
x,y,z
1/2-x,1/2-y,1/2+z
1/2+x,1/2-y,-z
-x,y,1/2-z
-x,-y,-z
1/2+x,1/2+y,1/2-z
1/2-x,1/2+y,z
x,-y,1/2+z
loop_
_atom_site_type_symbol
_atom_site_label
_atom_site_fract_x
_atom_site_fract_y
_atom_site_fract_z
Si Si1 0.577773 0.315678 0.494492
Si Si2 0.500000 0.786183 0.750000
Si Si3 0.861168 0.018223 0.862600
Si Si4 0.632595 0.852881 0.069441
Si Si5 0.500000 0.590763 0.250000
Si Si6 0.377901 0.926794 0.728198
Si Si7 0.500000 0.068569 0.750000
Si Si8 0.252273 0.522905 0.886217
O O1 0.514557 0.271255 0.388262
O O2 0.622157 0.388500 0.412742
O O3 0.641710 0.245511 0.544297
O O4 0.542626 0.348827 0.640260
O O5 0.426044 0.846961 0.789850
O O6 0.833782 0.019945 0.701056
O O7 0.942200 0.963806 0.852611
O O8 0.786994 0.981680 0.953846
O O9 0.543140 0.873369 0.130674
O O10 0.706680 0.890446 0.159143
O O11 0.653219 0.903280 0.926141
O O12 0.431278 0.008120 0.690333
O O13 0.308094 0.947132 0.842705
#
# Coordination Sequence:
#
# PCOD8247068 Si02
#       8
#     8   4   8   8   4   8   4   8
#     4  11  24  43  64  99 124 164 218 270 321 368
#     4   9  21  40  67  97 134 168 210 265 323 380
#     4  12  25  46  68  90 124 172 226 264 320 391
#     4  10  20  39  61  96 136 161 210 268 326 377
#     4  12  26  46  72  90 124 170 228 276 306 386
#     4   9  18  37  63  96 131 170 211 254 316 396
#     4   9  17  30  63  93 128 174 206 251 307 396
#     4  11  23  43  68  93 128 173 214 262 328 398
#
# _framework density 20.653763999999999
#
# number of rings (size 3 to 8) (size 9 to 14) (size 15 to 20)
#    0.000    1.538    3.077    1.846    2.154    1.231 
#   11.077    0.000    0.000    0.000    0.000    0.000 
#    0.000    0.000    0.000    0.000    0.000    0.000 
#
# Total GULP energy -644207.532192 kJ/mol
# GULP energy per Si atom -12388.606388 kJ/mol
# Density = 2.060675 g / cm^3
# Si number density = 20.653764 Si / 1000 Ang^3
#
#
#
# Elastic Constant Matrix: (Units=GPa)
#
#
# Indices 1 2 3 4 5 6 
#
# 1 77.7749 36.0659 27.0351 0.0000 0.0000 0.0000
# 2 36.0659 128.3835 33.5566 0.0000 0.0000 0.0000
# 3 27.0351 33.5566 68.1887 0.0000 0.0000 0.0000
# 4 0.0000 0.0000 0.0000 60.6461 0.0000 0.0000
# 5 0.0000 0.0000 0.0000 0.0000 41.0496 0.0000
# 6 0.0000 0.0000 0.0000 0.0000 0.0000 -2.5164
#
#
#
# Elastic Compliance Matrix: (Units=1/GPa)
#
#
# Indices 1 2 3 4 5 6 
#
# 1 0.016019 -0.003259 -0.004747 0.000000 0.000000 0.000000
# 2 -0.003259 0.009602 -0.003433 0.000000 0.000000 0.000000
# 3 -0.004747 -0.003433 0.018237 0.000000 0.000000 0.000000
# 4 0.000000 0.000000 0.000000 0.016489 0.000000 0.000000
# 5 0.000000 0.000000 0.000000 0.000000 0.024361 0.000000
# 6 0.000000 0.000000 0.000000 0.000000 0.000000 -0.397387
#
#
# Mechanical properties :
#
#
# Convention : Reuss Voigt Hill
#
# Bulk Modulus (GPa) = 47.66717 51.96248 49.81482
# Shear Modulus (GPa) = -17.67995 31.68182 7.00094
#
# Velocity S-wave (km/s) = -2.92895 3.92082 1.84310
# Velocity P-wave (km/s) = 3.41920 6.76096 5.35731
#
# Compressibility (1/GPa) = 0.02097880
#
# Stress axis : x y z
#
# Youngs Moduli (GPa) = 62.42501 104.14360 54.83416
#
# Poissons Ratio (x) = 0.33944 0.26031
# Poissons Ratio (y) = 0.20347 0.18825
# Poissons Ratio (z) = 0.29635 0.35753
#
# Static dielectric constant tensor:
#      x y z
#    x 3.810160 0.000000 0.000000 
#    y 0.000000 3.799140 0.000000 
#    z 0.000000 0.000000 4.960170 
# 
# 
# High freq. dielectric constant tensor:
#      x y z
#    x 1.801720 0.000000 0.000000 
#    y 0.000000 1.807960 0.000000 
#    z 0.000000 0.000000 1.811580 
# 
# From -- ./inp_files/6901.got.cif
#   From: 2010.03.12/outbox.cif.g09.slc.cpg/sg60_4_cif.got.tgz:6901.got - 2010.04.10 18:46:24.
