data_PCOD8247454
_publ_section_title
;
Structure prediction by ZEFSAII (Michael W. Deem and Ramdas Pophale) SiO2 
 PCOD8247454
Probable space group: P B C N
;
_chemical_formula_sum "Si O2"
_cell_formula_units_Z 20
_cell_length_a 9.207890
_cell_length_b 10.829276
_cell_length_c 7.352797
_cell_angle_alpha 90.000000
_cell_angle_beta 90.000000
_cell_angle_gamma 90.000000
_cell_volume 733.182551
_symmetry_space_group_name_H-M "P B C N"
_symmetry_group_IT_number 60
_symmetry_cell_setting 'orthorhombic'
loop_
_space_group_symop_operation_xyz
x,y,z
1/2-x,1/2-y,1/2+z
1/2+x,1/2-y,-z
-x,y,1/2-z
-x,-y,-z
1/2+x,1/2+y,1/2-z
1/2-x,1/2+y,z
x,-y,1/2+z
loop_
_atom_site_type_symbol
_atom_site_label
_atom_site_fract_x
_atom_site_fract_y
_atom_site_fract_z
Si Si1 0.000000 0.113244 0.750000
Si Si2 0.187330 0.533732 0.782866
Si Si3 0.480462 0.156671 0.469250
O O1 0.860385 0.024889 0.734947
O O2 0.005055 0.198587 0.568728
O O3 0.123659 0.634585 0.643024
O O4 0.134115 0.584601 0.985050
O O5 0.111999 0.396858 0.790052
#
# Coordination Sequence:
#
# PCOD8247454 Si02
#       3
#     4   8   8
#     4  12  22  38  66  92 118 162 212 254 308 374
#     4  10  22  39  63  91 122 164 207 254 313 370
#     4  10  21  40  60  87 127 162 201 256 313 367
#
# _framework density 27.278334999999998
#
# number of rings (size 3 to 8) (size 9 to 14) (size 15 to 20)
#    0.000    1.600    0.000    7.200    0.000    1.600 
#    0.000    4.000    0.000    0.000    0.000    0.000 
#    0.000    0.000    0.000    0.000    0.000    0.000 
#
# Total GULP energy -247767.184098 kJ/mol
# GULP energy per Si atom -12388.359205 kJ/mol
# Density = 2.721625 g / cm^3
# Si number density = 27.278335 Si / 1000 Ang^3
#
#
#
# Elastic Constant Matrix: (Units=GPa)
#
#
# Indices 1 2 3 4 5 6 
#
# 1 304.0890 57.5104 30.3758 0.0000 0.0000 0.0000
# 2 57.5104 66.2701 -6.6067 0.0000 0.0000 0.0000
# 3 30.3758 -6.6067 97.5965 0.0000 0.0000 0.0000
# 4 0.0000 0.0000 0.0000 20.2124 0.0000 0.0000
# 5 0.0000 0.0000 0.0000 0.0000 34.1992 0.0000
# 6 0.0000 0.0000 0.0000 0.0000 0.0000 29.5197
#
#
#
# Elastic Compliance Matrix: (Units=1/GPa)
#
#
# Indices 1 2 3 4 5 6 
#
# 1 0.004154 -0.003759 -0.001547 0.000000 0.000000 0.000000
# 2 -0.003759 0.018594 0.002429 0.000000 0.000000 0.000000
# 3 -0.001547 0.002429 0.010892 0.000000 0.000000 0.000000
# 4 0.000000 0.000000 0.000000 0.049475 0.000000 0.000000
# 5 0.000000 0.000000 0.000000 0.000000 0.029240 0.000000
# 6 0.000000 0.000000 0.000000 0.000000 0.000000 0.033876
#
#
# Mechanical properties :
#
#
# Convention : Reuss Voigt Hill
#
# Bulk Modulus (GPa) = 35.86183 70.05718 52.95951
# Shear Modulus (GPa) = 31.00162 42.56467 36.78314
#
# Velocity S-wave (km/s) = 3.37485 3.95445 3.67609
# Velocity P-wave (km/s) = 5.32553 6.82557 6.12167
#
# Compressibility (1/GPa) = 0.02788480
#
# Stress axis : x y z
#
# Youngs Moduli (GPa) = 240.72983 53.78022 91.80817
#
# Poissons Ratio (x) = 0.20217 0.14206
# Poissons Ratio (y) = 0.90495 -0.22298
# Poissons Ratio (z) = 0.37250 -0.13062
#
# Static dielectric constant tensor:
#      x y z
#    x 4.786290 0.000000 0.000000 
#    y 0.000000 4.178450 0.000000 
#    z 0.000000 0.000000 6.294250 
# 
# 
# High freq. dielectric constant tensor:
#      x y z
#    x 2.086700 0.000000 0.000000 
#    y 0.000000 2.043370 0.000000 
#    z 0.000000 0.000000 2.162610 
# 
# From -- ./inp_files/3218.got.cif
#   From: 2010.03.12/outbox.cif.g09.slc.cpg/sg60_2_cif.got.tgz:3218.got - 2010.04.10 18:46:24.
