data_PCOD8247426
_publ_section_title
;
Structure prediction by ZEFSAII (Michael W. Deem and Ramdas Pophale) SiO2 
 PCOD8247426
Probable space group: P B C N
;
_chemical_formula_sum "Si O2"
_cell_formula_units_Z 60
_cell_length_a 7.907589
_cell_length_b 28.186083
_cell_length_c 12.679306
_cell_angle_alpha 90.000000
_cell_angle_beta 90.000000
_cell_angle_gamma 90.000000
_cell_volume 2826.013930
_symmetry_space_group_name_H-M "P B C N"
_symmetry_group_IT_number 60
_symmetry_cell_setting 'orthorhombic'
loop_
_space_group_symop_operation_xyz
x,y,z
1/2-x,1/2-y,1/2+z
1/2+x,1/2-y,-z
-x,y,1/2-z
-x,-y,-z
1/2+x,1/2+y,1/2-z
1/2-x,1/2+y,z
x,-y,1/2+z
loop_
_atom_site_type_symbol
_atom_site_label
_atom_site_fract_x
_atom_site_fract_y
_atom_site_fract_z
Si Si1 0.627786 0.793380 0.494530
Si Si2 0.000000 0.094009 0.250000
Si Si3 0.427749 0.548952 0.039585
Si Si4 0.434187 0.866516 0.366509
Si Si5 0.031274 0.554788 0.024884
Si Si6 0.454917 0.617805 0.860509
Si Si7 0.650163 0.871696 0.670727
Si Si8 0.443776 0.278583 0.133534
O O1 0.479931 0.819309 0.430496
O O2 0.690934 0.831600 0.582619
O O3 0.754326 0.770285 0.408304
O O4 0.566852 0.746099 0.551657
O O5 0.007111 0.059238 0.348528
O O6 0.824503 0.123801 0.239101
O O7 0.228446 0.556150 0.052973
O O8 0.500000 0.500000 0.000000
O O9 0.507604 0.585240 0.956736
O O10 0.500000 0.863898 0.250000
O O11 0.505752 0.914395 0.420337
O O12 0.236085 0.866736 0.363512
O O13 0.916183 0.578134 0.118138
O O14 0.000000 0.500000 0.000000
O O15 0.500000 0.591744 0.750000
O O16 0.562476 0.664896 0.871248
O O17 0.500000 0.854436 0.750000
O O18 0.500000 0.260660 0.250000
#
# Coordination Sequence:
#
# PCOD8247426 Si02
#       8
#     8   4   8   8   8   8   8   8
#     4  11  24  43  68  98 134 172 223 281 341 414
#     4  12  24  42  70 100 134 184 228 284 352 418
#     4  11  24  41  64 100 134 175 233 274 335 410
#     4  10  21  39  65  92 123 174 219 266 332 394
#     4  10  22  41  62  93 138 177 219 287 336 397
#     4  10  22  41  66  90 131 171 212 274 330 389
#     4  11  23  45  69  98 140 180 229 287 353 415
#     4  11  23  43  66  97 132 171 218 278 337 407
#
# _framework density 21.231318000000002
#
# number of rings (size 3 to 8) (size 9 to 14) (size 15 to 20)
#    0.000    1.333    1.333    4.400    0.933    3.733 
#    9.600    0.000    1.467    0.000    0.000    0.000 
#    0.000    0.000    0.000    0.000    0.000    0.000 
#
# Total GULP energy -743417.353524 kJ/mol
# GULP energy per Si atom -12390.289225 kJ/mol
# Density = 2.118299 g / cm^3
# Si number density = 21.231318 Si / 1000 Ang^3
#
#
#
# Elastic Constant Matrix: (Units=GPa)
#
#
# Indices 1 2 3 4 5 6 
#
# 1 94.0872 10.2311 48.5781 0.0000 0.0000 0.0000
# 2 10.2311 53.4911 40.6833 0.0000 0.0000 0.0000
# 3 48.5781 40.6833 161.1020 0.0000 0.0000 0.0000
# 4 0.0000 0.0000 0.0000 -70.3840 0.0000 0.0000
# 5 0.0000 0.0000 0.0000 0.0000 40.1442 0.0000
# 6 0.0000 0.0000 0.0000 0.0000 0.0000 16.8075
#
#
#
# Elastic Compliance Matrix: (Units=1/GPa)
#
#
# Indices 1 2 3 4 5 6 
#
# 1 0.012603 0.000594 -0.003950 0.000000 0.000000 0.000000
# 2 0.000594 0.023167 -0.006029 0.000000 0.000000 0.000000
# 3 -0.003950 -0.006029 0.008921 0.000000 0.000000 0.000000
# 4 0.000000 0.000000 0.000000 -0.014208 0.000000 0.000000
# 5 0.000000 0.000000 0.000000 0.000000 0.024910 0.000000
# 6 0.000000 0.000000 0.000000 0.000000 0.000000 0.059497
#
#
# Mechanical properties :
#
#
# Convention : Reuss Voigt Hill
#
# Bulk Modulus (GPa) = 38.58094 56.40726 47.49410
# Shear Modulus (GPa) = 35.13634 11.25939 23.19786
#
# Velocity S-wave (km/s) = 4.07250 2.30537 3.30907
# Velocity P-wave (km/s) = 6.35018 5.80620 6.08427
#
# Compressibility (1/GPa) = 0.02591954
#
# Stress axis : x y z
#
# Youngs Moduli (GPa) = 79.34313 43.16508 112.09434
#
# Poissons Ratio (x) = -0.02564 0.44282
# Poissons Ratio (y) = -0.04712 0.67587
# Poissons Ratio (z) = 0.31344 0.26026
#
# Static dielectric constant tensor:
#      x y z
#    x 4.349730 0.000000 0.000000 
#    y 0.000000 3.846580 0.000000 
#    z 0.000000 0.000000 4.131410 
# 
# 
# High freq. dielectric constant tensor:
#      x y z
#    x 1.840650 0.000000 0.000000 
#    y 0.000000 1.825160 0.000000 
#    z 0.000000 0.000000 1.848940 
# 
# From -- ./inp_files/10275.got.cif
#   From: 2010.03.12/outbox.cif.g09.slc.cpg/sg60_6_cif.got.tgz:10275.got - 2010.04.10 18:46:24.
