data_PCOD8247299
_publ_section_title
;
Structure prediction by ZEFSAII (Michael W. Deem and Ramdas Pophale) SiO2 
 PCOD8247299
Probable space group: P B C N
;
_chemical_formula_sum "Si O2"
_cell_formula_units_Z 56
_cell_length_a 30.256885
_cell_length_b 16.139091
_cell_length_c 5.353999
_cell_angle_alpha 90.000000
_cell_angle_beta 90.000000
_cell_angle_gamma 90.000000
_cell_volume 2614.457405
_symmetry_space_group_name_H-M "P B C N"
_symmetry_group_IT_number 60
_symmetry_cell_setting 'orthorhombic'
loop_
_space_group_symop_operation_xyz
x,y,z
1/2-x,1/2-y,1/2+z
1/2+x,1/2-y,-z
-x,y,1/2-z
-x,-y,-z
1/2+x,1/2+y,1/2-z
1/2-x,1/2+y,z
x,-y,1/2+z
loop_
_atom_site_type_symbol
_atom_site_label
_atom_site_fract_x
_atom_site_fract_y
_atom_site_fract_z
Si Si1 0.151943 0.841536 0.499379
Si Si2 0.580746 0.049800 0.504207
Si Si3 0.384849 0.683879 0.499520
Si Si4 0.683427 0.949296 0.001075
Si Si5 0.751002 0.196418 0.520355
Si Si6 0.409306 0.502270 0.501265
Si Si7 0.028162 0.718564 0.001083
O O1 0.139981 0.786413 0.746545
O O2 0.204173 0.857806 0.493269
O O3 0.125475 0.927457 0.502059
O O4 0.138338 0.785626 0.256476
O O5 0.631924 0.075076 0.499392
O O6 0.551600 0.130810 0.484733
O O7 0.568485 0.994344 0.264414
O O8 0.380138 0.584615 0.502019
O O9 0.435830 0.709095 0.492031
O O10 0.709641 0.864050 0.997795
O O11 0.695562 0.999565 0.251813
O O12 0.750416 0.259110 0.288279
O O13 0.439482 0.499980 0.751295
O O14 0.000000 0.725959 0.750000
O O15 0.000000 0.732918 0.250000
#
# Coordination Sequence:
#
# PCOD8247299 Si02
#       7
#     8   8   8   8   8   8   8
#     4  10  21  37  63  91 124 178 210 259 303 376
#     4  10  23  43  67  93 123 172 214 259 326 402
#     4  10  21  40  63  93 124 162 212 259 316 388
#     4  10  23  44  66  92 134 184 224 267 326 397
#     4  12  26  40  62 104 141 172 225 282 327 373
#     4   8  16  32  57  85 116 153 209 245 290 358
#     4  12  26  42  66  98 128 160 203 274 341 394
#
# _framework density 21.419357999999999
#
# number of rings (size 3 to 8) (size 9 to 14) (size 15 to 20)
#    0.000    1.714    0.000    3.429    4.000    5.143 
#    0.000    0.000    0.000   23.143    0.000    0.000 
#    0.000    0.000    0.000    0.000    0.000    0.000 
#
# Total GULP energy -693835.825103 kJ/mol
# GULP energy per Si atom -12389.925448 kJ/mol
# Density = 2.137061 g / cm^3
# Si number density = 21.419358 Si / 1000 Ang^3
#
#
#
# Elastic Constant Matrix: (Units=GPa)
#
#
# Indices 1 2 3 4 5 6 
#
# 1 81.8695 25.9758 25.7961 0.0000 0.0000 0.0000
# 2 25.9758 35.8489 6.7857 0.0000 0.0000 0.0000
# 3 25.7961 6.7857 219.4285 0.0000 0.0000 0.0000
# 4 0.0000 0.0000 0.0000 27.3781 0.0000 0.0000
# 5 0.0000 0.0000 0.0000 0.0000 26.6424 0.0000
# 6 0.0000 0.0000 0.0000 0.0000 0.0000 36.1831
#
#
#
# Elastic Compliance Matrix: (Units=1/GPa)
#
#
# Indices 1 2 3 4 5 6 
#
# 1 0.016380 -0.011572 -0.001568 0.000000 0.000000 0.000000
# 2 -0.011572 0.036234 0.000240 0.000000 0.000000 0.000000
# 3 -0.001568 0.000240 0.004734 0.000000 0.000000 0.000000
# 4 0.000000 0.000000 0.000000 0.036526 0.000000 0.000000
# 5 0.000000 0.000000 0.000000 0.000000 0.037534 0.000000
# 6 0.000000 0.000000 0.000000 0.000000 0.000000 0.027637
#
#
# Mechanical properties :
#
#
# Convention : Reuss Voigt Hill
#
# Bulk Modulus (GPa) = 31.69697 50.47355 41.08526
# Shear Modulus (GPa) = 25.59351 36.61337 31.10344
#
# Velocity S-wave (km/s) = 3.46045 4.13892 3.81480
# Velocity P-wave (km/s) = 5.54948 6.81590 6.21503
#
# Compressibility (1/GPa) = 0.03154876
#
# Stress axis : x y z
#
# Youngs Moduli (GPa) = 61.04936 27.59802 211.22958
#
# Poissons Ratio (x) = 0.31937 0.33117
# Poissons Ratio (y) = 0.70647 -0.05067
# Poissons Ratio (z) = 0.09571 -0.00662
#
# Static dielectric constant tensor:
#      x y z
#    x 3.719060 0.000000 0.000000 
#    y 0.000000 3.671910 0.000000 
#    z 0.000000 0.000000 5.270060 
# 
# 
# High freq. dielectric constant tensor:
#      x y z
#    x 1.820590 0.000000 0.000000 
#    y 0.000000 1.830650 0.000000 
#    z 0.000000 0.000000 1.887720 
# 
# From -- ./inp_files/2700.got.cif
#   From: 2010.03.12/outbox.cif.g09.slc.cpg/sg60_2_cif.got.tgz:2700.got - 2010.04.10 18:46:24.
