data_PCOD8247809
_publ_section_title
;
Structure prediction by ZEFSAII (Michael W. Deem and Ramdas Pophale) SiO2 
 PCOD8247809
Probable space group: P B C N
;
_chemical_formula_sum "Si O2"
_cell_formula_units_Z 40
_cell_length_a 8.957720
_cell_length_b 23.881290
_cell_length_c 8.607454
_cell_angle_alpha 90.000000
_cell_angle_beta 90.000000
_cell_angle_gamma 90.000000
_cell_volume 1841.322992
_symmetry_space_group_name_H-M "P B C N"
_symmetry_group_IT_number 60
_symmetry_cell_setting 'orthorhombic'
loop_
_space_group_symop_operation_xyz
x,y,z
1/2-x,1/2-y,1/2+z
1/2+x,1/2-y,-z
-x,y,1/2-z
-x,-y,-z
1/2+x,1/2+y,1/2-z
1/2-x,1/2+y,z
x,-y,1/2+z
loop_
_atom_site_type_symbol
_atom_site_label
_atom_site_fract_x
_atom_site_fract_y
_atom_site_fract_z
Si Si1 0.807611 0.549798 0.580431
Si Si2 0.172337 0.243197 0.254023
Si Si3 0.097593 0.865264 0.597953
Si Si4 0.685296 0.675194 0.955244
Si Si5 0.344160 0.064654 0.565054
O O1 0.702381 0.586408 0.469006
O O2 0.776702 0.485067 0.539418
O O3 0.776412 0.558634 0.761813
O O4 0.978552 0.564986 0.549494
O O5 0.196243 0.188570 0.144667
O O6 0.219761 0.225526 0.425927
O O7 0.000000 0.262477 0.250000
O O8 0.273864 0.296816 0.210110
O O9 0.000000 0.884512 0.750000
O O10 0.984491 0.846345 0.460914
O O11 0.791585 0.623686 0.001374
#
# Coordination Sequence:
#
# PCOD8247809 Si02
#       5
#     8   8   8   8   8
#     4  10  23  44  65  94 133 165 221 273 318 399
#     4   9  22  41  63  90 135 166 216 262 311 387
#     4   9  22  43  65  95 134 170 215 273 327 387
#     4  10  22  42  65  97 125 175 214 262 333 378
#     4  10  24  41  69  93 126 175 219 264 329 386
#
# _framework density 21.723510999999998
#
# number of rings (size 3 to 8) (size 9 to 14) (size 15 to 20)
#    0.000    2.800    0.000    0.000   11.200    3.200 
#    3.600    8.000    0.000    0.000    0.000    0.000 
#    0.000    0.000    0.000    0.000    0.000    0.000 
#
# Total GULP energy -495808.967564 kJ/mol
# GULP energy per Si atom -12395.224189 kJ/mol
# Density = 2.167407 g / cm^3
# Si number density = 21.723511 Si / 1000 Ang^3
#
#
#
# Elastic Constant Matrix: (Units=GPa)
#
#
# Indices 1 2 3 4 5 6 
#
# 1 53.5908 45.6552 42.1246 0.0000 0.0000 0.0000
# 2 45.6552 101.2267 27.9529 0.0000 0.0000 0.0000
# 3 42.1246 27.9529 58.5655 0.0000 0.0000 0.0000
# 4 0.0000 0.0000 0.0000 29.3316 0.0000 0.0000
# 5 0.0000 0.0000 0.0000 0.0000 37.0030 0.0000
# 6 0.0000 0.0000 0.0000 0.0000 0.0000 31.7690
#
#
#
# Elastic Compliance Matrix: (Units=1/GPa)
#
#
# Indices 1 2 3 4 5 6 
#
# 1 0.063035 -0.018325 -0.036593 0.000000 0.000000 0.000000
# 2 -0.018325 0.016706 0.005207 0.000000 0.000000 0.000000
# 3 -0.036593 0.005207 0.040910 0.000000 0.000000 0.000000
# 4 0.000000 0.000000 0.000000 0.034093 0.000000 0.000000
# 5 0.000000 0.000000 0.000000 0.000000 0.027025 0.000000
# 6 0.000000 0.000000 0.000000 0.000000 0.000000 0.031477
#
#
# Mechanical properties :
#
#
# Convention : Reuss Voigt Hill
#
# Bulk Modulus (GPa) = 47.10546 49.42761 48.26653
# Shear Modulus (GPa) = 15.63746 26.13073 20.88409
#
# Velocity S-wave (km/s) = 2.68589 3.47202 3.10394
# Velocity P-wave (km/s) = 5.59910 6.23503 5.92560
#
# Compressibility (1/GPa) = 0.02122896
#
# Stress axis : x y z
#
# Youngs Moduli (GPa) = 15.86411 59.85903 24.44387
#
# Poissons Ratio (x) = 1.09693 0.89448
# Poissons Ratio (y) = 0.29071 -0.12729
# Poissons Ratio (z) = 0.58052 -0.31170
#
# Static dielectric constant tensor:
#      x y z
#    x 3.673770 0.000000 0.000000 
#    y 0.000000 3.898230 0.000000 
#    z 0.000000 0.000000 3.906100 
# 
# 
# High freq. dielectric constant tensor:
#      x y z
#    x 1.837320 0.000000 0.000000 
#    y 0.000000 1.860460 0.000000 
#    z 0.000000 0.000000 1.853460 
# 
# From -- ./inp_files/3826.got.cif
#   From: 2010.03.12/outbox.cif.g09.slc.cpg/sg60_2_cif.got.tgz:3826.got - 2010.04.10 18:46:24.
