data_PCOD8247172
_publ_section_title
;
Structure prediction by ZEFSAII (Michael W. Deem and Ramdas Pophale) SiO2 
 PCOD8247172
Probable space group: P B C N
;
_chemical_formula_sum "Si O2"
_cell_formula_units_Z 48
_cell_length_a 15.591778
_cell_length_b 9.138991
_cell_length_c 16.756198
_cell_angle_alpha 90.000000
_cell_angle_beta 90.000000
_cell_angle_gamma 90.000000
_cell_volume 2387.642913
_symmetry_space_group_name_H-M "P B C N"
_symmetry_group_IT_number 60
_symmetry_cell_setting 'orthorhombic'
loop_
_space_group_symop_operation_xyz
x,y,z
1/2-x,1/2-y,1/2+z
1/2+x,1/2-y,-z
-x,y,1/2-z
-x,-y,-z
1/2+x,1/2+y,1/2-z
1/2-x,1/2+y,z
x,-y,1/2+z
loop_
_atom_site_type_symbol
_atom_site_label
_atom_site_fract_x
_atom_site_fract_y
_atom_site_fract_z
Si Si1 0.747784 0.976328 0.203157
Si Si2 0.668847 0.766198 0.607018
Si Si3 0.831567 0.060291 0.864319
Si Si4 0.179069 0.746681 0.575634
Si Si5 0.582619 0.917713 0.298836
Si Si6 0.979670 0.736726 0.337027
O O1 0.719754 0.129855 0.167029
O O2 0.817553 0.997285 0.273769
O O3 0.793962 0.891336 0.130861
O O4 0.662629 0.900520 0.238825
O O5 0.685190 0.804674 0.515390
O O6 0.566849 0.783345 0.614761
O O7 0.823538 0.922706 0.923110
O O8 0.762505 0.185191 0.881317
O O9 0.922584 0.138516 0.878676
O O10 0.096099 0.682123 0.622358
O O11 0.500000 0.862661 0.250000
O O12 0.571742 0.084116 0.329421
O O13 0.000000 0.798025 0.250000
#
# Coordination Sequence:
#
# PCOD8247172 Si02
#       6
#     8   8   8   8   8   8
#     4  11  20  39  67  86 121 169 212 248 312 392
#     4  12  24  41  63  98 128 164 210 271 328 365
#     4  11  22  43  65  89 127 175 211 254 317 387
#     4  11  25  40  63  95 131 164 211 267 322 379
#     4  10  20  42  65  92 121 168 220 253 308 386
#     4  11  21  42  68  94 126 168 213 268 312 372
#
# _framework density 20.103508000000001
#
# number of rings (size 3 to 8) (size 9 to 14) (size 15 to 20)
#    0.000    1.000    5.000    5.000    0.000    2.000 
#    6.000    0.000    0.000    0.000    0.000    0.000 
#    0.000    0.000    0.000    0.000    0.000    0.000 
#
# Total GULP energy -595192.508431 kJ/mol
# GULP energy per Si atom -12399.843926 kJ/mol
# Density = 2.005775 g / cm^3
# Si number density = 20.103508 Si / 1000 Ang^3
#
#
#
# Elastic Constant Matrix: (Units=GPa)
#
#
# Indices 1 2 3 4 5 6 
#
# 1 85.8327 38.4358 26.4093 0.0000 0.0000 0.0000
# 2 38.4358 80.7844 21.2703 0.0000 0.0000 0.0000
# 3 26.4093 21.2703 90.1552 0.0000 0.0000 0.0000
# 4 0.0000 0.0000 0.0000 24.6861 0.0000 0.0000
# 5 0.0000 0.0000 0.0000 0.0000 22.0003 0.0000
# 6 0.0000 0.0000 0.0000 0.0000 0.0000 29.2461
#
#
#
# Elastic Compliance Matrix: (Units=1/GPa)
#
#
# Indices 1 2 3 4 5 6 
#
# 1 0.015526 -0.006600 -0.002991 0.000000 0.000000 0.000000
# 2 -0.006600 0.016004 -0.001843 0.000000 0.000000 0.000000
# 3 -0.002991 -0.001843 0.012403 0.000000 0.000000 0.000000
# 4 0.000000 0.000000 0.000000 0.040509 0.000000 0.000000
# 5 0.000000 0.000000 0.000000 0.000000 0.045454 0.000000
# 6 0.000000 0.000000 0.000000 0.000000 0.000000 0.034193
#
#
# Mechanical properties :
#
#
# Convention : Reuss Voigt Hill
#
# Bulk Modulus (GPa) = 47.46887 47.66701 47.56794
# Shear Modulus (GPa) = 25.77634 26.56362 26.16998
#
# Velocity S-wave (km/s) = 3.58464 3.63897 3.61191
# Velocity P-wave (km/s) = 6.38720 6.43571 6.41150
#
# Compressibility (1/GPa) = 0.02106644
#
# Stress axis : x y z
#
# Youngs Moduli (GPa) = 64.40748 62.48548 80.62648
#
# Poissons Ratio (x) = 0.41238 0.24116
# Poissons Ratio (y) = 0.42506 0.14856
# Poissons Ratio (z) = 0.19265 0.11513
#
# Static dielectric constant tensor:
#      x y z
#    x 3.819170 0.000000 0.000000 
#    y 0.000000 3.534120 0.000000 
#    z 0.000000 0.000000 3.596060 
# 
# 
# High freq. dielectric constant tensor:
#      x y z
#    x 1.787130 0.000000 0.000000 
#    y 0.000000 1.781450 0.000000 
#    z 0.000000 0.000000 1.777700 
# 
# From -- ./inp_files/20498.got.cif
#   From: 2010.03.12/outbox.cif.g09.slc.cpg/sg60_11_cif.got.tgz:20498.got - 2010.04.10 18:46:24.
