data_PCOD8247154
_publ_section_title
;
Structure prediction by ZEFSAII (Michael W. Deem and Ramdas Pophale) SiO2 
 PCOD8247154
Probable space group: P B C N
;
_chemical_formula_sum "Si O2"
_cell_formula_units_Z 64
_cell_length_a 12.057954
_cell_length_b 11.412065
_cell_length_c 23.232889
_cell_angle_alpha 90.000000
_cell_angle_beta 90.000000
_cell_angle_gamma 90.000000
_cell_volume 3196.988521
_symmetry_space_group_name_H-M "P B C N"
_symmetry_group_IT_number 60
_symmetry_cell_setting 'orthorhombic'
loop_
_space_group_symop_operation_xyz
x,y,z
1/2-x,1/2-y,1/2+z
1/2+x,1/2-y,-z
-x,y,1/2-z
-x,-y,-z
1/2+x,1/2+y,1/2-z
1/2-x,1/2+y,z
x,-y,1/2+z
loop_
_atom_site_type_symbol
_atom_site_label
_atom_site_fract_x
_atom_site_fract_y
_atom_site_fract_z
Si Si1 0.185603 0.442153 0.843136
Si Si2 0.084081 0.084759 0.969965
Si Si3 0.839224 0.341752 0.234422
Si Si4 0.434596 0.504423 0.346951
Si Si5 0.100289 0.225545 0.785413
Si Si6 0.980011 0.752032 0.839193
Si Si7 0.162862 0.476166 0.469792
Si Si8 0.461459 0.823032 0.030815
O O1 0.159531 0.522537 0.786666
O O2 0.317453 0.428707 0.847495
O O3 0.127537 0.315354 0.837085
O O4 0.139853 0.493050 0.902998
O O5 0.053703 0.072445 0.903865
O O6 0.210502 0.051329 0.983671
O O7 0.062825 0.215230 0.989949
O O8 0.000000 0.000000 0.000000
O O9 0.716441 0.293064 0.247724
O O10 0.893877 0.274377 0.180114
O O11 0.903491 0.316898 0.293623
O O12 0.444651 0.403742 0.299933
O O13 0.529281 0.604786 0.338324
O O14 0.000000 0.284778 0.750000
O O15 0.947326 0.707881 0.902102
O O16 0.126582 0.577631 0.513773
O O17 0.087420 0.362508 0.482046
#
# Coordination Sequence:
#
# PCOD8247154 Si02
#       8
#     8   8   8   8   8   8   8   8
#     4  10  20  41  66  90 123 162 218 258 306 375
#     4  11  23  40  66  95 125 171 218 267 322 389
#     4  10  23  39  63  90 117 171 208 253 309 383
#     4  10  22  40  65  91 121 167 217 257 306 374
#     4  11  24  38  60  95 127 159 205 267 318 371
#     4  11  21  40  67  85 125 163 218 254 311 395
#     4  10  24  41  67  95 129 170 218 276 321 387
#     4  11  23  42  65  97 130 169 217 269 334 385
#
# _framework density 20.018839
#
# number of rings (size 3 to 8) (size 9 to 14) (size 15 to 20)
#    0.000    1.500    3.750    0.750    5.250    0.000 
#    2.250    3.750    0.000    0.000    0.000    0.000 
#    0.000    0.000    0.000    0.000    0.000    0.000 
#
# Total GULP energy -793049.938600 kJ/mol
# GULP energy per Si atom -12391.405291 kJ/mol
# Density = 1.997328 g / cm^3
# Si number density = 20.018839 Si / 1000 Ang^3
#
#
#
# Elastic Constant Matrix: (Units=GPa)
#
#
# Indices 1 2 3 4 5 6 
#
# 1 101.5391 35.3433 40.6297 0.0000 0.0000 0.0000
# 2 35.3433 110.3395 45.6395 0.0000 0.0000 0.0000
# 3 40.6297 45.6395 105.0434 0.0000 0.0000 0.0000
# 4 0.0000 0.0000 0.0000 28.6378 0.0000 0.0000
# 5 0.0000 0.0000 0.0000 0.0000 27.3858 0.0000
# 6 0.0000 0.0000 0.0000 0.0000 0.0000 30.7421
#
#
#
# Elastic Compliance Matrix: (Units=1/GPa)
#
#
# Indices 1 2 3 4 5 6 
#
# 1 0.012141 -0.002373 -0.003665 0.000000 0.000000 0.000000
# 2 -0.002373 0.011512 -0.004084 0.000000 0.000000 0.000000
# 3 -0.003665 -0.004084 0.012712 0.000000 0.000000 0.000000
# 4 0.000000 0.000000 0.000000 0.034919 0.000000 0.000000
# 5 0.000000 0.000000 0.000000 0.000000 0.036515 0.000000
# 6 0.000000 0.000000 0.000000 0.000000 0.000000 0.032529
#
#
# Mechanical properties :
#
#
# Convention : Reuss Voigt Hill
#
# Bulk Modulus (GPa) = 62.03039 62.23855 62.13447
# Shear Modulus (GPa) = 30.13036 30.37377 30.25207
#
# Velocity S-wave (km/s) = 3.88377 3.89943 3.89161
# Velocity P-wave (km/s) = 7.15296 7.17158 7.16228
#
# Compressibility (1/GPa) = 0.01612113
#
# Stress axis : x y z
#
# Youngs Moduli (GPa) = 82.36630 86.86350 78.66651
#
# Poissons Ratio (x) = 0.20612 0.28831
# Poissons Ratio (y) = 0.19545 0.32128
# Poissons Ratio (z) = 0.30187 0.35476
#
# Static dielectric constant tensor:
#      x y z
#    x 3.730750 0.000000 0.000000 
#    y 0.000000 2.213850 0.000000 
#    z 0.000000 0.000000 3.259430 
# 
# 
# High freq. dielectric constant tensor:
#      x y z
#    x 1.774750 0.000000 0.000000 
#    y 0.000000 1.796150 0.000000 
#    z 0.000000 0.000000 1.773120 
# 
# From -- ./inp_files/24297.got.cif
#   From: 2010.03.12/outbox.cif.g09.slc.cpg/sg60_13_cif.got.tgz:24297.got - 2010.04.10 18:46:24.
