data_PCOD8247586
_publ_section_title
;
Structure prediction by ZEFSAII (Michael W. Deem and Ramdas Pophale) SiO2 
 PCOD8247586
Probable space group: P B C N
;
_chemical_formula_sum "Si O2"
_cell_formula_units_Z 48
_cell_length_a 8.064213
_cell_length_b 22.577526
_cell_length_c 11.000092
_cell_angle_alpha 90.000000
_cell_angle_beta 90.000000
_cell_angle_gamma 90.000000
_cell_volume 2002.786516
_symmetry_space_group_name_H-M "P B C N"
_symmetry_group_IT_number 60
_symmetry_cell_setting 'orthorhombic'
loop_
_space_group_symop_operation_xyz
x,y,z
1/2-x,1/2-y,1/2+z
1/2+x,1/2-y,-z
-x,y,1/2-z
-x,-y,-z
1/2+x,1/2+y,1/2-z
1/2-x,1/2+y,z
x,-y,1/2+z
loop_
_atom_site_type_symbol
_atom_site_label
_atom_site_fract_x
_atom_site_fract_y
_atom_site_fract_z
Si Si1 0.045671 0.582895 0.576760
Si Si2 0.492318 0.676726 0.497588
Si Si3 0.882987 0.301932 0.001441
Si Si4 0.729347 0.410712 0.647703
Si Si5 0.249827 0.460530 0.304094
Si Si6 0.000000 0.131246 0.750000
Si Si7 0.000000 0.335834 0.750000
O O1 0.129724 0.573522 0.449078
O O2 0.173198 0.564838 0.680308
O O3 0.979276 0.651016 0.587205
O O4 0.885429 0.540281 0.587788
O O5 0.406264 0.736115 0.443862
O O6 0.690321 0.681104 0.491560
O O7 0.427783 0.623428 0.410330
O O8 0.425364 0.669869 0.638433
O O9 0.978057 0.297507 0.871392
O O10 0.672436 0.473498 0.706024
O O11 0.828567 0.373690 0.748782
O O12 0.388022 0.412152 0.332768
#
# Coordination Sequence:
#
# PCOD8247586 Si02
#       7
#     8   8   8   8   8   4   4
#     4  10  21  44  69 103 136 187 236 288 360 417
#     4  12  26  46  71 107 141 192 234 299 371 425
#     4  11  24  46  73 101 147 182 241 301 358 441
#     4  11  24  44  70 102 146 184 241 292 357 427
#     4  11  23  41  69 103 139 189 236 292 347 428
#     4  12  25  46  66 108 142 181 244 290 358 430
#     4  10  23  44  68 106 136 185 236 292 354 428
#
# _framework density 23.966608000000001
#
# number of rings (size 3 to 8) (size 9 to 14) (size 15 to 20)
#    0.000    1.000    3.333    4.000    0.000    4.000 
#    0.000    0.000    0.000    0.000    0.000    0.000 
#    0.000    0.000    0.000    0.000    0.000    0.000 
#
# Total GULP energy -594777.304923 kJ/mol
# GULP energy per Si atom -12391.193853 kJ/mol
# Density = 2.391206 g / cm^3
# Si number density = 23.966608 Si / 1000 Ang^3
#
#
#
# Elastic Constant Matrix: (Units=GPa)
#
#
# Indices 1 2 3 4 5 6 
#
# 1 93.7863 41.4697 16.8785 0.0000 0.0000 0.0000
# 2 41.4697 170.2377 28.3147 0.0000 0.0000 0.0000
# 3 16.8785 28.3147 47.9263 0.0000 0.0000 0.0000
# 4 0.0000 0.0000 0.0000 14.4012 0.0000 0.0000
# 5 0.0000 0.0000 0.0000 0.0000 34.3644 0.0000
# 6 0.0000 0.0000 0.0000 0.0000 0.0000 19.5235
#
#
#
# Elastic Compliance Matrix: (Units=1/GPa)
#
#
# Indices 1 2 3 4 5 6 
#
# 1 0.012288 -0.002521 -0.002838 0.000000 0.000000 0.000000
# 2 -0.002521 0.007032 -0.003266 0.000000 0.000000 0.000000
# 3 -0.002838 -0.003266 0.023795 0.000000 0.000000 0.000000
# 4 0.000000 0.000000 0.000000 0.069439 0.000000 0.000000
# 5 0.000000 0.000000 0.000000 0.000000 0.029100 0.000000
# 6 0.000000 0.000000 0.000000 0.000000 0.000000 0.051220
#
#
# Mechanical properties :
#
#
# Convention : Reuss Voigt Hill
#
# Bulk Modulus (GPa) = 38.66520 53.91958 46.29239
# Shear Modulus (GPa) = 22.85761 28.67697 25.76729
#
# Velocity S-wave (km/s) = 3.09160 3.46285 3.28248
# Velocity P-wave (km/s) = 5.37698 6.20767 5.80720
#
# Compressibility (1/GPa) = 0.02586305
#
# Stress axis : x y z
#
# Youngs Moduli (GPa) = 81.37921 142.21506 42.02642
#
# Poissons Ratio (x) = 0.35857 0.11927
# Poissons Ratio (y) = 0.20519 0.13727
# Poissons Ratio (z) = 0.23095 0.46452
#
# Static dielectric constant tensor:
#      x y z
#    x 4.499850 0.000000 0.000000 
#    y 0.000000 4.436550 0.000000 
#    z 0.000000 0.000000 4.169130 
# 
# 
# High freq. dielectric constant tensor:
#      x y z
#    x 1.950400 0.000000 0.000000 
#    y 0.000000 1.963850 0.000000 
#    z 0.000000 0.000000 1.932490 
# 
# From -- ./inp_files/10163.got.cif
#   From: 2010.03.12/outbox.cif.g09.slc.cpg/sg60_6_cif.got.tgz:10163.got - 2010.04.10 18:46:24.
