data_PCOD8247913
_publ_section_title
;
Structure prediction by ZEFSAII (Michael W. Deem and Ramdas Pophale) SiO2 
 PCOD8247913
Probable space group: P B C N
;
_chemical_formula_sum "Si O2"
_cell_formula_units_Z 48
_cell_length_a 13.769865
_cell_length_b 15.981884
_cell_length_c 8.650219
_cell_angle_alpha 90.000000
_cell_angle_beta 90.000000
_cell_angle_gamma 90.000000
_cell_volume 1903.639726
_symmetry_space_group_name_H-M "P B C N"
_symmetry_group_IT_number 60
_symmetry_cell_setting 'orthorhombic'
loop_
_space_group_symop_operation_xyz
x,y,z
1/2-x,1/2-y,1/2+z
1/2+x,1/2-y,-z
-x,y,1/2-z
-x,-y,-z
1/2+x,1/2+y,1/2-z
1/2-x,1/2+y,z
x,-y,1/2+z
loop_
_atom_site_type_symbol
_atom_site_label
_atom_site_fract_x
_atom_site_fract_y
_atom_site_fract_z
Si Si1 0.000000 0.875018 0.750000
Si Si2 0.903511 0.226116 0.504644
Si Si3 0.818220 0.381359 0.628880
Si Si4 0.636727 0.547883 0.988331
Si Si5 0.500000 0.382355 0.250000
Si Si6 0.431320 0.957283 0.379717
Si Si7 0.741130 0.878124 0.963306
O O1 0.942843 0.936143 0.626564
O O2 0.072774 0.808816 0.666891
O O3 0.901122 0.325935 0.540408
O O4 0.792795 0.199781 0.546668
O O5 0.978772 0.180762 0.612961
O O6 0.729929 0.392671 0.508344
O O7 0.862945 0.469535 0.686635
O O8 0.777877 0.346472 0.789285
O O9 0.678898 0.453307 0.980111
O O10 0.588419 0.561961 0.819047
O O11 0.500000 0.915376 0.250000
O O12 0.500000 0.000000 0.500000
O O13 0.361959 0.888043 0.453117
#
# Coordination Sequence:
#
# PCOD8247913 Si02
#       7
#     4   8   8   8   4   8   8
#     4  10  22  49  70 110 141 184 244 302 365 436
#     4  11  26  44  72 103 148 189 227 298 371 442
#     4  11  25  47  70 100 149 188 236 296 363 439
#     4  10  24  44  71 105 143 185 244 300 356 432
#     4  10  26  39  70 112 139 186 238 288 365 430
#     4  11  24  47  74 103 131 184 246 301 345 420
#     4  11  25  45  74 102 143 192 239 294 371 418
#
# _framework density 25.214856000000001
#
# number of rings (size 3 to 8) (size 9 to 14) (size 15 to 20)
#    0.000    1.333    3.333    0.000    8.167    4.000 
#    4.500    0.000    0.000    0.000    0.000    0.000 
#    0.000    0.000    0.000    0.000    0.000    0.000 
#
# Total GULP energy -594693.370165 kJ/mol
# GULP energy per Si atom -12389.445212 kJ/mol
# Density = 2.515747 g / cm^3
# Si number density = 25.214856 Si / 1000 Ang^3
#
#
#
# Elastic Constant Matrix: (Units=GPa)
#
#
# Indices 1 2 3 4 5 6 
#
# 1 109.3946 8.1269 28.6871 0.0000 0.0000 0.0000
# 2 8.1269 47.4452 23.9416 0.0000 0.0000 0.0000
# 3 28.6871 23.9416 102.9687 0.0000 0.0000 0.0000
# 4 0.0000 0.0000 0.0000 27.0636 0.0000 0.0000
# 5 0.0000 0.0000 0.0000 0.0000 52.8675 0.0000
# 6 0.0000 0.0000 0.0000 0.0000 0.0000 21.7797
#
#
#
# Elastic Compliance Matrix: (Units=1/GPa)
#
#
# Indices 1 2 3 4 5 6 
#
# 1 0.009867 -0.000343 -0.002669 0.000000 0.000000 0.000000
# 2 -0.000343 0.023891 -0.005459 0.000000 0.000000 0.000000
# 3 -0.002669 -0.005459 0.011725 0.000000 0.000000 0.000000
# 4 0.000000 0.000000 0.000000 0.036950 0.000000 0.000000
# 5 0.000000 0.000000 0.000000 0.000000 0.018915 0.000000
# 6 0.000000 0.000000 0.000000 0.000000 0.000000 0.045914
#
#
# Mechanical properties :
#
#
# Convention : Reuss Voigt Hill
#
# Bulk Modulus (GPa) = 35.04003 42.36886 38.70444
# Shear Modulus (GPa) = 28.78239 33.61235 31.19737
#
# Velocity S-wave (km/s) = 3.38225 3.65504 3.52129
# Velocity P-wave (km/s) = 5.40181 5.88660 5.64941
#
# Compressibility (1/GPa) = 0.02853879
#
# Stress axis : x y z
#
# Youngs Moduli (GPa) = 101.35171 41.85753 85.29048
#
# Poissons Ratio (x) = 0.01437 0.22764
# Poissons Ratio (y) = 0.03479 0.46562
# Poissons Ratio (z) = 0.27051 0.22851
#
# Static dielectric constant tensor:
#      x y z
#    x 5.197940 0.000000 0.000000 
#    y 0.000000 3.636360 0.000000 
#    z 0.000000 0.000000 4.523460 
# 
# 
# High freq. dielectric constant tensor:
#      x y z
#    x 2.022980 0.000000 0.000000 
#    y 0.000000 1.985420 0.000000 
#    z 0.000000 0.000000 2.007570 
# 
# From -- ./inp_files/5952.got.cif
#   From: 2010.03.12/outbox.cif.g09.slc.cpg/sg60_3_cif.got.tgz:5952.got - 2010.04.10 18:46:24.
