data_PCOD8247825
_publ_section_title
;
Structure prediction by ZEFSAII (Michael W. Deem and Ramdas Pophale) SiO2 
 PCOD8247825
Probable space group: P B C N
;
_chemical_formula_sum "Si O2"
_cell_formula_units_Z 36
_cell_length_a 12.898226
_cell_length_b 15.033894
_cell_length_c 8.988305
_cell_angle_alpha 90.000000
_cell_angle_beta 90.000000
_cell_angle_gamma 90.000000
_cell_volume 1742.927278
_symmetry_space_group_name_H-M "P B C N"
_symmetry_group_IT_number 60
_symmetry_cell_setting 'orthorhombic'
loop_
_space_group_symop_operation_xyz
x,y,z
1/2-x,1/2-y,1/2+z
1/2+x,1/2-y,-z
-x,y,1/2-z
-x,-y,-z
1/2+x,1/2+y,1/2-z
1/2-x,1/2+y,z
x,-y,1/2+z
loop_
_atom_site_type_symbol
_atom_site_label
_atom_site_fract_x
_atom_site_fract_y
_atom_site_fract_z
Si Si1 0.701568 0.684438 0.086772
Si Si2 0.145154 0.457148 0.003639
Si Si3 0.500000 0.991732 0.250000
Si Si4 0.991526 0.092003 0.419951
Si Si5 0.263260 0.641499 0.071926
O O1 0.582555 0.662240 0.048801
O O2 0.738943 0.670424 0.255920
O O3 0.768767 0.618096 0.986214
O O4 0.715684 0.785151 0.036577
O O5 0.063840 0.432008 0.133641
O O6 0.197956 0.552453 0.037959
O O7 0.083335 0.451478 0.846563
O O8 0.883292 0.133446 0.472129
O O9 0.000000 0.065328 0.250000
O O10 0.000000 0.000000 0.500000
#
# Coordination Sequence:
#
# PCOD8247825 Si02
#       5
#     8   8   4   8   8
#     4  11  25  43  68  99 132 173 221 271 327 394
#     4  11  22  45  66  94 132 175 222 271 332 392
#     4  10  24  38  68  94 130 176 216 274 332 390
#     4  10  22  42  68  96 129 171 216 265 330 388
#     4  11  25  43  68  99 132 173 221 271 327 394
#
# _framework density 20.654906
#
# number of rings (size 3 to 8) (size 9 to 14) (size 15 to 20)
#    0.000    1.333    4.444    0.000    3.111    5.333 
#    4.000    0.000    0.000    0.000    0.000    0.000 
#    0.000    0.000    0.000    0.000    0.000    0.000 
#
# Total GULP energy -446226.364539 kJ/mol
# GULP energy per Si atom -12395.176793 kJ/mol
# Density = 2.060789 g / cm^3
# Si number density = 20.654906 Si / 1000 Ang^3
#
#
#
# Elastic Constant Matrix: (Units=GPa)
#
#
# Indices 1 2 3 4 5 6 
#
# 1 144.9759 46.9119 45.9571 0.0000 0.0000 0.0000
# 2 46.9119 109.5379 23.7271 0.0000 0.0000 0.0000
# 3 45.9571 23.7271 57.0854 0.0000 0.0000 0.0000
# 4 0.0000 0.0000 0.0000 25.3561 0.0000 0.0000
# 5 0.0000 0.0000 0.0000 0.0000 36.9811 0.0000
# 6 0.0000 0.0000 0.0000 0.0000 0.0000 26.7082
#
#
#
# Elastic Compliance Matrix: (Units=1/GPa)
#
#
# Indices 1 2 3 4 5 6 
#
# 1 0.009978 -0.002784 -0.006876 0.000000 0.000000 0.000000
# 2 -0.002784 0.010809 -0.002252 0.000000 0.000000 0.000000
# 3 -0.006876 -0.002252 0.023989 0.000000 0.000000 0.000000
# 4 0.000000 0.000000 0.000000 0.039438 0.000000 0.000000
# 5 0.000000 0.000000 0.000000 0.000000 0.027041 0.000000
# 6 0.000000 0.000000 0.000000 0.000000 0.000000 0.037442
#
#
# Mechanical properties :
#
#
# Convention : Reuss Voigt Hill
#
# Bulk Modulus (GPa) = 47.72445 60.53236 54.12840
# Shear Modulus (GPa) = 27.85445 30.80928 29.33187
#
# Velocity S-wave (km/s) = 3.67626 3.86634 3.77250
# Velocity P-wave (km/s) = 6.41683 7.02151 6.72597
#
# Compressibility (1/GPa) = 0.02095362
#
# Stress axis : x y z
#
# Youngs Moduli (GPa) = 100.21851 92.51322 41.68585
#
# Poissons Ratio (x) = 0.25755 0.28663
# Poissons Ratio (y) = 0.27901 0.09386
# Poissons Ratio (z) = 0.68909 0.20830
#
# Static dielectric constant tensor:
#      x y z
#    x 4.287160 0.000000 0.000000 
#    y 0.000000 3.395630 0.000000 
#    z 0.000000 0.000000 3.873370 
# 
# 
# High freq. dielectric constant tensor:
#      x y z
#    x 1.834780 0.000000 0.000000 
#    y 0.000000 1.787210 0.000000 
#    z 0.000000 0.000000 1.816730 
# 
# From -- ./inp_files/5593.got.cif
#   From: 2010.03.12/outbox.cif.g09.slc.cpg/sg60_3_cif.got.tgz:5593.got - 2010.04.10 18:46:24.
