data_PCOD8247805
_publ_section_title
;
Structure prediction by ZEFSAII (Michael W. Deem and Ramdas Pophale) SiO2 
 PCOD8247805
Probable space group: P B C N
;
_chemical_formula_sum "Si O2"
_cell_formula_units_Z 64
_cell_length_a 16.452488
_cell_length_b 13.703822
_cell_length_c 12.523341
_cell_angle_alpha 90.000000
_cell_angle_beta 90.000000
_cell_angle_gamma 90.000000
_cell_volume 2823.537095
_symmetry_space_group_name_H-M "P B C N"
_symmetry_group_IT_number 60
_symmetry_cell_setting 'orthorhombic'
loop_
_space_group_symop_operation_xyz
x,y,z
1/2-x,1/2-y,1/2+z
1/2+x,1/2-y,-z
-x,y,1/2-z
-x,-y,-z
1/2+x,1/2+y,1/2-z
1/2-x,1/2+y,z
x,-y,1/2+z
loop_
_atom_site_type_symbol
_atom_site_label
_atom_site_fract_x
_atom_site_fract_y
_atom_site_fract_z
Si Si1 0.167364 0.617795 0.506927
Si Si2 0.221264 0.759865 0.337975
Si Si3 0.835496 0.398798 0.030222
Si Si4 0.004355 0.346155 0.126105
Si Si5 0.272340 0.385524 0.664778
Si Si6 0.984871 0.927532 0.368766
Si Si7 0.690608 0.603223 0.841223
Si Si8 0.552424 0.636500 0.423794
O O1 0.161160 0.704153 0.419654
O O2 0.186485 0.513288 0.452519
O O3 0.241122 0.650992 0.583857
O O4 0.085391 0.608900 0.574705
O O5 0.288398 0.829713 0.388792
O O6 0.268666 0.677202 0.271549
O O7 0.169827 0.827794 0.258947
O O8 0.930742 0.385393 0.053399
O O9 0.808176 0.370841 0.909235
O O10 0.000000 0.380388 0.250000
O O11 0.005004 0.229451 0.121049
O O12 0.279529 0.498017 0.700192
O O13 0.352043 0.354158 0.598730
O O14 0.892820 0.904992 0.407398
O O15 0.000000 0.889522 0.250000
O O16 0.046483 0.872599 0.447455
O O17 0.994689 0.044828 0.372104
#
# Coordination Sequence:
#
# PCOD8247805 Si02
#       8
#     8   8   8   8   8   8   8   8
#     4  11  26  47  68 101 138 180 234 289 346 410
#     4  12  23  41  73 100 130 182 228 284 342 419
#     4  11  25  44  70  99 136 180 230 288 343 406
#     4  12  25  44  70  97 135 182 234 281 344 416
#     4  10  23  44  65  98 135 179 226 278 350 420
#     4  10  23  39  64  99 140 176 220 283 349 410
#     4  10  23  43  64  96 137 178 225 277 350 412
#     4  10  22  42  63  99 138 176 225 279 340 417
#
# _framework density 22.666605000000001
#
# number of rings (size 3 to 8) (size 9 to 14) (size 15 to 20)
#    0.000    1.250    0.000    5.250    7.000    2.000 
#    6.750    0.625    0.000    0.000    0.000    0.000 
#    0.000    0.000    0.000    0.000    0.000    0.000 
#
# Total GULP energy -793708.796340 kJ/mol
# GULP energy per Si atom -12401.699943 kJ/mol
# Density = 2.261501 g / cm^3
# Si number density = 22.666605 Si / 1000 Ang^3
#
#
#
# Elastic Constant Matrix: (Units=GPa)
#
#
# Indices 1 2 3 4 5 6 
#
# 1 98.0856 22.0667 44.3735 0.0000 0.0000 0.0000
# 2 22.0667 102.6899 51.5312 0.0000 0.0000 0.0000
# 3 44.3735 51.5312 129.4559 0.0000 0.0000 0.0000
# 4 0.0000 0.0000 0.0000 45.6001 0.0000 0.0000
# 5 0.0000 0.0000 0.0000 0.0000 31.9707 0.0000
# 6 0.0000 0.0000 0.0000 0.0000 0.0000 29.8809
#
#
#
# Elastic Compliance Matrix: (Units=1/GPa)
#
#
# Indices 1 2 3 4 5 6 
#
# 1 0.012101 -0.000648 -0.003890 0.000000 0.000000 0.000000
# 2 -0.000648 0.012204 -0.004635 0.000000 0.000000 0.000000
# 3 -0.003890 -0.004635 0.010903 0.000000 0.000000 0.000000
# 4 0.000000 0.000000 0.000000 0.021930 0.000000 0.000000
# 5 0.000000 0.000000 0.000000 0.000000 0.031279 0.000000
# 6 0.000000 0.000000 0.000000 0.000000 0.000000 0.033466
#
#
# Mechanical properties :
#
#
# Convention : Reuss Voigt Hill
#
# Bulk Modulus (GPa) = 59.31104 62.90823 61.10963
# Shear Modulus (GPa) = 34.28201 35.64101 34.96151
#
# Velocity S-wave (km/s) = 3.89324 3.96965 3.93163
# Velocity P-wave (km/s) = 6.81419 6.98748 6.90138
#
# Compressibility (1/GPa) = 0.01686027
#
# Stress axis : x y z
#
# Youngs Moduli (GPa) = 82.63980 81.94349 91.71718
#
# Poissons Ratio (x) = 0.05313 0.35675
# Poissons Ratio (y) = 0.05358 0.42515
# Poissons Ratio (z) = 0.32144 0.37985
#
# Static dielectric constant tensor:
#      x y z
#    x 3.896450 0.000000 0.000000 
#    y 0.000000 4.235550 0.000000 
#    z 0.000000 0.000000 4.019080 
# 
# 
# High freq. dielectric constant tensor:
#      x y z
#    x 1.886550 0.000000 0.000000 
#    y 0.000000 1.908680 0.000000 
#    z 0.000000 0.000000 1.891150 
# 
# From -- ./inp_files/12530.got.cif
#   From: 2010.03.12/outbox.cif.g09.slc.cpg/sg60_7_cif.got.tgz:12530.got - 2010.04.10 18:46:24.
