data_PCOD8247133
_publ_section_title
;
Structure prediction by ZEFSAII (Michael W. Deem and Ramdas Pophale) SiO2 
 PCOD8247133
Probable space group: P B C N
;
_chemical_formula_sum "Si O2"
_cell_formula_units_Z 52
_cell_length_a 7.710297
_cell_length_b 18.735444
_cell_length_c 17.109173
_cell_angle_alpha 90.000000
_cell_angle_beta 90.000000
_cell_angle_gamma 90.000000
_cell_volume 2471.519918
_symmetry_space_group_name_H-M "P B C N"
_symmetry_group_IT_number 60
_symmetry_cell_setting 'orthorhombic'
loop_
_space_group_symop_operation_xyz
x,y,z
1/2-x,1/2-y,1/2+z
1/2+x,1/2-y,-z
-x,y,1/2-z
-x,-y,-z
1/2+x,1/2+y,1/2-z
1/2-x,1/2+y,z
x,-y,1/2+z
loop_
_atom_site_type_symbol
_atom_site_label
_atom_site_fract_x
_atom_site_fract_y
_atom_site_fract_z
Si Si1 0.500000 0.567539 0.750000
Si Si2 0.241365 0.652315 0.997214
Si Si3 0.225378 0.459171 0.363271
Si Si4 0.417270 0.891197 0.901156
Si Si5 0.876421 0.197066 0.014990
Si Si6 0.000000 0.311796 0.750000
Si Si7 0.698818 0.691409 0.833167
Si Si8 0.000000 0.365503 0.250000
O O1 0.606599 0.517687 0.688756
O O2 0.614465 0.618481 0.804050
O O3 0.160537 0.722355 0.954436
O O4 0.106177 0.622570 0.061350
O O5 0.281918 0.591584 0.934275
O O6 0.427313 0.673234 0.036358
O O7 0.117957 0.524608 0.398199
O O8 0.115417 0.415436 0.302530
O O9 0.408411 0.861432 0.813814
O O10 0.262568 0.857123 0.950598
O O11 0.846852 0.201607 0.922737
O O12 0.857053 0.262382 0.788936
O O13 0.900719 0.684508 0.812268
#
# Coordination Sequence:
#
# PCOD8247133 Si02
#       8
#     4   8   8   8   8   4   8   4
#     4   9  20  42  68  88 133 182 222 278 345 406
#     4  12  24  43  72 100 142 181 234 284 346 415
#     4  11  24  46  65 102 140 185 231 287 351 421
#     4  12  27  45  70 100 145 180 233 291 354 418
#     4  12  24  44  71 106 135 186 233 291 341 415
#     4  11  23  46  66  98 144 174 222 306 348 394
#     4  10  20  40  68  98 131 179 231 283 340 409
#     4  10  23  36  74  96 135 186 234 278 351 420
#
# _framework density 21.039684000000001
#
# number of rings (size 3 to 8) (size 9 to 14) (size 15 to 20)
#    0.000    0.923    4.615    1.846    4.308    0.615 
#    8.308    0.000    0.000    0.000    0.000    0.000 
#    0.000    0.000    0.000    0.000    0.000    0.000 
#
# Total GULP energy -644633.164798 kJ/mol
# GULP energy per Si atom -12396.791631 kJ/mol
# Density = 2.099180 g / cm^3
# Si number density = 21.039684 Si / 1000 Ang^3
#
#
#
# Elastic Constant Matrix: (Units=GPa)
#
#
# Indices 1 2 3 4 5 6 
#
# 1 142.9114 40.4166 46.9926 0.0000 0.0000 0.0000
# 2 40.4166 93.7978 30.7600 0.0000 0.0000 0.0000
# 3 46.9926 30.7600 94.0731 0.0000 0.0000 0.0000
# 4 0.0000 0.0000 0.0000 5.7801 0.0000 0.0000
# 5 0.0000 0.0000 0.0000 0.0000 26.9108 0.0000
# 6 0.0000 0.0000 0.0000 0.0000 0.0000 65.9746
#
#
#
# Elastic Compliance Matrix: (Units=1/GPa)
#
#
# Indices 1 2 3 4 5 6 
#
# 1 0.008933 -0.002672 -0.003589 0.000000 0.000000 0.000000
# 2 -0.002672 0.012741 -0.002831 0.000000 0.000000 0.000000
# 3 -0.003589 -0.002831 0.013348 0.000000 0.000000 0.000000
# 4 0.000000 0.000000 0.000000 0.173008 0.000000 0.000000
# 5 0.000000 0.000000 0.000000 0.000000 0.037160 0.000000
# 6 0.000000 0.000000 0.000000 0.000000 0.000000 0.015157
#
#
# Mechanical properties :
#
#
# Convention : Reuss Voigt Hill
#
# Bulk Modulus (GPa) = 59.38787 63.01340 61.20063
# Shear Modulus (GPa) = 17.59665 33.90729 25.75197
#
# Velocity S-wave (km/s) = 2.89512 4.01881 3.50233
# Velocity P-wave (km/s) = 6.28200 7.17978 6.74584
#
# Compressibility (1/GPa) = 0.01683846
#
# Stress axis : x y z
#
# Youngs Moduli (GPa) = 111.94292 78.48564 74.91541
#
# Poissons Ratio (x) = 0.20974 0.26884
# Poissons Ratio (y) = 0.29915 0.21210
# Poissons Ratio (z) = 0.40172 0.22221
#
# Static dielectric constant tensor:
#      x y z
#    x 4.185270 0.000000 0.000000 
#    y 0.000000 3.821820 0.000000 
#    z 0.000000 0.000000 4.504660 
# 
# 
# High freq. dielectric constant tensor:
#      x y z
#    x 1.834820 0.000000 0.000000 
#    y 0.000000 1.817680 0.000000 
#    z 0.000000 0.000000 1.830400 
# 
# From -- ./inp_files/19558.got.cif
#   From: 2010.03.12/outbox.cif.g09.slc.cpg/sg60_10_cif.got.tgz:19558.got - 2010.04.10 18:46:24.
