data_PCOD8247555
_publ_section_title
;
Structure prediction by ZEFSAII (Michael W. Deem and Ramdas Pophale) SiO2 
 PCOD8247555
Probable space group: P B C N
;
_chemical_formula_sum "Si O2"
_cell_formula_units_Z 40
_cell_length_a 10.105790
_cell_length_b 16.585774
_cell_length_c 10.133838
_cell_angle_alpha 90.000000
_cell_angle_beta 90.000000
_cell_angle_gamma 90.000000
_cell_volume 1698.556392
_symmetry_space_group_name_H-M "P B C N"
_symmetry_group_IT_number 60
_symmetry_cell_setting 'orthorhombic'
loop_
_space_group_symop_operation_xyz
x,y,z
1/2-x,1/2-y,1/2+z
1/2+x,1/2-y,-z
-x,y,1/2-z
-x,-y,-z
1/2+x,1/2+y,1/2-z
1/2-x,1/2+y,z
x,-y,1/2+z
loop_
_atom_site_type_symbol
_atom_site_label
_atom_site_fract_x
_atom_site_fract_y
_atom_site_fract_z
Si Si1 0.236525 0.316503 0.350856
Si Si2 0.164976 0.489016 0.391281
Si Si3 0.670048 0.479763 0.860561
Si Si4 0.260118 0.691232 0.139775
Si Si5 0.500000 0.602036 0.750000
Si Si6 0.500000 0.107608 0.250000
O O1 0.138865 0.393218 0.369099
O O2 0.177884 0.256760 0.239485
O O3 0.242585 0.270874 0.493037
O O4 0.383345 0.342362 0.304553
O O5 0.218258 0.507201 0.536878
O O6 0.276659 0.513591 0.287504
O O7 0.037893 0.546643 0.370664
O O8 0.638760 0.384453 0.879837
O O9 0.546374 0.541413 0.869322
O O10 0.119669 0.662521 0.200252
#
# Coordination Sequence:
#
# PCOD8247555 Si02
#       6
#     8   8   8   8   4   4
#     4  10  22  40  62  90 124 160 198 246 302 358
#     4   9  20  37  61  90 117 151 201 249 292 350
#     4   9  20  37  61  90 117 151 201 249 292 350
#     4  10  22  40  62  90 124 160 198 246 302 358
#     4  10  21  42  67  86 118 162 200 250 305 348
#     4  10  21  42  67  86 118 162 200 250 305 348
#
# _framework density 23.549410999999999
#
# number of rings (size 3 to 8) (size 9 to 14) (size 15 to 20)
#    0.000    2.400    0.000    0.600    0.000   20.800 
#    0.000    9.000    0.000    0.000    0.000    0.000 
#    0.000    0.000    0.000    0.000    0.000    0.000 
#
# Total GULP energy -495627.756572 kJ/mol
# GULP energy per Si atom -12390.693914 kJ/mol
# Density = 2.349581 g / cm^3
# Si number density = 23.549411 Si / 1000 Ang^3
#
#
#
# Elastic Constant Matrix: (Units=GPa)
#
#
# Indices 1 2 3 4 5 6 
#
# 1 47.0857 15.0214 6.6416 0.0000 0.0000 0.0000
# 2 15.0214 81.2064 47.5353 0.0000 0.0000 0.0000
# 3 6.6416 47.5353 121.0632 0.0000 0.0000 0.0000
# 4 0.0000 0.0000 0.0000 40.7109 0.0000 0.0000
# 5 0.0000 0.0000 0.0000 0.0000 23.3575 0.0000
# 6 0.0000 0.0000 0.0000 0.0000 0.0000 30.2279
#
#
#
# Elastic Compliance Matrix: (Units=1/GPa)
#
#
# Indices 1 2 3 4 5 6 
#
# 1 0.022595 -0.004485 0.000521 0.000000 0.000000 0.000000
# 2 -0.004485 0.016879 -0.006382 0.000000 0.000000 0.000000
# 3 0.000521 -0.006382 0.010737 0.000000 0.000000 0.000000
# 4 0.000000 0.000000 0.000000 0.024563 0.000000 0.000000
# 5 0.000000 0.000000 0.000000 0.000000 0.042813 0.000000
# 6 0.000000 0.000000 0.000000 0.000000 0.000000 0.033082
#
#
# Mechanical properties :
#
#
# Convention : Reuss Voigt Hill
#
# Bulk Modulus (GPa) = 33.87342 43.08357 38.47849
# Shear Modulus (GPa) = 27.59370 30.86974 29.23172
#
# Velocity S-wave (km/s) = 3.42678 3.62449 3.52702
# Velocity P-wave (km/s) = 5.48382 5.98754 5.74121
#
# Compressibility (1/GPa) = 0.02952167
#
# Stress axis : x y z
#
# Youngs Moduli (GPa) = 44.25744 59.24354 93.13329
#
# Poissons Ratio (x) = 0.26569 -0.04856
# Poissons Ratio (y) = 0.19848 0.59435
# Poissons Ratio (z) = -0.02307 0.37807
#
# Static dielectric constant tensor:
#      x y z
#    x 4.058750 0.000000 0.000000 
#    y 0.000000 4.537150 0.000000 
#    z 0.000000 0.000000 4.529900 
# 
# 
# High freq. dielectric constant tensor:
#      x y z
#    x 1.896390 0.000000 0.000000 
#    y 0.000000 1.930140 0.000000 
#    z 0.000000 0.000000 1.947250 
# 
# From -- ./inp_files/4823.got.cif
#   From: 2010.03.12/outbox.cif.g09.slc.cpg/sg60_3_cif.got.tgz:4823.got - 2010.04.10 18:46:24.
