data_PCOD8247638
_publ_section_title
;
Structure prediction by ZEFSAII (Michael W. Deem and Ramdas Pophale) SiO2 
 PCOD8247638
Probable space group: P B C N
;
_chemical_formula_sum "Si O2"
_cell_formula_units_Z 64
_cell_length_a 16.587147
_cell_length_b 14.575761
_cell_length_c 10.951957
_cell_angle_alpha 90.000000
_cell_angle_beta 90.000000
_cell_angle_gamma 90.000000
_cell_volume 2647.857824
_symmetry_space_group_name_H-M "P B C N"
_symmetry_group_IT_number 60
_symmetry_cell_setting 'orthorhombic'
loop_
_space_group_symop_operation_xyz
x,y,z
1/2-x,1/2-y,1/2+z
1/2+x,1/2-y,-z
-x,y,1/2-z
-x,-y,-z
1/2+x,1/2+y,1/2-z
1/2-x,1/2+y,z
x,-y,1/2+z
loop_
_atom_site_type_symbol
_atom_site_label
_atom_site_fract_x
_atom_site_fract_y
_atom_site_fract_z
Si Si1 0.787003 0.995362 0.492590
Si Si2 0.996772 0.401861 0.881401
Si Si3 0.944199 0.771549 0.509434
Si Si4 0.924211 0.079336 0.821504
Si Si5 0.095943 0.763946 0.630552
Si Si6 0.116483 0.436248 0.079711
Si Si7 0.326807 0.677724 0.888479
Si Si8 0.801543 0.826391 0.655691
O O1 0.868409 0.985785 0.408328
O O2 0.708198 0.971242 0.414191
O O3 0.786493 0.930784 0.613864
O O4 0.777400 0.099116 0.539302
O O5 0.951102 0.333503 0.970838
O O6 0.000000 0.352924 0.750000
O O7 0.084507 0.424016 0.939683
O O8 0.943583 0.492311 0.857334
O O9 0.967421 0.844740 0.405757
O O10 0.852040 0.782016 0.546214
O O11 0.999964 0.786526 0.631592
O O12 0.869413 0.130525 0.724515
O O13 0.000000 0.028680 0.750000
O O14 0.113940 0.657205 0.659616
O O15 0.113693 0.776497 0.485944
O O16 0.149119 0.829104 0.716974
O O17 0.275771 0.761761 0.832009
#
# Coordination Sequence:
#
# PCOD8247638 Si02
#       8
#     8   8   8   8   8   8   8   8
#     4  11  26  45  68 103 136 184 238 290 352 414
#     4  10  22  37  70 102 139 184 223 277 350 429
#     4  10  22  43  70 100 138 186 233 283 349 414
#     4  11  24  46  69  97 137 186 241 295 337 409
#     4  11  23  44  68  98 137 183 229 283 349 417
#     4  10  22  43  61 101 140 170 231 283 342 422
#     4  12  26  44  70 101 138 181 232 293 348 411
#     4  11  25  45  69 102 140 183 229 290 353 414
#
# _framework density 24.170480999999999
#
# number of rings (size 3 to 8) (size 9 to 14) (size 15 to 20)
#    0.000    1.250    2.500    2.250    5.250    5.500 
#    0.000    0.000    0.000    0.000    0.000    0.000 
#    0.000    0.000    0.000    0.000    0.000    0.000 
#
# Total GULP energy -793305.301220 kJ/mol
# GULP energy per Si atom -12395.395332 kJ/mol
# Density = 2.411547 g / cm^3
# Si number density = 24.170481 Si / 1000 Ang^3
#
#
#
# Elastic Constant Matrix: (Units=GPa)
#
#
# Indices 1 2 3 4 5 6 
#
# 1 75.8506 1.6978 -7.1270 0.0000 0.0000 0.0000
# 2 1.6978 71.7331 -3.9425 0.0000 0.0000 0.0000
# 3 -7.1270 -3.9425 71.4630 0.0000 0.0000 0.0000
# 4 0.0000 0.0000 0.0000 16.0462 0.0000 0.0000
# 5 0.0000 0.0000 0.0000 0.0000 28.0696 0.0000
# 6 0.0000 0.0000 0.0000 0.0000 0.0000 28.7792
#
#
#
# Elastic Compliance Matrix: (Units=1/GPa)
#
#
# Indices 1 2 3 4 5 6 
#
# 1 0.013313 -0.000243 0.001314 0.000000 0.000000 0.000000
# 2 -0.000243 0.013987 0.000747 0.000000 0.000000 0.000000
# 3 0.001314 0.000747 0.014166 0.000000 0.000000 0.000000
# 4 0.000000 0.000000 0.000000 0.062320 0.000000 0.000000
# 5 0.000000 0.000000 0.000000 0.000000 0.035626 0.000000
# 6 0.000000 0.000000 0.000000 0.000000 0.000000 0.034747
#
#
# Mechanical properties :
#
#
# Convention : Reuss Voigt Hill
#
# Bulk Modulus (GPa) = 22.17127 22.25593 22.21360
# Shear Modulus (GPa) = 26.94613 29.80690 28.37651
#
# Velocity S-wave (km/s) = 3.34254 3.51550 3.43011
# Velocity P-wave (km/s) = 4.90811 5.07013 4.98977
#
# Compressibility (1/GPa) = 0.04510341
#
# Stress axis : x y z
#
# Youngs Moduli (GPa) = 75.11607 71.49295 70.59376
#
# Poissons Ratio (x) = 0.01736 -0.09278
# Poissons Ratio (y) = 0.01824 -0.05276
# Poissons Ratio (z) = -0.09872 -0.05344
#
# Static dielectric constant tensor:
#      x y z
#    x 4.338430 0.000000 0.000000 
#    y 0.000000 4.363320 0.000000 
#    z 0.000000 0.000000 4.294170 
# 
# 
# High freq. dielectric constant tensor:
#      x y z
#    x 1.961400 0.000000 0.000000 
#    y 0.000000 1.958120 0.000000 
#    z 0.000000 0.000000 1.957270 
# 
# From -- ./inp_files/12563.got.cif
#   From: 2010.03.12/outbox.cif.g09.slc.cpg/sg60_7_cif.got.tgz:12563.got - 2010.04.10 18:46:24.
