data_PCOD8247742
_publ_section_title
;
Structure prediction by ZEFSAII (Michael W. Deem and Ramdas Pophale) SiO2 
 PCOD8247742
Probable space group: P B C N
;
_chemical_formula_sum "Si O2"
_cell_formula_units_Z 28
_cell_length_a 4.977901
_cell_length_b 18.780435
_cell_length_c 12.982385
_cell_angle_alpha 90.000000
_cell_angle_beta 90.000000
_cell_angle_gamma 90.000000
_cell_volume 1213.686124
_symmetry_space_group_name_H-M "P B C N"
_symmetry_group_IT_number 60
_symmetry_cell_setting 'orthorhombic'
loop_
_space_group_symop_operation_xyz
x,y,z
1/2-x,1/2-y,1/2+z
1/2+x,1/2-y,-z
-x,y,1/2-z
-x,-y,-z
1/2+x,1/2+y,1/2-z
1/2-x,1/2+y,z
x,-y,1/2+z
loop_
_atom_site_type_symbol
_atom_site_label
_atom_site_fract_x
_atom_site_fract_y
_atom_site_fract_z
Si Si1 0.951796 0.831510 0.475211
Si Si2 0.681000 0.753409 0.165474
Si Si3 0.500000 0.130826 0.250000
Si Si4 0.554550 0.919956 0.970378
O O1 0.046040 0.795996 0.366467
O O2 0.150360 0.897300 0.494920
O O3 0.983293 0.768821 0.561616
O O4 0.652465 0.864604 0.474357
O O5 0.500000 0.796767 0.250000
O O6 0.747745 0.680529 0.224686
O O7 0.449827 0.080782 0.152776
O O8 0.500000 0.000000 0.000000
#
# Coordination Sequence:
#
# PCOD8247742 Si02
#       4
#     8   8   4   8
#     4  11  24  41  68 102 133 174 229 290 343 407
#     4  11  22  41  69 101 137 174 228 293 364 413
#     4  10  22  40  68  94 132 186 224 280 356 416
#     4  11  24  45  66  94 137 185 230 277 335 422
#
# _framework density 23.070215000000001
#
# number of rings (size 3 to 8) (size 9 to 14) (size 15 to 20)
#    0.000    1.143    2.857    4.286    4.000    0.000 
#    2.571    0.000    0.000    0.000    0.000    0.000 
#    0.000    0.000    0.000    0.000    0.000    0.000 
#
# Total GULP energy -347111.616725 kJ/mol
# GULP energy per Si atom -12396.843454 kJ/mol
# Density = 2.301771 g / cm^3
# Si number density = 23.070215 Si / 1000 Ang^3
#
#
#
# Elastic Constant Matrix: (Units=GPa)
#
#
# Indices 1 2 3 4 5 6 
#
# 1 73.6397 4.0435 23.0585 0.0000 0.0000 0.0000
# 2 4.0435 104.2140 38.6359 0.0000 0.0000 0.0000
# 3 23.0585 38.6359 121.5338 0.0000 0.0000 0.0000
# 4 0.0000 0.0000 0.0000 37.2585 0.0000 0.0000
# 5 0.0000 0.0000 0.0000 0.0000 46.5493 0.0000
# 6 0.0000 0.0000 0.0000 0.0000 0.0000 30.4693
#
#
#
# Elastic Compliance Matrix: (Units=1/GPa)
#
#
# Indices 1 2 3 4 5 6 
#
# 1 0.014462 0.000517 -0.002908 0.000000 0.000000 0.000000
# 2 0.000517 0.010896 -0.003562 0.000000 0.000000 0.000000
# 3 -0.002908 -0.003562 0.009912 0.000000 0.000000 0.000000
# 4 0.000000 0.000000 0.000000 0.026840 0.000000 0.000000
# 5 0.000000 0.000000 0.000000 0.000000 0.021483 0.000000
# 6 0.000000 0.000000 0.000000 0.000000 0.000000 0.032820
#
#
# Mechanical properties :
#
#
# Convention : Reuss Voigt Hill
#
# Bulk Modulus (GPa) = 42.80090 47.87370 45.33730
# Shear Modulus (GPa) = 36.73589 38.43207 37.58398
#
# Velocity S-wave (km/s) = 3.99476 4.08594 4.04061
# Velocity P-wave (km/s) = 6.31428 6.56172 6.43919
#
# Compressibility (1/GPa) = 0.02336399
#
# Stress axis : x y z
#
# Youngs Moduli (GPa) = 69.14736 91.77558 100.88473
#
# Poissons Ratio (x) = -0.04745 0.29339
# Poissons Ratio (y) = -0.03575 0.35935
# Poissons Ratio (z) = 0.20109 0.32691
#
# Static dielectric constant tensor:
#      x y z
#    x 4.211930 0.000000 0.000000 
#    y 0.000000 3.739180 0.000000 
#    z 0.000000 0.000000 4.746850 
# 
# 
# High freq. dielectric constant tensor:
#      x y z
#    x 1.929150 0.000000 0.000000 
#    y 0.000000 1.875290 0.000000 
#    z 0.000000 0.000000 1.919100 
# 
# From -- ./inp_files/8737.got.cif
#   From: 2010.03.12/outbox.cif.g09.slc.cpg/sg60_5_cif.got.tgz:8737.got - 2010.04.10 18:46:24.
