data_PCOD8247185
_publ_section_title
;
Structure prediction by ZEFSAII (Michael W. Deem and Ramdas Pophale) SiO2 
 PCOD8247185
Probable space group: P B C N
;
_chemical_formula_sum "Si O2"
_cell_formula_units_Z 48
_cell_length_a 9.348719
_cell_length_b 27.029224
_cell_length_c 9.232198
_cell_angle_alpha 90.000000
_cell_angle_beta 90.000000
_cell_angle_gamma 90.000000
_cell_volume 2332.871372
_symmetry_space_group_name_H-M "P B C N"
_symmetry_group_IT_number 60
_symmetry_cell_setting 'orthorhombic'
loop_
_space_group_symop_operation_xyz
x,y,z
1/2-x,1/2-y,1/2+z
1/2+x,1/2-y,-z
-x,y,1/2-z
-x,-y,-z
1/2+x,1/2+y,1/2-z
1/2-x,1/2+y,z
x,-y,1/2+z
loop_
_atom_site_type_symbol
_atom_site_label
_atom_site_fract_x
_atom_site_fract_y
_atom_site_fract_z
Si Si1 0.341692 0.118898 0.240359
Si Si2 0.840829 0.102398 0.793334
Si Si3 0.856752 0.782892 0.334209
Si Si4 0.829342 0.451878 0.511430
Si Si5 0.849170 0.209330 0.175734
Si Si6 0.148273 0.564294 0.957117
O O1 0.500000 0.142784 0.250000
O O2 0.341058 0.066255 0.323210
O O3 0.234288 0.157753 0.311364
O O4 0.303432 0.105058 0.075648
O O5 0.822119 0.160717 0.800755
O O6 0.805438 0.077514 0.946302
O O7 0.723233 0.080341 0.688067
O O8 0.000000 0.086812 0.750000
O O9 0.727901 0.751571 0.268278
O O10 0.868102 0.774508 0.507685
O O11 0.000000 0.766305 0.250000
O O12 0.797773 0.509796 0.499627
O O13 0.977790 0.437299 0.431935
O O14 0.000000 0.200417 0.250000
#
# Coordination Sequence:
#
# PCOD8247185 Si02
#       6
#     8   8   8   8   8   8
#     4  10  22  39  64  95 130 167 216 268 323 384
#     4  11  24  40  63  94 134 168 210 267 324 388
#     4  11  26  47  67  97 135 168 219 267 329 402
#     4  10  20  43  61  95 127 170 224 266 321 375
#     4  12  26  44  72  96 130 173 214 274 330 392
#     4  10  22  37  69  91 128 174 217 272 313 385
#
# _framework density 20.575503000000001
#
# number of rings (size 3 to 8) (size 9 to 14) (size 15 to 20)
#    0.000    1.333    1.667    3.000    7.000    4.667 
#    0.000    1.667    0.000    0.000    0.000    0.000 
#    0.000    0.000    0.000    0.000    0.000    0.000 
#
# Total GULP energy -595260.848078 kJ/mol
# GULP energy per Si atom -12401.267668 kJ/mol
# Density = 2.052867 g / cm^3
# Si number density = 20.575503 Si / 1000 Ang^3
#
#
#
# Elastic Constant Matrix: (Units=GPa)
#
#
# Indices 1 2 3 4 5 6 
#
# 1 101.8383 46.0084 46.7796 0.0000 0.0000 0.0000
# 2 46.0084 78.6035 24.7900 0.0000 0.0000 0.0000
# 3 46.7796 24.7900 112.1970 0.0000 0.0000 0.0000
# 4 0.0000 0.0000 0.0000 29.1308 0.0000 0.0000
# 5 0.0000 0.0000 0.0000 0.0000 36.6262 0.0000
# 6 0.0000 0.0000 0.0000 0.0000 0.0000 32.7883
#
#
#
# Elastic Compliance Matrix: (Units=1/GPa)
#
#
# Indices 1 2 3 4 5 6 
#
# 1 0.015401 -0.007513 -0.004761 0.000000 0.000000 0.000000
# 2 -0.007513 0.017340 -0.000699 0.000000 0.000000 0.000000
# 3 -0.004761 -0.000699 0.011052 0.000000 0.000000 0.000000
# 4 0.000000 0.000000 0.000000 0.034328 0.000000 0.000000
# 5 0.000000 0.000000 0.000000 0.000000 0.027303 0.000000
# 6 0.000000 0.000000 0.000000 0.000000 0.000000 0.030499
#
#
# Mechanical properties :
#
#
# Convention : Reuss Voigt Hill
#
# Bulk Modulus (GPa) = 56.03093 58.64386 57.33739
# Shear Modulus (GPa) = 29.79431 31.37979 30.58705
#
# Velocity S-wave (km/s) = 3.80945 3.90950 3.85980
# Velocity P-wave (km/s) = 6.82936 6.99589 6.91313
#
# Compressibility (1/GPa) = 0.01784729
#
# Stress axis : x y z
#
# Youngs Moduli (GPa) = 64.93225 57.67054 90.47753
#
# Poissons Ratio (x) = 0.43326 0.43078
# Poissons Ratio (y) = 0.48782 0.06323
# Poissons Ratio (z) = 0.30916 0.04030
#
# Static dielectric constant tensor:
#      x y z
#    x 3.736850 0.000000 0.000000 
#    y 0.000000 3.652810 0.000000 
#    z 0.000000 0.000000 3.110530 
# 
# 
# High freq. dielectric constant tensor:
#      x y z
#    x 1.802650 0.000000 0.000000 
#    y 0.000000 1.810220 0.000000 
#    z 0.000000 0.000000 1.817080 
# 
# From -- ./inp_files/4174.got.cif
#   From: 2010.03.12/outbox.cif.g09.slc.cpg/sg60_3_cif.got.tgz:4174.got - 2010.04.10 18:46:24.
