data_PCOD8247764
_publ_section_title
;
Structure prediction by ZEFSAII (Michael W. Deem and Ramdas Pophale) SiO2 
 PCOD8247764
Probable space group: P B C N
;
_chemical_formula_sum "Si O2"
_cell_formula_units_Z 56
_cell_length_a 19.764309
_cell_length_b 14.446823
_cell_length_c 8.751005
_cell_angle_alpha 90.000000
_cell_angle_beta 90.000000
_cell_angle_gamma 90.000000
_cell_volume 2498.687355
_symmetry_space_group_name_H-M "P B C N"
_symmetry_group_IT_number 60
_symmetry_cell_setting 'orthorhombic'
loop_
_space_group_symop_operation_xyz
x,y,z
1/2-x,1/2-y,1/2+z
1/2+x,1/2-y,-z
-x,y,1/2-z
-x,-y,-z
1/2+x,1/2+y,1/2-z
1/2-x,1/2+y,z
x,-y,1/2+z
loop_
_atom_site_type_symbol
_atom_site_label
_atom_site_fract_x
_atom_site_fract_y
_atom_site_fract_z
Si Si1 0.622714 0.422512 0.962691
Si Si2 0.466650 0.095750 0.958815
Si Si3 0.619993 0.208864 0.308723
Si Si4 0.407416 0.782232 0.049015
Si Si5 0.576963 0.405528 0.290879
Si Si6 0.340870 0.082456 0.751429
Si Si7 0.277121 0.915540 0.569902
O O1 0.588326 0.326396 0.910384
O O2 0.578406 0.507952 0.903901
O O3 0.698377 0.429454 0.896849
O O4 0.622671 0.429731 0.145010
O O5 0.522223 0.170158 0.903973
O O6 0.415387 0.070296 0.822858
O O7 0.428792 0.137562 0.105135
O O8 0.500000 0.000000 0.000000
O O9 0.607652 0.313307 0.369480
O O10 0.696970 0.179152 0.349680
O O11 0.607097 0.202440 0.129233
O O12 0.345106 0.826187 0.144935
O O13 0.500000 0.382296 0.250000
O O14 0.321186 0.998701 0.640211
O O15 0.286508 0.092233 0.886869
#
# Coordination Sequence:
#
# PCOD8247764 Si02
#       7
#     8   8   8   8   8   8   8
#     4  11  26  43  67  93 127 173 219 274 321 390
#     4  11  22  39  64  96 129 167 212 261 324 390
#     4  10  22  41  65  91 130 174 211 268 329 392
#     4  11  23  39  61  95 127 166 217 270 332 389
#     4  11  24  44  69  97 129 171 220 272 330 382
#     4  11  24  38  61  91 127 166 207 266 319 388
#     4  11  23  42  62  93 129 171 220 259 329 395
#
# _framework density 22.411767000000001
#
# number of rings (size 3 to 8) (size 9 to 14) (size 15 to 20)
#    0.000    1.143    0.000    7.286    0.000    9.143 
#    0.000    0.000    0.000    0.000    0.000    0.000 
#    0.000    0.000    0.000    0.000    0.000    0.000 
#
# Total GULP energy -694432.803527 kJ/mol
# GULP energy per Si atom -12400.585777 kJ/mol
# Density = 2.236076 g / cm^3
# Si number density = 22.411767 Si / 1000 Ang^3
#
#
#
# Elastic Constant Matrix: (Units=GPa)
#
#
# Indices 1 2 3 4 5 6 
#
# 1 80.2906 25.8481 16.5296 0.0000 0.0000 0.0000
# 2 25.8481 157.3266 43.3372 0.0000 0.0000 0.0000
# 3 16.5296 43.3372 80.6444 0.0000 0.0000 0.0000
# 4 0.0000 0.0000 0.0000 41.1985 0.0000 0.0000
# 5 0.0000 0.0000 0.0000 0.0000 28.4355 0.0000
# 6 0.0000 0.0000 0.0000 0.0000 0.0000 30.3813
#
#
#
# Elastic Compliance Matrix: (Units=1/GPa)
#
#
# Indices 1 2 3 4 5 6 
#
# 1 0.013377 -0.001693 -0.001832 0.000000 0.000000 0.000000
# 2 -0.001693 0.007675 -0.003777 0.000000 0.000000 0.000000
# 3 -0.001832 -0.003777 0.014806 0.000000 0.000000 0.000000
# 4 0.000000 0.000000 0.000000 0.024273 0.000000 0.000000
# 5 0.000000 0.000000 0.000000 0.000000 0.035167 0.000000
# 6 0.000000 0.000000 0.000000 0.000000 0.000000 0.032915
#
#
# Mechanical properties :
#
#
# Convention : Reuss Voigt Hill
#
# Bulk Modulus (GPa) = 47.05345 54.41016 50.73180
# Shear Modulus (GPa) = 33.35521 35.50615 34.43068
#
# Velocity S-wave (km/s) = 3.86202 3.98460 3.92379
# Velocity P-wave (km/s) = 6.39746 6.74534 6.57370
#
# Compressibility (1/GPa) = 0.02125243
#
# Stress axis : x y z
#
# Youngs Moduli (GPa) = 74.75527 130.29507 67.54237
#
# Poissons Ratio (x) = 0.22061 0.12374
# Poissons Ratio (y) = 0.12657 0.25513
# Poissons Ratio (z) = 0.13695 0.49217
#
# Static dielectric constant tensor:
#      x y z
#    x 4.047360 0.000000 0.000000 
#    y 0.000000 4.217510 0.000000 
#    z 0.000000 0.000000 4.235360 
# 
# 
# High freq. dielectric constant tensor:
#      x y z
#    x 1.878880 0.000000 0.000000 
#    y 0.000000 1.891810 0.000000 
#    z 0.000000 0.000000 1.886840 
# 
# From -- ./inp_files/7404.got.cif
#   From: 2010.03.12/outbox.cif.g09.slc.cpg/sg60_4_cif.got.tgz:7404.got - 2010.04.10 18:46:24.
