data_PCOD8247539
_publ_section_title
;
Structure prediction by ZEFSAII (Michael W. Deem and Ramdas Pophale) SiO2 
 PCOD8247539
Probable space group: P B C N
;
_chemical_formula_sum "Si O2"
_cell_formula_units_Z 48
_cell_length_a 27.434374
_cell_length_b 9.541344
_cell_length_c 8.755390
_cell_angle_alpha 90.000000
_cell_angle_beta 90.000000
_cell_angle_gamma 90.000000
_cell_volume 2291.817889
_symmetry_space_group_name_H-M "P B C N"
_symmetry_group_IT_number 60
_symmetry_cell_setting 'orthorhombic'
loop_
_space_group_symop_operation_xyz
x,y,z
1/2-x,1/2-y,1/2+z
1/2+x,1/2-y,-z
-x,y,1/2-z
-x,-y,-z
1/2+x,1/2+y,1/2-z
1/2-x,1/2+y,z
x,-y,1/2+z
loop_
_atom_site_type_symbol
_atom_site_label
_atom_site_fract_x
_atom_site_fract_y
_atom_site_fract_z
Si Si1 0.221243 0.139390 0.980722
Si Si2 0.476397 0.204504 0.896571
Si Si3 0.704811 0.656789 0.157829
Si Si4 0.955888 0.398990 0.640277
Si Si5 0.122778 0.173138 0.827910
Si Si6 0.107395 0.101407 0.489259
O O1 0.270407 0.210818 0.922350
O O2 0.175492 0.212266 0.895666
O O3 0.224879 0.978728 0.930497
O O4 0.216054 0.152116 0.162751
O O5 0.500000 0.280046 0.750000
O O6 0.443275 0.314459 0.986231
O O7 0.444412 0.065237 0.857611
O O8 0.525643 0.152216 0.977278
O O9 0.646668 0.667832 0.128187
O O10 0.907256 0.316566 0.686017
O O11 0.000000 0.358204 0.750000
O O12 0.128723 0.104180 0.660461
O O13 0.097163 0.059448 0.939978
#
# Coordination Sequence:
#
# PCOD8247539 Si02
#       6
#     8   8   8   8   8   8
#     4  11  23  42  65  92 122 161 197 254 299 367
#     4  10  23  38  62  83 121 157 205 246 302 352
#     4  11  23  42  65  91 125 156 204 245 308 357
#     4  10  21  42  58  86 118 160 198 252 295 354
#     4  11  23  39  62  87 124 154 203 245 303 354
#     4  11  23  40  59  91 119 160 198 251 296 362
#
# _framework density 20.944074000000001
#
# number of rings (size 3 to 8) (size 9 to 14) (size 15 to 20)
#    0.000    1.333    1.667    6.000    4.667    2.667 
#    0.000    3.333    0.000    0.000    0.000    0.000 
#    0.000    0.000    0.000    0.000    0.000    0.000 
#
# Total GULP energy -595123.599512 kJ/mol
# GULP energy per Si atom -12398.408323 kJ/mol
# Density = 2.089640 g / cm^3
# Si number density = 20.944074 Si / 1000 Ang^3
#
#
#
# Elastic Constant Matrix: (Units=GPa)
#
#
# Indices 1 2 3 4 5 6 
#
# 1 44.1430 18.3064 -5.5636 0.0000 0.0000 0.0000
# 2 18.3064 51.6253 -3.3375 0.0000 0.0000 0.0000
# 3 -5.5636 -3.3375 130.1429 0.0000 0.0000 0.0000
# 4 0.0000 0.0000 0.0000 29.2332 0.0000 0.0000
# 5 0.0000 0.0000 0.0000 0.0000 32.2187 0.0000
# 6 0.0000 0.0000 0.0000 0.0000 0.0000 35.9376
#
#
#
# Elastic Compliance Matrix: (Units=1/GPa)
#
#
# Indices 1 2 3 4 5 6 
#
# 1 0.026664 -0.009397 0.000899 0.000000 0.000000 0.000000
# 2 -0.009397 0.022714 0.000181 0.000000 0.000000 0.000000
# 3 0.000899 0.000181 0.007727 0.000000 0.000000 0.000000
# 4 0.000000 0.000000 0.000000 0.034208 0.000000 0.000000
# 5 0.000000 0.000000 0.000000 0.000000 0.031038 0.000000
# 6 0.000000 0.000000 0.000000 0.000000 0.000000 0.027826
#
#
# Mechanical properties :
#
#
# Convention : Reuss Voigt Hill
#
# Bulk Modulus (GPa) = 24.70934 27.19130 25.95032
# Shear Modulus (GPa) = 27.73137 33.91163 30.82150
#
# Velocity S-wave (km/s) = 3.64272 4.02823 3.84032
# Velocity P-wave (km/s) = 5.43286 5.88613 5.66403
#
# Compressibility (1/GPa) = 0.04047053
#
# Stress axis : x y z
#
# Youngs Moduli (GPa) = 37.50391 44.02533 129.41758
#
# Poissons Ratio (x) = 0.41370 -0.11633
# Poissons Ratio (y) = 0.35242 -0.02340
# Poissons Ratio (z) = -0.03371 -0.00796
#
# Static dielectric constant tensor:
#      x y z
#    x 3.737690 0.000000 0.000000 
#    y 0.000000 3.702730 0.000000 
#    z 0.000000 0.000000 4.212670 
# 
# 
# High freq. dielectric constant tensor:
#      x y z
#    x 1.805550 0.000000 0.000000 
#    y 0.000000 1.811830 0.000000 
#    z 0.000000 0.000000 1.842700 
# 
# From -- ./inp_files/8380.got.cif
#   From: 2010.03.12/outbox.cif.g09.slc.cpg/sg60_5_cif.got.tgz:8380.got - 2010.04.10 18:46:24.
