data_PCOD8247021
_publ_section_title
;
Structure prediction by ZEFSAII (Michael W. Deem and Ramdas Pophale) SiO2 
 PCOD8247021
Probable space group: P B C N
;
_chemical_formula_sum "Si O2"
_cell_formula_units_Z 40
_cell_length_a 14.472921
_cell_length_b 10.300770
_cell_length_c 13.292371
_cell_angle_alpha 90.000000
_cell_angle_beta 90.000000
_cell_angle_gamma 90.000000
_cell_volume 1981.656317
_symmetry_space_group_name_H-M "P B C N"
_symmetry_group_IT_number 60
_symmetry_cell_setting 'orthorhombic'
loop_
_space_group_symop_operation_xyz
x,y,z
1/2-x,1/2-y,1/2+z
1/2+x,1/2-y,-z
-x,y,1/2-z
-x,-y,-z
1/2+x,1/2+y,1/2-z
1/2-x,1/2+y,z
x,-y,1/2+z
loop_
_atom_site_type_symbol
_atom_site_label
_atom_site_fract_x
_atom_site_fract_y
_atom_site_fract_z
Si Si1 0.802364 0.140848 0.771907
Si Si2 0.004584 0.597642 0.089720
Si Si3 0.447904 0.472525 0.841609
Si Si4 0.845542 0.423147 0.742079
Si Si5 0.086558 0.135094 0.538969
O O1 0.783157 0.291946 0.745529
O O2 0.820770 0.140565 0.892664
O O3 0.891814 0.091305 0.709179
O O4 0.717213 0.051202 0.740642
O O5 0.905619 0.587119 0.142165
O O6 0.088357 0.562441 0.162750
O O7 0.021822 0.739587 0.045950
O O8 0.000000 0.500000 0.000000
O O9 0.500000 0.394613 0.750000
O O10 0.529209 0.517644 0.914532
O O11 0.386388 0.386308 0.919861
#
# Coordination Sequence:
#
# PCOD8247021 Si02
#       5
#     8   8   8   8   8
#     4  10  20  38  61  86 121 155 196 252 296 351
#     4  10  21  41  61  81 119 163 195 243 304 363
#     4   9  17  34  60  87 114 153 196 241 290 349
#     4  10  22  41  61  86 119 158 200 245 304 356
#     4   9  18  36  60  86 114 157 199 237 293 358
#
# _framework density 20.185136
#
# number of rings (size 3 to 8) (size 9 to 14) (size 15 to 20)
#    0.000    2.400    2.000    0.000    0.000    3.200 
#   14.400    4.000    0.000    0.000    0.000    0.000 
#    0.000    0.000    0.000    0.000    0.000    0.000 
#
# Total GULP energy -495542.806067 kJ/mol
# GULP energy per Si atom -12388.570152 kJ/mol
# Density = 2.013919 g / cm^3
# Si number density = 20.185136 Si / 1000 Ang^3
#
#
#
# Elastic Constant Matrix: (Units=GPa)
#
#
# Indices 1 2 3 4 5 6 
#
# 1 58.0663 45.9884 17.7302 0.0000 0.0000 0.0000
# 2 45.9884 108.5968 59.4799 0.0000 0.0000 0.0000
# 3 17.7302 59.4799 145.8623 0.0000 0.0000 0.0000
# 4 0.0000 0.0000 0.0000 32.0711 0.0000 0.0000
# 5 0.0000 0.0000 0.0000 0.0000 11.0429 0.0000
# 6 0.0000 0.0000 0.0000 0.0000 0.0000 38.6850
#
#
#
# Elastic Compliance Matrix: (Units=1/GPa)
#
#
# Indices 1 2 3 4 5 6 
#
# 1 0.026247 -0.012061 0.001728 0.000000 0.000000 0.000000
# 2 -0.012061 0.017399 -0.005629 0.000000 0.000000 0.000000
# 3 0.001728 -0.005629 0.008941 0.000000 0.000000 0.000000
# 4 0.000000 0.000000 0.000000 0.031181 0.000000 0.000000
# 5 0.000000 0.000000 0.000000 0.000000 0.090556 0.000000
# 6 0.000000 0.000000 0.000000 0.000000 0.000000 0.025850
#
#
# Mechanical properties :
#
#
# Convention : Reuss Voigt Hill
#
# Bulk Modulus (GPa) = 48.39727 62.10249 55.24988
# Shear Modulus (GPa) = 20.92179 28.98159 24.95169
#
# Velocity S-wave (km/s) = 3.22296 3.79329 3.51970
# Velocity P-wave (km/s) = 6.15457 7.07239 6.62938
#
# Compressibility (1/GPa) = 0.02066232
#
# Stress axis : x y z
#
# Youngs Moduli (GPa) = 38.10018 57.47415 111.84297
#
# Poissons Ratio (x) = 0.69321 -0.19326
# Poissons Ratio (y) = 0.45954 0.62956
# Poissons Ratio (z) = -0.06584 0.32352
#
# Static dielectric constant tensor:
#      x y z
#    x 3.393360 0.000000 0.000000 
#    y 0.000000 3.569060 0.000000 
#    z 0.000000 0.000000 4.167090 
# 
# 
# High freq. dielectric constant tensor:
#      x y z
#    x 1.763730 0.000000 0.000000 
#    y 0.000000 1.775000 0.000000 
#    z 0.000000 0.000000 1.805940 
# 
# From -- ./inp_files/11690.got.cif
#   From: 2010.03.12/outbox.cif.g09.slc.cpg/sg60_6_cif.got.tgz:11690.got - 2010.04.10 18:46:24.
