data_PCOD8247508
_publ_section_title
;
Structure prediction by ZEFSAII (Michael W. Deem and Ramdas Pophale) SiO2 
 PCOD8247508
Probable space group: P B C N
;
_chemical_formula_sum "Si O2"
_cell_formula_units_Z 32
_cell_length_a 8.407356
_cell_length_b 19.481282
_cell_length_c 9.824494
_cell_angle_alpha 90.000000
_cell_angle_beta 90.000000
_cell_angle_gamma 90.000000
_cell_volume 1609.115293
_symmetry_space_group_name_H-M "P B C N"
_symmetry_group_IT_number 60
_symmetry_cell_setting 'orthorhombic'
loop_
_space_group_symop_operation_xyz
x,y,z
1/2-x,1/2-y,1/2+z
1/2+x,1/2-y,-z
-x,y,1/2-z
-x,-y,-z
1/2+x,1/2+y,1/2-z
1/2-x,1/2+y,z
x,-y,1/2+z
loop_
_atom_site_type_symbol
_atom_site_label
_atom_site_fract_x
_atom_site_fract_y
_atom_site_fract_z
Si Si1 0.457646 0.222255 0.407014
Si Si2 0.389708 0.475751 0.379022
Si Si3 0.317847 0.099189 0.294396
Si Si4 0.273903 0.345717 0.518944
O O1 0.500000 0.241775 0.250000
O O2 0.320618 0.163195 0.400531
O O3 0.406052 0.288035 0.492309
O O4 0.603220 0.190304 0.491821
O O5 0.500000 0.464290 0.250000
O O6 0.500000 0.500000 0.500000
O O7 0.252829 0.532126 0.362143
O O8 0.296354 0.405229 0.407773
O O9 0.500000 0.084456 0.250000
O O10 0.205523 0.120223 0.167538
#
# Coordination Sequence:
#
# PCOD8247508 Si02
#       4
#     8   8   8   8
#     4   9  21  40  64  88 129 161 212 259 317 384
#     4  12  24  41  67  94 128 168 215 264 319 383
#     4   9  22  43  62  91 131 169 209 266 322 380
#     4  10  21  41  63  92 125 166 208 262 317 372
#
# _framework density 19.886704000000002
#
# number of rings (size 3 to 8) (size 9 to 14) (size 15 to 20)
#    0.000    2.500    2.500    0.750    3.500    4.000 
#    0.000    0.000    0.000    0.000    0.000    0.000 
#    0.000    0.000    0.000    0.000    0.000    0.000 
#
# Total GULP energy -396637.043800 kJ/mol
# GULP energy per Si atom -12394.907619 kJ/mol
# Density = 1.984144 g / cm^3
# Si number density = 19.886704 Si / 1000 Ang^3
#
#
#
# Elastic Constant Matrix: (Units=GPa)
#
#
# Indices 1 2 3 4 5 6 
#
# 1 84.5852 74.3082 61.0770 0.0000 0.0000 0.0000
# 2 74.3082 172.6766 61.2073 0.0000 0.0000 0.0000
# 3 61.0770 61.2073 94.1724 0.0000 0.0000 0.0000
# 4 0.0000 0.0000 0.0000 16.3897 0.0000 0.0000
# 5 0.0000 0.0000 0.0000 0.0000 31.3227 0.0000
# 6 0.0000 0.0000 0.0000 0.0000 0.0000 46.9837
#
#
#
# Elastic Compliance Matrix: (Units=1/GPa)
#
#
# Indices 1 2 3 4 5 6 
#
# 1 0.027810 -0.007243 -0.013329 0.000000 0.000000 0.000000
# 2 -0.007243 0.009411 -0.001419 0.000000 0.000000 0.000000
# 3 -0.013329 -0.001419 0.020186 0.000000 0.000000 0.000000
# 4 0.000000 0.000000 0.000000 0.061014 0.000000 0.000000
# 5 0.000000 0.000000 0.000000 0.000000 0.031926 0.000000
# 6 0.000000 0.000000 0.000000 0.000000 0.000000 0.021284
#
#
# Mechanical properties :
#
#
# Convention : Reuss Voigt Hill
#
# Bulk Modulus (GPa) = 74.48971 82.73546 78.61259
# Shear Modulus (GPa) = 22.71823 29.26200 25.99012
#
# Velocity S-wave (km/s) = 3.38358 3.84009 3.61904
# Velocity P-wave (km/s) = 7.26658 7.83297 7.55509
#
# Compressibility (1/GPa) = 0.01342467
#
# Stress axis : x y z
#
# Youngs Moduli (GPa) = 35.95865 106.25802 49.53926
#
# Poissons Ratio (x) = 0.76960 0.66031
# Poissons Ratio (y) = 0.26044 0.07031
# Poissons Ratio (z) = 0.47929 0.15081
#
# Static dielectric constant tensor:
#      x y z
#    x 3.527670 0.000000 0.000000 
#    y 0.000000 3.871500 0.000000 
#    z 0.000000 0.000000 3.628720 
# 
# 
# High freq. dielectric constant tensor:
#      x y z
#    x 1.772560 0.000000 0.000000 
#    y 0.000000 1.793870 0.000000 
#    z 0.000000 0.000000 1.762140 
# 
# From -- ./inp_files/3577.got.cif
#   From: 2010.03.12/outbox.cif.g09.slc.cpg/sg60_2_cif.got.tgz:3577.got - 2010.04.10 18:46:24.
