data_PCOD8247634
_publ_section_title
;
Structure prediction by ZEFSAII (Michael W. Deem and Ramdas Pophale) SiO2 
 PCOD8247634
Probable space group: P B C N
;
_chemical_formula_sum "Si O2"
_cell_formula_units_Z 40
_cell_length_a 8.470607
_cell_length_b 10.072907
_cell_length_c 20.493250
_cell_angle_alpha 90.000000
_cell_angle_beta 90.000000
_cell_angle_gamma 90.000000
_cell_volume 1748.558615
_symmetry_space_group_name_H-M "P B C N"
_symmetry_group_IT_number 60
_symmetry_cell_setting 'orthorhombic'
loop_
_space_group_symop_operation_xyz
x,y,z
1/2-x,1/2-y,1/2+z
1/2+x,1/2-y,-z
-x,y,1/2-z
-x,-y,-z
1/2+x,1/2+y,1/2-z
1/2-x,1/2+y,z
x,-y,1/2+z
loop_
_atom_site_type_symbol
_atom_site_label
_atom_site_fract_x
_atom_site_fract_y
_atom_site_fract_z
Si Si1 0.940241 0.055343 0.569637
Si Si2 0.408180 0.914465 0.416395
Si Si3 0.414163 0.178194 0.058677
Si Si4 0.878416 0.997830 0.303786
Si Si5 0.341746 0.225791 0.658595
O O1 0.763495 0.020061 0.594521
O O2 0.947899 0.215425 0.570740
O O3 0.054028 0.993492 0.623204
O O4 0.000000 0.000000 0.500000
O O5 0.383867 0.830735 0.482088
O O6 0.478508 0.812994 0.362422
O O7 0.536660 0.032493 0.417146
O O8 0.257633 0.232734 0.094240
O O9 0.730621 0.898900 0.302337
O O10 0.000000 0.944122 0.250000
O O11 0.834718 0.151819 0.290025
#
# Coordination Sequence:
#
# PCOD8247634 Si02
#       5
#     8   8   8   8   8
#     4  11  25  41  67 102 141 179 233 289 340 417
#     4  11  22  37  68 100 136 186 221 285 351 407
#     4  10  22  37  62 101 139 175 231 280 343 404
#     4  11  26  48  70  97 141 180 230 291 348 412
#     4  11  23  47  67  99 138 186 235 284 346 424
#
# _framework density 22.875985
#
# number of rings (size 3 to 8) (size 9 to 14) (size 15 to 20)
#    0.000    1.200    2.000    3.600   14.000    1.600 
#    3.600    1.000    0.000    0.000    0.000    0.000 
#    0.000    0.000    0.000    0.000    0.000    0.000 
#
# Total GULP energy -495801.767549 kJ/mol
# GULP energy per Si atom -12395.044189 kJ/mol
# Density = 2.282392 g / cm^3
# Si number density = 22.875985 Si / 1000 Ang^3
#
#
#
# Elastic Constant Matrix: (Units=GPa)
#
#
# Indices 1 2 3 4 5 6 
#
# 1 104.4026 30.9772 1.7683 0.0000 0.0000 0.0000
# 2 30.9772 108.2521 18.5422 0.0000 0.0000 0.0000
# 3 1.7683 18.5422 48.3424 0.0000 0.0000 0.0000
# 4 0.0000 0.0000 0.0000 14.5963 0.0000 0.0000
# 5 0.0000 0.0000 0.0000 0.0000 30.6735 0.0000
# 6 0.0000 0.0000 0.0000 0.0000 0.0000 32.1681
#
#
#
# Elastic Compliance Matrix: (Units=1/GPa)
#
#
# Indices 1 2 3 4 5 6 
#
# 1 0.010497 -0.003145 0.000822 0.000000 0.000000 0.000000
# 2 -0.003145 0.010829 -0.004039 0.000000 0.000000 0.000000
# 3 0.000822 -0.004039 0.022205 0.000000 0.000000 0.000000
# 4 0.000000 0.000000 0.000000 0.068511 0.000000 0.000000
# 5 0.000000 0.000000 0.000000 0.000000 0.032601 0.000000
# 6 0.000000 0.000000 0.000000 0.000000 0.000000 0.031087
#
#
# Mechanical properties :
#
#
# Convention : Reuss Voigt Hill
#
# Bulk Modulus (GPa) = 32.45787 40.39695 36.42741
# Shear Modulus (GPa) = 25.16072 29.46820 27.31446
#
# Velocity S-wave (km/s) = 3.32003 3.59300 3.45921
# Velocity P-wave (km/s) = 5.37738 5.90850 5.64919
#
# Compressibility (1/GPa) = 0.03080917
#
# Stress axis : x y z
#
# Youngs Moduli (GPa) = 95.26112 92.34148 45.03533
#
# Poissons Ratio (x) = 0.29039 -0.03703
# Poissons Ratio (y) = 0.29957 0.18188
# Poissons Ratio (z) = -0.07833 0.37294
#
# Static dielectric constant tensor:
#      x y z
#    x 4.120120 0.000000 0.000000 
#    y 0.000000 4.373590 0.000000 
#    z 0.000000 0.000000 3.755730 
# 
# 
# High freq. dielectric constant tensor:
#      x y z
#    x 1.899650 0.000000 0.000000 
#    y 0.000000 1.924280 0.000000 
#    z 0.000000 0.000000 1.871120 
# 
# From -- ./inp_files/19036.got.cif
#   From: 2010.03.12/outbox.cif.g09.slc.cpg/sg60_10_cif.got.tgz:19036.got - 2010.04.10 18:46:24.
