data_PCOD8247552
_publ_section_title
;
Structure prediction by ZEFSAII (Michael W. Deem and Ramdas Pophale) SiO2 
 PCOD8247552
Probable space group: P B C N
;
_chemical_formula_sum "Si O2"
_cell_formula_units_Z 48
_cell_length_a 16.268553
_cell_length_b 9.618540
_cell_length_c 14.833561
_cell_angle_alpha 90.000000
_cell_angle_beta 90.000000
_cell_angle_gamma 90.000000
_cell_volume 2321.151587
_symmetry_space_group_name_H-M "P B C N"
_symmetry_group_IT_number 60
_symmetry_cell_setting 'orthorhombic'
loop_
_space_group_symop_operation_xyz
x,y,z
1/2-x,1/2-y,1/2+z
1/2+x,1/2-y,-z
-x,y,1/2-z
-x,-y,-z
1/2+x,1/2+y,1/2-z
1/2-x,1/2+y,z
x,-y,1/2+z
loop_
_atom_site_type_symbol
_atom_site_label
_atom_site_fract_x
_atom_site_fract_y
_atom_site_fract_z
Si Si1 0.128555 0.861307 0.008264
Si Si2 0.915311 0.469467 0.275256
Si Si3 0.326752 0.905229 0.404735
Si Si4 0.810950 0.624638 0.940607
Si Si5 0.645686 0.648878 0.566996
Si Si6 0.490449 0.739142 0.656196
O O1 0.129092 0.737233 0.935090
O O2 0.106465 0.998602 0.951812
O O3 0.212336 0.878551 0.065641
O O4 0.058723 0.843257 0.081760
O O5 0.865370 0.479818 0.182181
O O6 0.855636 0.394731 0.345447
O O7 0.945807 0.615182 0.319100
O O8 0.000000 0.386389 0.250000
O O9 0.231906 0.871502 0.380375
O O10 0.338653 0.008983 0.488124
O O11 0.836019 0.778248 0.971613
O O12 0.584271 0.750847 0.620869
O O13 0.500000 0.653611 0.750000
#
# Coordination Sequence:
#
# PCOD8247552 Si02
#       6
#     8   8   8   8   8   8
#     4  10  22  43  64  90 133 176 215 273 338 392
#     4  11  24  39  69 101 124 174 225 274 323 389
#     4  10  22  44  67  94 133 175 227 270 330 394
#     4  10  21  42  66  91 130 175 223 271 326 397
#     4  10  23  42  65  94 132 180 211 275 341 388
#     4  11  23  40  65  97 128 170 219 269 333 391
#
# _framework density 20.679390000000001
#
# number of rings (size 3 to 8) (size 9 to 14) (size 15 to 20)
#    0.000    1.667    1.667    2.500    4.667    1.333 
#    3.000    0.000    0.000    0.000    0.000    0.000 
#    0.000    0.000    0.000    0.000    0.000    0.000 
#
# Total GULP energy -594715.588588 kJ/mol
# GULP energy per Si atom -12389.908096 kJ/mol
# Density = 2.063232 g / cm^3
# Si number density = 20.679390 Si / 1000 Ang^3
#
#
#
# Elastic Constant Matrix: (Units=GPa)
#
#
# Indices 1 2 3 4 5 6 
#
# 1 109.6885 21.5091 58.9130 0.0000 0.0000 0.0000
# 2 21.5091 91.3676 17.4517 0.0000 0.0000 0.0000
# 3 58.9130 17.4517 99.8453 0.0000 0.0000 0.0000
# 4 0.0000 0.0000 0.0000 15.4830 0.0000 0.0000
# 5 0.0000 0.0000 0.0000 0.0000 39.5850 0.0000
# 6 0.0000 0.0000 0.0000 0.0000 0.0000 19.2066
#
#
#
# Elastic Compliance Matrix: (Units=1/GPa)
#
#
# Indices 1 2 3 4 5 6 
#
# 1 0.013605 -0.001727 -0.007725 0.000000 0.000000 0.000000
# 2 -0.001727 0.011542 -0.000998 0.000000 0.000000 0.000000
# 3 -0.007725 -0.000998 0.014748 0.000000 0.000000 0.000000
# 4 0.000000 0.000000 0.000000 0.064587 0.000000 0.000000
# 5 0.000000 0.000000 0.000000 0.000000 0.025262 0.000000
# 6 0.000000 0.000000 0.000000 0.000000 0.000000 0.052065
#
#
# Mechanical properties :
#
#
# Convention : Reuss Voigt Hill
#
# Bulk Modulus (GPa) = 52.65023 55.18322 53.91673
# Shear Modulus (GPa) = 23.91857 28.39010 26.15434
#
# Velocity S-wave (km/s) = 3.40463 3.70924 3.56020
# Velocity P-wave (km/s) = 6.40085 6.71474 6.55967
#
# Compressibility (1/GPa) = 0.01899327
#
# Stress axis : x y z
#
# Youngs Moduli (GPa) = 73.50395 86.63956 67.80415
#
# Poissons Ratio (x) = 0.14964 0.52382
# Poissons Ratio (y) = 0.12695 0.06769
# Poissons Ratio (z) = 0.56785 0.08650
#
# Static dielectric constant tensor:
#      x y z
#    x 4.023770 0.000000 0.000000 
#    y 0.000000 3.704580 0.000000 
#    z 0.000000 0.000000 3.808740 
# 
# 
# High freq. dielectric constant tensor:
#      x y z
#    x 1.824100 0.000000 0.000000 
#    y 0.000000 1.801030 0.000000 
#    z 0.000000 0.000000 1.799680 
# 
# From -- ./inp_files/16797.got.cif
#   From: 2010.03.12/outbox.cif.g09.slc.cpg/sg60_9_cif.got.tgz:16797.got - 2010.04.10 18:46:24.
