data_PCOD8247004
_publ_section_title
;
Structure prediction by ZEFSAII (Michael W. Deem and Ramdas Pophale) SiO2 
 PCOD8247004
Probable space group: P B C N
;
_chemical_formula_sum "Si O2"
_cell_formula_units_Z 56
_cell_length_a 6.580461
_cell_length_b 22.385282
_cell_length_c 18.877713
_cell_angle_alpha 90.000000
_cell_angle_beta 90.000000
_cell_angle_gamma 90.000000
_cell_volume 2780.790484
_symmetry_space_group_name_H-M "P B C N"
_symmetry_group_IT_number 60
_symmetry_cell_setting 'orthorhombic'
loop_
_space_group_symop_operation_xyz
x,y,z
1/2-x,1/2-y,1/2+z
1/2+x,1/2-y,-z
-x,y,1/2-z
-x,-y,-z
1/2+x,1/2+y,1/2-z
1/2-x,1/2+y,z
x,-y,1/2+z
loop_
_atom_site_type_symbol
_atom_site_label
_atom_site_fract_x
_atom_site_fract_y
_atom_site_fract_z
Si Si1 0.009334 0.261486 0.331364
Si Si2 0.730149 0.963993 0.431417
Si Si3 0.964513 0.601450 0.671585
Si Si4 0.628001 0.405556 0.075180
Si Si5 0.441201 0.082517 0.045820
Si Si6 0.175629 0.693037 0.429762
Si Si7 0.868712 0.204788 0.923777
O O1 0.094754 0.328605 0.332268
O O2 0.156505 0.215038 0.372869
O O3 0.000000 0.238490 0.250000
O O4 0.786160 0.266683 0.366581
O O5 0.665392 0.914348 0.373147
O O6 0.622996 0.951059 0.505650
O O7 0.971906 0.958627 0.443035
O O8 0.671845 0.031719 0.406807
O O9 0.771140 0.568231 0.637540
O O10 0.000000 0.578114 0.750000
O O11 0.508691 0.348153 0.106235
O O12 0.772889 0.389366 0.008097
O O13 0.546394 0.134153 0.094350
O O14 0.269086 0.676511 0.505934
O O15 0.015080 0.743198 0.448365
#
# Coordination Sequence:
#
# PCOD8247004 Si02
#       7
#     8   8   8   8   8   8   8
#     4  11  24  40  58  91 127 159 205 259 317 370
#     4  10  20  38  58  88 122 153 203 252 312 358
#     4  10  21  38  58  86 119 158 208 256 301 368
#     4  11  19  36  60  92 125 154 200 258 317 361
#     4  10  22  35  59  93 120 156 196 255 305 370
#     4  12  22  37  62  92 127 161 207 254 311 376
#     4  12  21  36  63  91 119 160 206 253 307 373
#
# _framework density 20.138159000000002
#
# number of rings (size 3 to 8) (size 9 to 14) (size 15 to 20)
#    0.000    1.143    5.714    2.143    0.000    1.143 
#    0.000    0.000    3.143    0.000    0.000    0.000 
#    0.000    0.000    0.000    0.000    0.000    0.000 
#
# Total GULP energy -693952.645681 kJ/mol
# GULP energy per Si atom -12392.011530 kJ/mol
# Density = 2.009232 g / cm^3
# Si number density = 20.138159 Si / 1000 Ang^3
#
#
#
# Elastic Constant Matrix: (Units=GPa)
#
#
# Indices 1 2 3 4 5 6 
#
# 1 124.7097 32.8805 38.9900 0.0000 0.0000 0.0000
# 2 32.8805 84.6350 16.3329 0.0000 0.0000 0.0000
# 3 38.9900 16.3329 97.1840 0.0000 0.0000 0.0000
# 4 0.0000 0.0000 0.0000 17.8527 0.0000 0.0000
# 5 0.0000 0.0000 0.0000 0.0000 15.3185 0.0000
# 6 0.0000 0.0000 0.0000 0.0000 0.0000 28.9112
#
#
#
# Elastic Compliance Matrix: (Units=1/GPa)
#
#
# Indices 1 2 3 4 5 6 
#
# 1 0.009940 -0.003196 -0.003451 0.000000 0.000000 0.000000
# 2 -0.003196 0.013239 -0.000943 0.000000 0.000000 0.000000
# 3 -0.003451 -0.000943 0.011833 0.000000 0.000000 0.000000
# 4 0.000000 0.000000 0.000000 0.056014 0.000000 0.000000
# 5 0.000000 0.000000 0.000000 0.000000 0.065281 0.000000
# 6 0.000000 0.000000 0.000000 0.000000 0.000000 0.034589
#
#
# Mechanical properties :
#
#
# Convention : Reuss Voigt Hill
#
# Bulk Modulus (GPa) = 50.42143 53.65950 52.04047
# Shear Modulus (GPa) = 23.50898 26.97150 25.24024
#
# Velocity S-wave (km/s) = 3.42041 3.66365 3.54411
# Velocity P-wave (km/s) = 6.37895 6.67832 6.53035
#
# Compressibility (1/GPa) = 0.01983284
#
# Stress axis : x y z
#
# Youngs Moduli (GPa) = 100.60262 75.53484 84.51160
#
# Poissons Ratio (x) = 0.24139 0.29164
# Poissons Ratio (y) = 0.32150 0.07968
# Poissons Ratio (z) = 0.34717 0.07122
#
# Static dielectric constant tensor:
#      x y z
#    x 3.930380 0.000000 0.000000 
#    y 0.000000 3.712750 0.000000 
#    z 0.000000 0.000000 3.338760 
# 
# 
# High freq. dielectric constant tensor:
#      x y z
#    x 1.808650 0.000000 0.000000 
#    y 0.000000 1.778730 0.000000 
#    z 0.000000 0.000000 1.738950 
# 
# From -- ./inp_files/21739.got.cif
#   From: 2010.03.12/outbox.cif.g09.slc.cpg/sg60_11_cif.got.tgz:21739.got - 2010.04.10 18:46:24.
