data_PCOD8247579
_publ_section_title
;
Structure prediction by ZEFSAII (Michael W. Deem and Ramdas Pophale) SiO2 
 PCOD8247579
Probable space group: P B C N
;
_chemical_formula_sum "Si O2"
_cell_formula_units_Z 48
_cell_length_a 8.963939
_cell_length_b 23.958689
_cell_length_c 11.045977
_cell_angle_alpha 90.000000
_cell_angle_beta 90.000000
_cell_angle_gamma 90.000000
_cell_volume 2372.280709
_symmetry_space_group_name_H-M "P B C N"
_symmetry_group_IT_number 60
_symmetry_cell_setting 'orthorhombic'
loop_
_space_group_symop_operation_xyz
x,y,z
1/2-x,1/2-y,1/2+z
1/2+x,1/2-y,-z
-x,y,1/2-z
-x,-y,-z
1/2+x,1/2+y,1/2-z
1/2-x,1/2+y,z
x,-y,1/2+z
loop_
_atom_site_type_symbol
_atom_site_label
_atom_site_fract_x
_atom_site_fract_y
_atom_site_fract_z
Si Si1 0.692213 0.367757 0.420316
Si Si2 0.660150 0.673345 0.190039
Si Si3 0.871755 0.894767 0.096670
Si Si4 0.654288 0.569452 0.323343
Si Si5 0.328776 0.958355 0.215658
Si Si6 0.668550 0.286119 0.222140
O O1 0.652598 0.350292 0.554825
O O2 0.543708 0.394154 0.356941
O O3 0.815710 0.416484 0.401076
O O4 0.741520 0.313507 0.342687
O O5 0.500000 0.684890 0.250000
O O6 0.737245 0.623887 0.267146
O O7 0.749258 0.730086 0.186558
O O8 0.765415 0.935296 0.171712
O O9 0.815389 0.830333 0.110900
O O10 0.879030 0.917040 0.961384
O O11 0.500000 0.557700 0.250000
O O12 0.767312 0.518621 0.318400
O O13 0.500000 0.964178 0.250000
O O14 0.500000 0.268916 0.250000
#
# Coordination Sequence:
#
# PCOD8247579 Si02
#       6
#     8   8   8   8   8   8
#     4  10  21  44  67  90 128 170 217 256 312 387
#     4  11  23  40  65  98 125 165 221 262 309 374
#     4  10  21  45  67  91 126 172 217 257 310 388
#     4  11  23  41  68  93 125 169 222 260 308 378
#     4  11  26  43  64  97 129 168 210 266 334 378
#     4   9  22  39  62  92 128 172 206 260 320 375
#
# _framework density 20.233694
#
# number of rings (size 3 to 8) (size 9 to 14) (size 15 to 20)
#    0.000    1.667    3.333    2.500    4.667    5.333 
#    3.000    0.000    0.000    0.000    0.000    0.000 
#    0.000    0.000    0.000    0.000    0.000    0.000 
#
# Total GULP energy -594792.411094 kJ/mol
# GULP energy per Si atom -12391.508564 kJ/mol
# Density = 2.018764 g / cm^3
# Si number density = 20.233694 Si / 1000 Ang^3
#
#
#
# Elastic Constant Matrix: (Units=GPa)
#
#
# Indices 1 2 3 4 5 6 
#
# 1 73.6273 56.2396 30.7557 0.0000 0.0000 0.0000
# 2 56.2396 144.0406 26.6969 0.0000 0.0000 0.0000
# 3 30.7557 26.6969 96.8280 0.0000 0.0000 0.0000
# 4 0.0000 0.0000 0.0000 14.4642 0.0000 0.0000
# 5 0.0000 0.0000 0.0000 0.0000 18.4343 0.0000
# 6 0.0000 0.0000 0.0000 0.0000 0.0000 34.3884
#
#
#
# Elastic Compliance Matrix: (Units=1/GPa)
#
#
# Indices 1 2 3 4 5 6 
#
# 1 0.021200 -0.007408 -0.004691 0.000000 0.000000 0.000000
# 2 -0.007408 0.009905 -0.000378 0.000000 0.000000 0.000000
# 3 -0.004691 -0.000378 0.011922 0.000000 0.000000 0.000000
# 4 0.000000 0.000000 0.000000 0.069136 0.000000 0.000000
# 5 0.000000 0.000000 0.000000 0.000000 0.054247 0.000000
# 6 0.000000 0.000000 0.000000 0.000000 0.000000 0.029080
#
#
# Mechanical properties :
#
#
# Convention : Reuss Voigt Hill
#
# Bulk Modulus (GPa) = 55.33273 60.20893 57.77083
# Shear Modulus (GPa) = 22.07818 26.84429 24.46123
#
# Velocity S-wave (km/s) = 3.30685 3.64636 3.48075
# Velocity P-wave (km/s) = 6.47970 6.89560 6.69088
#
# Compressibility (1/GPa) = 0.01807249
#
# Stress axis : x y z
#
# Youngs Moduli (GPa) = 47.16971 100.96022 83.87907
#
# Poissons Ratio (x) = 0.74790 0.39351
# Poissons Ratio (y) = 0.34943 0.03170
# Poissons Ratio (z) = 0.22129 0.03816
#
# Static dielectric constant tensor:
#      x y z
#    x 3.489940 0.000000 0.000000 
#    y 0.000000 3.884280 0.000000 
#    z 0.000000 0.000000 3.833900 
# 
# 
# High freq. dielectric constant tensor:
#      x y z
#    x 1.765490 0.000000 0.000000 
#    y 0.000000 1.804590 0.000000 
#    z 0.000000 0.000000 1.799590 
# 
# From -- ./inp_files/10084.got.cif
#   From: 2010.03.12/outbox.cif.g09.slc.cpg/sg60_6_cif.got.tgz:10084.got - 2010.04.10 18:46:24.
