data_PCOD8247472
_publ_section_title
;
Structure prediction by ZEFSAII (Michael W. Deem and Ramdas Pophale) SiO2 
 PCOD8247472
Probable space group: P B C N
;
_chemical_formula_sum "Si O2"
_cell_formula_units_Z 52
_cell_length_a 11.503925
_cell_length_b 8.458732
_cell_length_c 25.295225
_cell_angle_alpha 90.000000
_cell_angle_beta 90.000000
_cell_angle_gamma 90.000000
_cell_volume 2461.443400
_symmetry_space_group_name_H-M "P B C N"
_symmetry_group_IT_number 60
_symmetry_cell_setting 'orthorhombic'
loop_
_space_group_symop_operation_xyz
x,y,z
1/2-x,1/2-y,1/2+z
1/2+x,1/2-y,-z
-x,y,1/2-z
-x,-y,-z
1/2+x,1/2+y,1/2-z
1/2-x,1/2+y,z
x,-y,1/2+z
loop_
_atom_site_type_symbol
_atom_site_label
_atom_site_fract_x
_atom_site_fract_y
_atom_site_fract_z
Si Si1 0.704297 0.874088 0.767818
Si Si2 0.626691 0.200961 0.939580
Si Si3 0.727869 0.929549 0.000065
Si Si4 0.383053 0.338541 0.940105
Si Si5 0.000000 0.140829 0.750000
Si Si6 0.612066 0.382389 0.681062
Si Si7 0.608596 0.184493 0.819087
O O1 0.603896 0.745354 0.772887
O O2 0.763144 0.867967 0.709753
O O3 0.808876 0.835880 0.808389
O O4 0.648311 0.043348 0.780739
O O5 0.736694 0.313129 0.952017
O O6 0.517626 0.311556 0.951862
O O7 0.625573 0.136846 0.879894
O O8 0.629654 0.048379 0.977884
O O9 0.679940 0.828953 0.049325
O O10 0.838859 0.025793 0.020935
O O11 0.360114 0.394805 0.880517
O O12 0.045707 0.038298 0.799047
O O13 0.525860 0.232690 0.692417
#
# Coordination Sequence:
#
# PCOD8247472 Si02
#       7
#     8   8   8   8   4   8   8
#     4  12  24  41  63  93 130 164 218 261 318 381
#     4  10  21  40  65  91 128 162 211 261 306 376
#     4  10  21  40  64  95 126 166 204 259 317 365
#     4  10  23  39  64  94 126 166 207 254 319 373
#     4  12  26  40  64  92 126 172 206 262 322 372
#     4  11  24  45  63  92 134 167 213 268 311 386
#     4  11  22  41  67  93 126 176 211 264 323 371
#
# _framework density 21.125817000000001
#
# number of rings (size 3 to 8) (size 9 to 14) (size 15 to 20)
#    0.000    1.231    3.077    1.846    4.308    1.231 
#    2.769    1.538    0.000    0.000    0.000    0.000 
#    0.000    0.000    0.000    0.000    0.000    0.000 
#
# Total GULP energy -644768.920908 kJ/mol
# GULP energy per Si atom -12399.402325 kJ/mol
# Density = 2.107773 g / cm^3
# Si number density = 21.125817 Si / 1000 Ang^3
#
#
#
# Elastic Constant Matrix: (Units=GPa)
#
#
# Indices 1 2 3 4 5 6 
#
# 1 55.8754 7.4114 36.1481 0.0000 0.0000 0.0000
# 2 7.4114 77.8467 44.7073 0.0000 0.0000 0.0000
# 3 36.1481 44.7073 104.6069 0.0000 0.0000 0.0000
# 4 0.0000 0.0000 0.0000 23.2944 0.0000 0.0000
# 5 0.0000 0.0000 0.0000 0.0000 33.5741 0.0000
# 6 0.0000 0.0000 0.0000 0.0000 0.0000 38.8328
#
#
#
# Elastic Compliance Matrix: (Units=1/GPa)
#
#
# Indices 1 2 3 4 5 6 
#
# 1 0.023650 0.003236 -0.009555 0.000000 0.000000 0.000000
# 2 0.003236 0.017467 -0.008583 0.000000 0.000000 0.000000
# 3 -0.009555 -0.008583 0.016530 0.000000 0.000000 0.000000
# 4 0.000000 0.000000 0.000000 0.042929 0.000000 0.000000
# 5 0.000000 0.000000 0.000000 0.000000 0.029785 0.000000
# 6 0.000000 0.000000 0.000000 0.000000 0.000000 0.025751
#
#
# Mechanical properties :
#
#
# Convention : Reuss Voigt Hill
#
# Bulk Modulus (GPa) = 35.91802 46.09584 41.00693
# Shear Modulus (GPa) = 25.61506 29.14441 27.37974
#
# Velocity S-wave (km/s) = 3.48588 3.71828 3.60395
# Velocity P-wave (km/s) = 5.76547 6.34832 6.06390
#
# Compressibility (1/GPa) = 0.02784118
#
# Stress axis : x y z
#
# Youngs Moduli (GPa) = 42.28414 57.25040 60.49604
#
# Poissons Ratio (x) = -0.18527 0.57807
# Poissons Ratio (y) = -0.13684 0.51926
# Poissons Ratio (z) = 0.40404 0.49141
#
# Static dielectric constant tensor:
#      x y z
#    x 3.944180 0.000000 0.000000 
#    y 0.000000 3.850280 0.000000 
#    z 0.000000 0.000000 3.699140 
# 
# 
# High freq. dielectric constant tensor:
#      x y z
#    x 1.833410 0.000000 0.000000 
#    y 0.000000 1.833240 0.000000 
#    z 0.000000 0.000000 1.822030 
# 
# From -- ./inp_files/25292.got.cif
#   From: 2010.03.12/outbox.cif.g09.slc.cpg/sg60_13_cif.got.tgz:25292.got - 2010.04.10 18:46:24.
