data_PCOD8247836
_publ_section_title
;
Structure prediction by ZEFSAII (Michael W. Deem and Ramdas Pophale) SiO2 
 PCOD8247836
Probable space group: P B C N
;
_chemical_formula_sum "Si O2"
_cell_formula_units_Z 48
_cell_length_a 5.226751
_cell_length_b 20.947027
_cell_length_c 19.223725
_cell_angle_alpha 90.000000
_cell_angle_beta 90.000000
_cell_angle_gamma 90.000000
_cell_volume 2104.707500
_symmetry_space_group_name_H-M "P B C N"
_symmetry_group_IT_number 60
_symmetry_cell_setting 'orthorhombic'
loop_
_space_group_symop_operation_xyz
x,y,z
1/2-x,1/2-y,1/2+z
1/2+x,1/2-y,-z
-x,y,1/2-z
-x,-y,-z
1/2+x,1/2+y,1/2-z
1/2-x,1/2+y,z
x,-y,1/2+z
loop_
_atom_site_type_symbol
_atom_site_label
_atom_site_fract_x
_atom_site_fract_y
_atom_site_fract_z
Si Si1 0.632783 0.793119 0.570753
Si Si2 0.262274 0.100074 0.065446
Si Si3 0.065508 0.065115 0.672546
Si Si4 0.533072 0.344954 0.449232
Si Si5 0.066109 0.512757 0.352901
Si Si6 0.121474 0.124277 0.321683
O O1 0.358597 0.827062 0.578858
O O2 0.633365 0.717006 0.570006
O O3 0.738208 0.821658 0.498327
O O4 0.800671 0.811684 0.637693
O O5 0.481292 0.044864 0.071942
O O6 0.068447 0.084221 0.128297
O O7 0.131925 0.100662 0.989605
O O8 0.000000 0.089715 0.750000
O O9 0.138753 0.123750 0.621680
O O10 0.812213 0.032653 0.639432
O O11 0.319868 0.021862 0.680864
O O12 0.146427 0.574686 0.306300
O O13 0.000000 0.146936 0.250000
#
# Coordination Sequence:
#
# PCOD8247836 Si02
#       6
#     8   8   8   8   8   8
#     4  10  22  43  70  99 140 185 233 298 355 402
#     4  10  22  42  72 104 130 184 233 291 350 406
#     4  12  28  45  70 103 144 191 227 282 356 428
#     4  11  24  45  69  99 144 183 240 288 353 426
#     4  11  24  45  70 100 143 181 230 285 351 416
#     4  10  22  42  72 108 135 181 237 295 355 417
#
# _framework density 22.806021000000001
#
# number of rings (size 3 to 8) (size 9 to 14) (size 15 to 20)
#    0.000    1.333    3.333    1.000    4.667    3.333 
#    3.000    0.000    0.000    0.000    0.000    0.000 
#    0.000    0.000    0.000    0.000    0.000    0.000 
#
# Total GULP energy -594752.387578 kJ/mol
# GULP energy per Si atom -12390.674741 kJ/mol
# Density = 2.275411 g / cm^3
# Si number density = 22.806021 Si / 1000 Ang^3
#
#
#
# Elastic Constant Matrix: (Units=GPa)
#
#
# Indices 1 2 3 4 5 6 
#
# 1 110.0838 32.8109 46.0417 0.0000 0.0000 0.0000
# 2 32.8109 82.5638 72.0600 0.0000 0.0000 0.0000
# 3 46.0417 72.0600 156.9172 0.0000 0.0000 0.0000
# 4 0.0000 0.0000 0.0000 17.9486 0.0000 0.0000
# 5 0.0000 0.0000 0.0000 0.0000 22.0763 0.0000
# 6 0.0000 0.0000 0.0000 0.0000 0.0000 33.4452
#
#
#
# Elastic Compliance Matrix: (Units=1/GPa)
#
#
# Indices 1 2 3 4 5 6 
#
# 1 0.010658 -0.002514 -0.001973 0.000000 0.000000 0.000000
# 2 -0.002514 0.020806 -0.008817 0.000000 0.000000 0.000000
# 3 -0.001973 -0.008817 0.011001 0.000000 0.000000 0.000000
# 4 0.000000 0.000000 0.000000 0.055715 0.000000 0.000000
# 5 0.000000 0.000000 0.000000 0.000000 0.045297 0.000000
# 6 0.000000 0.000000 0.000000 0.000000 0.000000 0.029900
#
#
# Mechanical properties :
#
#
# Convention : Reuss Voigt Hill
#
# Bulk Modulus (GPa) = 63.06076 72.37667 67.71871
# Shear Modulus (GPa) = 24.35808 27.93749 26.14779
#
# Velocity S-wave (km/s) = 3.27166 3.50380 3.38972
# Velocity P-wave (km/s) = 6.47940 6.94071 6.71402
#
# Compressibility (1/GPa) = 0.01585772
#
# Stress axis : x y z
#
# Youngs Moduli (GPa) = 93.82283 48.06258 90.90314
#
# Poissons Ratio (x) = 0.12081 0.17935
# Poissons Ratio (y) = 0.23584 0.80151
# Poissons Ratio (z) = 0.18511 0.42377
#
# Static dielectric constant tensor:
#      x y z
#    x 4.333920 0.000000 0.000000 
#    y 0.000000 3.870210 0.000000 
#    z 0.000000 0.000000 3.897390 
# 
# 
# High freq. dielectric constant tensor:
#      x y z
#    x 1.912460 0.000000 0.000000 
#    y 0.000000 1.878330 0.000000 
#    z 0.000000 0.000000 1.887540 
# 
# From -- ./inp_files/21612.got.cif
#   From: 2010.03.12/outbox.cif.g09.slc.cpg/sg60_11_cif.got.tgz:21612.got - 2010.04.10 18:46:24.
