data_PCOD8247181
_publ_section_title
;
Structure prediction by ZEFSAII (Michael W. Deem and Ramdas Pophale) SiO2 
 PCOD8247181
Probable space group: P B C N
;
_chemical_formula_sum "Si O2"
_cell_formula_units_Z 64
_cell_length_a 12.784600
_cell_length_b 12.694382
_cell_length_c 18.679085
_cell_angle_alpha 90.000000
_cell_angle_beta 90.000000
_cell_angle_gamma 90.000000
_cell_volume 3031.477198
_symmetry_space_group_name_H-M "P B C N"
_symmetry_group_IT_number 60
_symmetry_cell_setting 'orthorhombic'
loop_
_space_group_symop_operation_xyz
x,y,z
1/2-x,1/2-y,1/2+z
1/2+x,1/2-y,-z
-x,y,1/2-z
-x,-y,-z
1/2+x,1/2+y,1/2-z
1/2-x,1/2+y,z
x,-y,1/2+z
loop_
_atom_site_type_symbol
_atom_site_label
_atom_site_fract_x
_atom_site_fract_y
_atom_site_fract_z
Si Si1 0.135446 0.044058 0.625151
Si Si2 0.803129 0.056194 0.512006
Si Si3 0.546184 0.723087 0.451854
Si Si4 0.189478 0.873005 0.731911
Si Si5 0.331634 0.838887 0.169026
Si Si6 0.076769 0.041805 0.368558
Si Si7 0.092425 0.563861 0.198325
Si Si8 0.568722 0.095718 0.470012
O O1 0.206889 0.136720 0.658125
O O2 0.161541 0.037040 0.541505
O O3 0.167401 0.929078 0.656040
O O4 0.010589 0.052192 0.638403
O O5 0.873690 0.159204 0.501199
O O6 0.682464 0.083368 0.504513
O O7 0.824829 0.006693 0.589691
O O8 0.613448 0.803380 0.403925
O O9 0.472578 0.644911 0.405956
O O10 0.475005 0.792098 0.504764
O O11 0.156965 0.751198 0.728621
O O12 0.119991 0.929406 0.791161
O O13 0.313388 0.879495 0.740538
O O14 0.390898 0.938922 0.199827
O O15 0.075402 0.599695 0.116292
O O16 0.000000 0.596457 0.250000
O O17 0.500000 0.000000 0.500000
#
# Coordination Sequence:
#
# PCOD8247181 Si02
#       8
#     8   8   8   8   8   8   8   8
#     4  10  20  42  68  95 129 181 219 278 342 393
#     4  11  23  44  64 101 139 172 226 283 339 395
#     4  11  23  41  72 100 129 182 232 276 339 411
#     4  11  23  43  67  99 135 176 225 275 340 407
#     4  11  21  41  74  96 127 179 230 272 340 414
#     4  11  25  40  69 102 137 178 231 287 329 409
#     4  11  26  45  68  96 142 177 220 283 348 402
#     4  12  24  44  70 102 135 182 222 284 345 401
#
# _framework density 21.111820000000002
#
# number of rings (size 3 to 8) (size 9 to 14) (size 15 to 20)
#    0.000    1.000    6.250    1.875    3.500    5.000 
#    2.250    2.500    0.000    0.000    0.000    0.000 
#    0.000    0.000    0.000    0.000    0.000    0.000 
#
# Total GULP energy -793399.096161 kJ/mol
# GULP energy per Si atom -12396.860878 kJ/mol
# Density = 2.106377 g / cm^3
# Si number density = 21.111820 Si / 1000 Ang^3
#
#
#
# Elastic Constant Matrix: (Units=GPa)
#
#
# Indices 1 2 3 4 5 6 
#
# 1 146.6862 33.0799 57.0104 0.0000 0.0000 0.0000
# 2 33.0799 54.1043 27.2334 0.0000 0.0000 0.0000
# 3 57.0104 27.2334 73.9779 0.0000 0.0000 0.0000
# 4 0.0000 0.0000 0.0000 26.3528 0.0000 0.0000
# 5 0.0000 0.0000 0.0000 0.0000 40.7509 0.0000
# 6 0.0000 0.0000 0.0000 0.0000 0.0000 23.1793
#
#
#
# Elastic Compliance Matrix: (Units=1/GPa)
#
#
# Indices 1 2 3 4 5 6 
#
# 1 0.010057 -0.002759 -0.006735 0.000000 0.000000 0.000000
# 2 -0.002759 0.023443 -0.006504 0.000000 0.000000 0.000000
# 3 -0.006735 -0.006504 0.021102 0.000000 0.000000 0.000000
# 4 0.000000 0.000000 0.000000 0.037947 0.000000 0.000000
# 5 0.000000 0.000000 0.000000 0.000000 0.024539 0.000000
# 6 0.000000 0.000000 0.000000 0.000000 0.000000 0.043142
#
#
# Mechanical properties :
#
#
# Convention : Reuss Voigt Hill
#
# Bulk Modulus (GPa) = 44.23415 56.60176 50.41795
# Shear Modulus (GPa) = 25.02991 28.55292 26.79142
#
# Velocity S-wave (km/s) = 3.44697 3.68157 3.56620
# Velocity P-wave (km/s) = 6.06959 6.70378 6.39455
#
# Compressibility (1/GPa) = 0.02260697
#
# Stress axis : x y z
#
# Youngs Moduli (GPa) = 99.43404 42.65577 47.38928
#
# Poissons Ratio (x) = 0.11769 0.31915
# Poissons Ratio (y) = 0.27434 0.30822
# Poissons Ratio (z) = 0.66965 0.27743
#
# Static dielectric constant tensor:
#      x y z
#    x 4.140900 0.000000 0.000000 
#    y 0.000000 3.788140 0.000000 
#    z 0.000000 0.000000 3.662850 
# 
# 
# High freq. dielectric constant tensor:
#      x y z
#    x 1.842670 0.000000 0.000000 
#    y 0.000000 1.822260 0.000000 
#    z 0.000000 0.000000 1.818850 
# 
# From -- ./inp_files/20215.got.cif
#   From: 2010.03.12/outbox.cif.g09.slc.cpg/sg60_11_cif.got.tgz:20215.got - 2010.04.10 18:46:24.
