data_PCOD8247186
_publ_section_title
;
Structure prediction by ZEFSAII (Michael W. Deem and Ramdas Pophale) SiO2 
 PCOD8247186
Probable space group: P B C N
;
_chemical_formula_sum "Si O2"
_cell_formula_units_Z 40
_cell_length_a 10.258911
_cell_length_b 12.554550
_cell_length_c 14.748622
_cell_angle_alpha 90.000000
_cell_angle_beta 90.000000
_cell_angle_gamma 90.000000
_cell_volume 1899.563683
_symmetry_space_group_name_H-M "P B C N"
_symmetry_group_IT_number 60
_symmetry_cell_setting 'orthorhombic'
loop_
_space_group_symop_operation_xyz
x,y,z
1/2-x,1/2-y,1/2+z
1/2+x,1/2-y,-z
-x,y,1/2-z
-x,-y,-z
1/2+x,1/2+y,1/2-z
1/2-x,1/2+y,z
x,-y,1/2+z
loop_
_atom_site_type_symbol
_atom_site_label
_atom_site_fract_x
_atom_site_fract_y
_atom_site_fract_z
Si Si1 0.500000 0.776416 0.250000
Si Si2 0.264037 0.331466 0.816343
Si Si3 0.959292 0.844434 0.435508
Si Si4 0.892642 0.330554 0.069313
Si Si5 0.000000 0.742891 0.250000
Si Si6 0.696160 0.498809 0.042411
O O1 0.627228 0.699156 0.259373
O O2 0.488376 0.846898 0.342551
O O3 0.269885 0.240659 0.895092
O O4 0.119035 0.334127 0.776469
O O5 0.301212 0.445501 0.858820
O O6 0.966796 0.732641 0.489979
O O7 0.951903 0.820666 0.329485
O O8 0.086042 0.910042 0.462073
O O9 0.831472 0.913956 0.463884
O O10 0.837195 0.441770 0.029440
#
# Coordination Sequence:
#
# PCOD8247186 Si02
#       6
#     4   8   8   8   4   8
#     4   8  18  40  62  94 130 184 210 272 324 394
#     4   9  21  39  62  94 134 167 227 265 331 390
#     4  10  22  39  66  92 134 175 219 268 345 394
#     4   9  19  41  64  95 136 166 225 278 328 387
#     4  12  22  44  62 100 138 174 214 300 324 396
#     4  10  20  43  65  95 130 177 225 274 321 425
#
# _framework density 21.057466999999999
#
# number of rings (size 3 to 8) (size 9 to 14) (size 15 to 20)
#    1.200    1.200    2.000    0.000    0.000    3.200 
#    3.600    1.000    0.000    0.000    0.000    0.000 
#    0.000    0.000    0.000    0.000    0.000    0.000 
#
# Total GULP energy -495545.736552 kJ/mol
# GULP energy per Si atom -12388.643414 kJ/mol
# Density = 2.100954 g / cm^3
# Si number density = 21.057467 Si / 1000 Ang^3
#
#
#
# Elastic Constant Matrix: (Units=GPa)
#
#
# Indices 1 2 3 4 5 6 
#
# 1 113.2207 37.4183 43.9949 0.0000 0.0000 0.0000
# 2 37.4183 76.7799 46.3873 0.0000 0.0000 0.0000
# 3 43.9949 46.3873 138.8701 0.0000 0.0000 0.0000
# 4 0.0000 0.0000 0.0000 12.1839 0.0000 0.0000
# 5 0.0000 0.0000 0.0000 0.0000 31.4607 0.0000
# 6 0.0000 0.0000 0.0000 0.0000 0.0000 42.3162
#
#
#
# Elastic Compliance Matrix: (Units=1/GPa)
#
#
# Indices 1 2 3 4 5 6 
#
# 1 0.011006 -0.004081 -0.002124 0.000000 0.000000 0.000000
# 2 -0.004081 0.017830 -0.004663 0.000000 0.000000 0.000000
# 3 -0.002124 -0.004663 0.009431 0.000000 0.000000 0.000000
# 4 0.000000 0.000000 0.000000 0.082076 0.000000 0.000000
# 5 0.000000 0.000000 0.000000 0.000000 0.031786 0.000000
# 6 0.000000 0.000000 0.000000 0.000000 0.000000 0.023632
#
#
# Mechanical properties :
#
#
# Convention : Reuss Voigt Hill
#
# Bulk Modulus (GPa) = 60.48616 64.94129 62.71373
# Shear Modulus (GPa) = 24.62972 30.59684 27.61328
#
# Velocity S-wave (km/s) = 3.42371 3.81598 3.62516
# Velocity P-wave (km/s) = 6.66452 7.09384 6.88253
#
# Compressibility (1/GPa) = 0.01653271
#
# Stress axis : x y z
#
# Youngs Moduli (GPa) = 90.85811 56.08464 106.02875
#
# Poissons Ratio (x) = 0.22887 0.22518
# Poissons Ratio (y) = 0.37077 0.49442
# Poissons Ratio (z) = 0.19296 0.26153
#
# Static dielectric constant tensor:
#      x y z
#    x 3.607700 0.000000 0.000000 
#    y 0.000000 3.650470 0.000000 
#    z 0.000000 0.000000 3.660660 
# 
# 
# High freq. dielectric constant tensor:
#      x y z
#    x 1.815130 0.000000 0.000000 
#    y 0.000000 1.809560 0.000000 
#    z 0.000000 0.000000 1.809020 
# 
# From -- ./inp_files/15891.got.cif
#   From: 2010.03.12/outbox.cif.g09.slc.cpg/sg60_8_cif.got.tgz:15891.got - 2010.04.10 18:46:24.
