data_PCOD8247271
_publ_section_title
;
Structure prediction by ZEFSAII (Michael W. Deem and Ramdas Pophale) SiO2 
 PCOD8247271
Probable space group: P B C N
;
_chemical_formula_sum "Si O2"
_cell_formula_units_Z 64
_cell_length_a 21.088599
_cell_length_b 18.191623
_cell_length_c 8.248992
_cell_angle_alpha 90.000000
_cell_angle_beta 90.000000
_cell_angle_gamma 90.000000
_cell_volume 3164.608997
_symmetry_space_group_name_H-M "P B C N"
_symmetry_group_IT_number 60
_symmetry_cell_setting 'orthorhombic'
loop_
_space_group_symop_operation_xyz
x,y,z
1/2-x,1/2-y,1/2+z
1/2+x,1/2-y,-z
-x,y,1/2-z
-x,-y,-z
1/2+x,1/2+y,1/2-z
1/2-x,1/2+y,z
x,-y,1/2+z
loop_
_atom_site_type_symbol
_atom_site_label
_atom_site_fract_x
_atom_site_fract_y
_atom_site_fract_z
Si Si1 0.388760 0.452714 0.335424
Si Si2 0.241783 0.891419 0.939206
Si Si3 0.430291 0.406872 0.678629
Si Si4 0.249201 0.538390 0.778001
Si Si5 0.567835 0.257992 0.688943
Si Si6 0.706235 0.233954 0.262027
Si Si7 0.114329 0.164249 0.597391
Si Si8 0.189219 0.671365 0.885402
O O1 0.427615 0.435252 0.495843
O O2 0.389497 0.539229 0.293567
O O3 0.315477 0.428984 0.348320
O O4 0.417464 0.405978 0.184438
O O5 0.263029 0.940190 0.091516
O O6 0.172384 0.856701 0.973506
O O7 0.289021 0.825487 0.883789
O O8 0.248035 0.950371 0.792548
O O9 0.500000 0.410864 0.750000
O O10 0.406619 0.322279 0.689287
O O11 0.194762 0.582499 0.876852
O O12 0.500000 0.226648 0.750000
O O13 0.560193 0.297714 0.512418
O O14 0.617867 0.192471 0.668350
O O15 0.639910 0.279210 0.263430
O O16 0.763396 0.292849 0.247894
O O17 0.710365 0.195807 0.437022
#
# Coordination Sequence:
#
# PCOD8247271 Si02
#       8
#     8   8   8   8   8   8   8   8
#     4  11  21  34  55  78 115 153 197 251 292 346
#     4  11  20  35  54  87 127 151 192 242 301 374
#     4  11  23  37  54  78 112 164 208 239 287 350
#     4  11  22  34  54  91 118 156 198 241 316 357
#     4  10  22  39  57  80 114 157 202 240 285 354
#     4  11  19  35  56  84 122 153 187 249 302 360
#     4  10  21  37  56  89 118 153 200 247 297 361
#     4  11  21  35  58  85 118 151 196 236 305 354
#
# _framework density 20.223669000000001
#
# number of rings (size 3 to 8) (size 9 to 14) (size 15 to 20)
#    0.000    1.250    5.000    4.125    1.750    2.000 
#    0.000    0.000    0.000    0.000    0.000    7.875 
#    0.000    0.000    0.000    0.000    0.000    0.000 
#
# Total GULP energy -792913.569383 kJ/mol
# GULP energy per Si atom -12389.274522 kJ/mol
# Density = 2.017764 g / cm^3
# Si number density = 20.223669 Si / 1000 Ang^3
#
#
#
# Elastic Constant Matrix: (Units=GPa)
#
#
# Indices 1 2 3 4 5 6 
#
# 1 55.6364 24.5616 29.5154 0.0000 0.0000 0.0000
# 2 24.5616 80.8137 19.9987 0.0000 0.0000 0.0000
# 3 29.5154 19.9987 73.1677 0.0000 0.0000 0.0000
# 4 0.0000 0.0000 0.0000 36.5783 0.0000 0.0000
# 5 0.0000 0.0000 0.0000 0.0000 29.4316 0.0000
# 6 0.0000 0.0000 0.0000 0.0000 0.0000 23.5610
#
#
#
# Elastic Compliance Matrix: (Units=1/GPa)
#
#
# Indices 1 2 3 4 5 6 
#
# 1 0.024926 -0.005456 -0.008563 0.000000 0.000000 0.000000
# 2 -0.005456 0.014466 -0.001753 0.000000 0.000000 0.000000
# 3 -0.008563 -0.001753 0.017601 0.000000 0.000000 0.000000
# 4 0.000000 0.000000 0.000000 0.027339 0.000000 0.000000
# 5 0.000000 0.000000 0.000000 0.000000 0.033977 0.000000
# 6 0.000000 0.000000 0.000000 0.000000 0.000000 0.042443
#
#
# Mechanical properties :
#
#
# Convention : Reuss Voigt Hill
#
# Bulk Modulus (GPa) = 39.29725 39.75214 39.52469
# Shear Modulus (GPa) = 24.90294 26.95032 25.92663
#
# Velocity S-wave (km/s) = 3.51290 3.65446 3.58438
# Velocity P-wave (km/s) = 5.99395 6.12419 6.05942
#
# Compressibility (1/GPa) = 0.02544707
#
# Stress axis : x y z
#
# Youngs Moduli (GPa) = 40.11926 69.12614 56.81558
#
# Poissons Ratio (x) = 0.37718 0.48654
# Poissons Ratio (y) = 0.21891 0.09959
# Poissons Ratio (z) = 0.34356 0.12117
#
# Static dielectric constant tensor:
#      x y z
#    x 3.268580 0.000000 0.000000 
#    y 0.000000 4.045860 0.000000 
#    z 0.000000 0.000000 3.769240 
# 
# 
# High freq. dielectric constant tensor:
#      x y z
#    x 1.737010 0.000000 0.000000 
#    y 0.000000 1.789300 0.000000 
#    z 0.000000 0.000000 1.800000 
# 
# From -- ./inp_files/7629.got.cif
#   From: 2010.03.12/outbox.cif.g09.slc.cpg/sg60_4_cif.got.tgz:7629.got - 2010.04.10 18:46:24.
