data_PCOD8247699
_publ_section_title
;
Structure prediction by ZEFSAII (Michael W. Deem and Ramdas Pophale) SiO2 
 PCOD8247699
Probable space group: P B C N
;
_chemical_formula_sum "Si O2"
_cell_formula_units_Z 40
_cell_length_a 9.594658
_cell_length_b 12.574465
_cell_length_c 15.825813
_cell_angle_alpha 90.000000
_cell_angle_beta 90.000000
_cell_angle_gamma 90.000000
_cell_volume 1909.347800
_symmetry_space_group_name_H-M "P B C N"
_symmetry_group_IT_number 60
_symmetry_cell_setting 'orthorhombic'
loop_
_space_group_symop_operation_xyz
x,y,z
1/2-x,1/2-y,1/2+z
1/2+x,1/2-y,-z
-x,y,1/2-z
-x,-y,-z
1/2+x,1/2+y,1/2-z
1/2-x,1/2+y,z
x,-y,1/2+z
loop_
_atom_site_type_symbol
_atom_site_label
_atom_site_fract_x
_atom_site_fract_y
_atom_site_fract_z
Si Si1 0.062588 0.225523 0.158604
Si Si2 0.284761 0.466269 0.449907
Si Si3 0.661036 0.840979 0.909533
Si Si4 0.947663 0.138694 0.985231
Si Si5 0.483324 0.967945 0.345202
O O1 0.225751 0.190283 0.162085
O O2 0.000000 0.194349 0.250000
O O3 0.989510 0.163912 0.082244
O O4 0.046483 0.351227 0.141223
O O5 0.238319 0.363779 0.502962
O O6 0.446567 0.436345 0.430648
O O7 0.298570 0.576498 0.504084
O O8 0.180332 0.476040 0.370735
O O9 0.570675 0.946464 0.896876
O O10 0.562750 0.740841 0.925732
O O11 0.500000 0.005022 0.250000
#
# Coordination Sequence:
#
# PCOD8247699 Si02
#       5
#     8   8   8   8   8
#     4  10  23  41  61  90 131 167 207 268 325 373
#     4  10  22  39  65  93 125 162 220 258 316 379
#     4  11  22  39  66  92 121 170 215 262 313 384
#     4  10  22  39  66  95 123 169 212 268 310 385
#     4  11  24  40  63  93 127 170 209 271 318 385
#
# _framework density 20.949563000000001
#
# number of rings (size 3 to 8) (size 9 to 14) (size 15 to 20)
#    0.000    1.600    2.000    1.800    8.400    0.000 
#    3.600    0.000    0.000    0.000    0.000    0.000 
#    0.000    0.000    0.000    0.000    0.000    0.000 
#
# Total GULP energy -495569.591896 kJ/mol
# GULP energy per Si atom -12389.239797 kJ/mol
# Density = 2.090188 g / cm^3
# Si number density = 20.949563 Si / 1000 Ang^3
#
#
#
# Elastic Constant Matrix: (Units=GPa)
#
#
# Indices 1 2 3 4 5 6 
#
# 1 119.5191 40.2694 59.8256 0.0000 0.0000 0.0000
# 2 40.2694 100.3636 23.0197 0.0000 0.0000 0.0000
# 3 59.8256 23.0197 88.6306 0.0000 0.0000 0.0000
# 4 0.0000 0.0000 0.0000 22.5599 0.0000 0.0000
# 5 0.0000 0.0000 0.0000 0.0000 39.7225 0.0000
# 6 0.0000 0.0000 0.0000 0.0000 0.0000 35.2878
#
#
#
# Elastic Compliance Matrix: (Units=1/GPa)
#
#
# Indices 1 2 3 4 5 6 
#
# 1 0.013763 -0.003606 -0.008354 0.000000 0.000000 0.000000
# 2 -0.003606 0.011540 -0.000563 0.000000 0.000000 0.000000
# 3 -0.008354 -0.000563 0.017068 0.000000 0.000000 0.000000
# 4 0.000000 0.000000 0.000000 0.044326 0.000000 0.000000
# 5 0.000000 0.000000 0.000000 0.000000 0.025175 0.000000
# 6 0.000000 0.000000 0.000000 0.000000 0.000000 0.028338
#
#
# Mechanical properties :
#
#
# Convention : Reuss Voigt Hill
#
# Bulk Modulus (GPa) = 57.71950 61.63807 59.67878
# Shear Modulus (GPa) = 29.23444 31.87395 30.55419
#
# Velocity S-wave (km/s) = 3.73965 3.90482 3.82313
# Velocity P-wave (km/s) = 6.80133 7.05806 6.93088
#
# Compressibility (1/GPa) = 0.01732517
#
# Stress axis : x y z
#
# Youngs Moduli (GPa) = 72.65670 86.65603 58.59029
#
# Poissons Ratio (x) = 0.31251 0.48944
# Poissons Ratio (y) = 0.26202 0.03298
# Poissons Ratio (z) = 0.60694 0.04878
#
# Static dielectric constant tensor:
#      x y z
#    x 4.102370 0.000000 0.000000 
#    y 0.000000 3.913460 0.000000 
#    z 0.000000 0.000000 3.539390 
# 
# 
# High freq. dielectric constant tensor:
#      x y z
#    x 1.824460 0.000000 0.000000 
#    y 0.000000 1.843240 0.000000 
#    z 0.000000 0.000000 1.788190 
# 
# From -- ./inp_files/19005.got.cif
#   From: 2010.03.12/outbox.cif.g09.slc.cpg/sg60_10_cif.got.tgz:19005.got - 2010.04.10 18:46:24.
