data_PCOD8247755
_publ_section_title
;
Structure prediction by ZEFSAII (Michael W. Deem and Ramdas Pophale) SiO2 
 PCOD8247755
Probable space group: P B C N
;
_chemical_formula_sum "Si O2"
_cell_formula_units_Z 32
_cell_length_a 8.726471
_cell_length_b 18.580696
_cell_length_c 7.890199
_cell_angle_alpha 90.000000
_cell_angle_beta 90.000000
_cell_angle_gamma 90.000000
_cell_volume 1279.347676
_symmetry_space_group_name_H-M "P B C N"
_symmetry_group_IT_number 60
_symmetry_cell_setting 'orthorhombic'
loop_
_space_group_symop_operation_xyz
x,y,z
1/2-x,1/2-y,1/2+z
1/2+x,1/2-y,-z
-x,y,1/2-z
-x,-y,-z
1/2+x,1/2+y,1/2-z
1/2-x,1/2+y,z
x,-y,1/2+z
loop_
_atom_site_type_symbol
_atom_site_label
_atom_site_fract_x
_atom_site_fract_y
_atom_site_fract_z
Si Si1 0.655894 0.764999 0.171210
Si Si2 0.826067 0.410236 0.309301
Si Si3 0.338930 0.852743 0.677129
Si Si4 0.677157 0.519554 0.505816
O O1 0.500000 0.733596 0.250000
O O2 0.714059 0.825979 0.304979
O O3 0.771013 0.697724 0.173569
O O4 0.635297 0.802656 0.989176
O O5 0.785659 0.447653 0.488356
O O6 0.000000 0.422889 0.250000
O O7 0.705479 0.451621 0.191746
O O8 0.500000 0.881813 0.750000
O O9 0.229019 0.919586 0.631372
O O10 0.500000 0.500000 0.500000
#
# Coordination Sequence:
#
# PCOD8247755 Si02
#       4
#     8   8   8   8
#     4  10  23  41  64  96 132 175 225 281 344 413
#     4  10  22  41  63  91 131 175 222 276 340 408
#     4  11  24  43  67  98 136 180 230 286 351 420
#     4  11  24  41  64  97 132 176 229 285 343 407
#
# _framework density 25.012747000000001
#
# number of rings (size 3 to 8) (size 9 to 14) (size 15 to 20)
#    0.000    1.500    0.000    3.750    0.000   14.000 
#    0.000    0.000    0.000    0.000    0.000    0.000 
#    0.000    0.000    0.000    0.000    0.000    0.000 
#
# Total GULP energy -396615.795978 kJ/mol
# GULP energy per Si atom -12394.243624 kJ/mol
# Density = 2.495582 g / cm^3
# Si number density = 25.012747 Si / 1000 Ang^3
#
#
#
# Elastic Constant Matrix: (Units=GPa)
#
#
# Indices 1 2 3 4 5 6 
#
# 1 156.1913 59.6849 11.7321 0.0000 0.0000 0.0000
# 2 59.6849 117.4613 3.2131 0.0000 0.0000 0.0000
# 3 11.7321 3.2131 42.0300 0.0000 0.0000 0.0000
# 4 0.0000 0.0000 0.0000 37.4244 0.0000 0.0000
# 5 0.0000 0.0000 0.0000 0.0000 42.5371 0.0000
# 6 0.0000 0.0000 0.0000 0.0000 0.0000 45.7990
#
#
#
# Elastic Compliance Matrix: (Units=1/GPa)
#
#
# Indices 1 2 3 4 5 6 
#
# 1 0.008102 -0.004063 -0.001951 0.000000 0.000000 0.000000
# 2 -0.004063 0.010569 0.000326 0.000000 0.000000 0.000000
# 3 -0.001951 0.000326 0.024312 0.000000 0.000000 0.000000
# 4 0.000000 0.000000 0.000000 0.026721 0.000000 0.000000
# 5 0.000000 0.000000 0.000000 0.000000 0.023509 0.000000
# 6 0.000000 0.000000 0.000000 0.000000 0.000000 0.021835
#
#
# Mechanical properties :
#
#
# Convention : Reuss Voigt Hill
#
# Bulk Modulus (GPa) = 31.63840 51.66028 41.64934
# Shear Modulus (GPa) = 36.50746 41.22228 38.86487
#
# Velocity S-wave (km/s) = 3.82456 4.06402 3.94611
# Velocity P-wave (km/s) = 5.67268 6.53606 6.11962
#
# Compressibility (1/GPa) = 0.03160716
#
# Stress axis : x y z
#
# Youngs Moduli (GPa) = 123.43209 94.61490 41.13176
#
# Poissons Ratio (x) = 0.38445 0.08024
# Poissons Ratio (y) = 0.50154 -0.01342
# Poissons Ratio (z) = 0.24079 -0.03086
#
# Static dielectric constant tensor:
#      x y z
#    x 4.352060 0.000000 0.000000 
#    y 0.000000 4.822420 0.000000 
#    z 0.000000 0.000000 4.760980 
# 
# 
# High freq. dielectric constant tensor:
#      x y z
#    x 1.987980 0.000000 0.000000 
#    y 0.000000 2.011300 0.000000 
#    z 0.000000 0.000000 2.004700 
# 
# From -- ./inp_files/3595.got.cif
#   From: 2010.03.12/outbox.cif.g09.slc.cpg/sg60_2_cif.got.tgz:3595.got - 2010.04.10 18:46:24.
