data_PCOD8247451
_publ_section_title
;
Structure prediction by ZEFSAII (Michael W. Deem and Ramdas Pophale) SiO2 
 PCOD8247451
Probable space group: P B C N
;
_chemical_formula_sum "Si O2"
_cell_formula_units_Z 64
_cell_length_a 9.869588
_cell_length_b 14.708289
_cell_length_c 22.112553
_cell_angle_alpha 90.000000
_cell_angle_beta 90.000000
_cell_angle_gamma 90.000000
_cell_volume 3209.963286
_symmetry_space_group_name_H-M "P B C N"
_symmetry_group_IT_number 60
_symmetry_cell_setting 'orthorhombic'
loop_
_space_group_symop_operation_xyz
x,y,z
1/2-x,1/2-y,1/2+z
1/2+x,1/2-y,-z
-x,y,1/2-z
-x,-y,-z
1/2+x,1/2+y,1/2-z
1/2-x,1/2+y,z
x,-y,1/2+z
loop_
_atom_site_type_symbol
_atom_site_label
_atom_site_fract_x
_atom_site_fract_y
_atom_site_fract_z
Si Si1 0.646479 0.544853 0.928856
Si Si2 0.949933 0.468429 0.436573
Si Si3 0.670752 0.038977 0.147001
Si Si4 0.778099 0.350818 0.201730
Si Si5 0.445483 0.777400 0.815387
Si Si6 0.087466 0.093900 0.436719
Si Si7 0.496403 0.779666 0.116739
Si Si8 0.289555 0.297710 0.160834
O O1 0.539839 0.465510 0.914631
O O2 0.655840 0.613365 0.873082
O O3 0.794412 0.501409 0.934311
O O4 0.603951 0.594765 0.991078
O O5 0.026582 0.516816 0.381956
O O6 0.979277 0.360975 0.431264
O O7 0.000000 0.500000 0.500000
O O8 0.641187 0.130100 0.184708
O O9 0.778684 0.053318 0.093973
O O10 0.722472 0.959812 0.191929
O O11 0.655480 0.304028 0.163697
O O12 0.919406 0.310394 0.176169
O O13 0.752962 0.327133 0.271395
O O14 0.500000 0.753455 0.750000
O O15 0.588411 0.774817 0.851193
O O16 0.070150 0.197225 0.416169
O O17 0.344361 0.750848 0.134518
#
# Coordination Sequence:
#
# PCOD8247451 Si02
#       8
#     8   8   8   8   8   8   8   8
#     4  10  23  41  62  89 129 162 206 261 307 378
#     4  10  21  40  59  90 120 159 204 257 307 371
#     4  11  22  38  68  90 124 162 207 260 322 368
#     4  10  21  42  64  91 126 160 204 264 315 375
#     4  10  22  39  63  93 121 157 210 254 307 379
#     4  11  22  42  60  93 123 164 210 251 313 378
#     4  10  22  39  63  88 123 166 203 255 317 365
#     4  10  22  42  61  91 127 161 204 259 311 370
#
# _framework density 19.937923999999999
#
# number of rings (size 3 to 8) (size 9 to 14) (size 15 to 20)
#    0.000    1.750    2.500    1.125    1.750    4.000 
#    4.500    0.000    0.000    0.000    0.000    0.000 
#    0.000    0.000    0.000    0.000    0.000    0.000 
#
# Total GULP energy -793123.741780 kJ/mol
# GULP energy per Si atom -12392.558465 kJ/mol
# Density = 1.989254 g / cm^3
# Si number density = 19.937924 Si / 1000 Ang^3
#
#
#
# Elastic Constant Matrix: (Units=GPa)
#
#
# Indices 1 2 3 4 5 6 
#
# 1 133.6097 56.0348 21.1670 0.0000 0.0000 0.0000
# 2 56.0348 101.4154 25.8414 0.0000 0.0000 0.0000
# 3 21.1670 25.8414 57.9382 0.0000 0.0000 0.0000
# 4 0.0000 0.0000 0.0000 23.4937 0.0000 0.0000
# 5 0.0000 0.0000 0.0000 0.0000 30.8529 0.0000
# 6 0.0000 0.0000 0.0000 0.0000 0.0000 36.7862
#
#
#
# Elastic Compliance Matrix: (Units=1/GPa)
#
#
# Indices 1 2 3 4 5 6 
#
# 1 0.009830 -0.005096 -0.001319 0.000000 0.000000 0.000000
# 2 -0.005096 0.013766 -0.004278 0.000000 0.000000 0.000000
# 3 -0.001319 -0.004278 0.019650 0.000000 0.000000 0.000000
# 4 0.000000 0.000000 0.000000 0.042565 0.000000 0.000000
# 5 0.000000 0.000000 0.000000 0.000000 0.032412 0.000000
# 6 0.000000 0.000000 0.000000 0.000000 0.000000 0.027184
#
#
# Mechanical properties :
#
#
# Convention : Reuss Voigt Hill
#
# Bulk Modulus (GPa) = 45.74341 55.44997 50.59669
# Shear Modulus (GPa) = 28.72261 30.88790 29.80525
#
# Velocity S-wave (km/s) = 3.79964 3.94026 3.87059
# Velocity P-wave (km/s) = 6.49942 6.96940 6.73851
#
# Compressibility (1/GPa) = 0.02186107
#
# Stress axis : x y z
#
# Youngs Moduli (GPa) = 101.72478 72.64266 50.89124
#
# Poissons Ratio (x) = 0.37016 0.06711
# Poissons Ratio (y) = 0.51835 0.21773
# Poissons Ratio (z) = 0.13415 0.31079
#
# Static dielectric constant tensor:
#      x y z
#    x 3.870460 0.000000 0.000000 
#    y 0.000000 3.610990 0.000000 
#    z 0.000000 0.000000 3.528370 
# 
# 
# High freq. dielectric constant tensor:
#      x y z
#    x 1.805750 0.000000 0.000000 
#    y 0.000000 1.769930 0.000000 
#    z 0.000000 0.000000 1.766700 
# 
# From -- ./inp_files/24104.got.cif
#   From: 2010.03.12/outbox.cif.g09.slc.cpg/sg60_13_cif.got.tgz:24104.got - 2010.04.10 18:46:24.
