data_PCOD8247363
_publ_section_title
;
Structure prediction by ZEFSAII (Michael W. Deem and Ramdas Pophale) SiO2 
 PCOD8247363
Probable space group: P B C N
;
_chemical_formula_sum "Si O2"
_cell_formula_units_Z 48
_cell_length_a 7.916700
_cell_length_b 29.986456
_cell_length_c 8.805592
_cell_angle_alpha 90.000000
_cell_angle_beta 90.000000
_cell_angle_gamma 90.000000
_cell_volume 2090.392737
_symmetry_space_group_name_H-M "P B C N"
_symmetry_group_IT_number 60
_symmetry_cell_setting 'orthorhombic'
loop_
_space_group_symop_operation_xyz
x,y,z
1/2-x,1/2-y,1/2+z
1/2+x,1/2-y,-z
-x,y,1/2-z
-x,-y,-z
1/2+x,1/2+y,1/2-z
1/2-x,1/2+y,z
x,-y,1/2+z
loop_
_atom_site_type_symbol
_atom_site_label
_atom_site_fract_x
_atom_site_fract_y
_atom_site_fract_z
Si Si1 0.659727 0.469157 0.535430
Si Si2 0.199229 0.703758 0.095301
Si Si3 0.672479 0.114471 0.554340
Si Si4 0.198203 0.293326 0.933842
Si Si5 0.672982 0.034071 0.340397
Si Si6 0.775931 0.618192 0.902233
O O1 0.500000 0.500000 0.500000
O O2 0.681720 0.470912 0.715254
O O3 0.823686 0.489596 0.444879
O O4 0.651985 0.417545 0.482734
O O5 0.276986 0.704285 0.264995
O O6 0.999279 0.702287 0.088994
O O7 0.258032 0.658808 0.012818
O O8 0.267192 0.745936 0.006381
O O9 0.731681 0.074137 0.448748
O O10 0.470062 0.112299 0.550484
O O11 0.746734 0.111240 0.723135
O O12 0.276004 0.332169 0.041163
O O13 0.500000 0.041958 0.250000
#
# Coordination Sequence:
#
# PCOD8247363 Si02
#       6
#     8   8   8   8   8   8
#     4  12  26  43  64  96 136 172 217 280 346 400
#     4  10  21  38  64  97 133 170 218 271 326 389
#     4  10  21  38  68  99 123 167 230 280 317 391
#     4  10  21  39  65  96 133 172 217 270 327 391
#     4  12  24  42  69  95 125 172 228 273 328 400
#     4  10  21  40  66  95 130 171 220 277 334 394
#
# _framework density 22.962194
#
# number of rings (size 3 to 8) (size 9 to 14) (size 15 to 20)
#    0.000    1.333    1.667    4.000    4.667    2.000 
#    3.000    0.000    3.667    0.000    0.000    0.000 
#    0.000    0.000    0.000    0.000    0.000    0.000 
#
# Total GULP energy -595116.977985 kJ/mol
# GULP energy per Si atom -12398.270375 kJ/mol
# Density = 2.290993 g / cm^3
# Si number density = 22.962194 Si / 1000 Ang^3
#
#
#
# Elastic Constant Matrix: (Units=GPa)
#
#
# Indices 1 2 3 4 5 6 
#
# 1 31.8077 13.5607 18.1412 0.0000 0.0000 0.0000
# 2 13.5607 157.4959 67.2684 0.0000 0.0000 0.0000
# 3 18.1412 67.2684 183.7466 0.0000 0.0000 0.0000
# 4 0.0000 0.0000 0.0000 56.4149 0.0000 0.0000
# 5 0.0000 0.0000 0.0000 0.0000 28.3828 0.0000
# 6 0.0000 0.0000 0.0000 0.0000 0.0000 38.7176
#
#
#
# Elastic Compliance Matrix: (Units=1/GPa)
#
#
# Indices 1 2 3 4 5 6 
#
# 1 0.033720 -0.001756 -0.002686 0.000000 0.000000 0.000000
# 2 -0.001756 0.007618 -0.002615 0.000000 0.000000 0.000000
# 3 -0.002686 -0.002615 0.006665 0.000000 0.000000 0.000000
# 4 0.000000 0.000000 0.000000 0.017726 0.000000 0.000000
# 5 0.000000 0.000000 0.000000 0.000000 0.035233 0.000000
# 6 0.000000 0.000000 0.000000 0.000000 0.000000 0.025828
#
#
# Mechanical properties :
#
#
# Convention : Reuss Voigt Hill
#
# Bulk Modulus (GPa) = 29.50985 63.44341 46.47663
# Shear Modulus (GPa) = 32.85156 42.97504 37.91330
#
# Velocity S-wave (km/s) = 3.78654 4.33084 4.06780
# Velocity P-wave (km/s) = 5.65655 7.25932 6.50747
#
# Compressibility (1/GPa) = 0.03388699
#
# Stress axis : x y z
#
# Youngs Moduli (GPa) = 29.65626 131.27442 150.03822
#
# Poissons Ratio (x) = 0.23052 0.40304
# Poissons Ratio (y) = 0.05208 0.39241
# Poissons Ratio (z) = 0.07966 0.34333
#
# Static dielectric constant tensor:
#      x y z
#    x 3.755210 0.000000 0.000000 
#    y 0.000000 4.027300 0.000000 
#    z 0.000000 0.000000 4.636800 
# 
# 
# High freq. dielectric constant tensor:
#      x y z
#    x 1.878080 0.000000 0.000000 
#    y 0.000000 1.920230 0.000000 
#    z 0.000000 0.000000 1.930400 
# 
# From -- ./inp_files/4229.got.cif
#   From: 2010.03.12/outbox.cif.g09.slc.cpg/sg60_3_cif.got.tgz:4229.got - 2010.04.10 18:46:24.
