data_PCOD8247941
_publ_section_title
;
Structure prediction by ZEFSAII (Michael W. Deem and Ramdas Pophale) SiO2 
 PCOD8247941
Probable space group: P B C N
;
_chemical_formula_sum "Si O2"
_cell_formula_units_Z 60
_cell_length_a 9.500335
_cell_length_b 11.224397
_cell_length_c 25.276400
_cell_angle_alpha 90.000000
_cell_angle_beta 90.000000
_cell_angle_gamma 90.000000
_cell_volume 2695.362353
_symmetry_space_group_name_H-M "P B C N"
_symmetry_group_IT_number 60
_symmetry_cell_setting 'orthorhombic'
loop_
_space_group_symop_operation_xyz
x,y,z
1/2-x,1/2-y,1/2+z
1/2+x,1/2-y,-z
-x,y,1/2-z
-x,-y,-z
1/2+x,1/2+y,1/2-z
1/2-x,1/2+y,z
x,-y,1/2+z
loop_
_atom_site_type_symbol
_atom_site_label
_atom_site_fract_x
_atom_site_fract_y
_atom_site_fract_z
Si Si1 0.500000 0.744750 0.250000
Si Si2 0.583131 0.391860 0.020819
Si Si3 0.550848 0.909948 0.644522
Si Si4 0.840671 0.626016 0.836376
Si Si5 0.995781 0.766727 0.918020
Si Si6 0.138602 0.923826 0.835370
Si Si7 0.111949 0.469867 0.456008
Si Si8 0.976614 0.146456 0.861995
O O1 0.619179 0.826623 0.277939
O O2 0.423575 0.662995 0.292111
O O3 0.737504 0.447079 0.019712
O O4 0.516471 0.349081 0.075954
O O5 0.500000 0.500000 0.000000
O O6 0.570132 0.290172 0.975923
O O7 0.695080 0.931590 0.676689
O O8 0.491950 0.780228 0.659542
O O9 0.428632 0.004950 0.655561
O O10 0.602555 0.918070 0.583580
O O11 0.870912 0.732612 0.877915
O O12 0.677235 0.596232 0.846482
O O13 0.092012 0.873350 0.893721
O O14 0.089149 0.649052 0.921847
O O15 0.083099 0.058860 0.831391
O O16 0.000000 0.500000 0.500000
#
# Coordination Sequence:
#
# PCOD8247941 Si02
#       8
#     4   8   8   8   8   8   8   8
#     4  10  26  52  82 100 148 182 250 314 384 438
#     4  12  24  38  64 103 147 193 240 290 353 433
#     4  11  25  47  71 102 147 186 245 298 367 436
#     4  10  27  47  74 105 143 193 244 318 370 441
#     4  10  23  40  67  94 146 191 243 295 356 425
#     4  11  24  49  73 104 140 191 240 304 374 437
#     4  11  24  40  64 100 143 197 244 288 348 422
#     4  12  26  45  73 108 151 191 242 303 367 442
#
# _framework density 22.260459000000001
#
# number of rings (size 3 to 8) (size 9 to 14) (size 15 to 20)
#    0.000    1.067    2.667    1.600   14.933    1.067 
#    0.000    0.000    0.000    0.000    0.000    0.000 
#    0.000    0.000    0.000    0.000    0.000    0.000 
#
# Total GULP energy -743673.449425 kJ/mol
# GULP energy per Si atom -12394.557490 kJ/mol
# Density = 2.220979 g / cm^3
# Si number density = 22.260459 Si / 1000 Ang^3
#
#
#
# Elastic Constant Matrix: (Units=GPa)
#
#
# Indices 1 2 3 4 5 6 
#
# 1 172.4443 56.8165 41.6484 0.0000 0.0000 0.0000
# 2 56.8165 131.1560 24.9014 0.0000 0.0000 0.0000
# 3 41.6484 24.9014 98.0879 0.0000 0.0000 0.0000
# 4 0.0000 0.0000 0.0000 26.4100 0.0000 0.0000
# 5 0.0000 0.0000 0.0000 0.0000 24.8881 0.0000
# 6 0.0000 0.0000 0.0000 0.0000 0.0000 33.7161
#
#
#
# Elastic Compliance Matrix: (Units=1/GPa)
#
#
# Indices 1 2 3 4 5 6 
#
# 1 0.007266 -0.002692 -0.002402 0.000000 0.000000 0.000000
# 2 -0.002692 0.009008 -0.001144 0.000000 0.000000 0.000000
# 3 -0.002402 -0.001144 0.011505 0.000000 0.000000 0.000000
# 4 0.000000 0.000000 0.000000 0.037865 0.000000 0.000000
# 5 0.000000 0.000000 0.000000 0.000000 0.040180 0.000000
# 6 0.000000 0.000000 0.000000 0.000000 0.000000 0.029659
#
#
# Mechanical properties :
#
#
# Convention : Reuss Voigt Hill
#
# Bulk Modulus (GPa) = 65.34181 72.04676 68.69429
# Shear Modulus (GPa) = 32.66725 35.55760 34.11243
#
# Velocity S-wave (km/s) = 3.83495 4.00101 3.91886
# Velocity P-wave (km/s) = 7.00187 7.33347 7.16959
#
# Compressibility (1/GPa) = 0.01530414
#
# Stress axis : x y z
#
# Youngs Moduli (GPa) = 137.62997 111.01652 86.91749
#
# Poissons Ratio (x) = 0.29881 0.20876
# Poissons Ratio (y) = 0.37044 0.09943
# Poissons Ratio (z) = 0.33056 0.12699
#
# Static dielectric constant tensor:
#      x y z
#    x 3.944760 0.000000 0.000000 
#    y 0.000000 4.103270 0.000000 
#    z 0.000000 0.000000 3.908170 
# 
# 
# High freq. dielectric constant tensor:
#      x y z
#    x 1.881040 0.000000 0.000000 
#    y 0.000000 1.890520 0.000000 
#    z 0.000000 0.000000 1.868090 
# 
# From -- ./inp_files/25200.got.cif
#   From: 2010.03.12/outbox.cif.g09.slc.cpg/sg60_13_cif.got.tgz:25200.got - 2010.04.10 18:46:24.
