data_PCOD8247748
_publ_section_title
;
Structure prediction by ZEFSAII (Michael W. Deem and Ramdas Pophale) SiO2 
 PCOD8247748
Probable space group: P B C N
;
_chemical_formula_sum "Si O2"
_cell_formula_units_Z 32
_cell_length_a 7.144301
_cell_length_b 18.228403
_cell_length_c 10.662673
_cell_angle_alpha 90.000000
_cell_angle_beta 90.000000
_cell_angle_gamma 90.000000
_cell_volume 1388.591351
_symmetry_space_group_name_H-M "P B C N"
_symmetry_group_IT_number 60
_symmetry_cell_setting 'orthorhombic'
loop_
_space_group_symop_operation_xyz
x,y,z
1/2-x,1/2-y,1/2+z
1/2+x,1/2-y,-z
-x,y,1/2-z
-x,-y,-z
1/2+x,1/2+y,1/2-z
1/2-x,1/2+y,z
x,-y,1/2+z
loop_
_atom_site_type_symbol
_atom_site_label
_atom_site_fract_x
_atom_site_fract_y
_atom_site_fract_z
Si Si1 0.669832 0.109872 0.103697
Si Si2 0.504971 0.671142 0.945562
Si Si3 0.184743 0.314502 0.636669
Si Si4 0.394964 0.521982 0.873226
O O1 0.450793 0.123450 0.072798
O O2 0.729153 0.159911 0.223044
O O3 0.802829 0.134342 0.990942
O O4 0.697940 0.022375 0.128534
O O5 0.375691 0.697106 0.061219
O O6 0.561814 0.739816 0.860640
O O7 0.382468 0.610864 0.867429
O O8 0.500000 0.492203 0.750000
O O9 0.500000 0.500000 0.000000
#
# Coordination Sequence:
#
# PCOD8247748 Si02
#       4
#     8   8   8   8
#     4  10  22  41  62  90 132 176 216 271 338 398
#     4  11  22  39  64  95 131 168 224 271 333 394
#     4  11  22  38  67  94 129 170 219 277 337 392
#     4  10  22  41  67  95 130 177 220 273 334 399
#
# _framework density 23.044937000000001
#
# number of rings (size 3 to 8) (size 9 to 14) (size 15 to 20)
#    0.000    1.500    2.500    3.750    3.500    1.000 
#    0.000    2.500    0.000    0.000    0.000    0.000 
#    0.000    0.000    0.000    0.000    0.000    0.000 
#
# Total GULP energy -396451.138378 kJ/mol
# GULP energy per Si atom -12389.098074 kJ/mol
# Density = 2.299249 g / cm^3
# Si number density = 23.044937 Si / 1000 Ang^3
#
#
#
# Elastic Constant Matrix: (Units=GPa)
#
#
# Indices 1 2 3 4 5 6 
#
# 1 50.2767 0.4014 -6.3680 0.0000 0.0000 0.0000
# 2 0.4014 128.1008 4.8839 0.0000 0.0000 0.0000
# 3 -6.3680 4.8839 78.2198 0.0000 0.0000 0.0000
# 4 0.0000 0.0000 0.0000 23.1780 0.0000 0.0000
# 5 0.0000 0.0000 0.0000 0.0000 24.7598 0.0000
# 6 0.0000 0.0000 0.0000 0.0000 0.0000 41.4397
#
#
#
# Elastic Compliance Matrix: (Units=1/GPa)
#
#
# Indices 1 2 3 4 5 6 
#
# 1 0.020099 -0.000126 0.001644 0.000000 0.000000 0.000000
# 2 -0.000126 0.007826 -0.000499 0.000000 0.000000 0.000000
# 3 0.001644 -0.000499 0.012949 0.000000 0.000000 0.000000
# 4 0.000000 0.000000 0.000000 0.043144 0.000000 0.000000
# 5 0.000000 0.000000 0.000000 0.000000 0.040388 0.000000
# 6 0.000000 0.000000 0.000000 0.000000 0.000000 0.024131
#
#
# Mechanical properties :
#
#
# Convention : Reuss Voigt Hill
#
# Bulk Modulus (GPa) = 23.30257 28.27020 25.78638
# Shear Modulus (GPa) = 31.09383 35.05417 33.07400
#
# Velocity S-wave (km/s) = 3.67723 3.90439 3.79251
# Velocity P-wave (km/s) = 5.30689 5.71137 5.51284
#
# Compressibility (1/GPa) = 0.04291372
#
# Stress axis : x y z
#
# Youngs Moduli (GPa) = 49.75327 127.78300 77.22309
#
# Poissons Ratio (x) = 0.01606 -0.12697
# Poissons Ratio (y) = 0.00625 0.03852
# Poissons Ratio (z) = -0.08180 0.06375
#
# Static dielectric constant tensor:
#      x y z
#    x 4.062090 0.000000 0.000000 
#    y 0.000000 4.968590 0.000000 
#    z 0.000000 0.000000 3.907400 
# 
# 
# High freq. dielectric constant tensor:
#      x y z
#    x 1.889290 0.000000 0.000000 
#    y 0.000000 1.922710 0.000000 
#    z 0.000000 0.000000 1.900900 
# 
# From -- ./inp_files/9695.got.cif
#   From: 2010.03.12/outbox.cif.g09.slc.cpg/sg60_5_cif.got.tgz:9695.got - 2010.04.10 18:46:24.
