data_PCOD8247111
_publ_section_title
;
Structure prediction by ZEFSAII (Michael W. Deem and Ramdas Pophale) SiO2 
 PCOD8247111
Probable space group: P B C N
;
_chemical_formula_sum "Si O2"
_cell_formula_units_Z 40
_cell_length_a 13.779553
_cell_length_b 9.120440
_cell_length_c 14.618454
_cell_angle_alpha 90.000000
_cell_angle_beta 90.000000
_cell_angle_gamma 90.000000
_cell_volume 1837.182778
_symmetry_space_group_name_H-M "P B C N"
_symmetry_group_IT_number 60
_symmetry_cell_setting 'orthorhombic'
loop_
_space_group_symop_operation_xyz
x,y,z
1/2-x,1/2-y,1/2+z
1/2+x,1/2-y,-z
-x,y,1/2-z
-x,-y,-z
1/2+x,1/2+y,1/2-z
1/2-x,1/2+y,z
x,-y,1/2+z
loop_
_atom_site_type_symbol
_atom_site_label
_atom_site_fract_x
_atom_site_fract_y
_atom_site_fract_z
Si Si1 0.610957 0.892129 0.831192
Si Si2 0.797322 0.569208 0.971922
Si Si3 0.080080 0.470256 0.363907
Si Si4 0.909875 0.895538 0.412205
Si Si5 0.536031 0.708862 0.427173
O O1 0.609365 0.714105 0.825110
O O2 0.700295 0.944255 0.893017
O O3 0.514668 0.935225 0.890018
O O4 0.614586 0.978878 0.736190
O O5 0.684487 0.609513 0.978740
O O6 0.863558 0.704883 0.941103
O O7 0.831635 0.500901 0.068028
O O8 0.044428 0.300124 0.368585
O O9 0.997278 0.832119 0.472587
O O10 0.937500 0.056862 0.374685
#
# Coordination Sequence:
#
# PCOD8247111 Si02
#       5
#     8   8   8   8   8
#     4  10  20  40  63  91 127 177 222 264 327 396
#     4  11  20  40  66  89 131 179 214 257 335 398
#     4  10  20  40  67  88 124 185 216 257 342 398
#     4  11  21  37  65  97 130 165 218 282 318 378
#     4  10  21  38  64  95 126 163 221 267 329 390
#
# _framework density 21.772468
#
# number of rings (size 3 to 8) (size 9 to 14) (size 15 to 20)
#    0.000    1.600    4.000    2.400    0.000    0.000 
#    3.600    8.000    4.400    0.000    0.000    0.000 
#    0.000    0.000    0.000    0.000    0.000    0.000 
#
# Total GULP energy -495641.706359 kJ/mol
# GULP energy per Si atom -12391.042659 kJ/mol
# Density = 2.172291 g / cm^3
# Si number density = 21.772468 Si / 1000 Ang^3
#
#
#
# Elastic Constant Matrix: (Units=GPa)
#
#
# Indices 1 2 3 4 5 6 
#
# 1 58.9934 21.7466 9.8912 0.0000 0.0000 0.0000
# 2 21.7466 188.3928 61.7459 0.0000 0.0000 0.0000
# 3 9.8912 61.7459 75.7122 0.0000 0.0000 0.0000
# 4 0.0000 0.0000 0.0000 26.5213 0.0000 0.0000
# 5 0.0000 0.0000 0.0000 0.0000 13.4379 0.0000
# 6 0.0000 0.0000 0.0000 0.0000 0.0000 23.9365
#
#
#
# Elastic Compliance Matrix: (Units=1/GPa)
#
#
# Indices 1 2 3 4 5 6 
#
# 1 0.017748 -0.001759 -0.000884 0.000000 0.000000 0.000000
# 2 -0.001759 0.007419 -0.005820 0.000000 0.000000 0.000000
# 3 -0.000884 -0.005820 0.018070 0.000000 0.000000 0.000000
# 4 0.000000 0.000000 0.000000 0.037706 0.000000 0.000000
# 5 0.000000 0.000000 0.000000 0.000000 0.074416 0.000000
# 6 0.000000 0.000000 0.000000 0.000000 0.000000 0.041777
#
#
# Mechanical properties :
#
#
# Convention : Reuss Voigt Hill
#
# Bulk Modulus (GPa) = 38.00894 56.65177 47.33036
# Shear Modulus (GPa) = 22.43836 28.09345 25.26591
#
# Velocity S-wave (km/s) = 3.21375 3.59600 3.41024
# Velocity P-wave (km/s) = 5.59162 6.58164 6.10673
#
# Compressibility (1/GPa) = 0.02630960
#
# Stress axis : x y z
#
# Youngs Moduli (GPa) = 56.34547 134.79360 55.33973
#
# Poissons Ratio (x) = 0.23708 0.04893
# Poissons Ratio (y) = 0.09910 0.32210
# Poissons Ratio (z) = 0.04982 0.78456
#
# Static dielectric constant tensor:
#      x y z
#    x 3.860660 0.000000 0.000000 
#    y 0.000000 4.395640 0.000000 
#    z 0.000000 0.000000 3.406590 
# 
# 
# High freq. dielectric constant tensor:
#      x y z
#    x 1.846660 0.000000 0.000000 
#    y 0.000000 1.874880 0.000000 
#    z 0.000000 0.000000 1.813890 
# 
# From -- ./inp_files/16586.got.cif
#   From: 2010.03.12/outbox.cif.g09.slc.cpg/sg60_9_cif.got.tgz:16586.got - 2010.04.10 18:46:24.
