data_PCOD8247410
_publ_section_title
;
Structure prediction by ZEFSAII (Michael W. Deem and Ramdas Pophale) SiO2 
 PCOD8247410
Probable space group: P B C N
;
_chemical_formula_sum "Si O2"
_cell_formula_units_Z 64
_cell_length_a 17.892957
_cell_length_b 19.034925
_cell_length_c 9.832798
_cell_angle_alpha 90.000000
_cell_angle_beta 90.000000
_cell_angle_gamma 90.000000
_cell_volume 3348.963433
_symmetry_space_group_name_H-M "P B C N"
_symmetry_group_IT_number 60
_symmetry_cell_setting 'orthorhombic'
loop_
_space_group_symop_operation_xyz
x,y,z
1/2-x,1/2-y,1/2+z
1/2+x,1/2-y,-z
-x,y,1/2-z
-x,-y,-z
1/2+x,1/2+y,1/2-z
1/2-x,1/2+y,z
x,-y,1/2+z
loop_
_atom_site_type_symbol
_atom_site_label
_atom_site_fract_x
_atom_site_fract_y
_atom_site_fract_z
Si Si1 0.775602 0.388250 0.673159
Si Si2 0.582940 0.184860 0.253466
Si Si3 0.571442 0.297374 0.022204
Si Si4 0.671025 0.497877 0.253602
Si Si5 0.287908 0.359230 0.103254
Si Si6 0.594967 0.261407 0.521198
Si Si7 0.816991 0.758792 0.784967
Si Si8 0.421767 0.539565 0.995646
O O1 0.863081 0.375890 0.699055
O O2 0.749443 0.460872 0.741653
O O3 0.766175 0.391558 0.510870
O O4 0.727434 0.326853 0.739633
O O5 0.500000 0.152747 0.250000
O O6 0.585503 0.256617 0.163896
O O7 0.606406 0.201662 0.407782
O O8 0.492069 0.277622 0.956461
O O9 0.636796 0.275242 0.920253
O O10 0.570182 0.380145 0.052695
O O11 0.687656 0.418154 0.291100
O O12 0.615837 0.537100 0.357010
O O13 0.631097 0.501907 0.108072
O O14 0.362227 0.330923 0.029315
O O15 0.244337 0.300349 0.187604
O O16 0.628491 0.233687 0.663511
O O17 0.500000 0.500000 0.000000
#
# Coordination Sequence:
#
# PCOD8247410 Si02
#       8
#     8   8   8   8   8   8   8   8
#     4  11  22  40  62  90 122 157 213 260 302 370
#     4  10  21  39  63  90 119 158 198 261 315 360
#     4  11  22  39  62  89 125 167 207 245 309 363
#     4  12  25  41  60  87 124 171 208 247 309 359
#     4  11  22  40  61  92 123 162 205 263 303 363
#     4  10  22  36  59  92 124 156 202 253 299 374
#     4  11  22  36  66  88 121 159 210 260 308 350
#     4  12  26  39  57  89 132 176 202 237 296 377
#
# _framework density 19.110391
#
# number of rings (size 3 to 8) (size 9 to 14) (size 15 to 20)
#    0.000    1.000    5.000    2.250    1.750    4.000 
#    0.000    0.000    0.000    2.250    0.000    0.000 
#    0.000    0.000    0.000    0.000    0.000    0.000 
#
# Total GULP energy -793870.837312 kJ/mol
# GULP energy per Si atom -12404.231833 kJ/mol
# Density = 1.906690 g / cm^3
# Si number density = 19.110391 Si / 1000 Ang^3
#
#
#
# Elastic Constant Matrix: (Units=GPa)
#
#
# Indices 1 2 3 4 5 6 
#
# 1 101.3932 31.6457 20.7432 0.0000 0.0000 0.0000
# 2 31.6457 68.4117 5.8541 0.0000 0.0000 0.0000
# 3 20.7432 5.8541 71.7768 0.0000 0.0000 0.0000
# 4 0.0000 0.0000 0.0000 18.0818 0.0000 0.0000
# 5 0.0000 0.0000 0.0000 0.0000 31.7548 0.0000
# 6 0.0000 0.0000 0.0000 0.0000 0.0000 29.4895
#
#
#
# Elastic Compliance Matrix: (Units=1/GPa)
#
#
# Indices 1 2 3 4 5 6 
#
# 1 0.012167 -0.005365 -0.003079 0.000000 0.000000 0.000000
# 2 -0.005365 0.017085 0.000157 0.000000 0.000000 0.000000
# 3 -0.003079 0.000157 0.014809 0.000000 0.000000 0.000000
# 4 0.000000 0.000000 0.000000 0.055304 0.000000 0.000000
# 5 0.000000 0.000000 0.000000 0.000000 0.031491 0.000000
# 6 0.000000 0.000000 0.000000 0.000000 0.000000 0.033910
#
#
# Mechanical properties :
#
#
# Convention : Reuss Voigt Hill
#
# Bulk Modulus (GPa) = 36.37881 39.78529 38.08205
# Shear Modulus (GPa) = 26.24635 28.08781 27.16708
#
# Velocity S-wave (km/s) = 3.70997 3.83791 3.77448
# Velocity P-wave (km/s) = 6.11795 6.36422 6.24230
#
# Compressibility (1/GPa) = 0.02748853
#
# Stress axis : x y z
#
# Youngs Moduli (GPa) = 82.19117 58.52917 67.52655
#
# Poissons Ratio (x) = 0.31399 0.20789
# Poissons Ratio (y) = 0.44092 -0.01059
# Poissons Ratio (z) = 0.25303 -0.00918
#
# Static dielectric constant tensor:
#      x y z
#    x 3.693910 0.000000 0.000000 
#    y 0.000000 3.263420 0.000000 
#    z 0.000000 0.000000 3.694410 
# 
# 
# High freq. dielectric constant tensor:
#      x y z
#    x 1.749630 0.000000 0.000000 
#    y 0.000000 1.717150 0.000000 
#    z 0.000000 0.000000 1.758500 
# 
# From -- ./inp_files/7010.got.cif
#   From: 2010.03.12/outbox.cif.g09.slc.cpg/sg60_4_cif.got.tgz:7010.got - 2010.04.10 18:46:24.
