data_PCOD8247923
_publ_section_title
;
Structure prediction by ZEFSAII (Michael W. Deem and Ramdas Pophale) SiO2 
 PCOD8247923
Probable space group: P B C N
;
_chemical_formula_sum "Si O2"
_cell_formula_units_Z 64
_cell_length_a 14.504310
_cell_length_b 19.136566
_cell_length_c 10.950204
_cell_angle_alpha 90.000000
_cell_angle_beta 90.000000
_cell_angle_gamma 90.000000
_cell_volume 3039.368030
_symmetry_space_group_name_H-M "P B C N"
_symmetry_group_IT_number 60
_symmetry_cell_setting 'orthorhombic'
loop_
_space_group_symop_operation_xyz
x,y,z
1/2-x,1/2-y,1/2+z
1/2+x,1/2-y,-z
-x,y,1/2-z
-x,-y,-z
1/2+x,1/2+y,1/2-z
1/2-x,1/2+y,z
x,-y,1/2+z
loop_
_atom_site_type_symbol
_atom_site_label
_atom_site_fract_x
_atom_site_fract_y
_atom_site_fract_z
Si Si1 0.370672 0.367360 0.948851
Si Si2 0.950354 0.693630 0.087475
Si Si3 0.712058 0.995274 0.331585
Si Si4 0.324720 0.483894 0.418316
Si Si5 0.812088 0.344625 0.393884
Si Si6 0.371947 0.865708 0.675785
Si Si7 0.433364 0.656040 0.963416
Si Si8 0.824645 0.197820 0.302706
O O1 0.390159 0.448589 0.917685
O O2 0.366838 0.321181 0.827357
O O3 0.276024 0.351484 0.018735
O O4 0.456518 0.349760 0.033986
O O5 0.904016 0.645630 0.187447
O O6 0.922099 0.774128 0.119207
O O7 0.060197 0.676188 0.083535
O O8 0.907804 0.671415 0.960254
O O9 0.764296 0.998873 0.202067
O O10 0.671246 0.917584 0.327491
O O11 0.772530 0.012873 0.451871
O O12 0.627755 0.050231 0.339351
O O13 0.382301 0.411383 0.404949
O O14 0.799982 0.280374 0.300181
O O15 0.267387 0.842280 0.658481
O O16 0.399144 0.673256 0.098815
#
# Coordination Sequence:
#
# PCOD8247923 Si02
#       8
#     8   8   8   8   8   8   8   8
#     4  11  21  41  64  92 139 174 217 280 346 410
#     4  10  23  40  66  93 129 170 231 278 342 393
#     4  11  23  42  70  98 133 178 230 273 342 404
#     4  11  22  42  65 104 135 178 221 273 340 413
#     4  10  23  39  62  98 129 171 232 284 323 406
#     4  11  20  42  66  89 127 179 215 279 339 408
#     4  11  23  39  63 101 130 173 222 279 336 421
#     4  11  21  39  66  91 131 179 217 278 353 398
#
# _framework density 21.057009999999998
#
# number of rings (size 3 to 8) (size 9 to 14) (size 15 to 20)
#    0.000    1.250    3.750    2.250    1.750    0.500 
#    4.500    2.500    5.500    0.000    0.000    0.000 
#    0.000    0.000    0.000    0.000    0.000    0.000 
#
# Total GULP energy -792972.335184 kJ/mol
# GULP energy per Si atom -12390.192737 kJ/mol
# Density = 2.100908 g / cm^3
# Si number density = 21.057010 Si / 1000 Ang^3
#
#
#
# Elastic Constant Matrix: (Units=GPa)
#
#
# Indices 1 2 3 4 5 6 
#
# 1 72.9275 26.7056 16.9353 0.0000 0.0000 0.0000
# 2 26.7056 146.9254 27.4045 0.0000 0.0000 0.0000
# 3 16.9353 27.4045 78.2240 0.0000 0.0000 0.0000
# 4 0.0000 0.0000 0.0000 35.1767 0.0000 0.0000
# 5 0.0000 0.0000 0.0000 0.0000 23.3214 0.0000
# 6 0.0000 0.0000 0.0000 0.0000 0.0000 25.3726
#
#
#
# Elastic Compliance Matrix: (Units=1/GPa)
#
#
# Indices 1 2 3 4 5 6 
#
# 1 0.015124 -0.002288 -0.002473 0.000000 0.000000 0.000000
# 2 -0.002288 0.007628 -0.002177 0.000000 0.000000 0.000000
# 3 -0.002473 -0.002177 0.014082 0.000000 0.000000 0.000000
# 4 0.000000 0.000000 0.000000 0.028428 0.000000 0.000000
# 5 0.000000 0.000000 0.000000 0.000000 0.042879 0.000000
# 6 0.000000 0.000000 0.000000 0.000000 0.000000 0.039413
#
#
# Mechanical properties :
#
#
# Convention : Reuss Voigt Hill
#
# Bulk Modulus (GPa) = 43.55639 48.90753 46.23196
# Shear Modulus (GPa) = 29.57142 31.90958 30.74050
#
# Velocity S-wave (km/s) = 3.75153 3.89702 3.82497
# Velocity P-wave (km/s) = 6.28452 6.59740 6.44286
#
# Compressibility (1/GPa) = 0.02295874
#
# Stress axis : x y z
#
# Youngs Moduli (GPa) = 66.11882 131.09462 71.01331
#
# Poissons Ratio (x) = 0.29992 0.17561
# Poissons Ratio (y) = 0.15127 0.15460
# Poissons Ratio (z) = 0.16350 0.28540
#
# Static dielectric constant tensor:
#      x y z
#    x 4.070720 0.000000 0.000000 
#    y 0.000000 4.515360 0.000000 
#    z 0.000000 0.000000 3.634820 
# 
# 
# High freq. dielectric constant tensor:
#      x y z
#    x 1.815680 0.000000 0.000000 
#    y 0.000000 1.852490 0.000000 
#    z 0.000000 0.000000 1.813270 
# 
# From -- ./inp_files/12150.got.cif
#   From: 2010.03.12/outbox.cif.g09.slc.cpg/sg60_7_cif.got.tgz:12150.got - 2010.04.10 18:46:24.
