data_PCOD8247436
_publ_section_title
;
Structure prediction by ZEFSAII (Michael W. Deem and Ramdas Pophale) SiO2 
 PCOD8247436
Probable space group: P B C N
;
_chemical_formula_sum "Si O2"
_cell_formula_units_Z 20
_cell_length_a 12.334735
_cell_length_b 12.944931
_cell_length_c 5.186415
_cell_angle_alpha 90.000000
_cell_angle_beta 90.000000
_cell_angle_gamma 90.000000
_cell_volume 828.126778
_symmetry_space_group_name_H-M "P B C N"
_symmetry_group_IT_number 60
_symmetry_cell_setting 'orthorhombic'
loop_
_space_group_symop_operation_xyz
x,y,z
1/2-x,1/2-y,1/2+z
1/2+x,1/2-y,-z
-x,y,1/2-z
-x,-y,-z
1/2+x,1/2+y,1/2-z
1/2-x,1/2+y,z
x,-y,1/2+z
loop_
_atom_site_type_symbol
_atom_site_label
_atom_site_fract_x
_atom_site_fract_y
_atom_site_fract_z
Si Si1 0.500000 0.071447 0.750000
Si Si2 0.318919 0.758540 0.203387
Si Si3 0.119392 0.042800 0.044582
O O1 0.607253 0.141625 0.755024
O O2 0.500000 0.000000 0.500000
O O3 0.269526 0.723955 0.478431
O O4 0.391139 0.663350 0.102316
O O5 0.181810 0.980847 0.275427
O O6 0.000000 0.000000 0.000000
#
# Coordination Sequence:
#
# PCOD8247436 Si02
#       3
#     4   8   8
#     4  12  28  50  72 104 152 198 238 296 368 438
#     4  12  27  46  72 106 142 186 241 295 355 430
#     4  10  21  39  67  98 129 168 221 283 340 397
#
# _framework density 24.150893
#
# number of rings (size 3 to 8) (size 9 to 14) (size 15 to 20)
#    0.000    0.800    0.000    7.200    0.000   16.000 
#    0.000    0.000    0.000    0.000    0.000    0.000 
#    0.000    0.000    0.000    0.000    0.000    0.000 
#
# Total GULP energy -247877.861778 kJ/mol
# GULP energy per Si atom -12393.893089 kJ/mol
# Density = 2.409592 g / cm^3
# Si number density = 24.150893 Si / 1000 Ang^3
#
#
#
# Elastic Constant Matrix: (Units=GPa)
#
#
# Indices 1 2 3 4 5 6 
#
# 1 96.8162 64.4989 46.9737 0.0000 0.0000 0.0000
# 2 64.4989 196.6632 91.6292 0.0000 0.0000 0.0000
# 3 46.9737 91.6292 250.9362 0.0000 0.0000 0.0000
# 4 0.0000 0.0000 0.0000 56.6140 0.0000 0.0000
# 5 0.0000 0.0000 0.0000 0.0000 33.6538 0.0000
# 6 0.0000 0.0000 0.0000 0.0000 0.0000 35.3602
#
#
#
# Elastic Compliance Matrix: (Units=1/GPa)
#
#
# Indices 1 2 3 4 5 6 
#
# 1 0.013461 -0.003905 -0.001094 0.000000 0.000000 0.000000
# 2 -0.003905 0.007260 -0.001920 0.000000 0.000000 0.000000
# 3 -0.001094 -0.001920 0.004891 0.000000 0.000000 0.000000
# 4 0.000000 0.000000 0.000000 0.017663 0.000000 0.000000
# 5 0.000000 0.000000 0.000000 0.000000 0.029714 0.000000
# 6 0.000000 0.000000 0.000000 0.000000 0.000000 0.028280
#
#
# Mechanical properties :
#
#
# Convention : Reuss Voigt Hill
#
# Bulk Modulus (GPa) = 84.93164 105.62434 95.27799
# Shear Modulus (GPa) = 42.00503 47.87985 44.94244
#
# Velocity S-wave (km/s) = 4.17499 4.45739 4.31850
# Velocity P-wave (km/s) = 7.64749 8.38578 8.02513
#
# Compressibility (1/GPa) = 0.01177418
#
# Stress axis : x y z
#
# Youngs Moduli (GPa) = 74.28755 137.73776 204.45960
#
# Poissons Ratio (x) = 0.53789 0.22366
# Poissons Ratio (y) = 0.29010 0.39257
# Poissons Ratio (z) = 0.08126 0.26446
#
# Static dielectric constant tensor:
#      x y z
#    x 3.909840 0.000000 0.000000 
#    y 0.000000 4.533110 0.000000 
#    z 0.000000 0.000000 4.922280 
# 
# 
# High freq. dielectric constant tensor:
#      x y z
#    x 1.932740 0.000000 0.000000 
#    y 0.000000 1.977900 0.000000 
#    z 0.000000 0.000000 2.001710 
# 
# From -- ./inp_files/527.got.cif
#   From: 2010.03.12/outbox.cif.g09.slc.cpg/sg60_1_cif.got.tgz:527.got - 2010.04.10 18:46:24.
