data_PCOD8247490
_publ_section_title
;
Structure prediction by ZEFSAII (Michael W. Deem and Ramdas Pophale) SiO2 
 PCOD8247490
Probable space group: P B C N
;
_chemical_formula_sum "Si O2"
_cell_formula_units_Z 36
_cell_length_a 12.444383
_cell_length_b 5.250369
_cell_length_c 21.237416
_cell_angle_alpha 90.000000
_cell_angle_beta 90.000000
_cell_angle_gamma 90.000000
_cell_volume 1387.601850
_symmetry_space_group_name_H-M "P B C N"
_symmetry_group_IT_number 60
_symmetry_cell_setting 'orthorhombic'
loop_
_space_group_symop_operation_xyz
x,y,z
1/2-x,1/2-y,1/2+z
1/2+x,1/2-y,-z
-x,y,1/2-z
-x,-y,-z
1/2+x,1/2+y,1/2-z
1/2-x,1/2+y,z
x,-y,1/2+z
loop_
_atom_site_type_symbol
_atom_site_label
_atom_site_fract_x
_atom_site_fract_y
_atom_site_fract_z
Si Si1 0.714293 0.181923 0.060983
Si Si2 0.000000 0.909507 0.250000
Si Si3 0.676564 0.729183 0.846242
Si Si4 0.014005 0.250171 0.542185
Si Si5 0.195920 0.876035 0.804177
O O1 0.769556 0.416025 0.021715
O O2 0.594046 0.236479 0.084532
O O3 0.786480 0.118261 0.121609
O O4 0.081126 0.745350 0.206136
O O5 0.069234 0.099562 0.293708
O O6 0.736037 0.454789 0.839877
O O7 0.619417 0.745731 0.914734
O O8 0.000000 0.500000 0.500000
O O9 0.000000 0.000000 0.500000
O O10 0.242638 0.619779 0.772404
#
# Coordination Sequence:
#
# PCOD8247490 Si02
#       5
#     8   4   8   8   8
#     4  10  21  40  68  99 131 175 231 288 346 422
#     4  12  26  48  76 108 150 198 248 302 380 452
#     4  12  29  50  75 112 156 197 250 318 379 445
#     4  12  27  47  75 107 145 196 248 304 373 445
#     4  10  22  40  66 100 135 179 234 289 349 424
#
# _framework density 25.944042
#
# number of rings (size 3 to 8) (size 9 to 14) (size 15 to 20)
#    0.000    0.889    0.000    6.667    0.000   14.222 
#    0.000    0.000    0.000    0.000    0.000    0.000 
#    0.000    0.000    0.000    0.000    0.000    0.000 
#
# Total GULP energy -445983.170343 kJ/mol
# GULP energy per Si atom -12388.421398 kJ/mol
# Density = 2.588499 g / cm^3
# Si number density = 25.944042 Si / 1000 Ang^3
#
#
#
# Elastic Constant Matrix: (Units=GPa)
#
#
# Indices 1 2 3 4 5 6 
#
# 1 170.4011 65.9451 57.7044 0.0000 0.0000 0.0000
# 2 65.9451 240.0154 35.1808 0.0000 0.0000 0.0000
# 3 57.7044 35.1808 103.2576 0.0000 0.0000 0.0000
# 4 0.0000 0.0000 0.0000 30.7102 0.0000 0.0000
# 5 0.0000 0.0000 0.0000 0.0000 52.2128 0.0000
# 6 0.0000 0.0000 0.0000 0.0000 0.0000 45.9936
#
#
#
# Elastic Compliance Matrix: (Units=1/GPa)
#
#
# Indices 1 2 3 4 5 6 
#
# 1 0.007766 -0.001576 -0.003803 0.000000 0.000000 0.000000
# 2 -0.001576 0.004705 -0.000722 0.000000 0.000000 0.000000
# 3 -0.003803 -0.000722 0.012056 0.000000 0.000000 0.000000
# 4 0.000000 0.000000 0.000000 0.032562 0.000000 0.000000
# 5 0.000000 0.000000 0.000000 0.000000 0.019152 0.000000
# 6 0.000000 0.000000 0.000000 0.000000 0.000000 0.021742
#
#
# Mechanical properties :
#
#
# Convention : Reuss Voigt Hill
#
# Bulk Modulus (GPa) = 81.14053 92.37054 86.75553
# Shear Modulus (GPa) = 43.74597 49.43959 46.59278
#
# Velocity S-wave (km/s) = 4.11075 4.37008 4.24240
# Velocity P-wave (km/s) = 7.33990 7.81950 7.58349
#
# Compressibility (1/GPa) = 0.01232430
#
# Stress axis : x y z
#
# Youngs Moduli (GPa) = 128.75889 212.52256 82.94692
#
# Poissons Ratio (x) = 0.33502 0.31546
# Poissons Ratio (y) = 0.20298 0.05990
# Poissons Ratio (z) = 0.48968 0.15348
#
# Static dielectric constant tensor:
#      x y z
#    x 5.261430 0.000000 0.000000 
#    y 0.000000 6.198150 0.000000 
#    z 0.000000 0.000000 4.718280 
# 
# 
# High freq. dielectric constant tensor:
#      x y z
#    x 2.057880 0.000000 0.000000 
#    y 0.000000 2.059720 0.000000 
#    z 0.000000 0.000000 2.031770 
# 
# From -- ./inp_files/24178.got.cif
#   From: 2010.03.12/outbox.cif.g09.slc.cpg/sg60_13_cif.got.tgz:24178.got - 2010.04.10 18:46:24.
