data_PCOD8247745
_publ_section_title
;
Structure prediction by ZEFSAII (Michael W. Deem and Ramdas Pophale) SiO2 
 PCOD8247745
Probable space group: P B C N
;
_chemical_formula_sum "Si O2"
_cell_formula_units_Z 40
_cell_length_a 8.613838
_cell_length_b 22.705158
_cell_length_c 9.374109
_cell_angle_alpha 90.000000
_cell_angle_beta 90.000000
_cell_angle_gamma 90.000000
_cell_volume 1833.374672
_symmetry_space_group_name_H-M "P B C N"
_symmetry_group_IT_number 60
_symmetry_cell_setting 'orthorhombic'
loop_
_space_group_symop_operation_xyz
x,y,z
1/2-x,1/2-y,1/2+z
1/2+x,1/2-y,-z
-x,y,1/2-z
-x,-y,-z
1/2+x,1/2+y,1/2-z
1/2-x,1/2+y,z
x,-y,1/2+z
loop_
_atom_site_type_symbol
_atom_site_label
_atom_site_fract_x
_atom_site_fract_y
_atom_site_fract_z
Si Si1 0.317043 0.440778 0.224386
Si Si2 0.239194 0.200630 0.099990
Si Si3 0.182646 0.808208 0.275627
Si Si4 0.742487 0.047478 0.098051
Si Si5 0.000000 0.121675 0.250000
Si Si6 0.000000 0.374030 0.750000
O O1 0.500000 0.446821 0.250000
O O2 0.260389 0.374317 0.247349
O O3 0.227684 0.482393 0.335822
O O4 0.263430 0.461777 0.069299
O O5 0.227467 0.265306 0.168031
O O6 0.089750 0.162156 0.138264
O O7 0.392235 0.167483 0.154268
O O8 0.236525 0.210909 0.932016
O O9 0.000000 0.801829 0.250000
O O10 0.591848 0.085435 0.137913
O O11 0.893162 0.080253 0.156094
#
# Coordination Sequence:
#
# PCOD8247745 Si02
#       6
#     8   8   8   8   4   4
#     4  11  24  42  71 100 134 179 238 284 339 410
#     4  11  25  45  71 101 142 183 231 285 344 413
#     4  11  26  44  70 102 140 177 233 281 344 408
#     4  11  24  44  68  99 139 180 232 285 342 409
#     4  10  22  40  72  94 134 188 232 282 338 402
#     4  10  26  46  70  98 148 182 228 282 354 406
#
# _framework density 21.817692000000001
#
# number of rings (size 3 to 8) (size 9 to 14) (size 15 to 20)
#    0.000    1.200    2.000    3.000   14.000    0.800 
#    0.000    0.000    0.000    0.000    0.000    0.000 
#    0.000    0.000    0.000    0.000    0.000    0.000 
#
# Total GULP energy -496247.725809 kJ/mol
# GULP energy per Si atom -12406.193145 kJ/mol
# Density = 2.176803 g / cm^3
# Si number density = 21.817692 Si / 1000 Ang^3
#
#
#
# Elastic Constant Matrix: (Units=GPa)
#
#
# Indices 1 2 3 4 5 6 
#
# 1 78.2070 31.4528 33.4898 0.0000 0.0000 0.0000
# 2 31.4528 176.7393 73.4007 0.0000 0.0000 0.0000
# 3 33.4898 73.4007 195.6366 0.0000 0.0000 0.0000
# 4 0.0000 0.0000 0.0000 -7.8732 0.0000 0.0000
# 5 0.0000 0.0000 0.0000 0.0000 28.4669 0.0000
# 6 0.0000 0.0000 0.0000 0.0000 0.0000 -18.7689
#
#
#
# Elastic Compliance Matrix: (Units=1/GPa)
#
#
# Indices 1 2 3 4 5 6 
#
# 1 0.014269 -0.001806 -0.001765 0.000000 0.000000 0.000000
# 2 -0.001806 0.006931 -0.002291 0.000000 0.000000 0.000000
# 3 -0.001765 -0.002291 0.006273 0.000000 0.000000 0.000000
# 4 0.000000 0.000000 0.000000 -0.127014 0.000000 0.000000
# 5 0.000000 0.000000 0.000000 0.000000 0.035129 0.000000
# 6 0.000000 0.000000 0.000000 0.000000 0.000000 -0.053280
#
#
# Mechanical properties :
#
#
# Convention : Reuss Voigt Hill
#
# Bulk Modulus (GPa) = 63.49913 80.80773 72.15343
# Shear Modulus (GPa) = -49.64396 21.18094 -14.23151
#
# Velocity S-wave (km/s) = -4.77529 3.11917 -2.55677
# Velocity P-wave (km/s) = 1.11217 7.07746 4.94234
#
# Compressibility (1/GPa) = 0.01574825
#
# Stress axis : x y z
#
# Youngs Moduli (GPa) = 70.08302 144.27776 159.40604
#
# Poissons Ratio (x) = 0.26061 0.28133
# Poissons Ratio (y) = 0.12659 0.36524
# Poissons Ratio (z) = 0.12369 0.33058
#
# Static dielectric constant tensor:
#      x y z
#    x 4.117130 0.000000 0.000000 
#    y 0.000000 4.290570 0.000000 
#    z 0.000000 0.000000 4.114480 
# 
# 
# High freq. dielectric constant tensor:
#      x y z
#    x 1.847920 0.000000 0.000000 
#    y 0.000000 1.881080 0.000000 
#    z 0.000000 0.000000 1.864400 
# 
# From -- ./inp_files/3890.got.cif
#   From: 2010.03.12/outbox.cif.g09.slc.cpg/sg60_2_cif.got.tgz:3890.got - 2010.04.10 18:46:24.
