data_PCOD8247344
_publ_section_title
;
Structure prediction by ZEFSAII (Michael W. Deem and Ramdas Pophale) SiO2 
 PCOD8247344
Probable space group: P B C N
;
_chemical_formula_sum "Si O2"
_cell_formula_units_Z 32
_cell_length_a 6.781591
_cell_length_b 27.059534
_cell_length_c 6.977475
_cell_angle_alpha 90.000000
_cell_angle_beta 90.000000
_cell_angle_gamma 90.000000
_cell_volume 1280.413357
_symmetry_space_group_name_H-M "P B C N"
_symmetry_group_IT_number 60
_symmetry_cell_setting 'orthorhombic'
loop_
_space_group_symop_operation_xyz
x,y,z
1/2-x,1/2-y,1/2+z
1/2+x,1/2-y,-z
-x,y,1/2-z
-x,-y,-z
1/2+x,1/2+y,1/2-z
1/2-x,1/2+y,z
x,-y,1/2+z
loop_
_atom_site_type_symbol
_atom_site_label
_atom_site_fract_x
_atom_site_fract_y
_atom_site_fract_z
Si Si1 0.000000 0.485608 0.750000
Si Si2 0.000000 0.760163 0.250000
Si Si3 0.732673 0.313019 0.942985
Si Si4 0.276870 0.936821 0.058444
Si Si5 0.500000 0.397194 0.750000
Si Si6 0.000000 0.645284 0.750000
O O1 0.796261 0.517782 0.787963
O O2 0.966764 0.449077 0.572795
O O3 0.804516 0.727635 0.289917
O O4 0.045753 0.794204 0.434645
O O5 0.675326 0.362955 0.830452
O O6 0.920626 0.321265 0.079084
O O7 0.314750 0.886373 0.172489
O O8 0.081409 0.931483 0.926087
#
# Coordination Sequence:
#
# PCOD8247344 Si02
#       6
#     4   4   8   8   4   4
#     4   9  20  41  62  87 124 166 200 243 304 363
#     4  12  24  41  62  88 122 160 204 250 304 359
#     4  12  24  41  63  90 123 161 204 252 303 359
#     4  10  21  38  62  89 123 161 201 246 302 361
#     4  12  24  39  62  94 124 154 202 254 302 357
#     4  11  22  41  64  87 122 164 204 245 300 361
#
# _framework density 24.991931000000001
#
# number of rings (size 3 to 8) (size 9 to 14) (size 15 to 20)
#    0.000    1.000    0.000    7.500    0.000    1.000 
#    0.000    0.000    0.000    0.000    0.000    0.000 
#    0.000    0.000    0.000    0.000    0.000    0.000 
#
# Total GULP energy -396626.172003 kJ/mol
# GULP energy per Si atom -12394.567875 kJ/mol
# Density = 2.493505 g / cm^3
# Si number density = 24.991931 Si / 1000 Ang^3
#
#
#
# Elastic Constant Matrix: (Units=GPa)
#
#
# Indices 1 2 3 4 5 6 
#
# 1 71.0982 13.6460 19.2343 0.0000 0.0000 0.0000
# 2 13.6460 50.9318 10.2954 0.0000 0.0000 0.0000
# 3 19.2343 10.2954 84.8908 0.0000 0.0000 0.0000
# 4 0.0000 0.0000 0.0000 27.9075 0.0000 0.0000
# 5 0.0000 0.0000 0.0000 0.0000 72.2822 0.0000
# 6 0.0000 0.0000 0.0000 0.0000 0.0000 31.2983
#
#
#
# Elastic Compliance Matrix: (Units=1/GPa)
#
#
# Indices 1 2 3 4 5 6 
#
# 1 0.015585 -0.003549 -0.003101 0.000000 0.000000 0.000000
# 2 -0.003549 0.020936 -0.001735 0.000000 0.000000 0.000000
# 3 -0.003101 -0.001735 0.012693 0.000000 0.000000 0.000000
# 4 0.000000 0.000000 0.000000 0.035833 0.000000 0.000000
# 5 0.000000 0.000000 0.000000 0.000000 0.013835 0.000000
# 6 0.000000 0.000000 0.000000 0.000000 0.000000 0.031951
#
#
# Mechanical properties :
#
#
# Convention : Reuss Voigt Hill
#
# Bulk Modulus (GPa) = 30.82207 32.58580 31.70394
# Shear Modulus (GPa) = 31.56258 37.21393 34.38825
#
# Velocity S-wave (km/s) = 3.55760 3.86299 3.71344
# Velocity P-wave (km/s) = 5.40694 5.74141 5.57668
#
# Compressibility (1/GPa) = 0.03244428
#
# Stress axis : x y z
#
# Youngs Moduli (GPa) = 64.16405 47.76543 78.78467
#
# Poissons Ratio (x) = 0.16951 0.24430
# Poissons Ratio (y) = 0.22771 0.13669
# Poissons Ratio (z) = 0.19896 0.08287
#
# Static dielectric constant tensor:
#      x y z
#    x 3.875390 0.000000 0.000000 
#    y 0.000000 4.509050 0.000000 
#    z 0.000000 0.000000 4.753920 
# 
# 
# High freq. dielectric constant tensor:
#      x y z
#    x 1.958550 0.000000 0.000000 
#    y 0.000000 1.998600 0.000000 
#    z 0.000000 0.000000 2.017440 
# 
# From -- ./inp_files/3096.got.cif
#   From: 2010.03.12/outbox.cif.g09.slc.cpg/sg60_2_cif.got.tgz:3096.got - 2010.04.10 18:46:24.
