data_PCOD8247633
_publ_section_title
;
Structure prediction by ZEFSAII (Michael W. Deem and Ramdas Pophale) SiO2 
 PCOD8247633
Probable space group: P B C N
;
_chemical_formula_sum "Si O2"
_cell_formula_units_Z 52
_cell_length_a 13.232793
_cell_length_b 20.539783
_cell_length_c 8.619513
_cell_angle_alpha 90.000000
_cell_angle_beta 90.000000
_cell_angle_gamma 90.000000
_cell_volume 2342.772400
_symmetry_space_group_name_H-M "P B C N"
_symmetry_group_IT_number 60
_symmetry_cell_setting 'orthorhombic'
loop_
_space_group_symop_operation_xyz
x,y,z
1/2-x,1/2-y,1/2+z
1/2+x,1/2-y,-z
-x,y,1/2-z
-x,-y,-z
1/2+x,1/2+y,1/2-z
1/2-x,1/2+y,z
x,-y,1/2+z
loop_
_atom_site_type_symbol
_atom_site_label
_atom_site_fract_x
_atom_site_fract_y
_atom_site_fract_z
Si Si1 0.847187 0.251133 0.467693
Si Si2 0.671104 0.688443 0.778316
Si Si3 0.500000 0.177654 0.750000
Si Si4 0.320670 0.087005 0.801428
Si Si5 0.927882 0.103684 0.015760
Si Si6 0.254298 0.504766 0.549367
Si Si7 0.135420 0.113610 0.150015
O O1 0.858891 0.247121 0.658243
O O2 0.752655 0.293705 0.412069
O O3 0.818754 0.179059 0.417135
O O4 0.949605 0.278225 0.385795
O O5 0.721076 0.631174 0.674475
O O6 0.578537 0.657581 0.876697
O O7 0.418895 0.130702 0.833144
O O8 0.320494 0.057156 0.627861
O O9 0.310648 0.023714 0.908562
O O10 0.896419 0.135222 0.178428
O O11 0.045916 0.086905 0.036434
O O12 0.860796 0.039599 0.989356
O O13 0.281500 0.443499 0.660075
#
# Coordination Sequence:
#
# PCOD8247633 Si02
#       7
#     8   8   4   8   8   8   8
#     4  11  22  41  67  90 135 171 223 272 338 394
#     4  10  22  41  65  94 125 179 218 273 331 409
#     4  10  24  44  66 100 132 182 216 292 320 388
#     4  10  22  41  67  92 132 169 229 264 340 385
#     4  10  22  37  60  93 133 168 217 270 331 394
#     4  11  20  40  63  92 128 179 212 273 325 406
#     4  11  21  37  60  95 129 173 211 271 335 392
#
# _framework density 22.195924999999999
#
# number of rings (size 3 to 8) (size 9 to 14) (size 15 to 20)
#    0.000    1.538    3.077    2.308    0.000    2.462 
#    0.000    0.000    0.000    1.846    0.000    0.000 
#    0.000    0.000    0.000    0.000    0.000    0.000 
#
# Total GULP energy -644263.806682 kJ/mol
# GULP energy per Si atom -12389.688590 kJ/mol
# Density = 2.214541 g / cm^3
# Si number density = 22.195925 Si / 1000 Ang^3
#
#
#
# Elastic Constant Matrix: (Units=GPa)
#
#
# Indices 1 2 3 4 5 6 
#
# 1 57.4590 24.5492 36.3875 0.0000 0.0000 0.0000
# 2 24.5492 92.9084 44.9710 0.0000 0.0000 0.0000
# 3 36.3875 44.9710 107.6348 0.0000 0.0000 0.0000
# 4 0.0000 0.0000 0.0000 49.8757 0.0000 0.0000
# 5 0.0000 0.0000 0.0000 0.0000 17.8041 0.0000
# 6 0.0000 0.0000 0.0000 0.0000 0.0000 31.3574
#
#
#
# Elastic Compliance Matrix: (Units=1/GPa)
#
#
# Indices 1 2 3 4 5 6 
#
# 1 0.022738 -0.002867 -0.006489 0.000000 0.000000 0.000000
# 2 -0.002867 0.013853 -0.004819 0.000000 0.000000 0.000000
# 3 -0.006489 -0.004819 0.013498 0.000000 0.000000 0.000000
# 4 0.000000 0.000000 0.000000 0.020050 0.000000 0.000000
# 5 0.000000 0.000000 0.000000 0.000000 0.056167 0.000000
# 6 0.000000 0.000000 0.000000 0.000000 0.000000 0.031890
#
#
# Mechanical properties :
#
#
# Convention : Reuss Voigt Hill
#
# Bulk Modulus (GPa) = 45.99986 52.20196 49.10091
# Shear Modulus (GPa) = 25.80081 29.94708 27.87394
#
# Velocity S-wave (km/s) = 3.41311 3.67715 3.54759
# Velocity P-wave (km/s) = 6.02511 6.44968 6.24100
#
# Compressibility (1/GPa) = 0.02173919
#
# Stress axis : x y z
#
# Youngs Moduli (GPa) = 43.97917 72.18465 74.08658
#
# Poissons Ratio (x) = 0.20697 0.48075
# Poissons Ratio (y) = 0.12610 0.35701
# Poissons Ratio (z) = 0.28538 0.34784
#
# Static dielectric constant tensor:
#      x y z
#    x 3.662070 0.000000 0.000000 
#    y 0.000000 4.012890 0.000000 
#    z 0.000000 0.000000 4.169140 
# 
# 
# High freq. dielectric constant tensor:
#      x y z
#    x 1.843110 0.000000 0.000000 
#    y 0.000000 1.877810 0.000000 
#    z 0.000000 0.000000 1.878180 
# 
# From -- ./inp_files/6102.got.cif
#   From: 2010.03.12/outbox.cif.g09.slc.cpg/sg60_4_cif.got.tgz:6102.got - 2010.04.10 18:46:24.
