data_PCOD8247554
_publ_section_title
;
Structure prediction by ZEFSAII (Michael W. Deem and Ramdas Pophale) SiO2 
 PCOD8247554
Probable space group: P B C N
;
_chemical_formula_sum "Si O2"
_cell_formula_units_Z 64
_cell_length_a 30.464992
_cell_length_b 9.030216
_cell_length_c 11.987528
_cell_angle_alpha 90.000000
_cell_angle_beta 90.000000
_cell_angle_gamma 90.000000
_cell_volume 3297.834383
_symmetry_space_group_name_H-M "P B C N"
_symmetry_group_IT_number 60
_symmetry_cell_setting 'orthorhombic'
loop_
_space_group_symop_operation_xyz
x,y,z
1/2-x,1/2-y,1/2+z
1/2+x,1/2-y,-z
-x,y,1/2-z
-x,-y,-z
1/2+x,1/2+y,1/2-z
1/2-x,1/2+y,z
x,-y,1/2+z
loop_
_atom_site_type_symbol
_atom_site_label
_atom_site_fract_x
_atom_site_fract_y
_atom_site_fract_z
Si Si1 0.502584 0.413543 0.878824
Si Si2 0.148024 0.057318 0.965591
Si Si3 0.127033 0.460954 0.533951
Si Si4 0.405153 0.744387 0.134659
Si Si5 0.309195 0.842931 0.904511
Si Si6 0.766903 0.917090 0.446310
Si Si7 0.293715 0.855705 0.665262
Si Si8 0.409683 0.293268 0.885057
O O1 0.500000 0.492163 0.750000
O O2 0.546764 0.319873 0.884837
O O3 0.461999 0.302439 0.880871
O O4 0.500000 0.500000 0.000000
O O5 0.130536 0.134640 0.078951
O O6 0.190469 0.955720 0.981825
O O7 0.162730 0.192523 0.885424
O O8 0.110282 0.955291 0.912549
O O9 0.096004 0.590605 0.582409
O O10 0.159322 0.525854 0.442001
O O11 0.156443 0.392149 0.631681
O O12 0.099669 0.328596 0.479069
O O13 0.391936 0.756612 0.264376
O O14 0.287901 0.901959 0.791829
O O15 0.268180 0.817221 0.986392
O O16 0.784416 0.818641 0.344649
O O17 0.743247 0.063138 0.405403
#
# Coordination Sequence:
#
# PCOD8247554 Si02
#       8
#     8   8   8   8   8   8   8   8
#     4  10  21  42  66  98 132 167 208 261 324 385
#     4  11  22  39  60  89 119 156 213 252 307 375
#     4  10  22  42  58  90 123 154 209 249 306 371
#     4  10  23  41  63  92 129 162 203 261 318 380
#     4  10  24  40  56  81 122 159 196 255 308 359
#     4  11  23  39  53  85 115 153 208 249 296 370
#     4  11  23  38  59  80 120 159 200 253 307 359
#     4  11  22  38  69  91 124 166 204 259 316 382
#
# _framework density 19.406676000000001
#
# number of rings (size 3 to 8) (size 9 to 14) (size 15 to 20)
#    0.000    1.500    3.750    0.750    3.500    0.500 
#    0.000    1.250    0.000    0.000    0.000    0.000 
#    0.000    0.000    0.000    0.000    0.000    0.000 
#
# Total GULP energy -792941.792967 kJ/mol
# GULP energy per Si atom -12389.715515 kJ/mol
# Density = 1.936251 g / cm^3
# Si number density = 19.406676 Si / 1000 Ang^3
#
#
#
# Elastic Constant Matrix: (Units=GPa)
#
#
# Indices 1 2 3 4 5 6 
#
# 1 86.4535 26.9419 17.1747 0.0000 0.0000 0.0000
# 2 26.9419 82.1197 29.5794 0.0000 0.0000 0.0000
# 3 17.1747 29.5794 110.0057 0.0000 0.0000 0.0000
# 4 0.0000 0.0000 0.0000 15.2584 0.0000 0.0000
# 5 0.0000 0.0000 0.0000 0.0000 11.6289 0.0000
# 6 0.0000 0.0000 0.0000 0.0000 0.0000 22.2936
#
#
#
# Elastic Compliance Matrix: (Units=1/GPa)
#
#
# Indices 1 2 3 4 5 6 
#
# 1 0.012978 -0.003906 -0.000976 0.000000 0.000000 0.000000
# 2 -0.003906 0.014659 -0.003332 0.000000 0.000000 0.000000
# 3 -0.000976 -0.003332 0.010139 0.000000 0.000000 0.000000
# 4 0.000000 0.000000 0.000000 0.065538 0.000000 0.000000
# 5 0.000000 0.000000 0.000000 0.000000 0.085993 0.000000
# 6 0.000000 0.000000 0.000000 0.000000 0.000000 0.044856
#
#
# Mechanical properties :
#
#
# Convention : Reuss Voigt Hill
#
# Bulk Modulus (GPa) = 46.84308 47.33009 47.08659
# Shear Modulus (GPa) = 19.40193 23.49502 21.44847
#
# Velocity S-wave (km/s) = 3.16532 3.48324 3.32808
# Velocity P-wave (km/s) = 6.12773 6.37329 6.25171
#
# Compressibility (1/GPa) = 0.02134787
#
# Stress axis : x y z
#
# Youngs Moduli (GPa) = 77.05270 68.21719 98.63220
#
# Poissons Ratio (x) = 0.26648 0.09625
# Poissons Ratio (y) = 0.30100 0.32862
# Poissons Ratio (z) = 0.07519 0.22729
#
# Static dielectric constant tensor:
#      x y z
#    x 3.574580 0.000000 0.000000 
#    y 0.000000 3.502310 0.000000 
#    z 0.000000 0.000000 3.823340 
# 
# 
# High freq. dielectric constant tensor:
#      x y z
#    x 1.762380 0.000000 0.000000 
#    y 0.000000 1.750060 0.000000 
#    z 0.000000 0.000000 1.758830 
# 
# From -- ./inp_files/13405.got.cif
#   From: 2010.03.12/outbox.cif.g09.slc.cpg/sg60_7_cif.got.tgz:13405.got - 2010.04.10 18:46:24.
