data_PCOD8247669
_publ_section_title
;
Structure prediction by ZEFSAII (Michael W. Deem and Ramdas Pophale) SiO2 
 PCOD8247669
Probable space group: P B C N
;
_chemical_formula_sum "Si O2"
_cell_formula_units_Z 36
_cell_length_a 5.041130
_cell_length_b 21.025217
_cell_length_c 15.451266
_cell_angle_alpha 90.000000
_cell_angle_beta 90.000000
_cell_angle_gamma 90.000000
_cell_volume 1637.692851
_symmetry_space_group_name_H-M "P B C N"
_symmetry_group_IT_number 60
_symmetry_cell_setting 'orthorhombic'
loop_
_space_group_symop_operation_xyz
x,y,z
1/2-x,1/2-y,1/2+z
1/2+x,1/2-y,-z
-x,y,1/2-z
-x,-y,-z
1/2+x,1/2+y,1/2-z
1/2-x,1/2+y,z
x,-y,1/2+z
loop_
_atom_site_type_symbol
_atom_site_label
_atom_site_fract_x
_atom_site_fract_y
_atom_site_fract_z
Si Si1 0.822802 0.385882 0.173932
Si Si2 0.455326 0.074928 0.495657
Si Si3 0.555566 0.400869 0.888838
Si Si4 0.500000 0.701903 0.250000
Si Si5 0.500000 0.496321 0.250000
Si Si6 0.000000 0.212718 0.750000
O O1 0.729072 0.454859 0.206136
O O2 0.581115 0.334225 0.168565
O O3 0.000000 0.355487 0.250000
O O4 0.998962 0.392813 0.088675
O O5 0.155087 0.085796 0.464975
O O6 0.659359 0.110684 0.432013
O O7 0.500000 0.000000 0.500000
O O8 0.447744 0.341397 0.834314
O O9 0.612855 0.460923 0.827185
O O10 0.244007 0.742562 0.225158
#
# Coordination Sequence:
#
# PCOD8247669 Si02
#       6
#     8   8   8   4   4   4
#     4  11  24  41  70  96 137 176 228 269 344 400
#     4  12  24  41  67 106 145 166 213 278 350 413
#     4  11  25  42  68 102 135 177 218 277 343 403
#     4  11  24  49  72  91 134 181 240 278 330 395
#     4  10  22  38  66 102 134 178 216 266 342 418
#     4  11  24  45  72  91 124 191 236 284 318 403
#
# _framework density 21.982142
#
# number of rings (size 3 to 8) (size 9 to 14) (size 15 to 20)
#    0.000    0.889    3.333    3.333    6.222    1.778 
#    0.000    4.444    0.000    0.000    0.000    0.000 
#    0.000    0.000    0.000    0.000    0.000    0.000 
#
# Total GULP energy -446290.725983 kJ/mol
# GULP energy per Si atom -12396.964611 kJ/mol
# Density = 2.193211 g / cm^3
# Si number density = 21.982142 Si / 1000 Ang^3
#
#
#
# Elastic Constant Matrix: (Units=GPa)
#
#
# Indices 1 2 3 4 5 6 
#
# 1 94.6165 30.8163 26.6444 0.0000 0.0000 0.0000
# 2 30.8163 112.4695 36.5046 0.0000 0.0000 0.0000
# 3 26.6444 36.5046 120.0320 0.0000 0.0000 0.0000
# 4 0.0000 0.0000 0.0000 9.4997 0.0000 0.0000
# 5 0.0000 0.0000 0.0000 0.0000 38.9812 0.0000
# 6 0.0000 0.0000 0.0000 0.0000 0.0000 41.5755
#
#
#
# Elastic Compliance Matrix: (Units=1/GPa)
#
#
# Indices 1 2 3 4 5 6 
#
# 1 0.011960 -0.002680 -0.001840 0.000000 0.000000 0.000000
# 2 -0.002680 0.010466 -0.002588 0.000000 0.000000 0.000000
# 3 -0.001840 -0.002588 0.009527 0.000000 0.000000 0.000000
# 4 0.000000 0.000000 0.000000 0.105266 0.000000 0.000000
# 5 0.000000 0.000000 0.000000 0.000000 0.025653 0.000000
# 6 0.000000 0.000000 0.000000 0.000000 0.000000 0.024053
#
#
# Mechanical properties :
#
#
# Convention : Reuss Voigt Hill
#
# Bulk Modulus (GPa) = 56.37997 57.22761 56.80379
# Shear Modulus (GPa) = 24.14854 33.55480 28.85167
#
# Velocity S-wave (km/s) = 3.31804 3.91123 3.62678
# Velocity P-wave (km/s) = 6.35476 6.81815 6.59053
#
# Compressibility (1/GPa) = 0.01773679
#
# Stress axis : x y z
#
# Youngs Moduli (GPa) = 83.61278 95.55163 104.96954
#
# Poissons Ratio (x) = 0.25606 0.19313
# Poissons Ratio (y) = 0.22407 0.27166
# Poissons Ratio (z) = 0.15383 0.24728
#
# Static dielectric constant tensor:
#      x y z
#    x 4.555460 0.000000 0.000000 
#    y 0.000000 4.088260 0.000000 
#    z 0.000000 0.000000 3.964560 
# 
# 
# High freq. dielectric constant tensor:
#      x y z
#    x 1.876710 0.000000 0.000000 
#    y 0.000000 1.865250 0.000000 
#    z 0.000000 0.000000 1.854490 
# 
# From -- ./inp_files/13756.got.cif
#   From: 2010.03.12/outbox.cif.g09.slc.cpg/sg60_7_cif.got.tgz:13756.got - 2010.04.10 18:46:24.
