data_PCOD8247953
_publ_section_title
;
Structure prediction by ZEFSAII (Michael W. Deem and Ramdas Pophale) SiO2 
 PCOD8247953
Probable space group: P B C N
;
_chemical_formula_sum "Si O2"
_cell_formula_units_Z 48
_cell_length_a 8.924940
_cell_length_b 14.587903
_cell_length_c 17.557915
_cell_angle_alpha 90.000000
_cell_angle_beta 90.000000
_cell_angle_gamma 90.000000
_cell_volume 2285.973093
_symmetry_space_group_name_H-M "P B C N"
_symmetry_group_IT_number 60
_symmetry_cell_setting 'orthorhombic'
loop_
_space_group_symop_operation_xyz
x,y,z
1/2-x,1/2-y,1/2+z
1/2+x,1/2-y,-z
-x,y,1/2-z
-x,-y,-z
1/2+x,1/2+y,1/2-z
1/2-x,1/2+y,z
x,-y,1/2+z
loop_
_atom_site_type_symbol
_atom_site_label
_atom_site_fract_x
_atom_site_fract_y
_atom_site_fract_z
Si Si1 0.325533 0.825874 0.143864
Si Si2 0.867092 0.892073 0.484563
Si Si3 0.822938 0.168066 0.249545
Si Si4 0.638308 0.236039 0.599857
Si Si5 0.819099 0.067500 0.577384
Si Si6 0.822192 0.478221 0.240989
O O1 0.273704 0.730189 0.179572
O O2 0.505399 0.824782 0.136216
O O3 0.262607 0.905825 0.197805
O O4 0.260385 0.838396 0.060320
O O5 0.923230 0.819579 0.548134
O O6 0.001211 0.919275 0.427174
O O7 0.787547 0.982164 0.520866
O O8 0.773914 0.217527 0.170720
O O9 0.731011 0.077510 0.265051
O O10 0.000000 0.147369 0.250000
O O11 0.742953 0.164357 0.553040
O O12 0.753311 0.044368 0.660047
O O13 0.000000 0.475371 0.250000
#
# Coordination Sequence:
#
# PCOD8247953 Si02
#       6
#     8   8   8   8   8   8
#     4  11  24  43  67 101 130 177 229 283 341 406
#     4  11  26  41  69 101 137 182 225 284 355 408
#     4  10  23  41  70  96 130 177 227 276 339 409
#     4  11  21  46  68  94 140 181 221 283 344 413
#     4  11  24  44  67  98 137 180 230 282 343 419
#     4  12  23  44  69  96 134 177 227 284 342 405
#
# _framework density 20.997622
#
# number of rings (size 3 to 8) (size 9 to 14) (size 15 to 20)
#    0.000    1.000    5.000    1.500    2.333    4.667 
#    3.000    0.000    0.000    0.000    0.000    0.000 
#    0.000    0.000    0.000    0.000    0.000    0.000 
#
# Total GULP energy -594999.609748 kJ/mol
# GULP energy per Si atom -12395.825203 kJ/mol
# Density = 2.094983 g / cm^3
# Si number density = 20.997622 Si / 1000 Ang^3
#
#
#
# Elastic Constant Matrix: (Units=GPa)
#
#
# Indices 1 2 3 4 5 6 
#
# 1 49.7505 37.7554 31.3321 0.0000 0.0000 0.0000
# 2 37.7554 131.0249 35.5834 0.0000 0.0000 0.0000
# 3 31.3321 35.5834 65.2896 0.0000 0.0000 0.0000
# 4 0.0000 0.0000 0.0000 33.6397 0.0000 0.0000
# 5 0.0000 0.0000 0.0000 0.0000 37.1317 0.0000
# 6 0.0000 0.0000 0.0000 0.0000 0.0000 40.3167
#
#
#
# Elastic Compliance Matrix: (Units=1/GPa)
#
#
# Indices 1 2 3 4 5 6 
#
# 1 0.032380 -0.005998 -0.012270 0.000000 0.000000 0.000000
# 2 -0.005998 0.010069 -0.002609 0.000000 0.000000 0.000000
# 3 -0.012270 -0.002609 0.022627 0.000000 0.000000 0.000000
# 4 0.000000 0.000000 0.000000 0.029727 0.000000 0.000000
# 5 0.000000 0.000000 0.000000 0.000000 0.026931 0.000000
# 6 0.000000 0.000000 0.000000 0.000000 0.000000 0.024804
#
#
# Mechanical properties :
#
#
# Convention : Reuss Voigt Hill
#
# Bulk Modulus (GPa) = 42.87977 50.60075 46.74026
# Shear Modulus (GPa) = 25.50176 31.64389 28.57282
#
# Velocity S-wave (km/s) = 3.48876 3.88625 3.69286
# Velocity P-wave (km/s) = 6.05757 6.65491 6.36326
#
# Compressibility (1/GPa) = 0.02332102
#
# Stress axis : x y z
#
# Youngs Moduli (GPa) = 30.88371 99.31318 44.19570
#
# Poissons Ratio (x) = 0.59569 0.54227
# Poissons Ratio (y) = 0.18524 0.11532
# Poissons Ratio (z) = 0.37893 0.25914
#
# Static dielectric constant tensor:
#      x y z
#    x 3.551380 0.000000 0.000000 
#    y 0.000000 4.189750 0.000000 
#    z 0.000000 0.000000 3.777630 
# 
# 
# High freq. dielectric constant tensor:
#      x y z
#    x 1.800880 0.000000 0.000000 
#    y 0.000000 1.848470 0.000000 
#    z 0.000000 0.000000 1.822920 
# 
# From -- ./inp_files/19304.got.cif
#   From: 2010.03.12/outbox.cif.g09.slc.cpg/sg60_10_cif.got.tgz:19304.got - 2010.04.10 18:46:24.
