data_PCOD8247725
_publ_section_title
;
Structure prediction by ZEFSAII (Michael W. Deem and Ramdas Pophale) SiO2 
 PCOD8247725
Probable space group: P B C N
;
_chemical_formula_sum "Si O2"
_cell_formula_units_Z 40
_cell_length_a 7.595045
_cell_length_b 28.097072
_cell_length_c 9.558746
_cell_angle_alpha 90.000000
_cell_angle_beta 90.000000
_cell_angle_gamma 90.000000
_cell_volume 2039.822309
_symmetry_space_group_name_H-M "P B C N"
_symmetry_group_IT_number 60
_symmetry_cell_setting 'orthorhombic'
loop_
_space_group_symop_operation_xyz
x,y,z
1/2-x,1/2-y,1/2+z
1/2+x,1/2-y,-z
-x,y,1/2-z
-x,-y,-z
1/2+x,1/2+y,1/2-z
1/2-x,1/2+y,z
x,-y,1/2+z
loop_
_atom_site_type_symbol
_atom_site_label
_atom_site_fract_x
_atom_site_fract_y
_atom_site_fract_z
Si Si1 0.169368 0.389455 0.432265
Si Si2 0.479675 0.452322 0.414632
Si Si3 0.382074 0.220411 0.619708
Si Si4 0.116937 0.699712 0.118514
Si Si5 0.724869 0.879985 0.382365
O O1 0.288984 0.434693 0.471064
O O2 0.194277 0.347063 0.543892
O O3 0.252401 0.375004 0.283393
O O4 0.963988 0.403512 0.421444
O O5 0.500000 0.463786 0.250000
O O6 0.500000 0.500000 0.500000
O O7 0.625450 0.412168 0.454503
O O8 0.500000 0.202324 0.750000
O O9 0.507421 0.232748 0.489102
O O10 0.275032 0.266405 0.669022
O O11 0.267100 0.174953 0.565915
O O12 0.000000 0.683779 0.250000
#
# Coordination Sequence:
#
# PCOD8247725 Si02
#       5
#     8   8   8   8   8
#     4   9  19  40  58  84 118 155 194 236 293 358
#     4  10  22  40  64  90 111 150 199 246 306 357
#     4  11  21  39  58  86 120 162 203 236 296 358
#     4  11  23  35  57  90 121 156 201 245 294 344
#     4   9  18  38  64  80 113 159 199 231 285 365
#
# _framework density 19.609551
#
# number of rings (size 3 to 8) (size 9 to 14) (size 15 to 20)
#    0.000    2.000    4.000    1.200    2.800    1.600 
#    7.200    0.000    0.000    0.000    0.000    0.000 
#    0.000    0.000    0.000    0.000    0.000    0.000 
#
# Total GULP energy -495731.999081 kJ/mol
# GULP energy per Si atom -12393.299977 kJ/mol
# Density = 1.956492 g / cm^3
# Si number density = 19.609551 Si / 1000 Ang^3
#
#
#
# Elastic Constant Matrix: (Units=GPa)
#
#
# Indices 1 2 3 4 5 6 
#
# 1 77.2231 63.1427 38.6444 0.0000 0.0000 0.0000
# 2 63.1427 131.6453 48.5993 0.0000 0.0000 0.0000
# 3 38.6444 48.5993 68.4788 0.0000 0.0000 0.0000
# 4 0.0000 0.0000 0.0000 31.8229 0.0000 0.0000
# 5 0.0000 0.0000 0.0000 0.0000 23.6210 0.0000
# 6 0.0000 0.0000 0.0000 0.0000 0.0000 31.4412
#
#
#
# Elastic Compliance Matrix: (Units=1/GPa)
#
#
# Indices 1 2 3 4 5 6 
#
# 1 0.023649 -0.008694 -0.007176 0.000000 0.000000 0.000000
# 2 -0.008694 0.013489 -0.004667 0.000000 0.000000 0.000000
# 3 -0.007176 -0.004667 0.021965 0.000000 0.000000 0.000000
# 4 0.000000 0.000000 0.000000 0.031424 0.000000 0.000000
# 5 0.000000 0.000000 0.000000 0.000000 0.042335 0.000000
# 6 0.000000 0.000000 0.000000 0.000000 0.000000 0.031805
#
#
# Mechanical properties :
#
#
# Convention : Reuss Voigt Hill
#
# Bulk Modulus (GPa) = 55.46453 64.23555 59.85004
# Shear Modulus (GPa) = 23.61265 25.84107 24.72686
#
# Velocity S-wave (km/s) = 3.47384 3.63406 3.55485
# Velocity P-wave (km/s) = 6.66603 7.10190 6.88741
#
# Compressibility (1/GPa) = 0.01802954
#
# Stress axis : x y z
#
# Youngs Moduli (GPa) = 42.28442 74.13377 45.52795
#
# Poissons Ratio (x) = 0.64453 0.32670
# Poissons Ratio (y) = 0.36763 0.21247
# Poissons Ratio (z) = 0.30342 0.34597
#
# Static dielectric constant tensor:
#      x y z
#    x 3.896320 0.000000 0.000000 
#    y 0.000000 3.389050 0.000000 
#    z 0.000000 0.000000 3.426930 
# 
# 
# High freq. dielectric constant tensor:
#      x y z
#    x 1.766420 0.000000 0.000000 
#    y 0.000000 1.749760 0.000000 
#    z 0.000000 0.000000 1.749090 
# 
# From -- ./inp_files/3856.got.cif
#   From: 2010.03.12/outbox.cif.g09.slc.cpg/sg60_2_cif.got.tgz:3856.got - 2010.04.10 18:46:24.
