data_PCOD8247015
_publ_section_title
;
Structure prediction by ZEFSAII (Michael W. Deem and Ramdas Pophale) SiO2 
 PCOD8247015
Probable space group: P B C N
;
_chemical_formula_sum "Si O2"
_cell_formula_units_Z 60
_cell_length_a 12.159119
_cell_length_b 9.044975
_cell_length_c 25.321099
_cell_angle_alpha 90.000000
_cell_angle_beta 90.000000
_cell_angle_gamma 90.000000
_cell_volume 2784.787308
_symmetry_space_group_name_H-M "P B C N"
_symmetry_group_IT_number 60
_symmetry_cell_setting 'orthorhombic'
loop_
_space_group_symop_operation_xyz
x,y,z
1/2-x,1/2-y,1/2+z
1/2+x,1/2-y,-z
-x,y,1/2-z
-x,-y,-z
1/2+x,1/2+y,1/2-z
1/2-x,1/2+y,z
x,-y,1/2+z
loop_
_atom_site_type_symbol
_atom_site_label
_atom_site_fract_x
_atom_site_fract_y
_atom_site_fract_z
Si Si1 0.578485 0.033226 0.327364
Si Si2 0.203743 0.248140 0.311416
Si Si3 0.128065 0.470431 0.994530
Si Si4 0.000000 0.287172 0.250000
Si Si5 0.200925 0.042145 0.625256
Si Si6 0.349611 0.026311 0.372801
Si Si7 0.380831 0.669140 0.729682
Si Si8 0.267301 0.708117 0.055920
O O1 0.468784 0.089535 0.356519
O O2 0.622389 0.162261 0.289732
O O3 0.559676 0.889130 0.292635
O O4 0.667988 0.989488 0.371149
O O5 0.098042 0.191297 0.276862
O O6 0.256394 0.109795 0.340025
O O7 0.158928 0.355277 0.357169
O O8 0.289581 0.339975 0.275289
O O9 0.167280 0.452216 0.934553
O O10 0.194176 0.608786 0.017509
O O11 0.153977 0.316012 0.023233
O O12 0.000000 0.500000 0.000000
O O13 0.146326 0.053859 0.682639
O O14 0.185363 0.194706 0.593044
O O15 0.155661 0.900363 0.592320
O O16 0.500000 0.622086 0.750000
#
# Coordination Sequence:
#
# PCOD8247015 Si02
#       8
#     8   8   8   4   8   8   8   8
#     4  11  20  39  67  88 128 179 218 260 334 407
#     4  11  23  40  63  98 136 177 220 264 328 411
#     4  11  24  46  75  96 136 178 232 295 372 406
#     4  10  20  38  60  94 132 180 212 260 322 402
#     4  11  22  39  69  96 133 169 235 275 340 410
#     4  11  23  42  68  94 130 174 225 277 338 411
#     4  12  22  38  64  97 140 181 219 270 338 403
#     4  10  23  43  68 101 126 175 230 296 338 420
#
# _framework density 21.545631
#
# number of rings (size 3 to 8) (size 9 to 14) (size 15 to 20)
#    0.000    1.067    4.667    3.200    0.000    0.000 
#    1.200    6.667    0.000    0.000    0.000    0.000 
#    0.000    0.000    0.000    0.000    0.000    0.000 
#
# Total GULP energy -744117.741097 kJ/mol
# GULP energy per Si atom -12401.962352 kJ/mol
# Density = 2.149659 g / cm^3
# Si number density = 21.545631 Si / 1000 Ang^3
#
#
#
# Elastic Constant Matrix: (Units=GPa)
#
#
# Indices 1 2 3 4 5 6 
#
# 1 124.3915 40.8415 46.9859 0.0000 0.0000 0.0000
# 2 40.8415 96.9655 46.6104 0.0000 0.0000 0.0000
# 3 46.9859 46.6104 138.8779 0.0000 0.0000 0.0000
# 4 0.0000 0.0000 0.0000 30.7642 0.0000 0.0000
# 5 0.0000 0.0000 0.0000 0.0000 36.1053 0.0000
# 6 0.0000 0.0000 0.0000 0.0000 0.0000 28.5066
#
#
#
# Elastic Compliance Matrix: (Units=1/GPa)
#
#
# Indices 1 2 3 4 5 6 
#
# 1 0.009924 -0.003060 -0.002331 0.000000 0.000000 0.000000
# 2 -0.003060 0.013240 -0.003409 0.000000 0.000000 0.000000
# 3 -0.002331 -0.003409 0.009133 0.000000 0.000000 0.000000
# 4 0.000000 0.000000 0.000000 0.032505 0.000000 0.000000
# 5 0.000000 0.000000 0.000000 0.000000 0.027697 0.000000
# 6 0.000000 0.000000 0.000000 0.000000 0.000000 0.035080
#
#
# Mechanical properties :
#
#
# Convention : Reuss Voigt Hill
#
# Bulk Modulus (GPa) = 68.02922 69.90118 68.96520
# Shear Modulus (GPa) = 33.31636 34.12836 33.72236
#
# Velocity S-wave (km/s) = 3.93659 3.98427 3.96050
# Velocity P-wave (km/s) = 7.23224 7.32664 7.27959
#
# Compressibility (1/GPa) = 0.01469957
#
# Stress axis : x y z
#
# Youngs Moduli (GPa) = 100.76513 75.52813 109.49222
#
# Poissons Ratio (x) = 0.23109 0.25519
# Poissons Ratio (y) = 0.30831 0.37320
# Poissons Ratio (z) = 0.23485 0.25744
#
# Static dielectric constant tensor:
#      x y z
#    x 3.856810 0.000000 0.000000 
#    y 0.000000 3.817380 0.000000 
#    z 0.000000 0.000000 4.109360 
# 
# 
# High freq. dielectric constant tensor:
#      x y z
#    x 1.834850 0.000000 0.000000 
#    y 0.000000 1.846870 0.000000 
#    z 0.000000 0.000000 1.859330 
# 
# From -- ./inp_files/25349.got.cif
#   From: 2010.03.12/outbox.cif.g09.slc.cpg/sg60_13_cif.got.tgz:25349.got - 2010.04.10 18:46:24.
