data_PCOD8247856
_publ_section_title
;
Structure prediction by ZEFSAII (Michael W. Deem and Ramdas Pophale) SiO2 
 PCOD8247856
Probable space group: P B C N
;
_chemical_formula_sum "Si O2"
_cell_formula_units_Z 56
_cell_length_a 13.657661
_cell_length_b 15.385453
_cell_length_c 12.392658
_cell_angle_alpha 90.000000
_cell_angle_beta 90.000000
_cell_angle_gamma 90.000000
_cell_volume 2604.060568
_symmetry_space_group_name_H-M "P B C N"
_symmetry_group_IT_number 60
_symmetry_cell_setting 'orthorhombic'
loop_
_space_group_symop_operation_xyz
x,y,z
1/2-x,1/2-y,1/2+z
1/2+x,1/2-y,-z
-x,y,1/2-z
-x,-y,-z
1/2+x,1/2+y,1/2-z
1/2-x,1/2+y,z
x,-y,1/2+z
loop_
_atom_site_type_symbol
_atom_site_label
_atom_site_fract_x
_atom_site_fract_y
_atom_site_fract_z
Si Si1 0.564109 0.462276 0.145140
Si Si2 0.416250 0.031633 0.677640
Si Si3 0.044314 0.705605 0.561882
Si Si4 0.123880 0.623216 0.035029
Si Si5 0.732592 0.881624 0.191080
Si Si6 0.572757 0.632218 0.023521
Si Si7 0.241681 0.228169 0.605579
O O1 0.500000 0.478818 0.250000
O O2 0.656778 0.402885 0.166248
O O3 0.502951 0.407884 0.060136
O O4 0.603286 0.555417 0.104113
O O5 0.500000 0.985163 0.750000
O O6 0.457327 0.127700 0.649544
O O7 0.316549 0.038237 0.745334
O O8 0.388381 0.976368 0.571372
O O9 0.156837 0.730208 0.536853
O O10 0.984498 0.666732 0.459298
O O11 0.981841 0.792087 0.593160
O O12 0.196419 0.675226 0.114569
O O13 0.168228 0.635532 0.915214
O O14 0.734695 0.798905 0.271664
O O15 0.668410 0.664841 0.959191
#
# Coordination Sequence:
#
# PCOD8247856 Si02
#       7
#     8   8   8   8   8   8   8
#     4  11  23  41  65  97 136 176 225 279 346 412
#     4  11  24  43  66 103 135 175 233 278 337 424
#     4  10  22  43  68  91 140 174 224 280 339 404
#     4  11  24  45  68 100 138 184 224 288 354 402
#     4  11  24  42  69  96 137 178 226 289 344 416
#     4  10  23  43  66  96 133 179 223 283 342 411
#     4  10  23  44  66 101 130 175 234 281 340 418
#
# _framework density 21.504874999999998
#
# number of rings (size 3 to 8) (size 9 to 14) (size 15 to 20)
#    0.000    1.429    2.857    1.286    4.000    1.714 
#   15.429    0.000    0.000    0.000    0.000    0.000 
#    0.000    0.000    0.000    0.000    0.000    0.000 
#
# Total GULP energy -693942.852267 kJ/mol
# GULP energy per Si atom -12391.836648 kJ/mol
# Density = 2.145593 g / cm^3
# Si number density = 21.504875 Si / 1000 Ang^3
#
#
#
# Elastic Constant Matrix: (Units=GPa)
#
#
# Indices 1 2 3 4 5 6 
#
# 1 116.8046 28.3288 30.0506 0.0000 0.0000 0.0000
# 2 28.3288 96.3477 45.6062 0.0000 0.0000 0.0000
# 3 30.0506 45.6062 93.2059 0.0000 0.0000 0.0000
# 4 0.0000 0.0000 0.0000 36.7482 0.0000 0.0000
# 5 0.0000 0.0000 0.0000 0.0000 32.2666 0.0000
# 6 0.0000 0.0000 0.0000 0.0000 0.0000 21.5152
#
#
#
# Elastic Compliance Matrix: (Units=1/GPa)
#
#
# Indices 1 2 3 4 5 6 
#
# 1 0.009559 -0.001759 -0.002221 0.000000 0.000000 0.000000
# 2 -0.001759 0.013831 -0.006201 0.000000 0.000000 0.000000
# 3 -0.002221 -0.006201 0.014479 0.000000 0.000000 0.000000
# 4 0.000000 0.000000 0.000000 0.027212 0.000000 0.000000
# 5 0.000000 0.000000 0.000000 0.000000 0.030992 0.000000
# 6 0.000000 0.000000 0.000000 0.000000 0.000000 0.046479
#
#
# Mechanical properties :
#
#
# Convention : Reuss Voigt Hill
#
# Bulk Modulus (GPa) = 57.11774 57.14770 57.13272
# Shear Modulus (GPa) = 29.62950 31.59752 30.61351
#
# Velocity S-wave (km/s) = 3.71591 3.83733 3.77710
# Velocity P-wave (km/s) = 6.71034 6.80187 6.75626
#
# Compressibility (1/GPa) = 0.01750770
#
# Stress axis : x y z
#
# Youngs Moduli (GPa) = 104.60841 72.29927 69.06532
#
# Poissons Ratio (x) = 0.12720 0.15341
# Poissons Ratio (y) = 0.18404 0.42824
# Poissons Ratio (z) = 0.23236 0.44830
#
# Static dielectric constant tensor:
#      x y z
#    x 4.180290 0.000000 0.000000 
#    y 0.000000 3.924570 0.000000 
#    z 0.000000 0.000000 3.709840 
# 
# 
# High freq. dielectric constant tensor:
#      x y z
#    x 1.868180 0.000000 0.000000 
#    y 0.000000 1.842740 0.000000 
#    z 0.000000 0.000000 1.823930 
# 
# From -- ./inp_files/11989.got.cif
#   From: 2010.03.12/outbox.cif.g09.slc.cpg/sg60_6_cif.got.tgz:11989.got - 2010.04.10 18:46:24.
