data_PCOD8247291
_publ_section_title
;
Structure prediction by ZEFSAII (Michael W. Deem and Ramdas Pophale) SiO2 
 PCOD8247291
Probable space group: P B C N
;
_chemical_formula_sum "Si O2"
_cell_formula_units_Z 60
_cell_length_a 23.218977
_cell_length_b 5.367536
_cell_length_c 24.466387
_cell_angle_alpha 90.000000
_cell_angle_beta 90.000000
_cell_angle_gamma 90.000000
_cell_volume 3049.213881
_symmetry_space_group_name_H-M "P B C N"
_symmetry_group_IT_number 60
_symmetry_cell_setting 'orthorhombic'
loop_
_space_group_symop_operation_xyz
x,y,z
1/2-x,1/2-y,1/2+z
1/2+x,1/2-y,-z
-x,y,1/2-z
-x,-y,-z
1/2+x,1/2+y,1/2-z
1/2-x,1/2+y,z
x,-y,1/2+z
loop_
_atom_site_type_symbol
_atom_site_label
_atom_site_fract_x
_atom_site_fract_y
_atom_site_fract_z
Si Si1 0.500000 0.513694 0.750000
Si Si2 0.279194 0.073288 0.659516
Si Si3 0.497976 0.847915 0.845719
Si Si4 0.606031 0.983122 0.900309
Si Si5 0.045901 0.025481 0.424756
Si Si6 0.219460 0.379222 0.288730
Si Si7 0.912042 0.282764 0.183716
Si Si8 0.080296 0.041786 0.041052
O O1 0.524783 0.648853 0.803908
O O2 0.558804 0.378240 0.731404
O O3 0.261643 0.347571 0.637111
O O4 0.277384 0.096857 0.724241
O O5 0.341966 0.988149 0.641650
O O6 0.548717 0.034740 0.863995
O O7 0.468744 0.744056 0.900573
O O8 0.446535 0.961750 0.810242
O O9 0.600597 0.709613 0.928072
O O10 0.616669 0.212395 0.942204
O O11 0.088880 0.002674 0.476285
O O12 0.076028 0.189200 0.378060
O O13 0.984914 0.131569 0.446031
O O14 0.242736 0.645208 0.311651
O O15 0.154900 0.326424 0.308077
#
# Coordination Sequence:
#
# PCOD8247291 Si02
#       8
#     4   8   8   8   8   8   8   8
#     4  10  24  34  54  94 126 160 192 250 314 370
#     4  10  22  40  60  84 115 158 204 249 298 357
#     4  10  22  35  56  92 124 162 190 247 312 362
#     4  11  22  37  62  88 120 153 201 250 305 366
#     4   9  21  36  58  88 126 157 197 243 306 373
#     4  10  25  42  62  86 117 167 212 245 290 361
#     4  11  22  39  61  88 126 164 204 252 310 364
#     4  10  21  37  59  92 124 155 197 245 311 372
#
# _framework density 19.677202999999999
#
# number of rings (size 3 to 8) (size 9 to 14) (size 15 to 20)
#    0.000    1.867    1.333    1.200    9.333    3.733 
#    0.000    0.000    0.000    4.800    0.000    0.000 
#    0.000    0.000    0.000    0.000    0.000    0.000 
#
# Total GULP energy -743288.222560 kJ/mol
# GULP energy per Si atom -12388.137043 kJ/mol
# Density = 1.963242 g / cm^3
# Si number density = 19.677203 Si / 1000 Ang^3
#
#
#
# Elastic Constant Matrix: (Units=GPa)
#
#
# Indices 1 2 3 4 5 6 
#
# 1 112.9403 48.7080 28.8231 0.0000 0.0000 0.0000
# 2 48.7080 124.7760 39.2859 0.0000 0.0000 0.0000
# 3 28.8231 39.2859 53.7865 0.0000 0.0000 0.0000
# 4 0.0000 0.0000 0.0000 -4.6045 0.0000 0.0000
# 5 0.0000 0.0000 0.0000 0.0000 24.7861 0.0000
# 6 0.0000 0.0000 0.0000 0.0000 0.0000 23.6642
#
#
#
# Elastic Compliance Matrix: (Units=1/GPa)
#
#
# Indices 1 2 3 4 5 6 
#
# 1 0.011169 -0.003215 -0.003637 0.000000 0.000000 0.000000
# 2 -0.003215 0.011333 -0.006555 0.000000 0.000000 0.000000
# 3 -0.003637 -0.006555 0.025329 0.000000 0.000000 0.000000
# 4 0.000000 0.000000 0.000000 -0.217177 0.000000 0.000000
# 5 0.000000 0.000000 0.000000 0.000000 0.040345 0.000000
# 6 0.000000 0.000000 0.000000 0.000000 0.000000 0.042258
#
#
# Mechanical properties :
#
#
# Convention : Reuss Voigt Hill
#
# Bulk Modulus (GPa) = 47.58032 58.34854 52.96443
# Shear Modulus (GPa) = -94.47671 20.41485 -37.03093
#
# Velocity S-wave (km/s) = -6.93668 3.22450 -4.34282
# Velocity P-wave (km/s) = 6.31853 6.60155 1.35216
#
# Compressibility (1/GPa) = 0.02101709
#
# Stress axis : x y z
#
# Youngs Moduli (GPa) = 89.53435 88.23660 39.48063
#
# Poissons Ratio (x) = 0.28366 0.14359
# Poissons Ratio (y) = 0.28783 0.25880
# Poissons Ratio (z) = 0.32564 0.57839
#
# Static dielectric constant tensor:
#      x y z
#    x 3.351440 0.000000 0.000000 
#    y 0.000000 3.925500 0.000000 
#    z 0.000000 0.000000 3.589330 
# 
# 
# High freq. dielectric constant tensor:
#      x y z
#    x 1.739920 0.000000 0.000000 
#    y 0.000000 1.781820 0.000000 
#    z 0.000000 0.000000 1.757600 
# 
# From -- ./inp_files/24597.got.cif
#   From: 2010.03.12/outbox.cif.g09.slc.cpg/sg60_13_cif.got.tgz:24597.got - 2010.04.10 18:46:24.
