data_PCOD8247449
_publ_section_title
;
Structure prediction by ZEFSAII (Michael W. Deem and Ramdas Pophale) SiO2 
 PCOD8247449
Probable space group: P B C N
;
_chemical_formula_sum "Si O2"
_cell_formula_units_Z 40
_cell_length_a 11.965968
_cell_length_b 30.630631
_cell_length_c 5.227699
_cell_angle_alpha 90.000000
_cell_angle_beta 90.000000
_cell_angle_gamma 90.000000
_cell_volume 1916.083162
_symmetry_space_group_name_H-M "P B C N"
_symmetry_group_IT_number 60
_symmetry_cell_setting 'orthorhombic'
loop_
_space_group_symop_operation_xyz
x,y,z
1/2-x,1/2-y,1/2+z
1/2+x,1/2-y,-z
-x,y,1/2-z
-x,-y,-z
1/2+x,1/2+y,1/2-z
1/2-x,1/2+y,z
x,-y,1/2+z
loop_
_atom_site_type_symbol
_atom_site_label
_atom_site_fract_x
_atom_site_fract_y
_atom_site_fract_z
Si Si1 0.128175 0.972695 0.248747
Si Si2 0.000000 0.212845 0.250000
Si Si3 0.500000 0.137352 0.750000
Si Si4 0.235417 0.612412 0.619551
Si Si5 0.407369 0.215122 0.061005
Si Si6 0.295938 0.336049 0.616474
O O1 0.211640 0.933659 0.189346
O O2 0.000000 0.956110 0.250000
O O3 0.151914 0.991175 0.531604
O O4 0.923310 0.180202 0.414816
O O5 0.095641 0.244393 0.367304
O O6 0.599522 0.108044 0.874182
O O7 0.550636 0.168178 0.534046
O O8 0.279564 0.628223 0.341891
O O9 0.270948 0.646632 0.834495
O O10 0.500000 0.233670 0.250000
O O11 0.285508 0.205413 0.177598
#
# Coordination Sequence:
#
# PCOD8247449 Si02
#       6
#     8   4   4   8   8   8
#     4  10  22  41  66  93 125 164 197 245 317 382
#     4  11  28  36  62  88 124 162 218 266 312 352
#     4   9  20  40  60  92 114 174 202 248 304 370
#     4  11  23  42  66  91 129 157 211 256 308 374
#     4  10  21  40  59  79 122 168 204 251 306 368
#     4  11  26  40  62  93 123 165 211 263 312 361
#
# _framework density 20.875919
#
# number of rings (size 3 to 8) (size 9 to 14) (size 15 to 20)
#    0.000    1.600    2.000    1.200    8.400    0.000 
#    0.000    1.000    0.000    0.000    0.000    0.000 
#    0.000    0.000    0.000    0.000    0.000    0.000 
#
# Total GULP energy -495564.257864 kJ/mol
# GULP energy per Si atom -12389.106447 kJ/mol
# Density = 2.082840 g / cm^3
# Si number density = 20.875919 Si / 1000 Ang^3
#
#
#
# Elastic Constant Matrix: (Units=GPa)
#
#
# Indices 1 2 3 4 5 6 
#
# 1 120.0045 49.7355 2.1196 0.0000 0.0000 0.0000
# 2 49.7355 68.3330 1.6740 0.0000 0.0000 0.0000
# 3 2.1196 1.6740 67.5179 0.0000 0.0000 0.0000
# 4 0.0000 0.0000 0.0000 -16.8667 0.0000 0.0000
# 5 0.0000 0.0000 0.0000 0.0000 28.2742 0.0000
# 6 0.0000 0.0000 0.0000 0.0000 0.0000 23.2150
#
#
#
# Elastic Compliance Matrix: (Units=1/GPa)
#
#
# Indices 1 2 3 4 5 6 
#
# 1 0.011934 -0.008682 -0.000159 0.000000 0.000000 0.000000
# 2 -0.008682 0.020960 -0.000247 0.000000 0.000000 0.000000
# 3 -0.000159 -0.000247 0.014822 0.000000 0.000000 0.000000
# 4 0.000000 0.000000 0.000000 -0.059289 0.000000 0.000000
# 5 0.000000 0.000000 0.000000 0.000000 0.035368 0.000000
# 6 0.000000 0.000000 0.000000 0.000000 0.000000 0.043076
#
#
# Mechanical properties :
#
#
# Convention : Reuss Voigt Hill
#
# Bulk Modulus (GPa) = 33.85440 40.32374 37.08907
# Shear Modulus (GPa) = 52.69012 20.41291 36.55152
#
# Velocity S-wave (km/s) = 5.02936 3.13041 4.18891
# Velocity P-wave (km/s) = 7.06952 5.69419 6.41880
#
# Compressibility (1/GPa) = 0.02953825
#
# Stress axis : x y z
#
# Youngs Moduli (GPa) = 83.79300 47.71089 67.46718
#
# Poissons Ratio (x) = 0.41424 0.01075
# Poissons Ratio (y) = 0.72751 0.01667
# Poissons Ratio (z) = 0.01335 0.01179
#
# Static dielectric constant tensor:
#      x y z
#    x 4.170520 0.000000 0.000000 
#    y 0.000000 3.457080 0.000000 
#    z 0.000000 0.000000 3.867710 
# 
# 
# High freq. dielectric constant tensor:
#      x y z
#    x 1.831420 0.000000 0.000000 
#    y 0.000000 1.792380 0.000000 
#    z 0.000000 0.000000 1.819790 
# 
# From -- ./inp_files/878.got.cif
#   From: 2010.03.12/outbox.cif.g09.slc.cpg/sg60_1_cif.got.tgz:878.got - 2010.04.10 18:46:24.
