data_PCOD8247681
_publ_section_title
;
Structure prediction by ZEFSAII (Michael W. Deem and Ramdas Pophale) SiO2 
 PCOD8247681
Probable space group: P B C N
;
_chemical_formula_sum "Si O2"
_cell_formula_units_Z 36
_cell_length_a 11.474531
_cell_length_b 11.129215
_cell_length_c 13.506396
_cell_angle_alpha 90.000000
_cell_angle_beta 90.000000
_cell_angle_gamma 90.000000
_cell_volume 1724.800839
_symmetry_space_group_name_H-M "P B C N"
_symmetry_group_IT_number 60
_symmetry_cell_setting 'orthorhombic'
loop_
_space_group_symop_operation_xyz
x,y,z
1/2-x,1/2-y,1/2+z
1/2+x,1/2-y,-z
-x,y,1/2-z
-x,-y,-z
1/2+x,1/2+y,1/2-z
1/2-x,1/2+y,z
x,-y,1/2+z
loop_
_atom_site_type_symbol
_atom_site_label
_atom_site_fract_x
_atom_site_fract_y
_atom_site_fract_z
Si Si1 0.664005 0.591721 0.019652
Si Si2 0.319183 0.179238 0.305937
Si Si3 0.500000 0.024681 0.750000
Si Si4 0.322178 0.180483 0.635689
Si Si5 0.926384 0.169188 0.535452
O O1 0.747507 0.579854 0.923489
O O2 0.561695 0.683048 0.989727
O O3 0.720179 0.645845 0.117085
O O4 0.611712 0.466233 0.051849
O O5 0.391212 0.057751 0.282704
O O6 0.255380 0.250050 0.217276
O O7 0.410395 0.266874 0.359026
O O8 0.440994 0.115404 0.671097
O O9 0.351373 0.279202 0.553951
#
# Coordination Sequence:
#
# PCOD8247681 Si02
#       5
#     8   8   4   8   8
#     4  10  22  39  60  86 120 161 202 250 308 368
#     4  11  23  40  62  90 123 157 206 258 310 371
#     4  12  24  38  64  92 120 166 204 250 316 368
#     4  11  23  40  62  90 123 157 206 258 310 371
#     4  10  22  39  60  86 120 161 202 250 308 368
#
# _framework density 20.871976
#
# number of rings (size 3 to 8) (size 9 to 14) (size 15 to 20)
#    0.000    1.333    0.000    5.333    0.000    7.111 
#    0.000    4.444    0.000    0.000    0.000    0.000 
#    0.000    0.000    0.000    0.000    0.000    0.000 
#
# Total GULP energy -446157.276865 kJ/mol
# GULP energy per Si atom -12393.257691 kJ/mol
# Density = 2.082447 g / cm^3
# Si number density = 20.871976 Si / 1000 Ang^3
#
#
#
# Elastic Constant Matrix: (Units=GPa)
#
#
# Indices 1 2 3 4 5 6 
#
# 1 69.6702 4.4411 7.6464 0.0000 0.0000 0.0000
# 2 4.4411 55.0542 11.5758 0.0000 0.0000 0.0000
# 3 7.6464 11.5758 88.5536 0.0000 0.0000 0.0000
# 4 0.0000 0.0000 0.0000 20.8993 0.0000 0.0000
# 5 0.0000 0.0000 0.0000 0.0000 35.8522 0.0000
# 6 0.0000 0.0000 0.0000 0.0000 0.0000 37.5085
#
#
#
# Elastic Compliance Matrix: (Units=1/GPa)
#
#
# Indices 1 2 3 4 5 6 
#
# 1 0.014537 -0.000934 -0.001133 0.000000 0.000000 0.000000
# 2 -0.000934 0.018737 -0.002369 0.000000 0.000000 0.000000
# 3 -0.001133 -0.002369 0.011700 0.000000 0.000000 0.000000
# 4 0.000000 0.000000 0.000000 0.047849 0.000000 0.000000
# 5 0.000000 0.000000 0.000000 0.000000 0.027892 0.000000
# 6 0.000000 0.000000 0.000000 0.000000 0.000000 0.026661
#
#
# Mechanical properties :
#
#
# Convention : Reuss Voigt Hill
#
# Bulk Modulus (GPa) = 27.69911 28.95606 28.32758
# Shear Modulus (GPa) = 29.71191 31.49297 30.60244
#
# Velocity S-wave (km/s) = 3.77706 3.88862 3.83325
# Velocity P-wave (km/s) = 5.68519 5.83654 5.76136
#
# Compressibility (1/GPa) = 0.03610224
#
# Stress axis : x y z
#
# Youngs Moduli (GPa) = 68.78869 53.36933 85.46960
#
# Poissons Ratio (x) = 0.04987 0.09685
# Poissons Ratio (y) = 0.06428 0.20245
# Poissons Ratio (z) = 0.07794 0.12641
#
# Static dielectric constant tensor:
#      x y z
#    x 4.159180 0.000000 0.000000 
#    y 0.000000 3.749930 0.000000 
#    z 0.000000 0.000000 3.812920 
# 
# 
# High freq. dielectric constant tensor:
#      x y z
#    x 1.835810 0.000000 0.000000 
#    y 0.000000 1.822060 0.000000 
#    z 0.000000 0.000000 1.824010 
# 
# From -- ./inp_files/10641.got.cif
#   From: 2010.03.12/outbox.cif.g09.slc.cpg/sg60_6_cif.got.tgz:10641.got - 2010.04.10 18:46:24.
