data_PCOD8247360
_publ_section_title
;
Structure prediction by ZEFSAII (Michael W. Deem and Ramdas Pophale) SiO2 
 PCOD8247360
Probable space group: P B C N
;
_chemical_formula_sum "Si O2"
_cell_formula_units_Z 36
_cell_length_a 5.978206
_cell_length_b 13.796625
_cell_length_c 20.184881
_cell_angle_alpha 90.000000
_cell_angle_beta 90.000000
_cell_angle_gamma 90.000000
_cell_volume 1664.830139
_symmetry_space_group_name_H-M "P B C N"
_symmetry_group_IT_number 60
_symmetry_cell_setting 'orthorhombic'
loop_
_space_group_symop_operation_xyz
x,y,z
1/2-x,1/2-y,1/2+z
1/2+x,1/2-y,-z
-x,y,1/2-z
-x,-y,-z
1/2+x,1/2+y,1/2-z
1/2-x,1/2+y,z
x,-y,1/2+z
loop_
_atom_site_type_symbol
_atom_site_label
_atom_site_fract_x
_atom_site_fract_y
_atom_site_fract_z
Si Si1 0.841662 0.183181 0.908394
Si Si2 0.000000 0.111653 0.250000
Si Si3 0.721159 0.981718 0.862185
Si Si4 0.966542 0.848207 0.955949
Si Si5 0.843296 0.338075 0.647838
O O1 0.648576 0.245371 0.942389
O O2 0.985298 0.248021 0.857046
O O3 0.716780 0.097513 0.868938
O O4 0.000862 0.138854 0.965498
O O5 0.894799 0.043087 0.304852
O O6 0.814316 0.178023 0.212595
O O7 0.478122 0.939319 0.843621
O O8 0.805322 0.934130 0.931116
O O9 0.204238 0.848171 0.919401
#
# Coordination Sequence:
#
# PCOD8247360 Si02
#       5
#     8   4   8   8   8
#     4  11  21  40  65 101 129 170 213 265 330 397
#     4  10  22  46  64  90 128 174 218 274 322 388
#     4  10  23  40  66  91 129 174 217 269 321 389
#     4  10  21  38  63  97 135 166 209 270 327 393
#     4  10  22  42  66  92 135 169 214 276 329 385
#
# _framework density 21.623828
#
# number of rings (size 3 to 8) (size 9 to 14) (size 15 to 20)
#    0.000    1.778    2.222    1.333    0.000    4.444 
#   12.000    0.000    0.000    0.000    0.000    0.000 
#    0.000    0.000    0.000    0.000    0.000    0.000 
#
# Total GULP energy -446479.284502 kJ/mol
# GULP energy per Si atom -12402.202347 kJ/mol
# Density = 2.157461 g / cm^3
# Si number density = 21.623828 Si / 1000 Ang^3
#
#
#
# Elastic Constant Matrix: (Units=GPa)
#
#
# Indices 1 2 3 4 5 6 
#
# 1 106.1312 36.2548 33.2950 0.0000 0.0000 0.0000
# 2 36.2548 103.9046 37.1606 0.0000 0.0000 0.0000
# 3 33.2950 37.1606 97.0911 0.0000 0.0000 0.0000
# 4 0.0000 0.0000 0.0000 20.8101 0.0000 0.0000
# 5 0.0000 0.0000 0.0000 0.0000 35.2187 0.0000
# 6 0.0000 0.0000 0.0000 0.0000 0.0000 21.0466
#
#
#
# Elastic Compliance Matrix: (Units=1/GPa)
#
#
# Indices 1 2 3 4 5 6 
#
# 1 0.011293 -0.002961 -0.002740 0.000000 0.000000 0.000000
# 2 -0.002961 0.011927 -0.003550 0.000000 0.000000 0.000000
# 3 -0.002740 -0.003550 0.012598 0.000000 0.000000 0.000000
# 4 0.000000 0.000000 0.000000 0.048054 0.000000 0.000000
# 5 0.000000 0.000000 0.000000 0.000000 0.028394 0.000000
# 6 0.000000 0.000000 0.000000 0.000000 0.000000 0.047514
#
#
# Mechanical properties :
#
#
# Convention : Reuss Voigt Hill
#
# Bulk Modulus (GPa) = 57.74350 57.83863 57.79106
# Shear Modulus (GPa) = 27.16644 28.77619 27.97131
#
# Velocity S-wave (km/s) = 3.54830 3.65192 3.60049
# Velocity P-wave (km/s) = 6.59916 6.67740 6.63840
#
# Compressibility (1/GPa) = 0.01731797
#
# Stress axis : x y z
#
# Youngs Moduli (GPa) = 88.54954 83.84532 79.38015
#
# Poissons Ratio (x) = 0.24824 0.21746
# Poissons Ratio (y) = 0.26217 0.28176
# Poissons Ratio (z) = 0.24258 0.29761
#
# Static dielectric constant tensor:
#      x y z
#    x 4.037930 0.000000 0.000000 
#    y 0.000000 3.668760 0.000000 
#    z 0.000000 0.000000 3.951790 
# 
# 
# High freq. dielectric constant tensor:
#      x y z
#    x 1.857950 0.000000 0.000000 
#    y 0.000000 1.829210 0.000000 
#    z 0.000000 0.000000 1.847510 
# 
# From -- ./inp_files/21455.got.cif
#   From: 2010.03.12/outbox.cif.g09.slc.cpg/sg60_11_cif.got.tgz:21455.got - 2010.04.10 18:46:24.
