data_PCOD8247029
_publ_section_title
;
Structure prediction by ZEFSAII (Michael W. Deem and Ramdas Pophale) SiO2 
 PCOD8247029
Probable space group: P B C N
;
_chemical_formula_sum "Si O2"
_cell_formula_units_Z 48
_cell_length_a 8.605466
_cell_length_b 15.842453
_cell_length_c 17.212011
_cell_angle_alpha 90.000000
_cell_angle_beta 90.000000
_cell_angle_gamma 90.000000
_cell_volume 2346.542559
_symmetry_space_group_name_H-M "P B C N"
_symmetry_group_IT_number 60
_symmetry_cell_setting 'orthorhombic'
loop_
_space_group_symop_operation_xyz
x,y,z
1/2-x,1/2-y,1/2+z
1/2+x,1/2-y,-z
-x,y,1/2-z
-x,-y,-z
1/2+x,1/2+y,1/2-z
1/2-x,1/2+y,z
x,-y,1/2+z
loop_
_atom_site_type_symbol
_atom_site_label
_atom_site_fract_x
_atom_site_fract_y
_atom_site_fract_z
Si Si1 0.893151 0.926740 0.094771
Si Si2 0.431185 0.757053 0.912369
Si Si3 0.935321 0.581844 0.663580
Si Si4 0.933809 0.747069 0.574271
Si Si5 0.562192 0.915030 0.835528
Si Si6 0.613622 0.582676 0.413537
O O1 0.981141 0.837995 0.112192
O O2 0.750305 0.931263 0.154749
O O3 0.835045 0.925956 0.004121
O O4 0.010822 0.002503 0.111388
O O5 0.248456 0.761353 0.924229
O O6 0.478854 0.826665 0.850692
O O7 0.522110 0.782883 0.988976
O O8 0.989563 0.670088 0.627295
O O9 0.000000 0.588475 0.750000
O O10 0.007352 0.499831 0.618565
O O11 0.015159 0.833096 0.599989
O O12 0.500000 0.936553 0.750000
O O13 0.745049 0.908763 0.852903
#
# Coordination Sequence:
#
# PCOD8247029 Si02
#       6
#     8   8   8   8   8   8
#     4   9  20  39  62  90 117 150 197 246 295 347
#     4  10  20  38  62  90 118 150 197 247 295 350
#     4  10  22  39  56  82 119 157 197 238 292 354
#     4  10  21  37  62  89 116 151 196 246 295 348
#     4  11  24  39  56  84 122 160 197 238 293 358
#     4  10  21  38  63  91 118 152 196 246 298 351
#
# _framework density 20.455627
#
# number of rings (size 3 to 8) (size 9 to 14) (size 15 to 20)
#    0.000    2.000    0.000    4.000    0.000   10.667 
#    0.000   10.000    0.000    0.000    0.000    0.000 
#    0.000    0.000    0.000    0.000    0.000    0.000 
#
# Total GULP energy -594744.882054 kJ/mol
# GULP energy per Si atom -12390.518376 kJ/mol
# Density = 2.040907 g / cm^3
# Si number density = 20.455627 Si / 1000 Ang^3
#
#
#
# Elastic Constant Matrix: (Units=GPa)
#
#
# Indices 1 2 3 4 5 6 
#
# 1 88.8883 54.9493 34.5489 0.0000 0.0000 0.0000
# 2 54.9493 181.8548 35.8908 0.0000 0.0000 0.0000
# 3 34.5489 35.8908 52.0715 0.0000 0.0000 0.0000
# 4 0.0000 0.0000 0.0000 70.2570 0.0000 0.0000
# 5 0.0000 0.0000 0.0000 0.0000 35.0535 0.0000
# 6 0.0000 0.0000 0.0000 0.0000 0.0000 33.7187
#
#
#
# Elastic Compliance Matrix: (Units=1/GPa)
#
#
# Indices 1 2 3 4 5 6 
#
# 1 0.016724 -0.003314 -0.008812 0.000000 0.000000 0.000000
# 2 -0.003314 0.007021 -0.002641 0.000000 0.000000 0.000000
# 3 -0.008812 -0.002641 0.026871 0.000000 0.000000 0.000000
# 4 0.000000 0.000000 0.000000 0.014233 0.000000 0.000000
# 5 0.000000 0.000000 0.000000 0.000000 0.028528 0.000000
# 6 0.000000 0.000000 0.000000 0.000000 0.000000 0.029657
#
#
# Mechanical properties :
#
#
# Convention : Reuss Voigt Hill
#
# Bulk Modulus (GPa) = 47.43153 63.73253 55.58203
# Shear Modulus (GPa) = 31.32918 40.96752 36.14835
#
# Velocity S-wave (km/s) = 3.91777 4.48006 4.20832
# Velocity P-wave (km/s) = 6.61083 7.61482 7.13052
#
# Compressibility (1/GPa) = 0.02108302
#
# Stress axis : x y z
#
# Youngs Moduli (GPa) = 59.79512 142.42024 37.21487
#
# Poissons Ratio (x) = 0.47201 0.32793
# Poissons Ratio (y) = 0.19817 0.09827
# Poissons Ratio (z) = 0.52690 0.37609
#
# Static dielectric constant tensor:
#      x y z
#    x 3.555880 0.000000 0.000000 
#    y 0.000000 4.241640 0.000000 
#    z 0.000000 0.000000 3.441240 
# 
# 
# High freq. dielectric constant tensor:
#      x y z
#    x 1.796340 0.000000 0.000000 
#    y 0.000000 1.839500 0.000000 
#    z 0.000000 0.000000 1.772080 
# 
# From -- ./inp_files/19280.got.cif
#   From: 2010.03.12/outbox.cif.g09.slc.cpg/sg60_10_cif.got.tgz:19280.got - 2010.04.10 18:46:24.
