data_PCOD8247880
_publ_section_title
;
Structure prediction by ZEFSAII (Michael W. Deem and Ramdas Pophale) SiO2 
 PCOD8247880
Probable space group: P B C N
;
_chemical_formula_sum "Si O2"
_cell_formula_units_Z 44
_cell_length_a 9.202898
_cell_length_b 13.549117
_cell_length_c 14.518549
_cell_angle_alpha 90.000000
_cell_angle_beta 90.000000
_cell_angle_gamma 90.000000
_cell_volume 1810.334451
_symmetry_space_group_name_H-M "P B C N"
_symmetry_group_IT_number 60
_symmetry_cell_setting 'orthorhombic'
loop_
_space_group_symop_operation_xyz
x,y,z
1/2-x,1/2-y,1/2+z
1/2+x,1/2-y,-z
-x,y,1/2-z
-x,-y,-z
1/2+x,1/2+y,1/2-z
1/2-x,1/2+y,z
x,-y,1/2+z
loop_
_atom_site_type_symbol
_atom_site_label
_atom_site_fract_x
_atom_site_fract_y
_atom_site_fract_z
Si Si1 0.980539 0.098663 0.874645
Si Si2 0.524621 0.208925 0.612652
Si Si3 0.000000 0.438709 0.750000
Si Si4 0.130440 0.910592 0.926621
Si Si5 0.056542 0.315496 0.913364
Si Si6 0.295142 0.112690 0.743379
O O1 0.601359 0.510835 0.632493
O O2 0.875962 0.107156 0.783288
O O3 0.066615 0.199989 0.889122
O O4 0.883542 0.070468 0.963627
O O5 0.515433 0.328031 0.608428
O O6 0.526644 0.166410 0.509193
O O7 0.380975 0.167702 0.661479
O O8 0.673031 0.175290 0.663804
O O9 0.038141 0.370638 0.663041
O O10 0.856102 0.503885 0.738092
O O11 0.287611 0.865946 0.910467
#
# Coordination Sequence:
#
# PCOD8247880 Si02
#       6
#     8   8   4   8   8   8
#     4  10  23  44  73 105 142 184 252 288 360 446
#     4   9  21  42  72  96 146 189 231 296 366 421
#     4  10  26  42  66 104 142 186 238 300 360 422
#     4  10  22  44  70 107 140 194 232 302 361 426
#     4  11  23  45  67 104 143 193 232 304 362 435
#     4  10  22  45  67 105 138 189 245 294 355 437
#
# _framework density 24.304901000000001
#
# number of rings (size 3 to 8) (size 9 to 14) (size 15 to 20)
#    0.000    2.182    1.818    0.000    2.545    7.273 
#   13.091    0.000    0.000    0.000    0.000    0.000 
#    0.000    0.000    0.000    0.000    0.000    0.000 
#
# Total GULP energy -545547.970736 kJ/mol
# GULP energy per Si atom -12398.817517 kJ/mol
# Density = 2.424958 g / cm^3
# Si number density = 24.304901 Si / 1000 Ang^3
#
#
#
# Elastic Constant Matrix: (Units=GPa)
#
#
# Indices 1 2 3 4 5 6 
#
# 1 127.2720 45.1428 52.6819 0.0000 0.0000 0.0000
# 2 45.1428 168.7822 80.8662 0.0000 0.0000 0.0000
# 3 52.6819 80.8662 152.8501 0.0000 0.0000 0.0000
# 4 0.0000 0.0000 0.0000 41.2526 0.0000 0.0000
# 5 0.0000 0.0000 0.0000 0.0000 21.1764 0.0000
# 6 0.0000 0.0000 0.0000 0.0000 0.0000 1.1969
#
#
#
# Elastic Compliance Matrix: (Units=1/GPa)
#
#
# Indices 1 2 3 4 5 6 
#
# 1 0.009368 -0.001284 -0.002549 0.000000 0.000000 0.000000
# 2 -0.001284 0.008113 -0.003849 0.000000 0.000000 0.000000
# 3 -0.002549 -0.003849 0.009458 0.000000 0.000000 0.000000
# 4 0.000000 0.000000 0.000000 0.024241 0.000000 0.000000
# 5 0.000000 0.000000 0.000000 0.000000 0.047222 0.000000
# 6 0.000000 0.000000 0.000000 0.000000 0.000000 0.835494
#
#
# Mechanical properties :
#
#
# Convention : Reuss Voigt Hill
#
# Bulk Modulus (GPa) = 86.41379 89.58735 88.00057
# Shear Modulus (GPa) = 5.24594 30.73940 17.99267
#
# Velocity S-wave (km/s) = 1.47074 3.56018 2.72378
# Velocity P-wave (km/s) = 6.20607 7.33755 6.79540
#
# Compressibility (1/GPa) = 0.01157223
#
# Stress axis : x y z
#
# Youngs Moduli (GPa) = 106.74702 123.26566 105.73498
#
# Poissons Ratio (x) = 0.15828 0.26956
# Poissons Ratio (y) = 0.13707 0.40702
# Poissons Ratio (z) = 0.27214 0.47450
#
# Static dielectric constant tensor:
#      x y z
#    x 4.046990 0.000000 0.000000 
#    y 0.000000 4.542980 0.000000 
#    z 0.000000 0.000000 4.650260 
# 
# 
# High freq. dielectric constant tensor:
#      x y z
#    x 1.953990 0.000000 0.000000 
#    y 0.000000 1.974170 0.000000 
#    z 0.000000 0.000000 1.987560 
# 
# From -- ./inp_files/10944.got.cif
#   From: 2010.03.12/outbox.cif.g09.slc.cpg/sg60_6_cif.got.tgz:10944.got - 2010.04.10 18:46:24.
