data_PCOD8247067
_publ_section_title
;
Structure prediction by ZEFSAII (Michael W. Deem and Ramdas Pophale) SiO2 
 PCOD8247067
Probable space group: P B C N
;
_chemical_formula_sum "Si O2"
_cell_formula_units_Z 60
_cell_length_a 19.157660
_cell_length_b 12.702169
_cell_length_c 11.607263
_cell_angle_alpha 90.000000
_cell_angle_beta 90.000000
_cell_angle_gamma 90.000000
_cell_volume 2824.555892
_symmetry_space_group_name_H-M "P B C N"
_symmetry_group_IT_number 60
_symmetry_cell_setting 'orthorhombic'
loop_
_space_group_symop_operation_xyz
x,y,z
1/2-x,1/2-y,1/2+z
1/2+x,1/2-y,-z
-x,y,1/2-z
-x,-y,-z
1/2+x,1/2+y,1/2-z
1/2-x,1/2+y,z
x,-y,1/2+z
loop_
_atom_site_type_symbol
_atom_site_label
_atom_site_fract_x
_atom_site_fract_y
_atom_site_fract_z
Si Si1 0.377955 0.176374 0.160187
Si Si2 0.019727 0.786271 0.984964
Si Si3 0.885399 0.685120 0.082207
Si Si4 0.923131 0.993553 0.429955
Si Si5 0.812476 0.109372 0.570600
Si Si6 0.000000 0.865675 0.750000
Si Si7 0.687540 0.989647 0.453917
Si Si8 0.202200 0.870545 0.174256
O O1 0.424083 0.222433 0.056827
O O2 0.414669 0.181917 0.286023
O O3 0.306338 0.243812 0.173267
O O4 0.361831 0.055976 0.130470
O O5 0.015316 0.912966 0.021305
O O6 0.946741 0.726915 0.000405
O O7 0.036905 0.790729 0.847148
O O8 0.819292 0.763596 0.067254
O O9 0.860244 0.567544 0.049342
O O10 0.863528 0.912023 0.395957
O O11 0.886773 0.064578 0.527741
O O12 0.944706 0.061359 0.318089
O O13 0.800516 0.074661 0.701536
O O14 0.744976 0.070262 0.502267
O O15 0.723993 0.897390 0.381921
#
# Coordination Sequence:
#
# PCOD8247067 Si02
#       8
#     8   8   8   8   8   4   8   8
#     4  10  23  42  63  89 123 170 205 263 327 381
#     4  11  24  41  61  96 132 165 212 257 325 383
#     4  11  23  41  65  90 124 166 212 262 320 386
#     4  10  21  35  64  94 132 160 207 258 325 377
#     4  10  20  39  61  94 126 163 207 264 321 375
#     4  12  22  36  62 102 128 166 204 268 318 380
#     4  11  22  40  62  91 121 167 223 260 310 379
#     4   9  20  37  62  90 123 163 206 260 315 377
#
# _framework density 21.242277000000001
#
# number of rings (size 3 to 8) (size 9 to 14) (size 15 to 20)
#    0.000    1.600    1.333    3.200    5.600    0.533 
#    4.800    2.667    0.000    0.000    0.000    0.000 
#    0.000    0.000    0.000    0.000    0.000    0.000 
#
# Total GULP energy -743656.882968 kJ/mol
# GULP energy per Si atom -12394.281383 kJ/mol
# Density = 2.119393 g / cm^3
# Si number density = 21.242277 Si / 1000 Ang^3
#
#
#
# Elastic Constant Matrix: (Units=GPa)
#
#
# Indices 1 2 3 4 5 6 
#
# 1 67.7332 32.3677 35.5920 0.0000 0.0000 0.0000
# 2 32.3677 91.4923 43.0004 0.0000 0.0000 0.0000
# 3 35.5920 43.0004 148.2361 0.0000 0.0000 0.0000
# 4 0.0000 0.0000 0.0000 37.9573 0.0000 0.0000
# 5 0.0000 0.0000 0.0000 0.0000 27.6202 0.0000
# 6 0.0000 0.0000 0.0000 0.0000 0.0000 15.6450
#
#
#
# Elastic Compliance Matrix: (Units=1/GPa)
#
#
# Indices 1 2 3 4 5 6 
#
# 1 0.018854 -0.005260 -0.003001 0.000000 0.000000 0.000000
# 2 -0.005260 0.014122 -0.002834 0.000000 0.000000 0.000000
# 3 -0.003001 -0.002834 0.008289 0.000000 0.000000 0.000000
# 4 0.000000 0.000000 0.000000 0.026345 0.000000 0.000000
# 5 0.000000 0.000000 0.000000 0.000000 0.036205 0.000000
# 6 0.000000 0.000000 0.000000 0.000000 0.000000 0.063918
#
#
# Mechanical properties :
#
#
# Convention : Reuss Voigt Hill
#
# Bulk Modulus (GPa) = 52.42180 58.82020 55.62100
# Shear Modulus (GPa) = 25.47352 29.34460 27.40906
#
# Velocity S-wave (km/s) = 3.46669 3.72078 3.59598
# Velocity P-wave (km/s) = 6.38401 6.79774 6.59412
#
# Compressibility (1/GPa) = 0.01907603
#
# Stress axis : x y z
#
# Youngs Moduli (GPa) = 53.03829 70.80922 120.64710
#
# Poissons Ratio (x) = 0.37243 0.36209
# Poissons Ratio (y) = 0.27896 0.34189
# Poissons Ratio (z) = 0.15918 0.20066
#
# Static dielectric constant tensor:
#      x y z
#    x 3.596740 0.000000 0.000000 
#    y 0.000000 3.905770 0.000000 
#    z 0.000000 0.000000 3.936110 
# 
# 
# High freq. dielectric constant tensor:
#      x y z
#    x 1.816280 0.000000 0.000000 
#    y 0.000000 1.831130 0.000000 
#    z 0.000000 0.000000 1.840730 
# 
# From -- ./inp_files/12869.got.cif
#   From: 2010.03.12/outbox.cif.g09.slc.cpg/sg60_7_cif.got.tgz:12869.got - 2010.04.10 18:46:24.
