data_PCOD8247006
_publ_section_title
;
Structure prediction by ZEFSAII (Michael W. Deem and Ramdas Pophale) SiO2 
 PCOD8247006
Probable space group: P B C N
;
_chemical_formula_sum "Si O2"
_cell_formula_units_Z 24
_cell_length_a 14.644151
_cell_length_b 4.939833
_cell_length_c 16.301283
_cell_angle_alpha 90.000000
_cell_angle_beta 90.000000
_cell_angle_gamma 90.000000
_cell_volume 1179.229276
_symmetry_space_group_name_H-M "P B C N"
_symmetry_group_IT_number 60
_symmetry_cell_setting 'orthorhombic'
loop_
_space_group_symop_operation_xyz
x,y,z
1/2-x,1/2-y,1/2+z
1/2+x,1/2-y,-z
-x,y,1/2-z
-x,-y,-z
1/2+x,1/2+y,1/2-z
1/2-x,1/2+y,z
x,-y,1/2+z
loop_
_atom_site_type_symbol
_atom_site_label
_atom_site_fract_x
_atom_site_fract_y
_atom_site_fract_z
Si Si1 0.561794 0.140988 0.431516
Si Si2 0.689819 0.820968 0.071039
Si Si3 0.993565 0.169770 0.156207
O O1 0.658110 0.204308 0.475447
O O2 0.518071 0.418622 0.401270
O O3 0.500000 0.000000 0.500000
O O4 0.565352 0.918463 0.358407
O O5 0.773928 0.621642 0.087497
O O6 0.608543 0.766247 0.134975
O O7 0.000000 0.078350 0.250000
#
# Coordination Sequence:
#
# PCOD8247006 Si02
#       3
#     8   8   8
#     4  10  20  38  60  82 111 157 201 232 283 362
#     4  11  21  37  59  86 114 150 197 248 286 332
#     4  11  22  39  61  86 119 159 195 238 300 364
#
# _framework density 20.352277999999998
#
# number of rings (size 3 to 8) (size 9 to 14) (size 15 to 20)
#    0.000    1.333    0.000   11.000    0.000    0.000 
#    0.000   10.000    0.000    0.000    0.000    0.000 
#    0.000    0.000    0.000    0.000    0.000    0.000 
#
# Total GULP energy -297545.384470 kJ/mol
# GULP energy per Si atom -12397.724353 kJ/mol
# Density = 2.030596 g / cm^3
# Si number density = 20.352278 Si / 1000 Ang^3
#
#
#
# Elastic Constant Matrix: (Units=GPa)
#
#
# Indices 1 2 3 4 5 6 
#
# 1 74.1777 32.5405 40.0147 0.0000 0.0000 0.0000
# 2 32.5405 113.0643 18.5661 0.0000 0.0000 0.0000
# 3 40.0147 18.5661 95.0000 0.0000 0.0000 0.0000
# 4 0.0000 0.0000 0.0000 31.1191 0.0000 0.0000
# 5 0.0000 0.0000 0.0000 0.0000 18.4244 0.0000
# 6 0.0000 0.0000 0.0000 0.0000 0.0000 38.4002
#
#
#
# Elastic Compliance Matrix: (Units=1/GPa)
#
#
# Indices 1 2 3 4 5 6 
#
# 1 0.019328 -0.004366 -0.007288 0.000000 0.000000 0.000000
# 2 -0.004366 0.010124 -0.000140 0.000000 0.000000 0.000000
# 3 -0.007288 -0.000140 0.013623 0.000000 0.000000 0.000000
# 4 0.000000 0.000000 0.000000 0.032135 0.000000 0.000000
# 5 0.000000 0.000000 0.000000 0.000000 0.054276 0.000000
# 6 0.000000 0.000000 0.000000 0.000000 0.000000 0.026042
#
#
# Mechanical properties :
#
#
# Convention : Reuss Voigt Hill
#
# Bulk Modulus (GPa) = 51.31246 51.60941 51.46093
# Shear Modulus (GPa) = 26.93829 30.33013 28.63421
#
# Velocity S-wave (km/s) = 3.64208 3.86457 3.75497
# Velocity P-wave (km/s) = 6.55387 6.73248 6.64378
#
# Compressibility (1/GPa) = 0.01948844
#
# Stress axis : x y z
#
# Youngs Moduli (GPa) = 51.73921 98.77538 73.40398
#
# Poissons Ratio (x) = 0.43124 0.53495
# Poissons Ratio (y) = 0.22589 0.01025
# Poissons Ratio (z) = 0.37706 0.01379
#
# Static dielectric constant tensor:
#      x y z
#    x 3.720420 0.000000 0.000000 
#    y 0.000000 4.029170 0.000000 
#    z 0.000000 0.000000 3.894020 
# 
# 
# High freq. dielectric constant tensor:
#      x y z
#    x 1.775370 0.000000 0.000000 
#    y 0.000000 1.823490 0.000000 
#    z 0.000000 0.000000 1.780520 
# 
# From -- ./inp_files/16454.got.cif
#   From: 2010.03.12/outbox.cif.g09.slc.cpg/sg60_9_cif.got.tgz:16454.got - 2010.04.10 18:46:24.
