data_PCOD8247323
_publ_section_title
;
Structure prediction by ZEFSAII (Michael W. Deem and Ramdas Pophale) SiO2 
 PCOD8247323
Probable space group: P B C N
;
_chemical_formula_sum "Si O2"
_cell_formula_units_Z 40
_cell_length_a 9.399533
_cell_length_b 12.351460
_cell_length_c 16.303217
_cell_angle_alpha 90.000000
_cell_angle_beta 90.000000
_cell_angle_gamma 90.000000
_cell_volume 1892.770168
_symmetry_space_group_name_H-M "P B C N"
_symmetry_group_IT_number 60
_symmetry_cell_setting 'orthorhombic'
loop_
_space_group_symop_operation_xyz
x,y,z
1/2-x,1/2-y,1/2+z
1/2+x,1/2-y,-z
-x,y,1/2-z
-x,-y,-z
1/2+x,1/2+y,1/2-z
1/2-x,1/2+y,z
x,-y,1/2+z
loop_
_atom_site_type_symbol
_atom_site_label
_atom_site_fract_x
_atom_site_fract_y
_atom_site_fract_z
Si Si1 0.353423 0.450667 0.520470
Si Si2 0.100755 0.462772 0.927764
Si Si3 0.383029 0.719322 0.896315
Si Si4 0.104344 0.948600 0.182537
Si Si5 0.143847 0.633625 0.789918
O O1 0.500000 0.500000 0.500000
O O2 0.255113 0.529969 0.467275
O O3 0.343170 0.327409 0.487138
O O4 0.338449 0.460396 0.618701
O O5 0.061489 0.340681 0.903218
O O6 0.089595 0.534384 0.846053
O O7 0.000000 0.500000 0.000000
O O8 0.510268 0.648750 0.856606
O O9 0.235891 0.718276 0.843913
O O10 0.250885 0.905304 0.218873
O O11 0.000000 0.004182 0.250000
O O12 0.000000 0.685496 0.750000
#
# Coordination Sequence:
#
# PCOD8247323 Si02
#       5
#     8   8   8   8   8
#     4   9  19  37  60  85 119 159 202 245 287 352
#     4  11  23  40  61  88 122 157 200 248 294 353
#     4   9  21  40  61  86 118 161 201 242 298 355
#     4   9  18  37  61  86 119 156 198 248 301 355
#     4  10  21  38  59  89 120 151 197 247 299 355
#
# _framework density 21.133047000000001
#
# number of rings (size 3 to 8) (size 9 to 14) (size 15 to 20)
#    0.000    2.400    0.000    2.400    0.000    8.800 
#    0.000   15.000    0.000    0.000    0.000    0.000 
#    0.000    0.000    0.000    0.000    0.000    0.000 
#
# Total GULP energy -495548.390300 kJ/mol
# GULP energy per Si atom -12388.709758 kJ/mol
# Density = 2.108495 g / cm^3
# Si number density = 21.133047 Si / 1000 Ang^3
#
#
#
# Elastic Constant Matrix: (Units=GPa)
#
#
# Indices 1 2 3 4 5 6 
#
# 1 125.4849 15.0393 33.1522 0.0000 0.0000 0.0000
# 2 15.0393 94.0844 43.8430 0.0000 0.0000 0.0000
# 3 33.1522 43.8430 113.6440 0.0000 0.0000 0.0000
# 4 0.0000 0.0000 0.0000 16.5953 0.0000 0.0000
# 5 0.0000 0.0000 0.0000 0.0000 42.8938 0.0000
# 6 0.0000 0.0000 0.0000 0.0000 0.0000 17.1677
#
#
#
# Elastic Compliance Matrix: (Units=1/GPa)
#
#
# Indices 1 2 3 4 5 6 
#
# 1 0.008639 -0.000252 -0.002423 0.000000 0.000000 0.000000
# 2 -0.000252 0.012966 -0.004929 0.000000 0.000000 0.000000
# 3 -0.002423 -0.004929 0.011408 0.000000 0.000000 0.000000
# 4 0.000000 0.000000 0.000000 0.060258 0.000000 0.000000
# 5 0.000000 0.000000 0.000000 0.000000 0.023313 0.000000
# 6 0.000000 0.000000 0.000000 0.000000 0.000000 0.058249
#
#
# Mechanical properties :
#
#
# Convention : Reuss Voigt Hill
#
# Bulk Modulus (GPa) = 56.16179 57.47582 56.81880
# Shear Modulus (GPa) = 25.51338 31.40995 28.46167
#
# Velocity S-wave (km/s) = 3.47835 3.85943 3.67384
# Velocity P-wave (km/s) = 6.53949 6.86414 6.70378
#
# Compressibility (1/GPa) = 0.01780570
#
# Stress axis : x y z
#
# Youngs Moduli (GPa) = 115.74823 77.12645 87.66001
#
# Poissons Ratio (x) = 0.01942 0.21241
# Poissons Ratio (y) = 0.02915 0.43204
# Poissons Ratio (z) = 0.28047 0.38013
#
# Static dielectric constant tensor:
#      x y z
#    x 4.020320 0.000000 0.000000 
#    y 0.000000 0.441350 0.000000 
#    z 0.000000 0.000000 6.649880 
# 
# 
# High freq. dielectric constant tensor:
#      x y z
#    x 1.847100 0.000000 0.000000 
#    y 0.000000 1.783530 0.000000 
#    z 0.000000 0.000000 1.846620 
# 
# From -- ./inp_files/18996.got.cif
#   From: 2010.03.12/outbox.cif.g09.slc.cpg/sg60_10_cif.got.tgz:18996.got - 2010.04.10 18:46:24.
