data_PCOD8247624
_publ_section_title
;
Structure prediction by ZEFSAII (Michael W. Deem and Ramdas Pophale) SiO2 
 PCOD8247624
Probable space group: P B C N
;
_chemical_formula_sum "Si O2"
_cell_formula_units_Z 48
_cell_length_a 16.816300
_cell_length_b 15.291198
_cell_length_c 9.445475
_cell_angle_alpha 90.000000
_cell_angle_beta 90.000000
_cell_angle_gamma 90.000000
_cell_volume 2428.822409
_symmetry_space_group_name_H-M "P B C N"
_symmetry_group_IT_number 60
_symmetry_cell_setting 'orthorhombic'
loop_
_space_group_symop_operation_xyz
x,y,z
1/2-x,1/2-y,1/2+z
1/2+x,1/2-y,-z
-x,y,1/2-z
-x,-y,-z
1/2+x,1/2+y,1/2-z
1/2-x,1/2+y,z
x,-y,1/2+z
loop_
_atom_site_type_symbol
_atom_site_label
_atom_site_fract_x
_atom_site_fract_y
_atom_site_fract_z
Si Si1 0.650610 0.051455 0.983937
Si Si2 0.940228 0.289325 0.628482
Si Si3 0.853745 0.607434 0.675091
Si Si4 0.285153 0.721488 0.754716
Si Si5 0.546563 0.280914 0.615079
Si Si6 0.794246 0.845603 0.545892
O O1 0.601702 0.125777 0.064910
O O2 0.746075 0.066087 0.007970
O O3 0.629758 0.955841 0.042516
O O4 0.626099 0.055131 0.819496
O O5 0.876154 0.221744 0.693912
O O6 0.000000 0.321441 0.750000
O O7 0.985249 0.234266 0.510176
O O8 0.761648 0.637603 0.681971
O O9 0.910259 0.690679 0.657868
O O10 0.280185 0.722528 0.584063
O O11 0.241692 0.808779 0.808296
O O12 0.500000 0.318342 0.750000
O O13 0.610821 0.355179 0.567795
#
# Coordination Sequence:
#
# PCOD8247624 Si02
#       6
#     8   8   8   8   8   8
#     4  10  22  37  53  79 109 146 180 215 264 323
#     4  11  21  35  57  83 107 140 179 221 276 319
#     4  10  22  37  54  77 112 145 179 217 263 321
#     4   9  19  35  54  78 104 140 182 222 258 315
#     4  11  21  37  55  82 112 139 175 229 272 312
#     4   9  19  35  55  76 105 140 184 219 258 317
#
# _framework density 19.762661999999999
#
# number of rings (size 3 to 8) (size 9 to 14) (size 15 to 20)
#    0.000    2.000    3.333    0.000    4.667    2.667 
#    0.000    0.000    0.000    2.000    0.000    0.000 
#    0.000    0.000    0.000    0.000    0.000    0.000 
#
# Total GULP energy -594977.156382 kJ/mol
# GULP energy per Si atom -12395.357425 kJ/mol
# Density = 1.971768 g / cm^3
# Si number density = 19.762662 Si / 1000 Ang^3
#
#
#
# Elastic Constant Matrix: (Units=GPa)
#
#
# Indices 1 2 3 4 5 6 
#
# 1 98.5313 1.7883 14.3696 0.0000 0.0000 0.0000
# 2 1.7883 8.4152 6.2565 0.0000 0.0000 0.0000
# 3 14.3696 6.2565 63.7063 0.0000 0.0000 0.0000
# 4 0.0000 0.0000 0.0000 23.0463 0.0000 0.0000
# 5 0.0000 0.0000 0.0000 0.0000 38.9992 0.0000
# 6 0.0000 0.0000 0.0000 0.0000 0.0000 16.4442
#
#
#
# Elastic Compliance Matrix: (Units=1/GPa)
#
#
# Indices 1 2 3 4 5 6 
#
# 1 0.010496 -0.000507 -0.002318 0.000000 0.000000 0.000000
# 2 -0.000507 0.128216 -0.012477 0.000000 0.000000 0.000000
# 3 -0.002318 -0.012477 0.017445 0.000000 0.000000 0.000000
# 4 0.000000 0.000000 0.000000 0.043391 0.000000 0.000000
# 5 0.000000 0.000000 0.000000 0.000000 0.025642 0.000000
# 6 0.000000 0.000000 0.000000 0.000000 0.000000 0.060812
#
#
# Mechanical properties :
#
#
# Convention : Reuss Voigt Hill
#
# Bulk Modulus (GPa) = 7.96478 23.94241 15.95359
# Shear Modulus (GPa) = 13.94863 25.58051 19.76457
#
# Velocity S-wave (km/s) = 2.65959 3.60166 3.16586
# Velocity P-wave (km/s) = 3.67017 5.42561 4.63181
#
# Compressibility (1/GPa) = 0.12555270
#
# Stress axis : x y z
#
# Youngs Moduli (GPa) = 95.27192 7.79932 57.32235
#
# Poissons Ratio (x) = 0.00396 0.13286
# Poissons Ratio (y) = 0.04834 0.71524
# Poissons Ratio (z) = 0.22081 0.09732
#
# Static dielectric constant tensor:
#      x y z
#    x 4.036190 0.000000 0.000000 
#    y 0.000000 3.086240 0.000000 
#    z 0.000000 0.000000 3.847990 
# 
# 
# High freq. dielectric constant tensor:
#      x y z
#    x 1.782860 0.000000 0.000000 
#    y 0.000000 1.709570 0.000000 
#    z 0.000000 0.000000 1.790690 
# 
# From -- ./inp_files/5878.got.cif
#   From: 2010.03.12/outbox.cif.g09.slc.cpg/sg60_3_cif.got.tgz:5878.got - 2010.04.10 18:46:24.
