data_PCOD8247659
_publ_section_title
;
Structure prediction by ZEFSAII (Michael W. Deem and Ramdas Pophale) SiO2 
 PCOD8247659
Probable space group: P B C N
;
_chemical_formula_sum "Si O2"
_cell_formula_units_Z 40
_cell_length_a 11.032005
_cell_length_b 31.604908
_cell_length_c 4.981752
_cell_angle_alpha 90.000000
_cell_angle_beta 90.000000
_cell_angle_gamma 90.000000
_cell_volume 1736.965067
_symmetry_space_group_name_H-M "P B C N"
_symmetry_group_IT_number 60
_symmetry_cell_setting 'orthorhombic'
loop_
_space_group_symop_operation_xyz
x,y,z
1/2-x,1/2-y,1/2+z
1/2+x,1/2-y,-z
-x,y,1/2-z
-x,-y,-z
1/2+x,1/2+y,1/2-z
1/2-x,1/2+y,z
x,-y,1/2+z
loop_
_atom_site_type_symbol
_atom_site_label
_atom_site_fract_x
_atom_site_fract_y
_atom_site_fract_z
Si Si1 0.500000 0.327782 0.250000
Si Si2 0.680617 0.387627 0.061901
Si Si3 0.226438 0.471756 0.373943
Si Si4 0.175773 0.637603 0.438650
Si Si5 0.230813 0.777400 0.078538
Si Si6 0.000000 0.583309 0.750000
O O1 0.560057 0.359233 0.024227
O O2 0.597830 0.298174 0.396389
O O3 0.665302 0.438781 0.046131
O O4 0.719174 0.380031 0.369419
O O5 0.787392 0.371978 0.866797
O O6 0.235052 0.511421 0.571130
O O7 0.100076 0.446169 0.393586
O O8 0.169036 0.688327 0.480946
O O9 0.051551 0.613807 0.514911
O O10 0.224647 0.739723 0.864777
#
# Coordination Sequence:
#
# PCOD8247659 Si02
#       6
#     4   8   8   8   8   4
#     4  10  24  46  70  88 131 182 211 262 342 392
#     4  10  22  41  63  88 120 170 218 253 311 398
#     4  11  22  38  60  93 127 161 212 272 317 376
#     4  10  22  39  60  91 128 167 213 253 311 404
#     4  11  24  42  65  98 127 159 214 274 319 377
#     4  10  22  38  62  90 131 176 203 252 338 396
#
# _framework density 23.028673999999999
#
# number of rings (size 3 to 8) (size 9 to 14) (size 15 to 20)
#    0.000    1.600    0.000    5.400    0.000   15.200 
#    0.000    1.000    0.000    0.000    0.000    0.000 
#    0.000    0.000    0.000    0.000    0.000    0.000 
#
# Total GULP energy -495781.938268 kJ/mol
# GULP energy per Si atom -12394.548457 kJ/mol
# Density = 2.297626 g / cm^3
# Si number density = 23.028674 Si / 1000 Ang^3
#
#
#
# Elastic Constant Matrix: (Units=GPa)
#
#
# Indices 1 2 3 4 5 6 
#
# 1 91.5632 55.0071 30.3893 0.0000 0.0000 0.0000
# 2 55.0071 146.7580 34.8850 0.0000 0.0000 0.0000
# 3 30.3893 34.8850 82.6137 0.0000 0.0000 0.0000
# 4 0.0000 0.0000 0.0000 39.6327 0.0000 0.0000
# 5 0.0000 0.0000 0.0000 0.0000 27.7851 0.0000
# 6 0.0000 0.0000 0.0000 0.0000 0.0000 57.9741
#
#
#
# Elastic Compliance Matrix: (Units=1/GPa)
#
#
# Indices 1 2 3 4 5 6 
#
# 1 0.014945 -0.004774 -0.003482 0.000000 0.000000 0.000000
# 2 -0.004774 0.009099 -0.002086 0.000000 0.000000 0.000000
# 3 -0.003482 -0.002086 0.014266 0.000000 0.000000 0.000000
# 4 0.000000 0.000000 0.000000 0.025232 0.000000 0.000000
# 5 0.000000 0.000000 0.000000 0.000000 0.035990 0.000000
# 6 0.000000 0.000000 0.000000 0.000000 0.000000 0.017249
#
#
# Mechanical properties :
#
#
# Convention : Reuss Voigt Hill
#
# Bulk Modulus (GPa) = 56.73187 62.38865 59.56026
# Shear Modulus (GPa) = 34.88196 38.45530 36.66863
#
# Velocity S-wave (km/s) = 3.89616 4.09086 3.99470
# Velocity P-wave (km/s) = 6.70290 7.03307 6.86997
#
# Compressibility (1/GPa) = 0.01762678
#
# Stress axis : x y z
#
# Youngs Moduli (GPa) = 66.91231 109.89978 70.09610
#
# Poissons Ratio (x) = 0.52466 0.24404
# Poissons Ratio (y) = 0.31944 0.14623
# Poissons Ratio (z) = 0.23296 0.22927
#
# Static dielectric constant tensor:
#      x y z
#    x 4.116470 0.000000 0.000000 
#    y 0.000000 4.677390 0.000000 
#    z 0.000000 0.000000 3.925240 
# 
# 
# High freq. dielectric constant tensor:
#      x y z
#    x 1.876620 0.000000 0.000000 
#    y 0.000000 1.932310 0.000000 
#    z 0.000000 0.000000 1.912260 
# 
# From -- ./inp_files/869.got.cif
#   From: 2010.03.12/outbox.cif.g09.slc.cpg/sg60_1_cif.got.tgz:869.got - 2010.04.10 18:46:24.
