data_PCOD8247883
_publ_section_title
;
Structure prediction by ZEFSAII (Michael W. Deem and Ramdas Pophale) SiO2 
 PCOD8247883
Probable space group: P B C N
;
_chemical_formula_sum "Si O2"
_cell_formula_units_Z 60
_cell_length_a 20.898899
_cell_length_b 26.028607
_cell_length_c 5.156358
_cell_angle_alpha 90.000000
_cell_angle_beta 90.000000
_cell_angle_gamma 90.000000
_cell_volume 2804.900085
_symmetry_space_group_name_H-M "P B C N"
_symmetry_group_IT_number 60
_symmetry_cell_setting 'orthorhombic'
loop_
_space_group_symop_operation_xyz
x,y,z
1/2-x,1/2-y,1/2+z
1/2+x,1/2-y,-z
-x,y,1/2-z
-x,-y,-z
1/2+x,1/2+y,1/2-z
1/2-x,1/2+y,z
x,-y,1/2+z
loop_
_atom_site_type_symbol
_atom_site_label
_atom_site_fract_x
_atom_site_fract_y
_atom_site_fract_z
Si Si1 0.743893 0.279710 0.665615
Si Si2 0.073382 0.686620 0.698029
Si Si3 0.687574 0.966584 0.878211
Si Si4 0.937636 0.886541 0.866911
Si Si5 0.102214 0.788921 0.889187
Si Si6 0.165226 0.969283 0.633301
Si Si7 0.500000 0.310393 0.250000
Si Si8 0.856776 0.646514 0.293010
O O1 0.776301 0.244787 0.443269
O O2 0.675978 0.290384 0.524596
O O3 0.787502 0.329573 0.717890
O O4 0.085996 0.748107 0.657637
O O5 0.094944 0.655451 0.444858
O O6 0.000000 0.672024 0.750000
O O7 0.117504 0.672619 0.946205
O O8 0.761966 0.950674 0.887522
O O9 0.648144 0.914369 0.841983
O O10 0.669922 0.005884 0.647984
O O11 0.912399 0.848686 0.646688
O O12 0.882197 0.924554 0.953314
O O13 0.000000 0.916350 0.750000
O O14 0.954119 0.848347 0.094766
O O15 0.049510 0.772121 0.104703
O O16 0.151493 0.014769 0.429056
#
# Coordination Sequence:
#
# PCOD8247883 Si02
#       8
#     8   8   8   8   8   8   4   8
#     4  12  24  41  63 100 139 172 218 277 332 390
#     4  12  26  42  68  97 137 176 220 262 326 408
#     4  10  22  44  71  97 125 166 216 266 333 401
#     4  10  23  40  58  90 126 178 227 271 322 383
#     4  11  24  41  64  91 138 182 226 268 318 401
#     4  10  23  41  65  93 124 165 219 279 336 383
#     4  10  24  40  62  88 130 192 232 256 328 380
#     4  12  24  45  68 102 136 174 215 278 336 383
#
# _framework density 21.391134999999998
#
# number of rings (size 3 to 8) (size 9 to 14) (size 15 to 20)
#    0.000    1.067    2.667    3.200    9.333    0.533 
#    4.800    0.000    0.000    8.000    0.000    0.000 
#    0.000    0.000    0.000    0.000    0.000    0.000 
#
# Total GULP energy -743557.772522 kJ/mol
# GULP energy per Si atom -12392.629542 kJ/mol
# Density = 2.134245 g / cm^3
# Si number density = 21.391135 Si / 1000 Ang^3
#
#
#
# Elastic Constant Matrix: (Units=GPa)
#
#
# Indices 1 2 3 4 5 6 
#
# 1 98.2808 28.1715 13.8892 0.0000 0.0000 0.0000
# 2 28.1715 76.3573 5.4345 0.0000 0.0000 0.0000
# 3 13.8892 5.4345 87.6138 0.0000 0.0000 0.0000
# 4 0.0000 0.0000 0.0000 17.5148 0.0000 0.0000
# 5 0.0000 0.0000 0.0000 0.0000 29.6378 0.0000
# 6 0.0000 0.0000 0.0000 0.0000 0.0000 26.7570
#
#
#
# Elastic Compliance Matrix: (Units=1/GPa)
#
#
# Indices 1 2 3 4 5 6 
#
# 1 0.011592 -0.004164 -0.001579 0.000000 0.000000 0.000000
# 2 -0.004164 0.014650 -0.000249 0.000000 0.000000 0.000000
# 3 -0.001579 -0.000249 0.011680 0.000000 0.000000 0.000000
# 4 0.000000 0.000000 0.000000 0.057095 0.000000 0.000000
# 5 0.000000 0.000000 0.000000 0.000000 0.033741 0.000000
# 6 0.000000 0.000000 0.000000 0.000000 0.000000 0.037373
#
#
# Mechanical properties :
#
#
# Convention : Reuss Voigt Hill
#
# Bulk Modulus (GPa) = 38.55451 39.69360 39.12406
# Shear Modulus (GPa) = 26.77223 29.09901 27.93562
#
# Velocity S-wave (km/s) = 3.54157 3.69227 3.61770
# Velocity P-wave (km/s) = 5.89800 6.06412 5.98163
#
# Compressibility (1/GPa) = 0.02593730
#
# Stress axis : x y z
#
# Youngs Moduli (GPa) = 86.26790 68.25745 85.61997
#
# Poissons Ratio (x) = 0.28425 0.13522
# Poissons Ratio (y) = 0.35925 0.02128
# Poissons Ratio (z) = 0.13624 0.01697
#
# Static dielectric constant tensor:
#      x y z
#    x 3.978950 0.000000 0.000000 
#    y 0.000000 3.603610 0.000000 
#    z 0.000000 0.000000 3.926760 
# 
# 
# High freq. dielectric constant tensor:
#      x y z
#    x 1.847720 0.000000 0.000000 
#    y 0.000000 1.818780 0.000000 
#    z 0.000000 0.000000 1.849650 
# 
# From -- ./inp_files/2179.got.cif
#   From: 2010.03.12/outbox.cif.g09.slc.cpg/sg60_2_cif.got.tgz:2179.got - 2010.04.10 18:46:24.
