data_PCOD8247841
_publ_section_title
;
Structure prediction by ZEFSAII (Michael W. Deem and Ramdas Pophale) SiO2 
 PCOD8247841
Probable space group: P B C N
;
_chemical_formula_sum "Si O2"
_cell_formula_units_Z 40
_cell_length_a 10.660787
_cell_length_b 9.323875
_cell_length_c 16.707026
_cell_angle_alpha 90.000000
_cell_angle_beta 90.000000
_cell_angle_gamma 90.000000
_cell_volume 1660.675801
_symmetry_space_group_name_H-M "P B C N"
_symmetry_group_IT_number 60
_symmetry_cell_setting 'orthorhombic'
loop_
_space_group_symop_operation_xyz
x,y,z
1/2-x,1/2-y,1/2+z
1/2+x,1/2-y,-z
-x,y,1/2-z
-x,-y,-z
1/2+x,1/2+y,1/2-z
1/2-x,1/2+y,z
x,-y,1/2+z
loop_
_atom_site_type_symbol
_atom_site_label
_atom_site_fract_x
_atom_site_fract_y
_atom_site_fract_z
Si Si1 0.333589 0.323891 0.195672
Si Si2 0.212050 0.444387 0.800045
Si Si3 0.487006 0.570391 0.336437
Si Si4 0.807251 0.810064 0.950425
Si Si5 0.366599 0.966443 0.965534
O O1 0.346579 0.198185 0.261059
O O2 0.234663 0.441689 0.229460
O O3 0.464244 0.405691 0.176666
O O4 0.283847 0.262183 0.113278
O O5 0.339231 0.422979 0.853586
O O6 0.119787 0.498466 0.870143
O O7 0.500000 0.651256 0.250000
O O8 0.563101 0.645569 0.406998
O O9 0.839211 0.701428 0.021449
O O10 0.741824 0.945958 0.989809
O O11 0.500000 0.000000 0.000000
#
# Coordination Sequence:
#
# PCOD8247841 Si02
#       5
#     8   8   8   8   8
#     4  11  21  45  74 106 133 184 241 287 348 416
#     4  11  25  45  71 104 143 183 239 287 356 419
#     4  10  22  42  77  99 133 184 237 293 351 403
#     4  12  24  47  70 103 145 182 241 289 353 421
#     4  12  30  46  69 107 146 191 230 289 364 423
#
# _framework density 24.086579
#
# number of rings (size 3 to 8) (size 9 to 14) (size 15 to 20)
#    0.000    0.800    6.000    1.200    5.600    7.200 
#    0.000    2.000    0.000    0.000    0.000    0.000 
#    0.000    0.000    0.000    0.000    0.000    0.000 
#
# Total GULP energy -495858.995100 kJ/mol
# GULP energy per Si atom -12396.474877 kJ/mol
# Density = 2.403176 g / cm^3
# Si number density = 24.086579 Si / 1000 Ang^3
#
#
#
# Elastic Constant Matrix: (Units=GPa)
#
#
# Indices 1 2 3 4 5 6 
#
# 1 52.6957 6.1713 -8.4013 0.0000 0.0000 0.0000
# 2 6.1713 106.9390 22.7464 0.0000 0.0000 0.0000
# 3 -8.4013 22.7464 76.1714 0.0000 0.0000 0.0000
# 4 0.0000 0.0000 0.0000 46.3217 0.0000 0.0000
# 5 0.0000 0.0000 0.0000 0.0000 39.9732 0.0000
# 6 0.0000 0.0000 0.0000 0.0000 0.0000 23.4284
#
#
#
# Elastic Compliance Matrix: (Units=1/GPa)
#
#
# Indices 1 2 3 4 5 6 
#
# 1 0.019601 -0.001699 0.002669 0.000000 0.000000 0.000000
# 2 -0.001699 0.010133 -0.003213 0.000000 0.000000 0.000000
# 3 0.002669 -0.003213 0.014382 0.000000 0.000000 0.000000
# 4 0.000000 0.000000 0.000000 0.021588 0.000000 0.000000
# 5 0.000000 0.000000 0.000000 0.000000 0.025017 0.000000
# 6 0.000000 0.000000 0.000000 0.000000 0.000000 0.042683
#
#
# Mechanical properties :
#
#
# Convention : Reuss Voigt Hill
#
# Bulk Modulus (GPa) = 25.23307 30.75988 27.99648
# Shear Modulus (GPa) = 33.09058 36.29730 34.69394
#
# Velocity S-wave (km/s) = 3.71053 3.88616 3.79936
# Velocity P-wave (km/s) = 5.37178 5.73887 5.55836
#
# Compressibility (1/GPa) = 0.03963053
#
# Stress axis : x y z
#
# Youngs Moduli (GPa) = 51.01669 98.69104 69.53032
#
# Poissons Ratio (x) = 0.16767 -0.18560
# Poissons Ratio (y) = 0.08667 0.22341
# Poissons Ratio (z) = -0.13618 0.31711
#
# Static dielectric constant tensor:
#      x y z
#    x 4.427600 0.000000 0.000000 
#    y 0.000000 4.483190 0.000000 
#    z 0.000000 0.000000 4.125990 
# 
# 
# High freq. dielectric constant tensor:
#      x y z
#    x 1.948940 0.000000 0.000000 
#    y 0.000000 1.953550 0.000000 
#    z 0.000000 0.000000 1.969710 
# 
# From -- ./inp_files/19823.got.cif
#   From: 2010.03.12/outbox.cif.g09.slc.cpg/sg60_10_cif.got.tgz:19823.got - 2010.04.10 18:46:24.
