data_PCOD8247430
_publ_section_title
;
Structure prediction by ZEFSAII (Michael W. Deem and Ramdas Pophale) SiO2 
 PCOD8247430
Probable space group: P B C N
;
_chemical_formula_sum "Si O2"
_cell_formula_units_Z 36
_cell_length_a 6.763685
_cell_length_b 12.125333
_cell_length_c 20.615126
_cell_angle_alpha 90.000000
_cell_angle_beta 90.000000
_cell_angle_gamma 90.000000
_cell_volume 1690.686331
_symmetry_space_group_name_H-M "P B C N"
_symmetry_group_IT_number 60
_symmetry_cell_setting 'orthorhombic'
loop_
_space_group_symop_operation_xyz
x,y,z
1/2-x,1/2-y,1/2+z
1/2+x,1/2-y,-z
-x,y,1/2-z
-x,-y,-z
1/2+x,1/2+y,1/2-z
1/2-x,1/2+y,z
x,-y,1/2+z
loop_
_atom_site_type_symbol
_atom_site_label
_atom_site_fract_x
_atom_site_fract_y
_atom_site_fract_z
Si Si1 0.330970 0.394768 0.065241
Si Si2 0.000000 0.651773 0.750000
Si Si3 0.386977 0.404916 0.918830
Si Si4 0.004771 0.514172 0.139735
Si Si5 0.724710 0.709197 0.343421
O O1 0.512366 0.475512 0.080309
O O2 0.121222 0.454284 0.080770
O O3 0.355345 0.286390 0.109466
O O4 0.344814 0.358265 0.990638
O O5 0.926414 0.575457 0.691012
O O6 0.179081 0.728232 0.724123
O O7 0.518475 0.317384 0.879804
O O8 0.177039 0.415496 0.885004
O O9 0.156634 0.598798 0.174312
#
# Coordination Sequence:
#
# PCOD8247430 Si02
#       5
#     8   4   8   8   8
#     4   9  21  41  59  96 129 151 203 261 312 382
#     4  10  24  44  58  90 128 164 214 262 302 364
#     4  10  21  39  66  91 123 165 199 254 324 374
#     4  10  22  41  63  90 123 167 210 254 311 377
#     4  10  23  40  63  94 124 161 211 257 309 379
#
# _framework density 21.293129
#
# number of rings (size 3 to 8) (size 9 to 14) (size 15 to 20)
#    0.000    2.222    0.000    0.667    6.222    3.556 
#    4.000    2.222    0.000    0.000    0.000    0.000 
#    0.000    0.000    0.000    0.000    0.000    0.000 
#
# Total GULP energy -446462.958829 kJ/mol
# GULP energy per Si atom -12401.748856 kJ/mol
# Density = 2.124466 g / cm^3
# Si number density = 21.293129 Si / 1000 Ang^3
#
#
#
# Elastic Constant Matrix: (Units=GPa)
#
#
# Indices 1 2 3 4 5 6 
#
# 1 82.4125 25.7895 47.5013 0.0000 0.0000 0.0000
# 2 25.7895 95.0669 44.3325 0.0000 0.0000 0.0000
# 3 47.5013 44.3325 111.7161 0.0000 0.0000 0.0000
# 4 0.0000 0.0000 0.0000 23.0899 0.0000 0.0000
# 5 0.0000 0.0000 0.0000 0.0000 25.8375 0.0000
# 6 0.0000 0.0000 0.0000 0.0000 0.0000 20.5901
#
#
#
# Elastic Compliance Matrix: (Units=1/GPa)
#
#
# Indices 1 2 3 4 5 6 
#
# 1 0.016235 -0.001454 -0.006326 0.000000 0.000000 0.000000
# 2 -0.001454 0.013038 -0.004555 0.000000 0.000000 0.000000
# 3 -0.006326 -0.004555 0.013449 0.000000 0.000000 0.000000
# 4 0.000000 0.000000 0.000000 0.043309 0.000000 0.000000
# 5 0.000000 0.000000 0.000000 0.000000 0.038703 0.000000
# 6 0.000000 0.000000 0.000000 0.000000 0.000000 0.048567
#
#
# Mechanical properties :
#
#
# Convention : Reuss Voigt Hill
#
# Bulk Modulus (GPa) = 55.40058 58.27137 56.83597
# Shear Modulus (GPa) = 24.51098 25.34164 24.92631
#
# Velocity S-wave (km/s) = 3.39650 3.45357 3.42515
# Velocity P-wave (km/s) = 6.43864 6.58244 6.51094
#
# Compressibility (1/GPa) = 0.01805035
#
# Stress axis : x y z
#
# Youngs Moduli (GPa) = 61.59355 76.70037 74.35567
#
# Poissons Ratio (x) = 0.11154 0.47039
# Poissons Ratio (y) = 0.08957 0.33872
# Poissons Ratio (z) = 0.38965 0.34940
#
# Static dielectric constant tensor:
#      x y z
#    x 3.652450 0.000000 0.000000 
#    y 0.000000 3.860310 0.000000 
#    z 0.000000 0.000000 3.815800 
# 
# 
# High freq. dielectric constant tensor:
#      x y z
#    x 1.822810 0.000000 0.000000 
#    y 0.000000 1.845050 0.000000 
#    z 0.000000 0.000000 1.830490 
# 
# From -- ./inp_files/23458.got.cif
#   From: 2010.03.12/outbox.cif.g09.slc.cpg/sg60_12_cif.got.tgz:23458.got - 2010.04.10 18:46:24.
