data_PCOD8247403
_publ_section_title
;
Structure prediction by ZEFSAII (Michael W. Deem and Ramdas Pophale) SiO2 
 PCOD8247403
Probable space group: P B C N
;
_chemical_formula_sum "Si O2"
_cell_formula_units_Z 32
_cell_length_a 8.660069
_cell_length_b 15.271433
_cell_length_c 12.876614
_cell_angle_alpha 90.000000
_cell_angle_beta 90.000000
_cell_angle_gamma 90.000000
_cell_volume 1702.953622
_symmetry_space_group_name_H-M "P B C N"
_symmetry_group_IT_number 60
_symmetry_cell_setting 'orthorhombic'
loop_
_space_group_symop_operation_xyz
x,y,z
1/2-x,1/2-y,1/2+z
1/2+x,1/2-y,-z
-x,y,1/2-z
-x,-y,-z
1/2+x,1/2+y,1/2-z
1/2-x,1/2+y,z
x,-y,1/2+z
loop_
_atom_site_type_symbol
_atom_site_label
_atom_site_fract_x
_atom_site_fract_y
_atom_site_fract_z
Si Si1 0.671238 0.373004 0.229583
Si Si2 0.308019 0.151590 0.552429
Si Si3 0.331216 0.490233 0.453092
Si Si4 0.668394 0.180010 0.537578
O O1 0.500000 0.335603 0.250000
O O2 0.766538 0.386726 0.334717
O O3 0.658064 0.467191 0.170018
O O4 0.761185 0.305003 0.153690
O O5 0.486017 0.173182 0.544237
O O6 0.208959 0.239007 0.535688
O O7 0.264049 0.079379 0.466627
O O8 0.500000 0.500000 0.500000
O O9 0.241492 0.409504 0.509960
#
# Coordination Sequence:
#
# PCOD8247403 Si02
#       4
#     8   8   8   8
#     4  10  21  39  62  91 123 161 207 255 311 369
#     4  12  20  44  62  89 135 154 213 258 310 374
#     4  10  21  39  63  92 123 165 203 255 312 366
#     4  10  24  38  66  93 120 170 202 261 311 371
#
# _framework density 18.790880999999999
#
# number of rings (size 3 to 8) (size 9 to 14) (size 15 to 20)
#    1.500    0.000    2.500    4.500    0.000    0.000 
#    4.500    0.000    0.000    0.000    0.000    0.000 
#    0.000    0.000    0.000    0.000    0.000    0.000 
#
# Total GULP energy -396627.561736 kJ/mol
# GULP energy per Si atom -12394.611304 kJ/mol
# Density = 1.874811 g / cm^3
# Si number density = 18.790881 Si / 1000 Ang^3
#
#
#
# Elastic Constant Matrix: (Units=GPa)
#
#
# Indices 1 2 3 4 5 6 
#
# 1 180.5756 65.1436 65.1093 0.0000 0.0000 0.0000
# 2 65.1436 113.1340 32.3769 0.0000 0.0000 0.0000
# 3 65.1093 32.3769 84.7668 0.0000 0.0000 0.0000
# 4 0.0000 0.0000 0.0000 27.8813 0.0000 0.0000
# 5 0.0000 0.0000 0.0000 0.0000 37.5706 0.0000
# 6 0.0000 0.0000 0.0000 0.0000 0.0000 31.4342
#
#
#
# Elastic Compliance Matrix: (Units=1/GPa)
#
#
# Indices 1 2 3 4 5 6 
#
# 1 0.008736 -0.003492 -0.005377 0.000000 0.000000 0.000000
# 2 -0.003492 0.011319 -0.001642 0.000000 0.000000 0.000000
# 3 -0.005377 -0.001642 0.016554 0.000000 0.000000 0.000000
# 4 0.000000 0.000000 0.000000 0.035866 0.000000 0.000000
# 5 0.000000 0.000000 0.000000 0.000000 0.026617 0.000000
# 6 0.000000 0.000000 0.000000 0.000000 0.000000 0.031813
#
#
# Mechanical properties :
#
#
# Convention : Reuss Voigt Hill
#
# Bulk Modulus (GPa) = 64.14453 78.19287 71.16870
# Shear Modulus (GPa) = 31.82267 33.76696 32.79482
#
# Velocity S-wave (km/s) = 4.11970 4.24369 4.18215
# Velocity P-wave (km/s) = 7.53919 8.10644 7.82795
#
# Compressibility (1/GPa) = 0.01558979
#
# Stress axis : x y z
#
# Youngs Moduli (GPa) = 114.46812 88.34408 60.40925
#
# Poissons Ratio (x) = 0.30847 0.32479
# Poissons Ratio (y) = 0.39968 0.09916
# Poissons Ratio (z) = 0.61544 0.14502
#
# Static dielectric constant tensor:
#      x y z
#    x 3.498350 0.000000 0.000000 
#    y 0.000000 3.712310 0.000000 
#    z 0.000000 0.000000 3.389960 
# 
# 
# High freq. dielectric constant tensor:
#      x y z
#    x 1.751990 0.000000 0.000000 
#    y 0.000000 1.712630 0.000000 
#    z 0.000000 0.000000 1.715200 
# 
# From -- ./inp_files/9472.got.cif
#   From: 2010.03.12/outbox.cif.g09.slc.cpg/sg60_5_cif.got.tgz:9472.got - 2010.04.10 18:46:24.
