data_PCOD8247322
_publ_section_title
;
Structure prediction by ZEFSAII (Michael W. Deem and Ramdas Pophale) SiO2 
 PCOD8247322
Probable space group: P B C N
;
_chemical_formula_sum "Si O2"
_cell_formula_units_Z 56
_cell_length_a 16.065827
_cell_length_b 32.297730
_cell_length_c 5.026676
_cell_angle_alpha 90.000000
_cell_angle_beta 90.000000
_cell_angle_gamma 90.000000
_cell_volume 2608.290616
_symmetry_space_group_name_H-M "P B C N"
_symmetry_group_IT_number 60
_symmetry_cell_setting 'orthorhombic'
loop_
_space_group_symop_operation_xyz
x,y,z
1/2-x,1/2-y,1/2+z
1/2+x,1/2-y,-z
-x,y,1/2-z
-x,-y,-z
1/2+x,1/2+y,1/2-z
1/2-x,1/2+y,z
x,-y,1/2+z
loop_
_atom_site_type_symbol
_atom_site_label
_atom_site_fract_x
_atom_site_fract_y
_atom_site_fract_z
Si Si1 0.446819 0.743388 0.987204
Si Si2 0.252413 0.585515 0.195616
Si Si3 0.227214 0.225816 0.855559
Si Si4 0.278810 0.864045 0.171844
Si Si5 0.447117 0.163126 0.492073
Si Si6 0.906648 0.528084 0.211486
Si Si7 0.093246 0.973161 0.774035
O O1 0.500000 0.737853 0.250000
O O2 0.418154 0.790367 0.917577
O O3 0.500000 0.724264 0.750000
O O4 0.361504 0.717648 0.996575
O O5 0.272837 0.621184 0.414199
O O6 0.167947 0.560762 0.260089
O O7 0.335313 0.558455 0.190882
O O8 0.239490 0.604837 0.907827
O O9 0.216243 0.253671 0.587798
O O10 0.265622 0.182616 0.765615
O O11 0.372884 0.867721 0.062231
O O12 0.500000 0.168666 0.750000
O O13 0.500000 0.143591 0.250000
O O14 0.896519 0.490480 0.417668
O O15 0.000000 0.547887 0.250000
O O16 0.000000 0.953619 0.750000
O O17 0.103880 0.012340 0.577701
#
# Coordination Sequence:
#
# PCOD8247322 Si02
#       7
#     8   8   8   8   8   8   8
#     4  10  21  38  63  89 112 150 212 276 321 371
#     4  12  24  40  62  95 141 164 212 264 325 389
#     4  12  24  42  67  87 122 168 222 276 319 383
#     4  12  26  40  60  97 127 175 210 257 339 390
#     4  10  21  38  59  85 119 156 208 266 313 371
#     4  10  21  39  64  91 124 171 213 245 295 369
#     4  10  21  41  71 100 125 166 219 267 323 386
#
# _framework density 21.470002000000001
#
# number of rings (size 3 to 8) (size 9 to 14) (size 15 to 20)
#    0.000    1.143    1.429    5.143    4.000    1.714 
#    0.000    2.143    0.000    0.000    0.000    0.000 
#    0.000    0.000    0.000    0.000    0.000    0.000 
#
# Total GULP energy -694182.917323 kJ/mol
# GULP energy per Si atom -12396.123524 kJ/mol
# Density = 2.142114 g / cm^3
# Si number density = 21.470002 Si / 1000 Ang^3
#
#
#
# Elastic Constant Matrix: (Units=GPa)
#
#
# Indices 1 2 3 4 5 6 
#
# 1 152.0688 50.8950 45.5347 0.0000 0.0000 0.0000
# 2 50.8950 56.3521 20.2618 0.0000 0.0000 0.0000
# 3 45.5347 20.2618 123.8847 0.0000 0.0000 0.0000
# 4 0.0000 0.0000 0.0000 28.0115 0.0000 0.0000
# 5 0.0000 0.0000 0.0000 0.0000 30.2563 0.0000
# 6 0.0000 0.0000 0.0000 0.0000 0.0000 19.5456
#
#
#
# Elastic Compliance Matrix: (Units=1/GPa)
#
#
# Indices 1 2 3 4 5 6 
#
# 1 0.010026 -0.008213 -0.002342 0.000000 0.000000 0.000000
# 2 -0.008213 0.025582 -0.001165 0.000000 0.000000 0.000000
# 3 -0.002342 -0.001165 0.009123 0.000000 0.000000 0.000000
# 4 0.000000 0.000000 0.000000 0.035700 0.000000 0.000000
# 5 0.000000 0.000000 0.000000 0.000000 0.033051 0.000000
# 6 0.000000 0.000000 0.000000 0.000000 0.000000 0.051162
#
#
# Mechanical properties :
#
#
# Convention : Reuss Voigt Hill
#
# Bulk Modulus (GPa) = 46.96775 62.85430 54.91103
# Shear Modulus (GPa) = 25.61711 29.93695 27.77703
#
# Velocity S-wave (km/s) = 3.45796 3.73817 3.60079
# Velocity P-wave (km/s) = 6.15360 6.92610 6.55124
#
# Compressibility (1/GPa) = 0.02129120
#
# Stress axis : x y z
#
# Youngs Moduli (GPa) = 99.74089 39.08962 109.60851
#
# Poissons Ratio (x) = 0.32104 0.25669
# Poissons Ratio (y) = 0.81918 0.12773
# Poissons Ratio (z) = 0.23358 0.04555
#
# Static dielectric constant tensor:
#      x y z
#    x 4.044270 0.000000 0.000000 
#    y 0.000000 3.702310 0.000000 
#    z 0.000000 0.000000 4.236770 
# 
# 
# High freq. dielectric constant tensor:
#      x y z
#    x 1.848710 0.000000 0.000000 
#    y 0.000000 1.811240 0.000000 
#    z 0.000000 0.000000 1.871000 
# 
# From -- ./inp_files/1476.got.cif
#   From: 2010.03.12/outbox.cif.g09.slc.cpg/sg60_1_cif.got.tgz:1476.got - 2010.04.10 18:46:24.
