data_PCOD8247716
_publ_section_title
;
Structure prediction by ZEFSAII (Michael W. Deem and Ramdas Pophale) SiO2 
 PCOD8247716
Probable space group: P B C N
;
_chemical_formula_sum "Si O2"
_cell_formula_units_Z 40
_cell_length_a 23.375627
_cell_length_b 8.129264
_cell_length_c 9.485532
_cell_angle_alpha 90.000000
_cell_angle_beta 90.000000
_cell_angle_gamma 90.000000
_cell_volume 1802.503803
_symmetry_space_group_name_H-M "P B C N"
_symmetry_group_IT_number 60
_symmetry_cell_setting 'orthorhombic'
loop_
_space_group_symop_operation_xyz
x,y,z
1/2-x,1/2-y,1/2+z
1/2+x,1/2-y,-z
-x,y,1/2-z
-x,-y,-z
1/2+x,1/2+y,1/2-z
1/2-x,1/2+y,z
x,-y,1/2+z
loop_
_atom_site_type_symbol
_atom_site_label
_atom_site_fract_x
_atom_site_fract_y
_atom_site_fract_z
Si Si1 0.296901 0.526180 0.057671
Si Si2 0.458643 0.463849 0.374546
Si Si3 0.831633 0.487395 0.342504
Si Si4 0.351605 0.341931 0.819985
Si Si5 0.363113 0.201109 0.407728
O O1 0.231391 0.517234 0.099584
O O2 0.333219 0.524557 0.201914
O O3 0.316265 0.369711 0.964601
O O4 0.309478 0.692441 0.967366
O O5 0.500000 0.413596 0.250000
O O6 0.500000 0.500000 0.500000
O O7 0.419188 0.624488 0.343591
O O8 0.419887 0.308388 0.414104
O O9 0.836082 0.338674 0.231406
O O10 0.870771 0.451080 0.480780
O O11 0.851942 0.645225 0.253216
#
# Coordination Sequence:
#
# PCOD8247716 Si02
#       5
#     8   8   8   8   8
#     4  10  22  40  61  91 132 172 202 245 316 391
#     4  11  23  46  70  89 122 171 221 273 324 378
#     4  11  23  41  63  95 135 166 205 266 318 381
#     4  10  23  41  64  96 125 167 219 256 308 386
#     4  10  25  42  63  97 127 168 216 258 318 390
#
# _framework density 22.191355000000001
#
# number of rings (size 3 to 8) (size 9 to 14) (size 15 to 20)
#    0.000    1.600    0.000    4.800    0.000   22.400 
#    0.000    5.000    0.000    0.000    0.000    0.000 
#    0.000    0.000    0.000    0.000    0.000    0.000 
#
# Total GULP energy -495880.507788 kJ/mol
# GULP energy per Si atom -12397.012695 kJ/mol
# Density = 2.214085 g / cm^3
# Si number density = 22.191355 Si / 1000 Ang^3
#
#
#
# Elastic Constant Matrix: (Units=GPa)
#
#
# Indices 1 2 3 4 5 6 
#
# 1 151.6405 70.6759 83.2057 0.0000 0.0000 0.0000
# 2 70.6759 59.2767 30.3967 0.0000 0.0000 0.0000
# 3 83.2057 30.3967 130.0111 0.0000 0.0000 0.0000
# 4 0.0000 0.0000 0.0000 52.2883 0.0000 0.0000
# 5 0.0000 0.0000 0.0000 0.0000 52.9381 0.0000
# 6 0.0000 0.0000 0.0000 0.0000 0.0000 16.2322
#
#
#
# Elastic Compliance Matrix: (Units=1/GPa)
#
#
# Indices 1 2 3 4 5 6 
#
# 1 0.020791 -0.020413 -0.008533 0.000000 0.000000 0.000000
# 2 -0.020413 0.039211 0.003897 0.000000 0.000000 0.000000
# 3 -0.008533 0.003897 0.012242 0.000000 0.000000 0.000000
# 4 0.000000 0.000000 0.000000 0.019125 0.000000 0.000000
# 5 0.000000 0.000000 0.000000 0.000000 0.018890 0.000000
# 6 0.000000 0.000000 0.000000 0.000000 0.000000 0.061606
#
#
# Mechanical properties :
#
#
# Convention : Reuss Voigt Hill
#
# Bulk Modulus (GPa) = 45.15946 78.83167 61.99556
# Shear Modulus (GPa) = 21.80121 34.73505 28.26813
#
# Velocity S-wave (km/s) = 3.13776 3.96062 3.57296
# Velocity P-wave (km/s) = 5.78978 7.51772 6.70960
#
# Compressibility (1/GPa) = 0.02214376
#
# Stress axis : x y z
#
# Youngs Moduli (GPa) = 48.09779 25.50326 81.68721
#
# Poissons Ratio (x) = 0.52061 0.69706
# Poissons Ratio (y) = 0.98184 -0.31832
# Poissons Ratio (z) = 0.41043 -0.09938
#
# Static dielectric constant tensor:
#      x y z
#    x 3.866740 0.000000 0.000000 
#    y 0.000000 4.386860 0.000000 
#    z 0.000000 0.000000 4.545860 
# 
# 
# High freq. dielectric constant tensor:
#      x y z
#    x 1.853240 0.000000 0.000000 
#    y 0.000000 1.866200 0.000000 
#    z 0.000000 0.000000 1.908040 
# 
# From -- ./inp_files/7720.got.cif
#   From: 2010.03.12/outbox.cif.g09.slc.cpg/sg60_4_cif.got.tgz:7720.got - 2010.04.10 18:46:24.
