data_PCOD8247127
_publ_section_title
;
Structure prediction by ZEFSAII (Michael W. Deem and Ramdas Pophale) SiO2 
 PCOD8247127
Probable space group: P B C N
;
_chemical_formula_sum "Si O2"
_cell_formula_units_Z 56
_cell_length_a 9.200369
_cell_length_b 15.397790
_cell_length_c 19.085766
_cell_angle_alpha 90.000000
_cell_angle_beta 90.000000
_cell_angle_gamma 90.000000
_cell_volume 2703.791716
_symmetry_space_group_name_H-M "P B C N"
_symmetry_group_IT_number 60
_symmetry_cell_setting 'orthorhombic'
loop_
_space_group_symop_operation_xyz
x,y,z
1/2-x,1/2-y,1/2+z
1/2+x,1/2-y,-z
-x,y,1/2-z
-x,-y,-z
1/2+x,1/2+y,1/2-z
1/2-x,1/2+y,z
x,-y,1/2+z
loop_
_atom_site_type_symbol
_atom_site_label
_atom_site_fract_x
_atom_site_fract_y
_atom_site_fract_z
Si Si1 0.426409 0.582512 0.463653
Si Si2 0.982444 0.205877 0.582385
Si Si3 0.491512 0.322501 0.829065
Si Si4 0.261261 0.179850 0.670945
Si Si5 0.911654 0.602859 0.046691
Si Si6 0.523304 0.938070 0.394562
Si Si7 0.279816 0.171508 0.830387
O O1 0.500000 0.500000 0.500000
O O2 0.468464 0.667328 0.508418
O O3 0.490684 0.598792 0.385336
O O4 0.253468 0.568886 0.461478
O O5 0.115898 0.210560 0.634593
O O6 0.916074 0.300644 0.574298
O O7 0.853105 0.150542 0.617536
O O8 0.500000 0.361183 0.750000
O O9 0.623994 0.256760 0.841220
O O10 0.342735 0.268678 0.840455
O O11 0.319817 0.089931 0.636222
O O12 0.225883 0.160977 0.751240
O O13 0.000426 0.541903 0.101354
O O14 0.994598 0.600339 0.972576
O O15 0.402097 0.899980 0.343225
#
# Coordination Sequence:
#
# PCOD8247127 Si02
#       7
#     8   8   8   8   8   8   8
#     4  12  25  42  66 100 135 175 225 275 338 393
#     4  12  23  39  66  97 135 166 223 282 326 398
#     4   9  20  40  67  92 127 173 218 265 328 396
#     4  10  21  40  65  98 126 175 219 268 336 393
#     4  11  24  40  66  98 130 170 224 274 334 387
#     4  10  21  41  64  93 130 171 218 269 327 402
#     4  10  20  40  67  92 134 174 216 270 333 392
#
# _framework density 20.711655
#
# number of rings (size 3 to 8) (size 9 to 14) (size 15 to 20)
#    0.000    1.429    2.857    4.286    0.000    2.286 
#    0.000    5.714    0.000    0.000    0.000    0.000 
#    0.000    0.000    0.000    0.000    0.000    0.000 
#
# Total GULP energy -694466.044407 kJ/mol
# GULP energy per Si atom -12401.179364 kJ/mol
# Density = 2.066451 g / cm^3
# Si number density = 20.711655 Si / 1000 Ang^3
#
#
#
# Elastic Constant Matrix: (Units=GPa)
#
#
# Indices 1 2 3 4 5 6 
#
# 1 83.4702 12.5473 17.4262 0.0000 0.0000 0.0000
# 2 12.5473 81.0343 27.3712 0.0000 0.0000 0.0000
# 3 17.4262 27.3712 111.1127 0.0000 0.0000 0.0000
# 4 0.0000 0.0000 0.0000 33.6471 0.0000 0.0000
# 5 0.0000 0.0000 0.0000 0.0000 28.7403 0.0000
# 6 0.0000 0.0000 0.0000 0.0000 0.0000 23.8041
#
#
#
# Elastic Compliance Matrix: (Units=1/GPa)
#
#
# Indices 1 2 3 4 5 6 
#
# 1 0.012528 -0.001392 -0.001622 0.000000 0.000000 0.000000
# 2 -0.001392 0.013615 -0.003136 0.000000 0.000000 0.000000
# 3 -0.001622 -0.003136 0.010027 0.000000 0.000000 0.000000
# 4 0.000000 0.000000 0.000000 0.029720 0.000000 0.000000
# 5 0.000000 0.000000 0.000000 0.000000 0.034794 0.000000
# 6 0.000000 0.000000 0.000000 0.000000 0.000000 0.042010
#
#
# Mechanical properties :
#
#
# Convention : Reuss Voigt Hill
#
# Bulk Modulus (GPa) = 41.89206 43.36740 42.62973
# Shear Modulus (GPa) = 30.68423 31.78980 31.23701
#
# Velocity S-wave (km/s) = 3.85320 3.92200 3.88775
# Velocity P-wave (km/s) = 6.32980 6.44155 6.38592
#
# Compressibility (1/GPa) = 0.02387087
#
# Stress axis : x y z
#
# Youngs Moduli (GPa) = 79.82004 73.44785 99.73420
#
# Poissons Ratio (x) = 0.10224 0.16176
# Poissons Ratio (y) = 0.11111 0.31273
# Poissons Ratio (z) = 0.12946 0.23030
#
# Static dielectric constant tensor:
#      x y z
#    x 3.802480 0.000000 0.000000 
#    y 0.000000 3.542040 0.000000 
#    z 0.000000 0.000000 3.897230 
# 
# 
# High freq. dielectric constant tensor:
#      x y z
#    x 1.814660 0.000000 0.000000 
#    y 0.000000 1.788350 0.000000 
#    z 0.000000 0.000000 1.820620 
# 
# From -- ./inp_files/22204.got.cif
#   From: 2010.03.12/outbox.cif.g09.slc.cpg/sg60_12_cif.got.tgz:22204.got - 2010.04.10 18:46:24.
