data_PCOD8247558
_publ_section_title
;
Structure prediction by ZEFSAII (Michael W. Deem and Ramdas Pophale) SiO2 
 PCOD8247558
Probable space group: P B C N
;
_chemical_formula_sum "Si O2"
_cell_formula_units_Z 28
_cell_length_a 6.864224
_cell_length_b 17.210492
_cell_length_c 11.545024
_cell_angle_alpha 90.000000
_cell_angle_beta 90.000000
_cell_angle_gamma 90.000000
_cell_volume 1363.890716
_symmetry_space_group_name_H-M "P B C N"
_symmetry_group_IT_number 60
_symmetry_cell_setting 'orthorhombic'
loop_
_space_group_symop_operation_xyz
x,y,z
1/2-x,1/2-y,1/2+z
1/2+x,1/2-y,-z
-x,y,1/2-z
-x,-y,-z
1/2+x,1/2+y,1/2-z
1/2-x,1/2+y,z
x,-y,1/2+z
loop_
_atom_site_type_symbol
_atom_site_label
_atom_site_fract_x
_atom_site_fract_y
_atom_site_fract_z
Si Si1 0.039267 0.871889 0.406264
Si Si2 0.820193 0.884069 0.834243
Si Si3 0.784461 0.553869 0.779870
Si Si4 0.500000 0.766442 0.750000
O O1 0.093366 0.872622 0.538763
O O2 0.189365 0.107281 0.617935
O O3 0.089010 0.787690 0.351842
O O4 0.159372 0.938861 0.338299
O O5 0.708364 0.965371 0.822847
O O6 0.669517 0.816757 0.805991
O O7 0.000000 0.878712 0.750000
O O8 0.000000 0.583951 0.750000
#
# Coordination Sequence:
#
# PCOD8247558 Si02
#       4
#     8   8   8   4
#     4  10  25  45  62  99 135 169 223 274 325 395
#     4  12  24  41  68  96 131 171 225 271 325 401
#     4  10  21  42  69  96 129 172 217 271 333 384
#     4  10  26  44  60 100 128 178 218 264 348 386
#
# _framework density 20.529505
#
# number of rings (size 3 to 8) (size 9 to 14) (size 15 to 20)
#    0.000    1.714    4.286    0.857    4.000    8.000 
#    0.000    0.000    0.000    0.000    0.000    0.000 
#    0.000    0.000    0.000    0.000    0.000    0.000 
#
# Total GULP energy -347183.722936 kJ/mol
# GULP energy per Si atom -12399.418676 kJ/mol
# Density = 2.048278 g / cm^3
# Si number density = 20.529505 Si / 1000 Ang^3
#
#
#
# Elastic Constant Matrix: (Units=GPa)
#
#
# Indices 1 2 3 4 5 6 
#
# 1 134.4330 40.5127 63.2935 0.0000 0.0000 0.0000
# 2 40.5127 121.3757 56.9386 0.0000 0.0000 0.0000
# 3 63.2935 56.9386 171.3785 0.0000 0.0000 0.0000
# 4 0.0000 0.0000 0.0000 -438.7697 0.0000 0.0000
# 5 0.0000 0.0000 0.0000 0.0000 31.8830 0.0000
# 6 0.0000 0.0000 0.0000 0.0000 0.0000 33.0104
#
#
#
# Elastic Compliance Matrix: (Units=1/GPa)
#
#
# Indices 1 2 3 4 5 6 
#
# 1 0.009315 -0.001771 -0.002852 0.000000 0.000000 0.000000
# 2 -0.001771 0.010097 -0.002700 0.000000 0.000000 0.000000
# 3 -0.002852 -0.002700 0.007785 0.000000 0.000000 0.000000
# 4 0.000000 0.000000 0.000000 -0.002279 0.000000 0.000000
# 5 0.000000 0.000000 0.000000 0.000000 0.031365 0.000000
# 6 0.000000 0.000000 0.000000 0.000000 0.000000 0.030293
#
#
# Mechanical properties :
#
#
# Convention : Reuss Voigt Hill
#
# Bulk Modulus (GPa) = 79.67862 83.18630 81.43246
# Shear Modulus (GPa) = 47.43517 -57.01243 -4.78863
#
# Velocity S-wave (km/s) = 4.81207 -5.27553 -1.52893
# Velocity P-wave (km/s) = 8.35289 1.87082 6.05271
#
# Compressibility (1/GPa) = 0.01255042
#
# Stress axis : x y z
#
# Youngs Moduli (GPa) = 107.35221 99.04017 128.44545
#
# Poissons Ratio (x) = 0.17544 0.36629
# Poissons Ratio (y) = 0.19017 0.34685
# Poissons Ratio (z) = 0.30614 0.26744
#
# Static dielectric constant tensor:
#      x y z
#    x 2.953540 0.000000 0.000000 
#    y 0.000000 3.919780 0.000000 
#    z 0.000000 0.000000 3.691950 
# 
# 
# High freq. dielectric constant tensor:
#      x y z
#    x 1.803300 0.000000 0.000000 
#    y 0.000000 1.811350 0.000000 
#    z 0.000000 0.000000 1.800060 
# 
# From -- ./inp_files/3467.got.cif
#   From: 2010.03.12/outbox.cif.g09.slc.cpg/sg60_2_cif.got.tgz:3467.got - 2010.04.10 18:46:24.
