data_PCOD8247951
_publ_section_title
;
Structure prediction by ZEFSAII (Michael W. Deem and Ramdas Pophale) SiO2 
 PCOD8247951
Probable space group: P B C N
;
_chemical_formula_sum "Si O2"
_cell_formula_units_Z 52
_cell_length_a 8.193356
_cell_length_b 15.329798
_cell_length_c 18.044738
_cell_angle_alpha 90.000000
_cell_angle_beta 90.000000
_cell_angle_gamma 90.000000
_cell_volume 2266.464068
_symmetry_space_group_name_H-M "P B C N"
_symmetry_group_IT_number 60
_symmetry_cell_setting 'orthorhombic'
loop_
_space_group_symop_operation_xyz
x,y,z
1/2-x,1/2-y,1/2+z
1/2+x,1/2-y,-z
-x,y,1/2-z
-x,-y,-z
1/2+x,1/2+y,1/2-z
1/2-x,1/2+y,z
x,-y,1/2+z
loop_
_atom_site_type_symbol
_atom_site_label
_atom_site_fract_x
_atom_site_fract_y
_atom_site_fract_z
Si Si1 0.261049 0.230686 0.527014
Si Si2 0.738048 0.492552 0.786725
Si Si3 0.252822 0.544841 0.491671
Si Si4 0.429186 0.046477 0.352086
Si Si5 0.437647 0.241976 0.386310
Si Si6 0.500000 0.639247 0.750000
Si Si7 0.915040 0.899649 0.913879
O O1 0.311862 0.128476 0.538819
O O2 0.274821 0.248641 0.437533
O O3 0.372979 0.298139 0.573210
O O4 0.076377 0.236393 0.553798
O O5 0.774822 0.463623 0.702812
O O6 0.645459 0.584296 0.785981
O O7 0.618226 0.422479 0.827347
O O8 0.911057 0.506251 0.827601
O O9 0.116066 0.512661 0.433766
O O10 0.405007 0.577980 0.441409
O O11 0.288853 0.462574 0.542547
O O12 0.473452 0.148172 0.352092
O O13 0.423670 0.306220 0.317226
#
# Coordination Sequence:
#
# PCOD8247951 Si02
#       7
#     8   8   8   8   8   4   8
#     4  11  22  42  68 101 133 180 234 288 343 422
#     4  11  23  40  64  97 126 178 225 275 348 419
#     4  10  23  41  66  98 133 175 231 285 353 410
#     4  10  23  44  65  91 137 173 223 288 347 415
#     4  11  24  46  69  97 139 186 229 289 355 417
#     4  12  26  44  72  96 140 186 232 288 354 432
#     4  11  22  40  69  96 134 182 231 284 347 431
#
# _framework density 22.943228999999999
#
# number of rings (size 3 to 8) (size 9 to 14) (size 15 to 20)
#    0.000    1.231    3.077    2.769    4.308    0.615 
#    2.769    0.000    0.000    1.846    0.000    0.000 
#    0.000    0.000    0.000    0.000    0.000    0.000 
#
# Total GULP energy -644567.252447 kJ/mol
# GULP energy per Si atom -12395.524086 kJ/mol
# Density = 2.289101 g / cm^3
# Si number density = 22.943229 Si / 1000 Ang^3
#
#
#
# Elastic Constant Matrix: (Units=GPa)
#
#
# Indices 1 2 3 4 5 6 
#
# 1 50.8568 25.0463 20.3002 0.0000 0.0000 0.0000
# 2 25.0463 87.2943 38.5224 0.0000 0.0000 0.0000
# 3 20.3002 38.5224 90.0709 0.0000 0.0000 0.0000
# 4 0.0000 0.0000 0.0000 42.3175 0.0000 0.0000
# 5 0.0000 0.0000 0.0000 0.0000 54.7740 0.0000
# 6 0.0000 0.0000 0.0000 0.0000 0.0000 33.7949
#
#
#
# Elastic Compliance Matrix: (Units=1/GPa)
#
#
# Indices 1 2 3 4 5 6 
#
# 1 0.023529 -0.005437 -0.002978 0.000000 0.000000 0.000000
# 2 -0.005437 0.015377 -0.005351 0.000000 0.000000 0.000000
# 3 -0.002978 -0.005351 0.014062 0.000000 0.000000 0.000000
# 4 0.000000 0.000000 0.000000 0.023631 0.000000 0.000000
# 5 0.000000 0.000000 0.000000 0.000000 0.018257 0.000000
# 6 0.000000 0.000000 0.000000 0.000000 0.000000 0.029590
#
#
# Mechanical properties :
#
#
# Convention : Reuss Voigt Hill
#
# Bulk Modulus (GPa) = 39.31331 43.99552 41.65442
# Shear Modulus (GPa) = 31.16106 35.80082 33.48094
#
# Velocity S-wave (km/s) = 3.68935 3.95449 3.82422
# Velocity P-wave (km/s) = 5.94312 6.32993 6.13957
#
# Compressibility (1/GPa) = 0.02543668
#
# Stress axis : x y z
#
# Youngs Moduli (GPa) = 42.50029 65.03276 71.11306
#
# Poissons Ratio (x) = 0.35358 0.21175
# Poissons Ratio (y) = 0.23107 0.38054
# Poissons Ratio (z) = 0.12655 0.34800
#
# Static dielectric constant tensor:
#      x y z
#    x 4.125270 0.000000 0.000000 
#    y 0.000000 4.106810 0.000000 
#    z 0.000000 0.000000 4.298210 
# 
# 
# High freq. dielectric constant tensor:
#      x y z
#    x 1.905230 0.000000 0.000000 
#    y 0.000000 1.898190 0.000000 
#    z 0.000000 0.000000 1.913740 
# 
# From -- ./inp_files/22145.got.cif
#   From: 2010.03.12/outbox.cif.g09.slc.cpg/sg60_12_cif.got.tgz:22145.got - 2010.04.10 18:46:24.
