data_PCOD8247964
_publ_section_title
;
Structure prediction by ZEFSAII (Michael W. Deem and Ramdas Pophale) SiO2 
 PCOD8247964
Probable space group: P B C N
;
_chemical_formula_sum "Si O2"
_cell_formula_units_Z 44
_cell_length_a 26.555017
_cell_length_b 15.853529
_cell_length_c 5.029414
_cell_angle_alpha 90.000000
_cell_angle_beta 90.000000
_cell_angle_gamma 90.000000
_cell_volume 2117.336682
_symmetry_space_group_name_H-M "P B C N"
_symmetry_group_IT_number 60
_symmetry_cell_setting 'orthorhombic'
loop_
_space_group_symop_operation_xyz
x,y,z
1/2-x,1/2-y,1/2+z
1/2+x,1/2-y,-z
-x,y,1/2-z
-x,-y,-z
1/2+x,1/2+y,1/2-z
1/2-x,1/2+y,z
x,-y,1/2+z
loop_
_atom_site_type_symbol
_atom_site_label
_atom_site_fract_x
_atom_site_fract_y
_atom_site_fract_z
Si Si1 0.441556 0.446523 0.262646
Si Si2 0.732829 0.702420 0.793983
Si Si3 0.805646 0.555376 0.755584
Si Si4 0.500000 0.939934 0.250000
Si Si5 0.599480 0.829301 0.232992
Si Si6 0.382627 0.721171 0.775786
O O1 0.500000 0.422766 0.250000
O O2 0.427084 0.481319 0.551608
O O3 0.411324 0.362863 0.192699
O O4 0.765585 0.756185 0.585086
O O5 0.755119 0.608492 0.808267
O O6 0.675843 0.698842 0.696712
O O7 0.806093 0.524244 0.452230
O O8 0.854423 0.611193 0.815850
O O9 0.548505 0.881253 0.245964
O O10 0.500000 0.000000 0.500000
O O11 0.596748 0.752683 0.441200
O O12 0.607255 0.793863 0.938418
#
# Coordination Sequence:
#
# PCOD8247964 Si02
#       6
#     8   8   8   4   8   8
#     4  10  23  42  65  95 130 166 207 264 325 378
#     4  12  23  44  64  94 131 170 215 263 323 372
#     4  12  24  41  66  96 128 172 214 261 324 389
#     4  12  26  46  66  98 138 174 220 280 324 388
#     4  12  25  42  68  99 132 175 216 268 329 387
#     4  12  24  42  70  97 132 171 220 270 321 396
#
# _framework density 20.780826000000001
#
# number of rings (size 3 to 8) (size 9 to 14) (size 15 to 20)
#    0.000    0.364    3.636    5.455    2.545    1.455 
#    0.000    0.000    0.000    0.000    0.000    0.000 
#    0.000    0.000    0.000    0.000    0.000    0.000 
#
# Total GULP energy -546040.740225 kJ/mol
# GULP energy per Si atom -12410.016823 kJ/mol
# Density = 2.073353 g / cm^3
# Si number density = 20.780826 Si / 1000 Ang^3
#
#
#
# Elastic Constant Matrix: (Units=GPa)
#
#
# Indices 1 2 3 4 5 6 
#
# 1 124.1482 58.1739 25.9344 0.0000 0.0000 0.0000
# 2 58.1739 97.3949 17.7062 0.0000 0.0000 0.0000
# 3 25.9344 17.7062 96.0579 0.0000 0.0000 0.0000
# 4 0.0000 0.0000 0.0000 37.0294 0.0000 0.0000
# 5 0.0000 0.0000 0.0000 0.0000 26.2825 0.0000
# 6 0.0000 0.0000 0.0000 0.0000 0.0000 15.2412
#
#
#
# Elastic Compliance Matrix: (Units=1/GPa)
#
#
# Indices 1 2 3 4 5 6 
#
# 1 0.011513 -0.006530 -0.001905 0.000000 0.000000 0.000000
# 2 -0.006530 0.014328 -0.000878 0.000000 0.000000 0.000000
# 3 -0.001905 -0.000878 0.011086 0.000000 0.000000 0.000000
# 4 0.000000 0.000000 0.000000 0.027006 0.000000 0.000000
# 5 0.000000 0.000000 0.000000 0.000000 0.038048 0.000000
# 6 0.000000 0.000000 0.000000 0.000000 0.000000 0.065612
#
#
# Mechanical properties :
#
#
# Convention : Reuss Voigt Hill
#
# Bulk Modulus (GPa) = 54.64108 57.91445 56.27777
# Shear Modulus (GPa) = 25.99859 30.09638 28.04748
#
# Velocity S-wave (km/s) = 3.54091 3.80975 3.67779
# Velocity P-wave (km/s) = 6.56265 6.87619 6.72125
#
# Compressibility (1/GPa) = 0.01830125
#
# Stress axis : x y z
#
# Youngs Moduli (GPa) = 86.86022 69.79527 90.20043
#
# Poissons Ratio (x) = 0.45578 0.17179
# Poissons Ratio (y) = 0.56722 0.07919
# Poissons Ratio (z) = 0.16543 0.06127
#
# Static dielectric constant tensor:
#      x y z
#    x 3.885930 0.000000 0.000000 
#    y 0.000000 3.679290 0.000000 
#    z 0.000000 0.000000 3.851960 
# 
# 
# High freq. dielectric constant tensor:
#      x y z
#    x 1.819730 0.000000 0.000000 
#    y 0.000000 1.820110 0.000000 
#    z 0.000000 0.000000 1.831520 
# 
# From -- ./inp_files/2529.got.cif
#   From: 2010.03.12/outbox.cif.g09.slc.cpg/sg60_2_cif.got.tgz:2529.got - 2010.04.10 18:46:24.
