data_PCOD8247292
_publ_section_title
;
Structure prediction by ZEFSAII (Michael W. Deem and Ramdas Pophale) SiO2 
 PCOD8247292
Probable space group: P B C N
;
_chemical_formula_sum "Si O2"
_cell_formula_units_Z 64
_cell_length_a 18.215420
_cell_length_b 19.146492
_cell_length_c 9.156233
_cell_angle_alpha 90.000000
_cell_angle_beta 90.000000
_cell_angle_gamma 90.000000
_cell_volume 3193.340579
_symmetry_space_group_name_H-M "P B C N"
_symmetry_group_IT_number 60
_symmetry_cell_setting 'orthorhombic'
loop_
_space_group_symop_operation_xyz
x,y,z
1/2-x,1/2-y,1/2+z
1/2+x,1/2-y,-z
-x,y,1/2-z
-x,-y,-z
1/2+x,1/2+y,1/2-z
1/2-x,1/2+y,z
x,-y,1/2+z
loop_
_atom_site_type_symbol
_atom_site_label
_atom_site_fract_x
_atom_site_fract_y
_atom_site_fract_z
Si Si1 0.820306 0.800548 0.442885
Si Si2 0.390416 0.080091 0.072726
Si Si3 0.703690 0.713573 0.276125
Si Si4 0.782850 0.937193 0.272405
Si Si5 0.216977 0.076628 0.065351
Si Si6 0.564580 0.198996 0.851428
Si Si7 0.889762 0.444672 0.258989
Si Si8 0.466445 0.773884 0.603205
O O1 0.778898 0.744545 0.341024
O O2 0.784086 0.802508 0.604351
O O3 0.817956 0.876033 0.368515
O O4 0.905224 0.778491 0.459700
O O5 0.303315 0.089775 0.081598
O O6 0.412689 0.059879 0.909120
O O7 0.430707 0.149996 0.122248
O O8 0.416205 0.019141 0.181379
O O9 0.678719 0.644209 0.362714
O O10 0.641631 0.771565 0.296797
O O11 0.807509 0.931693 0.103303
O O12 0.695918 0.933032 0.284599
O O13 0.810076 0.009782 0.342647
O O14 0.500000 0.227476 0.750000
O O15 0.568459 0.115118 0.848365
O O16 0.541166 0.223469 0.010322
O O17 0.500000 0.743371 0.750000
#
# Coordination Sequence:
#
# PCOD8247292 Si02
#       8
#     8   8   8   8   8   8   8   8
#     4  12  24  42  66  96 126 168 220 267 318 379
#     4  10  21  39  57  88 126 167 213 253 302 377
#     4  12  24  40  69  93 126 171 218 266 320 378
#     4  10  21  39  64  96 127 162 213 270 316 376
#     4  10  21  39  66  95 128 163 212 266 321 372
#     4  12  24  44  61  88 132 173 205 257 325 375
#     4  10  21  37  60  86 124 171 211 251 308 372
#     4  12  28  42  61  93 132 168 215 263 317 383
#
# _framework density 20.041709000000001
#
# number of rings (size 3 to 8) (size 9 to 14) (size 15 to 20)
#    0.000    1.000    5.000    1.500    5.250    2.000 
#    0.000    0.000    0.000    1.500    0.000    0.000 
#    0.000    0.000    0.000    0.000    0.000    0.000 
#
# Total GULP energy -793716.829113 kJ/mol
# GULP energy per Si atom -12401.825455 kJ/mol
# Density = 1.999609 g / cm^3
# Si number density = 20.041709 Si / 1000 Ang^3
#
#
#
# Elastic Constant Matrix: (Units=GPa)
#
#
# Indices 1 2 3 4 5 6 
#
# 1 38.0402 9.5347 8.1109 0.0000 0.0000 0.0000
# 2 9.5347 108.3500 23.9831 0.0000 0.0000 0.0000
# 3 8.1109 23.9831 109.9981 0.0000 0.0000 0.0000
# 4 0.0000 0.0000 0.0000 37.5169 0.0000 0.0000
# 5 0.0000 0.0000 0.0000 0.0000 30.3621 0.0000
# 6 0.0000 0.0000 0.0000 0.0000 0.0000 21.8278
#
#
#
# Elastic Compliance Matrix: (Units=1/GPa)
#
#
# Indices 1 2 3 4 5 6 
#
# 1 0.027132 -0.002043 -0.001555 0.000000 0.000000 0.000000
# 2 -0.002043 0.009851 -0.001997 0.000000 0.000000 0.000000
# 3 -0.001555 -0.001997 0.009641 0.000000 0.000000 0.000000
# 4 0.000000 0.000000 0.000000 0.026655 0.000000 0.000000
# 5 0.000000 0.000000 0.000000 0.000000 0.032936 0.000000
# 6 0.000000 0.000000 0.000000 0.000000 0.000000 0.045813
#
#
# Mechanical properties :
#
#
# Convention : Reuss Voigt Hill
#
# Bulk Modulus (GPa) = 28.22239 37.73839 32.98039
# Shear Modulus (GPa) = 28.56654 32.25867 30.41261
#
# Velocity S-wave (km/s) = 3.77948 4.01631 3.89969
# Velocity P-wave (km/s) = 5.75833 6.35440 6.06370
#
# Compressibility (1/GPa) = 0.03543286
#
# Stress axis : x y z
#
# Youngs Moduli (GPa) = 36.85724 101.51002 103.72163
#
# Poissons Ratio (x) = 0.20742 0.16130
# Poissons Ratio (y) = 0.07531 0.20715
# Poissons Ratio (z) = 0.05732 0.20274
#
# Static dielectric constant tensor:
#      x y z
#    x 3.565220 0.000000 0.000000 
#    y 0.000000 3.708180 0.000000 
#    z 0.000000 0.000000 3.897360 
# 
# 
# High freq. dielectric constant tensor:
#      x y z
#    x 1.757630 0.000000 0.000000 
#    y 0.000000 1.782940 0.000000 
#    z 0.000000 0.000000 1.796390 
# 
# From -- ./inp_files/7559.got.cif
#   From: 2010.03.12/outbox.cif.g09.slc.cpg/sg60_4_cif.got.tgz:7559.got - 2010.04.10 18:46:24.
