data_PCOD8247573
_publ_section_title
;
Structure prediction by ZEFSAII (Michael W. Deem and Ramdas Pophale) SiO2 
 PCOD8247573
Probable space group: P B C N
;
_chemical_formula_sum "Si O2"
_cell_formula_units_Z 52
_cell_length_a 15.552898
_cell_length_b 18.842017
_cell_length_c 9.067530
_cell_angle_alpha 90.000000
_cell_angle_beta 90.000000
_cell_angle_gamma 90.000000
_cell_volume 2657.221246
_symmetry_space_group_name_H-M "P B C N"
_symmetry_group_IT_number 60
_symmetry_cell_setting 'orthorhombic'
loop_
_space_group_symop_operation_xyz
x,y,z
1/2-x,1/2-y,1/2+z
1/2+x,1/2-y,-z
-x,y,1/2-z
-x,-y,-z
1/2+x,1/2+y,1/2-z
1/2-x,1/2+y,z
x,-y,1/2+z
loop_
_atom_site_type_symbol
_atom_site_label
_atom_site_fract_x
_atom_site_fract_y
_atom_site_fract_z
Si Si1 0.855703 0.714590 0.432205
Si Si2 0.081400 0.472172 0.914556
Si Si3 0.000000 0.654249 0.250000
Si Si4 0.802744 0.476794 0.316821
Si Si5 0.734981 0.375522 0.748838
Si Si6 0.728440 0.833517 0.419222
Si Si7 0.602426 0.257731 0.752105
O O1 0.796055 0.649176 0.382900
O O2 0.811074 0.786774 0.377857
O O3 0.865720 0.716146 0.607454
O O4 0.947843 0.706562 0.356281
O O5 0.108149 0.520873 0.775961
O O6 0.062675 0.393876 0.851044
O O7 0.166180 0.476553 0.013922
O O8 0.000000 0.500000 0.000000
O O9 0.734688 0.538781 0.271966
O O10 0.758511 0.399791 0.306859
O O11 0.775302 0.354716 0.591191
O O12 0.641324 0.338187 0.761487
O O13 0.639831 0.789855 0.386272
O O14 0.500000 0.264041 0.750000
#
# Coordination Sequence:
#
# PCOD8247573 Si02
#       7
#     8   8   4   8   8   8   8
#     4  10  22  40  60  85 120 163 193 248 300 360
#     4  12  23  35  54  89 122 156 192 230 302 358
#     4  12  22  38  60  84 130 156 192 248 304 356
#     4  12  22  37  59  84 118 160 193 243 289 364
#     4  10  21  44  59  83 126 161 195 241 311 357
#     4  10  23  39  61  88 118 155 209 240 300 362
#     4  10  24  39  63  90 115 155 207 254 291 355
#
# _framework density 19.569313999999999
#
# number of rings (size 3 to 8) (size 9 to 14) (size 15 to 20)
#    0.000    1.231    4.615    0.000    8.615    0.000 
#    0.000    0.000    1.692    1.846    0.000    0.000 
#    0.000    0.000    0.000    0.000    0.000    0.000 
#
# Total GULP energy -644300.324415 kJ/mol
# GULP energy per Si atom -12390.390854 kJ/mol
# Density = 1.952477 g / cm^3
# Si number density = 19.569314 Si / 1000 Ang^3
#
#
#
# Elastic Constant Matrix: (Units=GPa)
#
#
# Indices 1 2 3 4 5 6 
#
# 1 88.2326 53.9944 43.3600 0.0000 0.0000 0.0000
# 2 53.9944 125.9524 39.9553 0.0000 0.0000 0.0000
# 3 43.3600 39.9553 70.7331 0.0000 0.0000 0.0000
# 4 0.0000 0.0000 0.0000 25.5550 0.0000 0.0000
# 5 0.0000 0.0000 0.0000 0.0000 30.0002 0.0000
# 6 0.0000 0.0000 0.0000 0.0000 0.0000 33.2933
#
#
#
# Elastic Compliance Matrix: (Units=1/GPa)
#
#
# Indices 1 2 3 4 5 6 
#
# 1 0.018785 -0.005361 -0.008487 0.000000 0.000000 0.000000
# 2 -0.005361 0.011202 -0.003042 0.000000 0.000000 0.000000
# 3 -0.008487 -0.003042 0.021059 0.000000 0.000000 0.000000
# 4 0.000000 0.000000 0.000000 0.039131 0.000000 0.000000
# 5 0.000000 0.000000 0.000000 0.000000 0.033333 0.000000
# 6 0.000000 0.000000 0.000000 0.000000 0.000000 0.030036
#
#
# Mechanical properties :
#
#
# Convention : Reuss Voigt Hill
#
# Bulk Modulus (GPa) = 57.91514 62.17082 60.04298
# Shear Modulus (GPa) = 25.89575 27.61026 26.75300
#
# Velocity S-wave (km/s) = 3.64164 3.76026 3.70143
# Velocity P-wave (km/s) = 6.88049 7.11978 7.00116
#
# Compressibility (1/GPa) = 0.01726664
#
# Stress axis : x y z
#
# Youngs Moduli (GPa) = 53.23406 89.26586 47.48613
#
# Poissons Ratio (x) = 0.47851 0.40303
# Poissons Ratio (y) = 0.28536 0.14445
# Poissons Ratio (z) = 0.45181 0.27154
#
# Static dielectric constant tensor:
#      x y z
#    x 3.576450 0.000000 0.000000 
#    y 0.000000 3.880730 0.000000 
#    z 0.000000 0.000000 3.840660 
# 
# 
# High freq. dielectric constant tensor:
#      x y z
#    x 1.736690 0.000000 0.000000 
#    y 0.000000 1.757740 0.000000 
#    z 0.000000 0.000000 1.778940 
# 
# From -- ./inp_files/6884.got.cif
#   From: 2010.03.12/outbox.cif.g09.slc.cpg/sg60_4_cif.got.tgz:6884.got - 2010.04.10 18:46:24.
