data_PCOD8247227
_publ_section_title
;
Structure prediction by ZEFSAII (Michael W. Deem and Ramdas Pophale) SiO2 
 PCOD8247227
Probable space group: P B C N
;
_chemical_formula_sum "Si O2"
_cell_formula_units_Z 60
_cell_length_a 26.169733
_cell_length_b 12.641761
_cell_length_c 9.047377
_cell_angle_alpha 90.000000
_cell_angle_beta 90.000000
_cell_angle_gamma 90.000000
_cell_volume 2993.157395
_symmetry_space_group_name_H-M "P B C N"
_symmetry_group_IT_number 60
_symmetry_cell_setting 'orthorhombic'
loop_
_space_group_symop_operation_xyz
x,y,z
1/2-x,1/2-y,1/2+z
1/2+x,1/2-y,-z
-x,y,1/2-z
-x,-y,-z
1/2+x,1/2+y,1/2-z
1/2-x,1/2+y,z
x,-y,1/2+z
loop_
_atom_site_type_symbol
_atom_site_label
_atom_site_fract_x
_atom_site_fract_y
_atom_site_fract_z
Si Si1 0.500000 0.511230 0.250000
Si Si2 0.930145 0.946426 0.501201
Si Si3 0.732530 0.447057 0.091964
Si Si4 0.761907 0.133101 0.900146
Si Si5 0.628601 0.336370 0.044715
Si Si6 0.146545 0.363610 0.118065
Si Si7 0.651392 0.075974 0.549560
Si Si8 0.363934 0.270584 0.127413
O O1 0.460603 0.581516 0.347461
O O2 0.468614 0.437159 0.137056
O O3 0.885549 0.861724 0.480467
O O4 0.908178 0.065394 0.511391
O O5 0.730597 0.451649 0.268550
O O6 0.687560 0.372328 0.030447
O O7 0.787633 0.405506 0.036040
O O8 0.725359 0.569172 0.048695
O O9 0.704826 0.176827 0.895720
O O10 0.802201 0.226942 0.880082
O O11 0.616474 0.288563 0.206861
O O12 0.615439 0.241685 0.929294
O O13 0.132567 0.402868 0.282639
O O14 0.136361 0.457886 0.000942
O O15 0.621813 0.156058 0.438734
#
# Coordination Sequence:
#
# PCOD8247227 Si02
#       8
#     4   8   8   8   8   8   8   8
#     4  10  24  42  60  86 122 138 176 238 310 366
#     4  11  22  40  62  90 116 146 180 234 302 355
#     4   9  18  31  48  76 114 154 194 236 273 317
#     4   9  18  31  48  76 114 154 194 236 273 317
#     4  11  21  34  56  84 113 149 195 234 279 342
#     4  10  21  35  52  77 116 160 198 235 272 315
#     4  10  21  35  52  77 116 160 198 235 272 315
#     4  11  21  34  56  84 113 149 195 234 279 342
#
# _framework density 20.045719999999999
#
# number of rings (size 3 to 8) (size 9 to 14) (size 15 to 20)
#    0.000    1.867    2.667    1.600    1.867    2.133 
#    0.000    0.000    0.000    0.000    0.000    5.600 
#    0.000    0.000    0.000    0.000    0.000    0.000 
#
# Total GULP energy -743641.343396 kJ/mol
# GULP energy per Si atom -12394.022390 kJ/mol
# Density = 2.000010 g / cm^3
# Si number density = 20.045720 Si / 1000 Ang^3
#
#
#
# Elastic Constant Matrix: (Units=GPa)
#
#
# Indices 1 2 3 4 5 6 
#
# 1 39.0752 27.0565 20.8890 0.0000 0.0000 0.0000
# 2 27.0565 88.7617 32.3498 0.0000 0.0000 0.0000
# 3 20.8890 32.3498 85.7951 0.0000 0.0000 0.0000
# 4 0.0000 0.0000 0.0000 33.8752 0.0000 0.0000
# 5 0.0000 0.0000 0.0000 0.0000 26.1925 0.0000
# 6 0.0000 0.0000 0.0000 0.0000 0.0000 8.0333
#
#
#
# Elastic Compliance Matrix: (Units=1/GPa)
#
#
# Indices 1 2 3 4 5 6 
#
# 1 0.034265 -0.008584 -0.005106 0.000000 0.000000 0.000000
# 2 -0.008584 0.015211 -0.003646 0.000000 0.000000 0.000000
# 3 -0.005106 -0.003646 0.014274 0.000000 0.000000 0.000000
# 4 0.000000 0.000000 0.000000 0.029520 0.000000 0.000000
# 5 0.000000 0.000000 0.000000 0.000000 0.038179 0.000000
# 6 0.000000 0.000000 0.000000 0.000000 0.000000 0.124482
#
#
# Mechanical properties :
#
#
# Convention : Reuss Voigt Hill
#
# Bulk Modulus (GPa) = 34.38934 41.58030 37.98482
# Shear Modulus (GPa) = 16.65033 22.50929 19.57981
#
# Velocity S-wave (km/s) = 2.88517 3.35460 3.12870
# Velocity P-wave (km/s) = 5.31899 5.98266 5.66056
#
# Compressibility (1/GPa) = 0.02907878
#
# Stress axis : x y z
#
# Youngs Moduli (GPa) = 29.18440 65.74053 70.05987
#
# Poissons Ratio (x) = 0.56430 0.35773
# Poissons Ratio (y) = 0.25051 0.25541
# Poissons Ratio (z) = 0.14902 0.23967
#
# Static dielectric constant tensor:
#      x y z
#    x 3.391000 0.000000 0.000000 
#    y 0.000000 3.331370 0.000000 
#    z 0.000000 0.000000 3.805770 
# 
# 
# High freq. dielectric constant tensor:
#      x y z
#    x 1.739120 0.000000 0.000000 
#    y 0.000000 1.764030 0.000000 
#    z 0.000000 0.000000 1.797020 
# 
# From -- ./inp_files/8168.got.cif
#   From: 2010.03.12/outbox.cif.g09.slc.cpg/sg60_5_cif.got.tgz:8168.got - 2010.04.10 18:46:24.
