data_PCOD8247232
_publ_section_title
;
Structure prediction by ZEFSAII (Michael W. Deem and Ramdas Pophale) SiO2 
 PCOD8247232
Probable space group: P B C N
;
_chemical_formula_sum "Si O2"
_cell_formula_units_Z 32
_cell_length_a 5.101730
_cell_length_b 16.745910
_cell_length_c 20.374421
_cell_angle_alpha 90.000000
_cell_angle_beta 90.000000
_cell_angle_gamma 90.000000
_cell_volume 1740.650179
_symmetry_space_group_name_H-M "P B C N"
_symmetry_group_IT_number 60
_symmetry_cell_setting 'orthorhombic'
loop_
_space_group_symop_operation_xyz
x,y,z
1/2-x,1/2-y,1/2+z
1/2+x,1/2-y,-z
-x,y,1/2-z
-x,-y,-z
1/2+x,1/2+y,1/2-z
1/2-x,1/2+y,z
x,-y,1/2+z
loop_
_atom_site_type_symbol
_atom_site_label
_atom_site_fract_x
_atom_site_fract_y
_atom_site_fract_z
Si Si1 0.508359 0.475137 0.176510
Si Si2 0.696514 0.538688 0.448107
Si Si3 0.628825 0.200264 0.512055
Si Si4 0.020491 0.410624 0.120647
O O1 0.500000 0.510665 0.250000
O O2 0.456605 0.544746 0.122596
O O3 0.285573 0.406414 0.164249
O O4 0.786964 0.433897 0.168369
O O5 0.500000 0.500000 0.500000
O O6 0.788222 0.626439 0.466618
O O7 0.943359 0.478120 0.437274
O O8 0.380901 0.243289 0.478905
O O9 0.541878 0.172608 0.584754
#
# Coordination Sequence:
#
# PCOD8247232 Si02
#       4
#     8   8   8   8
#     4  10  21  35  63  88 110 151 205 248 288 341
#     4  10  21  37  63  86 118 147 201 249 290 345
#     4  12  23  34  56  93 123 151 187 244 307 349
#     4  10  21  37  59  83 120 148 201 241 291 342
#
# _framework density 18.383937
#
# number of rings (size 3 to 8) (size 9 to 14) (size 15 to 20)
#    1.500    0.000    2.500    4.500    3.500    0.000 
#    0.000    0.000    0.000    6.000    0.000    0.000 
#    0.000    0.000    0.000    0.000    0.000    0.000 
#
# Total GULP energy -396498.839912 kJ/mol
# GULP energy per Si atom -12390.588747 kJ/mol
# Density = 1.834209 g / cm^3
# Si number density = 18.383937 Si / 1000 Ang^3
#
#
#
# Elastic Constant Matrix: (Units=GPa)
#
#
# Indices 1 2 3 4 5 6 
#
# 1 137.4534 34.4230 34.6852 0.0000 0.0000 0.0000
# 2 34.4230 70.0853 32.0449 0.0000 0.0000 0.0000
# 3 34.6852 32.0449 124.8192 0.0000 0.0000 0.0000
# 4 0.0000 0.0000 0.0000 11.0720 0.0000 0.0000
# 5 0.0000 0.0000 0.0000 0.0000 24.5170 0.0000
# 6 0.0000 0.0000 0.0000 0.0000 0.0000 36.4468
#
#
#
# Elastic Compliance Matrix: (Units=1/GPa)
#
#
# Indices 1 2 3 4 5 6 
#
# 1 0.008526 -0.003517 -0.001466 0.000000 0.000000 0.000000
# 2 -0.003517 0.017617 -0.003545 0.000000 0.000000 0.000000
# 3 -0.001466 -0.003545 0.009329 0.000000 0.000000 0.000000
# 4 0.000000 0.000000 0.000000 0.090318 0.000000 0.000000
# 5 0.000000 0.000000 0.000000 0.000000 0.040788 0.000000
# 6 0.000000 0.000000 0.000000 0.000000 0.000000 0.027437
#
#
# Mechanical properties :
#
#
# Convention : Reuss Voigt Hill
#
# Bulk Modulus (GPa) = 54.30537 59.40712 56.85624
# Shear Modulus (GPa) = 23.01902 29.82080 26.41991
#
# Velocity S-wave (km/s) = 3.54238 4.03191 3.79505
# Velocity P-wave (km/s) = 6.80698 7.35255 7.08502
#
# Compressibility (1/GPa) = 0.01841439
#
# Stress axis : x y z
#
# Youngs Moduli (GPa) = 117.28798 56.76364 107.18972
#
# Poissons Ratio (x) = 0.19965 0.15717
# Poissons Ratio (y) = 0.41253 0.38003
# Poissons Ratio (z) = 0.17198 0.20125
#
# Static dielectric constant tensor:
#      x y z
#    x 3.634190 0.000000 0.000000 
#    y 0.000000 3.202760 0.000000 
#    z 0.000000 0.000000 3.263480 
# 
# 
# High freq. dielectric constant tensor:
#      x y z
#    x 1.741780 0.000000 0.000000 
#    y 0.000000 1.668210 0.000000 
#    z 0.000000 0.000000 1.703420 
# 
# From -- ./inp_files/18449.got.cif
#   From: 2010.03.12/outbox.cif.g09.slc.cpg/sg60_10_cif.got.tgz:18449.got - 2010.04.10 18:46:24.
