data_PCOD8247418
_publ_section_title
;
Structure prediction by ZEFSAII (Michael W. Deem and Ramdas Pophale) SiO2 
 PCOD8247418
Probable space group: P B C N
;
_chemical_formula_sum "Si O2"
_cell_formula_units_Z 64
_cell_length_a 13.789458
_cell_length_b 17.083140
_cell_length_c 13.129948
_cell_angle_alpha 90.000000
_cell_angle_beta 90.000000
_cell_angle_gamma 90.000000
_cell_volume 3092.985632
_symmetry_space_group_name_H-M "P B C N"
_symmetry_group_IT_number 60
_symmetry_cell_setting 'orthorhombic'
loop_
_space_group_symop_operation_xyz
x,y,z
1/2-x,1/2-y,1/2+z
1/2+x,1/2-y,-z
-x,y,1/2-z
-x,-y,-z
1/2+x,1/2+y,1/2-z
1/2-x,1/2+y,z
x,-y,1/2+z
loop_
_atom_site_type_symbol
_atom_site_label
_atom_site_fract_x
_atom_site_fract_y
_atom_site_fract_z
Si Si1 0.547671 0.679083 0.639523
Si Si2 0.089118 0.015698 0.825189
Si Si3 0.126403 0.555314 0.542716
Si Si4 0.286362 0.088157 0.748318
Si Si5 0.917382 0.596715 0.564594
Si Si6 0.210856 0.877745 0.911268
Si Si7 0.220937 0.744951 0.261439
Si Si8 0.872273 0.252693 0.951865
O O1 0.500000 0.672973 0.750000
O O2 0.557390 0.588408 0.601119
O O3 0.647836 0.726092 0.649802
O O4 0.484070 0.728076 0.560721
O O5 0.179705 0.053872 0.766132
O O6 0.000000 0.990637 0.750000
O O7 0.126605 0.942120 0.891368
O O8 0.191728 0.549237 0.641457
O O9 0.094749 0.466555 0.523959
O O10 0.186490 0.584939 0.444164
O O11 0.033427 0.609207 0.572309
O O12 0.366714 0.065025 0.832600
O O13 0.290908 0.182263 0.737840
O O14 0.865069 0.677013 0.532114
O O15 0.222054 0.829727 0.805788
O O16 0.183235 0.822116 0.004901
O O17 0.170235 0.719402 0.156294
#
# Coordination Sequence:
#
# PCOD8247418 Si02
#       8
#     8   8   8   8   8   8   8   8
#     4   8  18  39  62  84 118 170 214 256 316 386
#     4  10  23  42  63  93 130 173 219 264 327 397
#     4  11  25  42  66  95 129 172 216 272 330 391
#     4  11  21  45  67  90 133 168 210 276 325 383
#     4  11  24  43  65  97 127 169 225 263 332 397
#     4  12  23  40  62  99 133 166 222 269 324 403
#     4  10  21  39  64  90 130 166 211 265 322 381
#     4  11  22  40  64  96 127 169 217 269 327 384
#
# _framework density 20.691980000000001
#
# number of rings (size 3 to 8) (size 9 to 14) (size 15 to 20)
#    0.000    1.500    3.750    1.875    1.750    0.500 
#    2.250    1.250    0.000    0.000    0.000    0.000 
#    0.000    0.000    0.000    0.000    0.000    0.000 
#
# Total GULP energy -793367.548563 kJ/mol
# GULP energy per Si atom -12396.367946 kJ/mol
# Density = 2.064488 g / cm^3
# Si number density = 20.691980 Si / 1000 Ang^3
#
#
#
# Elastic Constant Matrix: (Units=GPa)
#
#
# Indices 1 2 3 4 5 6 
#
# 1 89.6399 17.1835 23.7130 0.0000 0.0000 0.0000
# 2 17.1835 86.1329 27.0705 0.0000 0.0000 0.0000
# 3 23.7130 27.0705 76.0003 0.0000 0.0000 0.0000
# 4 0.0000 0.0000 0.0000 23.7555 0.0000 0.0000
# 5 0.0000 0.0000 0.0000 0.0000 31.5533 0.0000
# 6 0.0000 0.0000 0.0000 0.0000 0.0000 32.9307
#
#
#
# Elastic Compliance Matrix: (Units=1/GPa)
#
#
# Indices 1 2 3 4 5 6 
#
# 1 0.012309 -0.001406 -0.003340 0.000000 0.000000 0.000000
# 2 -0.001406 0.013234 -0.004275 0.000000 0.000000 0.000000
# 3 -0.003340 -0.004275 0.015723 0.000000 0.000000 0.000000
# 4 0.000000 0.000000 0.000000 0.042096 0.000000 0.000000
# 5 0.000000 0.000000 0.000000 0.000000 0.031692 0.000000
# 6 0.000000 0.000000 0.000000 0.000000 0.000000 0.030367
#
#
# Mechanical properties :
#
#
# Convention : Reuss Voigt Hill
#
# Bulk Modulus (GPa) = 43.05923 43.07857 43.06890
# Shear Modulus (GPa) = 29.20507 29.90163 29.55335
#
# Velocity S-wave (km/s) = 3.76096 3.80555 3.78332
# Velocity P-wave (km/s) = 6.30195 6.33828 6.32014
#
# Compressibility (1/GPa) = 0.02322382
#
# Stress axis : x y z
#
# Youngs Moduli (GPa) = 81.24315 75.56246 63.60261
#
# Poissons Ratio (x) = 0.10624 0.21241
# Poissons Ratio (y) = 0.11422 0.27191
# Poissons Ratio (z) = 0.27133 0.32304
#
# Static dielectric constant tensor:
#      x y z
#    x 3.966410 0.000000 0.000000 
#    y 0.000000 3.802690 0.000000 
#    z 0.000000 0.000000 3.424280 
# 
# 
# High freq. dielectric constant tensor:
#      x y z
#    x 1.813950 0.000000 0.000000 
#    y 0.000000 1.812500 0.000000 
#    z 0.000000 0.000000 1.790010 
# 
# From -- ./inp_files/12133.got.cif
#   From: 2010.03.12/outbox.cif.g09.slc.cpg/sg60_7_cif.got.tgz:12133.got - 2010.04.10 18:46:24.
