data_PCOD8247686
_publ_section_title
;
Structure prediction by ZEFSAII (Michael W. Deem and Ramdas Pophale) SiO2 
 PCOD8247686
Probable space group: P B C N
;
_chemical_formula_sum "Si O2"
_cell_formula_units_Z 48
_cell_length_a 8.975507
_cell_length_b 9.809271
_cell_length_c 28.850622
_cell_angle_alpha 90.000000
_cell_angle_beta 90.000000
_cell_angle_gamma 90.000000
_cell_volume 2540.100521
_symmetry_space_group_name_H-M "P B C N"
_symmetry_group_IT_number 60
_symmetry_cell_setting 'orthorhombic'
loop_
_space_group_symop_operation_xyz
x,y,z
1/2-x,1/2-y,1/2+z
1/2+x,1/2-y,-z
-x,y,1/2-z
-x,-y,-z
1/2+x,1/2+y,1/2-z
1/2-x,1/2+y,z
x,-y,1/2+z
loop_
_atom_site_type_symbol
_atom_site_label
_atom_site_fract_x
_atom_site_fract_y
_atom_site_fract_z
Si Si1 0.391608 0.287636 0.708360
Si Si2 0.080093 0.381693 0.974030
Si Si3 0.103394 0.206595 0.376860
Si Si4 0.604647 0.975270 0.791473
Si Si5 0.923789 0.865514 0.518065
Si Si6 0.623395 0.021772 0.126862
O O1 0.500000 0.334092 0.750000
O O2 0.467870 0.304838 0.658551
O O3 0.343283 0.131022 0.716142
O O4 0.247579 0.380756 0.708012
O O5 0.248737 0.370915 0.991289
O O6 0.067794 0.410598 0.920065
O O7 0.000000 0.500000 0.000000
O O8 0.992659 0.245721 0.984662
O O9 0.044911 0.161856 0.427546
O O10 0.230231 0.104849 0.357431
O O11 0.165104 0.361960 0.379146
O O12 0.500000 0.926166 0.750000
O O13 0.511819 0.958147 0.838231
O O14 0.000000 0.000000 0.500000
#
# Coordination Sequence:
#
# PCOD8247686 Si02
#       6
#     8   8   8   8   8   8
#     4  10  22  40  62  90 121 154 196 244 295 356
#     4  11  22  41  60  87 123 158 204 253 300 359
#     4  10  22  40  60  87 119 156 200 242 297 355
#     4  10  22  40  61  90 121 154 196 244 297 352
#     4  11  24  39  62  89 119 165 204 252 308 359
#     4  10  22  39  61  86 119 158 196 246 295 354
#
# _framework density 18.896889000000002
#
# number of rings (size 3 to 8) (size 9 to 14) (size 15 to 20)
#    0.000    1.667    1.667    2.000    7.000    4.667 
#    0.000    0.000    0.000    0.000    0.000    0.000 
#    0.000    0.000    0.000    0.000    0.000    0.000 
#
# Total GULP energy -595277.487910 kJ/mol
# GULP energy per Si atom -12401.614331 kJ/mol
# Density = 1.885388 g / cm^3
# Si number density = 18.896889 Si / 1000 Ang^3
#
#
#
# Elastic Constant Matrix: (Units=GPa)
#
#
# Indices 1 2 3 4 5 6 
#
# 1 139.1285 87.3469 70.0754 0.0000 0.0000 0.0000
# 2 87.3469 156.7598 60.4358 0.0000 0.0000 0.0000
# 3 70.0754 60.4358 84.7057 0.0000 0.0000 0.0000
# 4 0.0000 0.0000 0.0000 31.7419 0.0000 0.0000
# 5 0.0000 0.0000 0.0000 0.0000 30.1654 0.0000
# 6 0.0000 0.0000 0.0000 0.0000 0.0000 49.8166
#
#
#
# Elastic Compliance Matrix: (Units=1/GPa)
#
#
# Indices 1 2 3 4 5 6 
#
# 1 0.014518 -0.004771 -0.008606 0.000000 0.000000 0.000000
# 2 -0.004771 0.010368 -0.003450 0.000000 0.000000 0.000000
# 3 -0.008606 -0.003450 0.021387 0.000000 0.000000 0.000000
# 4 0.000000 0.000000 0.000000 0.031504 0.000000 0.000000
# 5 0.000000 0.000000 0.000000 0.000000 0.033151 0.000000
# 6 0.000000 0.000000 0.000000 0.000000 0.000000 0.020074
#
#
# Mechanical properties :
#
#
# Convention : Reuss Voigt Hill
#
# Bulk Modulus (GPa) = 79.25462 90.70114 84.97788
# Shear Modulus (GPa) = 29.61011 33.19384 31.40197
#
# Velocity S-wave (km/s) = 3.96274 4.19570 4.08088
# Velocity P-wave (km/s) = 7.93532 8.46014 8.20193
#
# Compressibility (1/GPa) = 0.01261756
#
# Stress axis : x y z
#
# Youngs Moduli (GPa) = 68.88096 96.45117 46.75826
#
# Poissons Ratio (x) = 0.46022 0.40240
# Poissons Ratio (y) = 0.32866 0.16131
# Poissons Ratio (z) = 0.59279 0.33275
#
# Static dielectric constant tensor:
#      x y z
#    x 3.657900 0.000000 0.000000 
#    y 0.000000 3.719140 0.000000 
#    z 0.000000 0.000000 3.634790 
# 
# 
# High freq. dielectric constant tensor:
#      x y z
#    x 1.733910 0.000000 0.000000 
#    y 0.000000 1.749610 0.000000 
#    z 0.000000 0.000000 1.749290 
# 
# From -- ./inp_files/25910.got.cif
#   From: 2010.03.12/outbox.cif.g09.slc.cpg/sg60_13_cif.got.tgz:25910.got - 2010.04.10 18:46:24.
