data_PCOD8247144
_publ_section_title
;
Structure prediction by ZEFSAII (Michael W. Deem and Ramdas Pophale) SiO2 
 PCOD8247144
Probable space group: P B C N
;
_chemical_formula_sum "Si O2"
_cell_formula_units_Z 64
_cell_length_a 13.150245
_cell_length_b 17.341204
_cell_length_c 14.532094
_cell_angle_alpha 90.000000
_cell_angle_beta 90.000000
_cell_angle_gamma 90.000000
_cell_volume 3313.914428
_symmetry_space_group_name_H-M "P B C N"
_symmetry_group_IT_number 60
_symmetry_cell_setting 'orthorhombic'
loop_
_space_group_symop_operation_xyz
x,y,z
1/2-x,1/2-y,1/2+z
1/2+x,1/2-y,-z
-x,y,1/2-z
-x,-y,-z
1/2+x,1/2+y,1/2-z
1/2-x,1/2+y,z
x,-y,1/2+z
loop_
_atom_site_type_symbol
_atom_site_label
_atom_site_fract_x
_atom_site_fract_y
_atom_site_fract_z
Si Si1 0.345647 0.991752 0.077103
Si Si2 0.164651 0.345484 0.489441
Si Si3 0.635335 0.280358 0.085223
Si Si4 0.459141 0.910746 0.344958
Si Si5 0.886191 0.875185 0.255919
Si Si6 0.253186 0.877549 0.931527
Si Si7 0.727141 0.003744 0.222480
Si Si8 0.092903 0.806182 0.051202
O O1 0.451436 0.950237 0.097467
O O2 0.286000 0.017317 0.169011
O O3 0.363841 0.070227 0.023755
O O4 0.280250 0.936280 0.012630
O O5 0.282599 0.335017 0.464516
O O6 0.093846 0.339307 0.397820
O O7 0.130832 0.281834 0.563199
O O8 0.627052 0.298456 0.193919
O O9 0.662245 0.190178 0.074294
O O10 0.528366 0.304419 0.039249
O O11 0.500000 0.874615 0.250000
O O12 0.377740 0.977460 0.323494
O O13 0.812936 0.938953 0.212673
O O14 0.863786 0.852806 0.361186
O O15 0.000000 0.908331 0.250000
O O16 0.240325 0.919028 0.832499
O O17 0.143845 0.841128 0.958863
#
# Coordination Sequence:
#
# PCOD8247144 Si02
#       8
#     8   8   8   8   8   8   8   8
#     4  11  22  37  61  92 122 157 204 255 313 364
#     4  11  21  39  62  86 121 163 197 252 308 376
#     4  10  22  39  62  88 121 159 209 248 311 378
#     4  10  21  35  59  90 121 152 196 250 307 365
#     4  10  20  41  60  84 119 162 202 253 304 374
#     4  11  22  39  64  89 126 160 204 265 301 376
#     4  11  22  39  58  92 121 155 208 250 311 354
#     4  10  23  39  61  88 120 166 203 248 316 371
#
# _framework density 19.312508000000001
#
# number of rings (size 3 to 8) (size 9 to 14) (size 15 to 20)
#    0.000    1.500    3.750    1.125    3.500    0.000 
#    2.250    1.875    0.000    0.000    0.000    0.000 
#    0.000    0.000    0.000    0.000    0.000    0.000 
#
# Total GULP energy -793443.231742 kJ/mol
# GULP energy per Si atom -12397.550496 kJ/mol
# Density = 1.926855 g / cm^3
# Si number density = 19.312508 Si / 1000 Ang^3
#
#
#
# Elastic Constant Matrix: (Units=GPa)
#
#
# Indices 1 2 3 4 5 6 
#
# 1 114.1502 40.0447 42.6073 0.0000 0.0000 0.0000
# 2 40.0447 85.6198 33.1223 0.0000 0.0000 0.0000
# 3 42.6073 33.1223 83.4115 0.0000 0.0000 0.0000
# 4 0.0000 0.0000 0.0000 30.9136 0.0000 0.0000
# 5 0.0000 0.0000 0.0000 0.0000 27.8133 0.0000
# 6 0.0000 0.0000 0.0000 0.0000 0.0000 21.0614
#
#
#
# Elastic Compliance Matrix: (Units=1/GPa)
#
#
# Indices 1 2 3 4 5 6 
#
# 1 0.011764 -0.003754 -0.004518 0.000000 0.000000 0.000000
# 2 -0.003754 0.014997 -0.004038 0.000000 0.000000 0.000000
# 3 -0.004518 -0.004038 0.015900 0.000000 0.000000 0.000000
# 4 0.000000 0.000000 0.000000 0.032348 0.000000 0.000000
# 5 0.000000 0.000000 0.000000 0.000000 0.035954 0.000000
# 6 0.000000 0.000000 0.000000 0.000000 0.000000 0.047480
#
#
# Mechanical properties :
#
#
# Convention : Reuss Voigt Hill
#
# Bulk Modulus (GPa) = 55.42934 57.19222 56.31078
# Shear Modulus (GPa) = 26.44415 27.11815 26.78115
#
# Velocity S-wave (km/s) = 3.70439 3.75130 3.72792
# Velocity P-wave (km/s) = 6.86005 6.95998 6.91019
#
# Compressibility (1/GPa) = 0.01804099
#
# Stress axis : x y z
#
# Youngs Moduli (GPa) = 85.00624 66.67843 62.89257
#
# Poissons Ratio (x) = 0.25031 0.28417
# Poissons Ratio (y) = 0.31912 0.25395
# Poissons Ratio (z) = 0.38409 0.26923
#
# Static dielectric constant tensor:
#      x y z
#    x 3.613880 0.000000 0.000000 
#    y 0.000000 3.365050 0.000000 
#    z 0.000000 0.000000 3.753590 
# 
# 
# High freq. dielectric constant tensor:
#      x y z
#    x 1.758520 0.000000 0.000000 
#    y 0.000000 1.738170 0.000000 
#    z 0.000000 0.000000 1.757500 
# 
# From -- ./inp_files/20297.got.cif
#   From: 2010.03.12/outbox.cif.g09.slc.cpg/sg60_11_cif.got.tgz:20297.got - 2010.04.10 18:46:24.
