data_PCOD8247995
_publ_section_title
;
Structure prediction by ZEFSAII (Michael W. Deem and Ramdas Pophale) SiO2 
 PCOD8247995
Probable space group: P B C N
;
_chemical_formula_sum "Si O2"
_cell_formula_units_Z 40
_cell_length_a 21.749434
_cell_length_b 5.051312
_cell_length_c 14.223708
_cell_angle_alpha 90.000000
_cell_angle_beta 90.000000
_cell_angle_gamma 90.000000
_cell_volume 1562.661749
_symmetry_space_group_name_H-M "P B C N"
_symmetry_group_IT_number 60
_symmetry_cell_setting 'orthorhombic'
loop_
_space_group_symop_operation_xyz
x,y,z
1/2-x,1/2-y,1/2+z
1/2+x,1/2-y,-z
-x,y,1/2-z
-x,-y,-z
1/2+x,1/2+y,1/2-z
1/2-x,1/2+y,z
x,-y,1/2+z
loop_
_atom_site_type_symbol
_atom_site_label
_atom_site_fract_x
_atom_site_fract_y
_atom_site_fract_z
Si Si1 0.710015 0.358156 0.302034
Si Si2 0.789888 0.860907 0.520005
Si Si3 0.984111 0.956047 0.893830
Si Si4 0.616877 0.650081 0.181792
Si Si5 0.560382 0.037446 0.308968
O O1 0.760734 0.577272 0.275985
O O2 0.690324 0.349680 0.411227
O O3 0.649856 0.414553 0.239793
O O4 0.737439 0.647528 0.544208
O O5 0.850057 0.802141 0.582281
O O6 0.047221 0.956260 0.832250
O O7 0.065189 0.825735 0.143627
O O8 0.947891 0.679600 0.891425
O O9 0.000000 0.000000 0.000000
O O10 0.616230 0.927528 0.242255
O O11 0.500000 0.030342 0.250000
#
# Coordination Sequence:
#
# PCOD8247995 Si02
#       5
#     8   8   8   8   8
#     4  10  23  43  67 104 140 178 234 299 351 435
#     4  10  23  43  66 104 140 172 236 291 351 436
#     4  11  25  44  65  98 140 179 241 300 345 423
#     4  11  24  43  76  97 139 197 230 290 376 423
#     4  10  23  43  63  97 134 176 230 291 340 422
#
# _framework density 25.597351
#
# number of rings (size 3 to 8) (size 9 to 14) (size 15 to 20)
#    0.000    1.600    0.000    3.600    2.800    9.600 
#    7.200    0.000    0.000    0.000    0.000    0.000 
#    0.000    0.000    0.000    0.000    0.000    0.000 
#
# Total GULP energy -495856.361366 kJ/mol
# GULP energy per Si atom -12396.409034 kJ/mol
# Density = 2.553909 g / cm^3
# Si number density = 25.597351 Si / 1000 Ang^3
#
#
#
# Elastic Constant Matrix: (Units=GPa)
#
#
# Indices 1 2 3 4 5 6 
#
# 1 104.3208 27.3200 28.2294 0.0000 0.0000 0.0000
# 2 27.3200 71.1013 3.7547 0.0000 0.0000 0.0000
# 3 28.2294 3.7547 73.0865 0.0000 0.0000 0.0000
# 4 0.0000 0.0000 0.0000 63.6455 0.0000 0.0000
# 5 0.0000 0.0000 0.0000 0.0000 44.7107 0.0000
# 6 0.0000 0.0000 0.0000 0.0000 0.0000 -3.1604
#
#
#
# Elastic Compliance Matrix: (Units=1/GPa)
#
#
# Indices 1 2 3 4 5 6 
#
# 1 0.011908 -0.004344 -0.004376 0.000000 0.000000 0.000000
# 2 -0.004344 0.015688 0.000872 0.000000 0.000000 0.000000
# 3 -0.004376 0.000872 0.015328 0.000000 0.000000 0.000000
# 4 0.000000 0.000000 0.000000 0.015712 0.000000 0.000000
# 5 0.000000 0.000000 0.000000 0.000000 0.022366 0.000000
# 6 0.000000 0.000000 0.000000 0.000000 0.000000 -0.316413
#
#
# Mechanical properties :
#
#
# Convention : Reuss Voigt Hill
#
# Bulk Modulus (GPa) = 36.72903 40.79077 38.75990
# Shear Modulus (GPa) = -23.73730 33.65279 4.95775
#
# Velocity S-wave (km/s) = -3.04852 3.62981 1.39321
# Velocity P-wave (km/s) = 1.41018 5.79116 4.21462
#
# Compressibility (1/GPa) = 0.02722642
#
# Stress axis : x y z
#
# Youngs Moduli (GPa) = 83.97916 63.74438 65.24064
#
# Poissons Ratio (x) = 0.27693 0.28550
# Poissons Ratio (y) = 0.36483 -0.05689
# Poissons Ratio (z) = 0.36750 -0.05559
#
# Static dielectric constant tensor:
#      x y z
#    x 5.238650 0.000000 0.000000 
#    y 0.000000 6.562520 0.000000 
#    z 0.000000 0.000000 4.414290 
# 
# 
# High freq. dielectric constant tensor:
#      x y z
#    x 2.022790 0.000000 0.000000 
#    y 0.000000 2.036420 0.000000 
#    z 0.000000 0.000000 2.028530 
# 
# From -- ./inp_files/17839.got.cif
#   From: 2010.03.12/outbox.cif.g09.slc.cpg/sg60_9_cif.got.tgz:17839.got - 2010.04.10 18:46:24.
