data_PCOD8247329
_publ_section_title
;
Structure prediction by ZEFSAII (Michael W. Deem and Ramdas Pophale) SiO2 
 PCOD8247329
Probable space group: P B C N
;
_chemical_formula_sum "Si O2"
_cell_formula_units_Z 40
_cell_length_a 8.378602
_cell_length_b 19.382669
_cell_length_c 11.382651
_cell_angle_alpha 90.000000
_cell_angle_beta 90.000000
_cell_angle_gamma 90.000000
_cell_volume 1848.538758
_symmetry_space_group_name_H-M "P B C N"
_symmetry_group_IT_number 60
_symmetry_cell_setting 'orthorhombic'
loop_
_space_group_symop_operation_xyz
x,y,z
1/2-x,1/2-y,1/2+z
1/2+x,1/2-y,-z
-x,y,1/2-z
-x,-y,-z
1/2+x,1/2+y,1/2-z
1/2-x,1/2+y,z
x,-y,1/2+z
loop_
_atom_site_type_symbol
_atom_site_label
_atom_site_fract_x
_atom_site_fract_y
_atom_site_fract_z
Si Si1 0.187698 0.282983 0.268117
Si Si2 0.191283 0.883949 0.460517
Si Si3 0.686395 0.370673 0.771448
Si Si4 0.877663 0.888578 0.354642
Si Si5 0.817747 0.510187 0.720205
O O1 0.244523 0.317343 0.389735
O O2 0.244815 0.203806 0.273072
O O3 0.259026 0.322975 0.153770
O O4 0.000000 0.286482 0.250000
O O5 0.243434 0.878204 0.594087
O O6 0.994659 0.888940 0.467289
O O7 0.268242 0.951394 0.399878
O O8 0.500000 0.381749 0.750000
O O9 0.781535 0.429557 0.700274
O O10 0.000000 0.877364 0.250000
O O11 0.783138 0.960240 0.332103
O O12 0.000000 0.524348 0.750000
#
# Coordination Sequence:
#
# PCOD8247329 Si02
#       5
#     8   8   8   8   8
#     4   9  19  37  59  86 118 151 198 247 294 359
#     4  10  21  40  62  82 119 161 190 244 304 342
#     4  11  24  39  58  90 121 154 203 243 288 362
#     4   8  16  34  60  82 111 155 195 232 290 358
#     4  10  21  38  60  88 118 151 200 248 295 359
#
# _framework density 21.638712000000002
#
# number of rings (size 3 to 8) (size 9 to 14) (size 15 to 20)
#    0.000    2.800    0.000    4.200    0.000    9.600 
#    0.000    4.000    0.000    0.000    0.000    0.000 
#    0.000    0.000    0.000    0.000    0.000    0.000 
#
# Total GULP energy -495668.015352 kJ/mol
# GULP energy per Si atom -12391.700384 kJ/mol
# Density = 2.158946 g / cm^3
# Si number density = 21.638712 Si / 1000 Ang^3
#
#
#
# Elastic Constant Matrix: (Units=GPa)
#
#
# Indices 1 2 3 4 5 6 
#
# 1 87.8225 34.8256 4.9447 0.0000 0.0000 0.0000
# 2 34.8256 171.2689 27.4995 0.0000 0.0000 0.0000
# 3 4.9447 27.4995 71.4576 0.0000 0.0000 0.0000
# 4 0.0000 0.0000 0.0000 15.5301 0.0000 0.0000
# 5 0.0000 0.0000 0.0000 0.0000 18.8046 0.0000
# 6 0.0000 0.0000 0.0000 0.0000 0.0000 38.7833
#
#
#
# Elastic Compliance Matrix: (Units=1/GPa)
#
#
# Indices 1 2 3 4 5 6 
#
# 1 0.012386 -0.002538 0.000120 0.000000 0.000000 0.000000
# 2 -0.002538 0.006743 -0.002419 0.000000 0.000000 0.000000
# 3 0.000120 -0.002419 0.014917 0.000000 0.000000 0.000000
# 4 0.000000 0.000000 0.000000 0.064391 0.000000 0.000000
# 5 0.000000 0.000000 0.000000 0.000000 0.053179 0.000000
# 6 0.000000 0.000000 0.000000 0.000000 0.000000 0.025784
#
#
# Mechanical properties :
#
#
# Convention : Reuss Voigt Hill
#
# Bulk Modulus (GPa) = 41.03196 51.67649 46.35422
# Shear Modulus (GPa) = 25.61478 32.17555 28.89516
#
# Velocity S-wave (km/s) = 3.44430 3.86027 3.65820
# Velocity P-wave (km/s) = 5.90093 6.61833 6.26990
#
# Compressibility (1/GPa) = 0.02437124
#
# Stress axis : x y z
#
# Youngs Moduli (GPa) = 80.73483 148.29583 67.03699
#
# Poissons Ratio (x) = 0.37634 -0.00801
# Poissons Ratio (y) = 0.20489 0.16219
# Poissons Ratio (z) = -0.00965 0.35879
#
# Static dielectric constant tensor:
#      x y z
#    x 4.961210 0.000000 0.000000 
#    y 0.000000 4.123390 0.000000 
#    z 0.000000 0.000000 4.138980 
# 
# 
# High freq. dielectric constant tensor:
#      x y z
#    x 1.855500 0.000000 0.000000 
#    y 0.000000 1.860520 0.000000 
#    z 0.000000 0.000000 1.813690 
# 
# From -- ./inp_files/9779.got.cif
#   From: 2010.03.12/outbox.cif.g09.slc.cpg/sg60_5_cif.got.tgz:9779.got - 2010.04.10 18:46:24.
