data_PCOD8247482
_publ_section_title
;
Structure prediction by ZEFSAII (Michael W. Deem and Ramdas Pophale) SiO2 
 PCOD8247482
Probable space group: P B C N
;
_chemical_formula_sum "Si O2"
_cell_formula_units_Z 48
_cell_length_a 29.132976
_cell_length_b 8.993698
_cell_length_c 8.196433
_cell_angle_alpha 90.000000
_cell_angle_beta 90.000000
_cell_angle_gamma 90.000000
_cell_volume 2147.573540
_symmetry_space_group_name_H-M "P B C N"
_symmetry_group_IT_number 60
_symmetry_cell_setting 'orthorhombic'
loop_
_space_group_symop_operation_xyz
x,y,z
1/2-x,1/2-y,1/2+z
1/2+x,1/2-y,-z
-x,y,1/2-z
-x,-y,-z
1/2+x,1/2+y,1/2-z
1/2-x,1/2+y,z
x,-y,1/2+z
loop_
_atom_site_type_symbol
_atom_site_label
_atom_site_fract_x
_atom_site_fract_y
_atom_site_fract_z
Si Si1 0.714960 0.689654 0.660347
Si Si2 0.039481 0.793487 0.042013
Si Si3 0.405391 0.891373 0.334614
Si Si4 0.000000 0.022834 0.250000
Si Si5 0.759605 0.463952 0.864042
Si Si6 0.000000 0.545227 0.250000
Si Si7 0.150582 0.633255 0.526082
O O1 0.716913 0.572058 0.810255
O O2 0.732416 0.851662 0.714517
O O3 0.749701 0.628490 0.525236
O O4 0.664917 0.718666 0.577625
O O5 0.010266 0.648737 0.093628
O O6 0.041912 0.912760 0.190892
O O7 0.089124 0.735653 0.975947
O O8 0.013606 0.872088 0.895341
O O9 0.382866 0.819580 0.173411
O O10 0.456065 0.945066 0.287889
O O11 0.374375 0.023619 0.401288
O O12 0.804592 0.562271 0.891734
#
# Coordination Sequence:
#
# PCOD8247482 Si02
#       7
#     8   8   8   4   8   4   8
#     4  12  23  44  73 103 137 188 228 282 361 431
#     4  10  21  40  66  91 130 177 236 271 342 407
#     4  12  24  42  66 104 138 172 235 295 342 406
#     4   9  21  40  66  90 123 181 244 272 328 429
#     4  12  23  44  74  99 140 184 231 282 357 439
#     4  11  23  40  70 100 127 189 226 284 348 405
#     4  12  25  41  70 105 139 175 229 303 341 408
#
# _framework density 22.350807
#
# number of rings (size 3 to 8) (size 9 to 14) (size 15 to 20)
#    0.000    0.667    6.667    1.000    2.333    0.000 
#    0.000    1.667    0.000    0.000    0.000    0.000 
#    0.000    0.000    0.000    0.000    0.000    0.000 
#
# Total GULP energy -594859.857966 kJ/mol
# GULP energy per Si atom -12392.913708 kJ/mol
# Density = 2.229994 g / cm^3
# Si number density = 22.350807 Si / 1000 Ang^3
#
#
#
# Elastic Constant Matrix: (Units=GPa)
#
#
# Indices 1 2 3 4 5 6 
#
# 1 73.5198 27.7842 27.5752 0.0000 0.0000 0.0000
# 2 27.7842 76.4199 28.2236 0.0000 0.0000 0.0000
# 3 27.5752 28.2236 86.1008 0.0000 0.0000 0.0000
# 4 0.0000 0.0000 0.0000 35.3641 0.0000 0.0000
# 5 0.0000 0.0000 0.0000 0.0000 49.6568 0.0000
# 6 0.0000 0.0000 0.0000 0.0000 0.0000 27.9718
#
#
#
# Elastic Compliance Matrix: (Units=1/GPa)
#
#
# Indices 1 2 3 4 5 6 
#
# 1 0.016819 -0.004694 -0.003848 0.000000 0.000000 0.000000
# 2 -0.004694 0.016198 -0.003806 0.000000 0.000000 0.000000
# 3 -0.003848 -0.003806 0.014094 0.000000 0.000000 0.000000
# 4 0.000000 0.000000 0.000000 0.028277 0.000000 0.000000
# 5 0.000000 0.000000 0.000000 0.000000 0.020138 0.000000
# 6 0.000000 0.000000 0.000000 0.000000 0.000000 0.035750
#
#
# Mechanical properties :
#
#
# Convention : Reuss Voigt Hill
#
# Bulk Modulus (GPa) = 44.61291 44.80072 44.70681
# Shear Modulus (GPa) = 30.59142 32.76240 31.67691
#
# Velocity S-wave (km/s) = 3.70360 3.83276 3.76874
# Velocity P-wave (km/s) = 6.18809 6.29878 6.24368
#
# Compressibility (1/GPa) = 0.02241504
#
# Stress axis : x y z
#
# Youngs Moduli (GPa) = 59.45708 61.73649 70.95030
#
# Poissons Ratio (x) = 0.28978 0.27301
# Poissons Ratio (y) = 0.27908 0.27006
# Poissons Ratio (z) = 0.22879 0.23499
#
# Static dielectric constant tensor:
#      x y z
#    x 3.998270 0.000000 0.000000 
#    y 0.000000 4.449010 0.000000 
#    z 0.000000 0.000000 4.506300 
# 
# 
# High freq. dielectric constant tensor:
#      x y z
#    x 1.841000 0.000000 0.000000 
#    y 0.000000 1.882980 0.000000 
#    z 0.000000 0.000000 1.912160 
# 
# From -- ./inp_files/8423.got.cif
#   From: 2010.03.12/outbox.cif.g09.slc.cpg/sg60_5_cif.got.tgz:8423.got - 2010.04.10 18:46:24.
