data_PCOD8247947
_publ_section_title
;
Structure prediction by ZEFSAII (Michael W. Deem and Ramdas Pophale) SiO2 
 PCOD8247947
Probable space group: P B C N
;
_chemical_formula_sum "Si O2"
_cell_formula_units_Z 48
_cell_length_a 26.238442
_cell_length_b 9.349018
_cell_length_c 8.805493
_cell_angle_alpha 90.000000
_cell_angle_beta 90.000000
_cell_angle_gamma 90.000000
_cell_volume 2160.019719
_symmetry_space_group_name_H-M "P B C N"
_symmetry_group_IT_number 60
_symmetry_cell_setting 'orthorhombic'
loop_
_space_group_symop_operation_xyz
x,y,z
1/2-x,1/2-y,1/2+z
1/2+x,1/2-y,-z
-x,y,1/2-z
-x,-y,-z
1/2+x,1/2+y,1/2-z
1/2-x,1/2+y,z
x,-y,1/2+z
loop_
_atom_site_type_symbol
_atom_site_label
_atom_site_fract_x
_atom_site_fract_y
_atom_site_fract_z
Si Si1 0.609678 0.454153 0.910302
Si Si2 0.554899 0.654233 0.697735
Si Si3 0.554713 0.042146 0.064021
Si Si4 0.889023 0.346584 0.276737
Si Si5 0.776985 0.618294 0.803570
Si Si6 0.720561 0.599170 0.497038
O O1 0.595513 0.601794 0.824888
O O2 0.610112 0.325824 0.785981
O O3 0.664821 0.473996 0.989931
O O4 0.567687 0.417026 0.036569
O O5 0.500000 0.596980 0.750000
O O6 0.553695 0.827036 0.685263
O O7 0.573231 0.897562 0.145139
O O8 0.594424 0.085514 0.935773
O O9 0.500000 0.000000 0.000000
O O10 0.832994 0.406618 0.234343
O O11 0.734574 0.628132 0.672142
O O12 0.780045 0.758153 0.903150
O O13 0.763723 0.496545 0.922586
#
# Coordination Sequence:
#
# PCOD8247947 Si02
#       6
#     8   8   8   8   8   8
#     4  10  24  41  60  90 125 158 206 257 307 370
#     4  11  23  40  63  90 123 165 207 256 313 373
#     4  11  23  42  65  92 124 161 207 258 312 373
#     4  10  23  41  62  91 124 159 204 256 308 372
#     4  11  23  41  65  93 126 167 210 260 319 378
#     4  11  23  41  64  92 125 164 209 261 315 378
#
# _framework density 22.222019
#
# number of rings (size 3 to 8) (size 9 to 14) (size 15 to 20)
#    0.000    1.333    0.000    5.000    0.000   10.667 
#    0.000    1.667    0.000    0.000    0.000    0.000 
#    0.000    0.000    0.000    0.000    0.000    0.000 
#
# Total GULP energy -595342.967537 kJ/mol
# GULP energy per Si atom -12402.978490 kJ/mol
# Density = 2.217144 g / cm^3
# Si number density = 22.222019 Si / 1000 Ang^3
#
#
#
# Elastic Constant Matrix: (Units=GPa)
#
#
# Indices 1 2 3 4 5 6 
#
# 1 142.3691 49.1421 36.9981 0.0000 0.0000 0.0000
# 2 49.1421 73.9787 20.4634 0.0000 0.0000 0.0000
# 3 36.9981 20.4634 71.6401 0.0000 0.0000 0.0000
# 4 0.0000 0.0000 0.0000 30.5137 0.0000 0.0000
# 5 0.0000 0.0000 0.0000 0.0000 48.5030 0.0000
# 6 0.0000 0.0000 0.0000 0.0000 0.0000 29.1344
#
#
#
# Elastic Compliance Matrix: (Units=1/GPa)
#
#
# Indices 1 2 3 4 5 6 
#
# 1 0.009860 -0.005582 -0.003498 0.000000 0.000000 0.000000
# 2 -0.005582 0.017837 -0.002212 0.000000 0.000000 0.000000
# 3 -0.003498 -0.002212 0.016397 0.000000 0.000000 0.000000
# 4 0.000000 0.000000 0.000000 0.032772 0.000000 0.000000
# 5 0.000000 0.000000 0.000000 0.000000 0.020617 0.000000
# 6 0.000000 0.000000 0.000000 0.000000 0.000000 0.034324
#
#
# Mechanical properties :
#
#
# Convention : Reuss Voigt Hill
#
# Bulk Modulus (GPa) = 46.48954 55.68834 51.08894
# Shear Modulus (GPa) = 30.94808 33.72250 32.33529
#
# Velocity S-wave (km/s) = 3.73591 3.89977 3.81872
# Velocity P-wave (km/s) = 6.29088 6.73736 6.51795
#
# Compressibility (1/GPa) = 0.02151021
#
# Stress axis : x y z
#
# Youngs Moduli (GPa) = 101.42293 56.06202 60.98734
#
# Poissons Ratio (x) = 0.31294 0.21330
# Poissons Ratio (y) = 0.56615 0.13492
# Poissons Ratio (z) = 0.35473 0.12402
#
# Static dielectric constant tensor:
#      x y z
#    x 4.607390 0.000000 0.000000 
#    y 0.000000 4.000020 0.000000 
#    z 0.000000 0.000000 3.938060 
# 
# 
# High freq. dielectric constant tensor:
#      x y z
#    x 1.887840 0.000000 0.000000 
#    y 0.000000 1.870350 0.000000 
#    z 0.000000 0.000000 1.879330 
# 
# From -- ./inp_files/13028.got.cif
#   From: 2010.03.12/outbox.cif.g09.slc.cpg/sg60_7_cif.got.tgz:13028.got - 2010.04.10 18:46:24.
