data_PCOD8247698
_publ_section_title
;
Structure prediction by ZEFSAII (Michael W. Deem and Ramdas Pophale) SiO2 
 PCOD8247698
Probable space group: P B C N
;
_chemical_formula_sum "Si O2"
_cell_formula_units_Z 64
_cell_length_a 8.800594
_cell_length_b 15.523053
_cell_length_c 21.512543
_cell_angle_alpha 90.000000
_cell_angle_beta 90.000000
_cell_angle_gamma 90.000000
_cell_volume 2938.873398
_symmetry_space_group_name_H-M "P B C N"
_symmetry_group_IT_number 60
_symmetry_cell_setting 'orthorhombic'
loop_
_space_group_symop_operation_xyz
x,y,z
1/2-x,1/2-y,1/2+z
1/2+x,1/2-y,-z
-x,y,1/2-z
-x,-y,-z
1/2+x,1/2+y,1/2-z
1/2-x,1/2+y,z
x,-y,1/2+z
loop_
_atom_site_type_symbol
_atom_site_label
_atom_site_fract_x
_atom_site_fract_y
_atom_site_fract_z
Si Si1 0.179952 0.024029 0.376835
Si Si2 0.827762 0.175007 0.881064
Si Si3 0.321633 0.285050 0.254779
Si Si4 0.329712 0.516558 0.143405
Si Si5 0.860884 0.850814 0.063487
Si Si6 0.670333 0.286979 0.625975
Si Si7 0.140790 0.183718 0.074898
Si Si8 0.825864 0.463031 0.237561
O O1 0.190602 0.950648 0.429737
O O2 0.313510 0.014573 0.326350
O O3 0.011463 0.020072 0.346192
O O4 0.212924 0.119503 0.403466
O O5 0.767341 0.219055 0.816980
O O6 0.777419 0.074936 0.887184
O O7 0.758079 0.237021 0.933621
O O8 0.010105 0.176049 0.886836
O O9 0.500000 0.265708 0.250000
O O10 0.232728 0.221995 0.302746
O O11 0.283439 0.381794 0.275977
O O12 0.278166 0.596817 0.100745
O O13 0.241788 0.523709 0.208575
O O14 0.722956 0.788263 0.080011
O O15 0.921654 0.838517 0.993675
O O16 0.487850 0.283658 0.622917
O O17 0.000000 0.436206 0.250000
#
# Coordination Sequence:
#
# PCOD8247698 Si02
#       8
#     8   8   8   8   8   8   8   8
#     4  10  22  41  65  91 125 176 219 265 329 398
#     4  10  22  39  65  91 126 175 207 271 337 386
#     4  11  21  41  66  90 131 168 213 266 336 402
#     4   9  22  41  61  91 128 173 216 263 333 396
#     4  11  22  44  65  90 133 174 223 268 330 400
#     4  11  24  39  67  98 121 172 223 274 324 389
#     4  11  25  40  64  97 130 171 227 274 320 398
#     4  11  22  37  64  97 133 163 212 278 333 392
#
# _framework density 21.777054
#
# number of rings (size 3 to 8) (size 9 to 14) (size 15 to 20)
#    0.000    1.500    2.500    2.625    5.250    7.000 
#    0.000    0.000    0.000    3.750    0.000    0.000 
#    0.000    0.000    0.000    0.000    0.000    0.000 
#
# Total GULP energy -793066.294335 kJ/mol
# GULP energy per Si atom -12391.660849 kJ/mol
# Density = 2.172749 g / cm^3
# Si number density = 21.777054 Si / 1000 Ang^3
#
#
#
# Elastic Constant Matrix: (Units=GPa)
#
#
# Indices 1 2 3 4 5 6 
#
# 1 56.4150 40.5671 18.1878 0.0000 0.0000 0.0000
# 2 40.5671 138.4463 38.9397 0.0000 0.0000 0.0000
# 3 18.1878 38.9397 77.1846 0.0000 0.0000 0.0000
# 4 0.0000 0.0000 0.0000 30.7839 0.0000 0.0000
# 5 0.0000 0.0000 0.0000 0.0000 24.6435 0.0000
# 6 0.0000 0.0000 0.0000 0.0000 0.0000 30.6367
#
#
#
# Elastic Compliance Matrix: (Units=1/GPa)
#
#
# Indices 1 2 3 4 5 6 
#
# 1 0.022813 -0.006028 -0.002335 0.000000 0.000000 0.000000
# 2 -0.006028 0.010010 -0.003630 0.000000 0.000000 0.000000
# 3 -0.002335 -0.003630 0.015337 0.000000 0.000000 0.000000
# 4 0.000000 0.000000 0.000000 0.032484 0.000000 0.000000
# 5 0.000000 0.000000 0.000000 0.000000 0.040579 0.000000
# 6 0.000000 0.000000 0.000000 0.000000 0.000000 0.032641
#
#
# Mechanical properties :
#
#
# Convention : Reuss Voigt Hill
#
# Bulk Modulus (GPa) = 41.36333 51.93724 46.65029
# Shear Modulus (GPa) = 26.89509 28.83624 27.86567
#
# Velocity S-wave (km/s) = 3.51810 3.64284 3.58101
# Velocity P-wave (km/s) = 5.96137 6.44942 6.21019
#
# Compressibility (1/GPa) = 0.02417600
#
# Stress axis : x y z
#
# Youngs Moduli (GPa) = 43.83452 99.89778 65.20064
#
# Poissons Ratio (x) = 0.60218 0.15221
# Poissons Ratio (y) = 0.26423 0.23666
# Poissons Ratio (z) = 0.10233 0.36260
#
# Static dielectric constant tensor:
#      x y z
#    x 3.623030 0.000000 0.000000 
#    y 0.000000 4.107240 0.000000 
#    z 0.000000 0.000000 3.805630 
# 
# 
# High freq. dielectric constant tensor:
#      x y z
#    x 1.834430 0.000000 0.000000 
#    y 0.000000 1.866120 0.000000 
#    z 0.000000 0.000000 1.843130 
# 
# From -- ./inp_files/24093.got.cif
#   From: 2010.03.12/outbox.cif.g09.slc.cpg/sg60_13_cif.got.tgz:24093.got - 2010.04.10 18:46:24.
