data_PCOD8247898
_publ_section_title
;
Structure prediction by ZEFSAII (Michael W. Deem and Ramdas Pophale) SiO2 
 PCOD8247898
Probable space group: P B C N
;
_chemical_formula_sum "Si O2"
_cell_formula_units_Z 48
_cell_length_a 25.078731
_cell_length_b 5.597319
_cell_length_c 13.252746
_cell_angle_alpha 90.000000
_cell_angle_beta 90.000000
_cell_angle_gamma 90.000000
_cell_volume 1860.336428
_symmetry_space_group_name_H-M "P B C N"
_symmetry_group_IT_number 60
_symmetry_cell_setting 'orthorhombic'
loop_
_space_group_symop_operation_xyz
x,y,z
1/2-x,1/2-y,1/2+z
1/2+x,1/2-y,-z
-x,y,1/2-z
-x,-y,-z
1/2+x,1/2+y,1/2-z
1/2-x,1/2+y,z
x,-y,1/2+z
loop_
_atom_site_type_symbol
_atom_site_label
_atom_site_fract_x
_atom_site_fract_y
_atom_site_fract_z
Si Si1 0.878665 0.131195 0.035490
Si Si2 0.378188 0.976137 0.295491
Si Si3 0.225365 0.898448 0.533277
Si Si4 0.235032 0.619945 0.260881
Si Si5 0.937142 0.455355 0.895355
Si Si6 0.959098 0.233565 0.574410
O O1 0.858490 0.245503 0.141105
O O2 0.836993 0.931642 0.995328
O O3 0.939123 0.036774 0.057110
O O4 0.886239 0.329319 0.948552
O O5 0.328296 0.114517 0.247411
O O6 0.416905 0.906932 0.203605
O O7 0.409887 0.150460 0.367793
O O8 0.255751 0.138099 0.489139
O O9 0.233579 0.881200 0.653928
O O10 0.252377 0.372487 0.318737
O O11 0.984163 0.261501 0.868628
O O12 0.964658 0.655296 0.963201
#
# Coordination Sequence:
#
# PCOD8247898 Si02
#       6
#     8   8   8   8   8   8
#     4  11  25  42  72 106 143 193 248 313 372 455
#     4  11  25  42  70 103 145 189 242 308 372 451
#     4  10  23  42  70 103 144 192 243 301 363 440
#     4  10  23  41  67 101 140 192 243 290 365 444
#     4  10  22  46  70  99 141 191 236 309 379 449
#     4  10  24  43  70 104 140 180 251 306 374 446
#
# _framework density 25.801781999999999
#
# number of rings (size 3 to 8) (size 9 to 14) (size 15 to 20)
#    0.000    1.667    0.000    3.000   11.667    2.667 
#    0.000    5.000    0.000    0.000    0.000    0.000 
#    0.000    0.000    0.000    0.000    0.000    0.000 
#
# Total GULP energy -594881.997818 kJ/mol
# GULP energy per Si atom -12393.374955 kJ/mol
# Density = 2.574306 g / cm^3
# Si number density = 25.801782 Si / 1000 Ang^3
#
#
#
# Elastic Constant Matrix: (Units=GPa)
#
#
# Indices 1 2 3 4 5 6 
#
# 1 105.0062 23.8821 25.0618 0.0000 0.0000 0.0000
# 2 23.8821 147.3580 29.9450 0.0000 0.0000 0.0000
# 3 25.0618 29.9450 65.8284 0.0000 0.0000 0.0000
# 4 0.0000 0.0000 0.0000 63.5956 0.0000 0.0000
# 5 0.0000 0.0000 0.0000 0.0000 31.1719 0.0000
# 6 0.0000 0.0000 0.0000 0.0000 0.0000 47.9041
#
#
#
# Elastic Compliance Matrix: (Units=1/GPa)
#
#
# Indices 1 2 3 4 5 6 
#
# 1 0.010604 -0.000990 -0.003587 0.000000 0.000000 0.000000
# 2 -0.000990 0.007570 -0.003067 0.000000 0.000000 0.000000
# 3 -0.003587 -0.003067 0.017952 0.000000 0.000000 0.000000
# 4 0.000000 0.000000 0.000000 0.015724 0.000000 0.000000
# 5 0.000000 0.000000 0.000000 0.000000 0.032080 0.000000
# 6 0.000000 0.000000 0.000000 0.000000 0.000000 0.020875
#
#
# Mechanical properties :
#
#
# Convention : Reuss Voigt Hill
#
# Bulk Modulus (GPa) = 47.98681 52.88559 50.43620
# Shear Modulus (GPa) = 39.35811 44.48791 41.92301
#
# Velocity S-wave (km/s) = 3.90988 4.15688 4.03527
# Velocity P-wave (km/s) = 6.24672 6.60158 6.42660
#
# Compressibility (1/GPa) = 0.02083906
#
# Stress axis : x y z
#
# Youngs Moduli (GPa) = 94.29994 132.10427 55.70517
#
# Poissons Ratio (x) = 0.13075 0.19982
# Poissons Ratio (y) = 0.09333 0.17083
# Poissons Ratio (z) = 0.33826 0.40512
#
# Static dielectric constant tensor:
#      x y z
#    x 4.595170 0.000000 0.000000 
#    y 0.000000 4.984060 0.000000 
#    z 0.000000 0.000000 4.456780 
# 
# 
# High freq. dielectric constant tensor:
#      x y z
#    x 2.038780 0.000000 0.000000 
#    y 0.000000 2.026420 0.000000 
#    z 0.000000 0.000000 2.026800 
# 
# From -- ./inp_files/18066.got.cif
#   From: 2010.03.12/outbox.cif.g09.slc.cpg/sg60_10_cif.got.tgz:18066.got - 2010.04.10 18:46:24.
