data_PCOD8247013
_publ_section_title
;
Structure prediction by ZEFSAII (Michael W. Deem and Ramdas Pophale) SiO2 
 PCOD8247013
Probable space group: P B C N
;
_chemical_formula_sum "Si O2"
_cell_formula_units_Z 44
_cell_length_a 26.775605
_cell_length_b 9.752891
_cell_length_c 8.072122
_cell_angle_alpha 90.000000
_cell_angle_beta 90.000000
_cell_angle_gamma 90.000000
_cell_volume 2107.950363
_symmetry_space_group_name_H-M "P B C N"
_symmetry_group_IT_number 60
_symmetry_cell_setting 'orthorhombic'
loop_
_space_group_symop_operation_xyz
x,y,z
1/2-x,1/2-y,1/2+z
1/2+x,1/2-y,-z
-x,y,1/2-z
-x,-y,-z
1/2+x,1/2+y,1/2-z
1/2-x,1/2+y,z
x,-y,1/2+z
loop_
_atom_site_type_symbol
_atom_site_label
_atom_site_fract_x
_atom_site_fract_y
_atom_site_fract_z
Si Si1 0.209319 0.912507 0.220601
Si Si2 0.101711 0.029959 0.809944
Si Si3 0.115317 0.786805 0.618140
Si Si4 0.517881 0.146560 0.936758
Si Si5 0.774832 0.195187 0.426618
Si Si6 0.500000 0.332388 0.250000
O O1 0.149222 0.905706 0.211035
O O2 0.231587 0.865958 0.393257
O O3 0.230905 0.805636 0.087601
O O4 0.229492 0.066800 0.197460
O O5 0.049126 0.076069 0.733653
O O6 0.104918 0.862333 0.795550
O O7 0.106348 0.081331 0.997730
O O8 0.078270 0.661048 0.575553
O O9 0.171372 0.729969 0.600531
O O10 0.500000 0.179879 0.750000
O O11 0.498658 0.248198 0.078493
O O12 0.500000 0.000000 0.000000
#
# Coordination Sequence:
#
# PCOD8247013 Si02
#       6
#     8   8   8   8   8   4
#     4  10  20  38  60  87 122 157 200 249 305 360
#     4   9  20  36  60  87 120 147 196 249 302 353
#     4   9  21  37  59  88 117 152 196 248 303 358
#     4  11  23  41  59  83 122 160 200 243 303 360
#     4  10  20  39  59  88 121 158 200 251 302 366
#     4  10  22  40  60  90 120 152 202 256 296 362
#
# _framework density 20.873359000000001
#
# number of rings (size 3 to 8) (size 9 to 14) (size 15 to 20)
#    0.000    2.182    0.909    1.091    3.818    2.909 
#    3.273    0.000    0.000    0.000    0.000    0.000 
#    0.000    0.000    0.000    0.000    0.000    0.000 
#
# Total GULP energy -545147.781184 kJ/mol
# GULP energy per Si atom -12389.722300 kJ/mol
# Density = 2.082585 g / cm^3
# Si number density = 20.873359 Si / 1000 Ang^3
#
#
#
# Elastic Constant Matrix: (Units=GPa)
#
#
# Indices 1 2 3 4 5 6 
#
# 1 119.6941 48.1129 23.5425 0.0000 0.0000 0.0000
# 2 48.1129 70.9259 10.0577 0.0000 0.0000 0.0000
# 3 23.5425 10.0577 82.8364 0.0000 0.0000 0.0000
# 4 0.0000 0.0000 0.0000 30.0039 0.0000 0.0000
# 5 0.0000 0.0000 0.0000 0.0000 26.7341 0.0000
# 6 0.0000 0.0000 0.0000 0.0000 0.0000 39.5751
#
#
#
# Elastic Compliance Matrix: (Units=1/GPa)
#
#
# Indices 1 2 3 4 5 6 
#
# 1 0.011958 -0.007764 -0.002456 0.000000 0.000000 0.000000
# 2 -0.007764 0.019387 -0.000147 0.000000 0.000000 0.000000
# 3 -0.002456 -0.000147 0.012788 0.000000 0.000000 0.000000
# 4 0.000000 0.000000 0.000000 0.033329 0.000000 0.000000
# 5 0.000000 0.000000 0.000000 0.000000 0.037405 0.000000
# 6 0.000000 0.000000 0.000000 0.000000 0.000000 0.025268
#
#
# Mechanical properties :
#
#
# Convention : Reuss Voigt Hill
#
# Bulk Modulus (GPa) = 42.73731 48.54251 45.63991
# Shear Modulus (GPa) = 29.64368 32.04549 30.84458
#
# Velocity S-wave (km/s) = 3.77260 3.92246 3.84826
# Velocity P-wave (km/s) = 6.28456 6.61970 6.45431
#
# Compressibility (1/GPa) = 0.02339876
#
# Stress axis : x y z
#
# Youngs Moduli (GPa) = 83.62258 51.58162 78.19902
#
# Poissons Ratio (x) = 0.40047 0.19206
# Poissons Ratio (y) = 0.64923 0.01152
# Poissons Ratio (z) = 0.20538 0.00760
#
# Static dielectric constant tensor:
#      x y z
#    x 3.923010 0.000000 0.000000 
#    y 0.000000 3.773190 0.000000 
#    z 0.000000 0.000000 4.010310 
# 
# 
# High freq. dielectric constant tensor:
#      x y z
#    x 1.823910 0.000000 0.000000 
#    y 0.000000 1.790360 0.000000 
#    z 0.000000 0.000000 1.829450 
# 
# From -- ./inp_files/8346.got.cif
#   From: 2010.03.12/outbox.cif.g09.slc.cpg/sg60_5_cif.got.tgz:8346.got - 2010.04.10 18:46:24.
