data_PCOD8247901
_publ_section_title
;
Structure prediction by ZEFSAII (Michael W. Deem and Ramdas Pophale) SiO2 
 PCOD8247901
Probable space group: P B C N
;
_chemical_formula_sum "Si O2"
_cell_formula_units_Z 48
_cell_length_a 15.905133
_cell_length_b 28.424520
_cell_length_c 4.913017
_cell_angle_alpha 90.000000
_cell_angle_beta 90.000000
_cell_angle_gamma 90.000000
_cell_volume 2221.154209
_symmetry_space_group_name_H-M "P B C N"
_symmetry_group_IT_number 60
_symmetry_cell_setting 'orthorhombic'
loop_
_space_group_symop_operation_xyz
x,y,z
1/2-x,1/2-y,1/2+z
1/2+x,1/2-y,-z
-x,y,1/2-z
-x,-y,-z
1/2+x,1/2+y,1/2-z
1/2-x,1/2+y,z
x,-y,1/2+z
loop_
_atom_site_type_symbol
_atom_site_label
_atom_site_fract_x
_atom_site_fract_y
_atom_site_fract_z
Si Si1 0.594238 0.968515 0.785362
Si Si2 0.783297 0.615200 0.317077
Si Si3 0.177855 0.134357 0.716011
Si Si4 0.200977 0.762949 0.347731
Si Si5 0.000000 0.833304 0.250000
Si Si6 0.914051 0.696513 0.369402
Si Si7 0.000000 0.764406 0.750000
O O1 0.500000 0.947673 0.750000
O O2 0.662483 0.928933 0.717067
O O3 0.607348 0.013410 0.591307
O O4 0.721655 0.598856 0.566598
O O5 0.847198 0.655261 0.428371
O O6 0.726210 0.633224 0.068745
O O7 0.186749 0.182510 0.885802
O O8 0.077074 0.130854 0.673427
O O9 0.275861 0.745768 0.533430
O O10 0.117534 0.730715 0.378395
O O11 0.025464 0.799621 0.502956
O O12 0.000000 0.674254 0.250000
O O13 0.926763 0.729282 0.637854
#
# Coordination Sequence:
#
# PCOD8247901 Si02
#       7
#     8   8   8   8   4   8   4
#     4  10  22  46  72  98 131 167 200 248 323 404
#     4  12  26  41  65  98 126 160 212 270 322 378
#     4  12  24  41  61  91 125 168 221 267 313 369
#     4  12  23  39  54  77 120 171 217 260 304 352
#     4  12  26  42  64  84 126 182 228 268 314 368
#     4  12  26  38  57  87 127 171 219 262 311 362
#     4  12  24  38  58  82 122 184 234 256 306 372
#
# _framework density 21.610388
#
# number of rings (size 3 to 8) (size 9 to 14) (size 15 to 20)
#    0.000    0.333    5.833    2.500    7.000    0.000 
#    4.500    0.000    0.000    0.000    0.000   11.667 
#    0.000    0.000    0.000    0.000    0.000    0.000 
#
# Total GULP energy -594740.595804 kJ/mol
# GULP energy per Si atom -12390.429079 kJ/mol
# Density = 2.156120 g / cm^3
# Si number density = 21.610388 Si / 1000 Ang^3
#
#
#
# Elastic Constant Matrix: (Units=GPa)
#
#
# Indices 1 2 3 4 5 6 
#
# 1 160.0927 41.6621 43.0230 0.0000 0.0000 0.0000
# 2 41.6621 55.0808 11.2932 0.0000 0.0000 0.0000
# 3 43.0230 11.2932 104.6318 0.0000 0.0000 0.0000
# 4 0.0000 0.0000 0.0000 16.5871 0.0000 0.0000
# 5 0.0000 0.0000 0.0000 0.0000 26.6293 0.0000
# 6 0.0000 0.0000 0.0000 0.0000 0.0000 22.2053
#
#
#
# Elastic Compliance Matrix: (Units=1/GPa)
#
#
# Indices 1 2 3 4 5 6 
#
# 1 0.008550 -0.005876 -0.002881 0.000000 0.000000 0.000000
# 2 -0.005876 0.022605 -0.000024 0.000000 0.000000 0.000000
# 3 -0.002881 -0.000024 0.010745 0.000000 0.000000 0.000000
# 4 0.000000 0.000000 0.000000 0.060288 0.000000 0.000000
# 5 0.000000 0.000000 0.000000 0.000000 0.037553 0.000000
# 6 0.000000 0.000000 0.000000 0.000000 0.000000 0.045034
#
#
# Mechanical properties :
#
#
# Convention : Reuss Voigt Hill
#
# Bulk Modulus (GPa) = 41.08987 56.86242 48.97615
# Shear Modulus (GPa) = 23.75880 28.00615 25.88247
#
# Velocity S-wave (km/s) = 3.31934 3.60385 3.46452
# Velocity P-wave (km/s) = 5.80912 6.60959 6.22224
#
# Compressibility (1/GPa) = 0.02433690
#
# Stress axis : x y z
#
# Youngs Moduli (GPa) = 116.96004 44.23864 93.06964
#
# Poissons Ratio (x) = 0.25996 0.26817
# Poissons Ratio (y) = 0.68729 0.00219
# Poissons Ratio (z) = 0.33700 0.00104
#
# Static dielectric constant tensor:
#      x y z
#    x 4.334370 0.000000 0.000000 
#    y 0.000000 3.350900 0.000000 
#    z 0.000000 0.000000 3.898060 
# 
# 
# High freq. dielectric constant tensor:
#      x y z
#    x 1.871250 0.000000 0.000000 
#    y 0.000000 1.784850 0.000000 
#    z 0.000000 0.000000 1.866860 
# 
# From -- ./inp_files/1348.got.cif
#   From: 2010.03.12/outbox.cif.g09.slc.cpg/sg60_1_cif.got.tgz:1348.got - 2010.04.10 18:46:24.
