data_PCOD8247033
_publ_section_title
;
Structure prediction by ZEFSAII (Michael W. Deem and Ramdas Pophale) SiO2 
 PCOD8247033
Probable space group: P B C N
;
_chemical_formula_sum "Si O2"
_cell_formula_units_Z 64
_cell_length_a 25.617887
_cell_length_b 9.533499
_cell_length_c 13.131732
_cell_angle_alpha 90.000000
_cell_angle_beta 90.000000
_cell_angle_gamma 90.000000
_cell_volume 3207.137957
_symmetry_space_group_name_H-M "P B C N"
_symmetry_group_IT_number 60
_symmetry_cell_setting 'orthorhombic'
loop_
_space_group_symop_operation_xyz
x,y,z
1/2-x,1/2-y,1/2+z
1/2+x,1/2-y,-z
-x,y,1/2-z
-x,-y,-z
1/2+x,1/2+y,1/2-z
1/2-x,1/2+y,z
x,-y,1/2+z
loop_
_atom_site_type_symbol
_atom_site_label
_atom_site_fract_x
_atom_site_fract_y
_atom_site_fract_z
Si Si1 0.181686 0.838334 0.762257
Si Si2 0.296265 0.536260 0.476526
Si Si3 0.875838 0.654736 0.374908
Si Si4 0.900373 0.392970 0.244739
Si Si5 0.029176 0.180063 0.146395
Si Si6 0.613389 0.466129 0.375581
Si Si7 0.741650 0.202538 0.419885
Si Si8 0.039324 0.613777 0.956394
O O1 0.205557 0.912528 0.861130
O O2 0.149906 0.697373 0.792164
O O3 0.143520 0.948974 0.710720
O O4 0.229274 0.801490 0.688041
O O5 0.355804 0.537299 0.517105
O O6 0.271992 0.382115 0.491317
O O7 0.260203 0.636322 0.546036
O O8 0.883080 0.542641 0.286441
O O9 0.816406 0.643276 0.410439
O O10 0.911517 0.625383 0.471517
O O11 0.891939 0.808213 0.332740
O O12 0.929771 0.305680 0.332699
O O13 0.939859 0.430629 0.154235
O O14 0.057826 0.040739 0.104703
O O15 0.000000 0.137490 0.250000
O O16 0.989749 0.235864 0.058936
O O17 0.000000 0.500000 0.000000
#
# Coordination Sequence:
#
# PCOD8247033 Si02
#       8
#     8   8   8   8   8   8   8   8
#     4  10  21  41  63  84 124 167 200 250 324 383
#     4  10  21  39  62  89 126 158 209 253 308 382
#     4  11  22  38  59  90 123 152 207 261 306 362
#     4  10  20  38  63  83 118 163 203 247 311 371
#     4   9  19  39  61  83 119 168 203 245 314 372
#     4   9  21  40  58  90 122 158 204 259 305 378
#     4  10  22  37  60  92 122 159 205 259 308 373
#     4  11  22  39  61  88 120 160 207 254 307 367
#
# _framework density 19.955487999999999
#
# number of rings (size 3 to 8) (size 9 to 14) (size 15 to 20)
#    0.000    2.000    1.250    2.250    0.000    5.500 
#    4.500    0.000    0.000    0.000    0.000    0.000 
#    0.000    0.000    0.000    0.000    0.000    0.000 
#
# Total GULP energy -793645.578116 kJ/mol
# GULP energy per Si atom -12400.712158 kJ/mol
# Density = 1.991007 g / cm^3
# Si number density = 19.955488 Si / 1000 Ang^3
#
#
#
# Elastic Constant Matrix: (Units=GPa)
#
#
# Indices 1 2 3 4 5 6 
#
# 1 89.9801 21.3702 23.7098 0.0000 0.0000 0.0000
# 2 21.3702 78.6376 16.9713 0.0000 0.0000 0.0000
# 3 23.7098 16.9713 85.0364 0.0000 0.0000 0.0000
# 4 0.0000 0.0000 0.0000 22.5207 0.0000 0.0000
# 5 0.0000 0.0000 0.0000 0.0000 29.3702 0.0000
# 6 0.0000 0.0000 0.0000 0.0000 0.0000 41.1929
#
#
#
# Elastic Compliance Matrix: (Units=1/GPa)
#
#
# Indices 1 2 3 4 5 6 
#
# 1 0.012549 -0.002775 -0.002945 0.000000 0.000000 0.000000
# 2 -0.002775 0.013902 -0.002001 0.000000 0.000000 0.000000
# 3 -0.002945 -0.002001 0.012980 0.000000 0.000000 0.000000
# 4 0.000000 0.000000 0.000000 0.044404 0.000000 0.000000
# 5 0.000000 0.000000 0.000000 0.000000 0.034048 0.000000
# 6 0.000000 0.000000 0.000000 0.000000 0.000000 0.024276
#
#
# Mechanical properties :
#
#
# Convention : Reuss Voigt Hill
#
# Bulk Modulus (GPa) = 41.68416 41.97297 41.82856
# Shear Modulus (GPa) = 30.19385 31.39028 30.79207
#
# Velocity S-wave (km/s) = 3.89403 3.97043 3.93241
# Velocity P-wave (km/s) = 6.41497 6.48830 6.45174
#
# Compressibility (1/GPa) = 0.02398993
#
# Stress axis : x y z
#
# Youngs Moduli (GPa) = 79.69057 71.92996 77.04065
#
# Poissons Ratio (x) = 0.19957 0.22689
# Poissons Ratio (y) = 0.22110 0.15416
# Poissons Ratio (z) = 0.23469 0.14393
#
# Static dielectric constant tensor:
#      x y z
#    x 3.827800 0.000000 0.000000 
#    y 0.000000 3.800460 0.000000 
#    z 0.000000 0.000000 3.424980 
# 
# 
# High freq. dielectric constant tensor:
#      x y z
#    x 1.788670 0.000000 0.000000 
#    y 0.000000 1.782000 0.000000 
#    z 0.000000 0.000000 1.763010 
# 
# From -- ./inp_files/17958.got.cif
#   From: 2010.03.12/outbox.cif.g09.slc.cpg/sg60_9_cif.got.tgz:17958.got - 2010.04.10 18:46:24.
