data_PCOD8247729
_publ_section_title
;
Structure prediction by ZEFSAII (Michael W. Deem and Ramdas Pophale) SiO2 
 PCOD8247729
Probable space group: P B C N
;
_chemical_formula_sum "Si O2"
_cell_formula_units_Z 64
_cell_length_a 31.094583
_cell_length_b 10.801162
_cell_length_c 9.142576
_cell_angle_alpha 90.000000
_cell_angle_beta 90.000000
_cell_angle_gamma 90.000000
_cell_volume 3070.603892
_symmetry_space_group_name_H-M "P B C N"
_symmetry_group_IT_number 60
_symmetry_cell_setting 'orthorhombic'
loop_
_space_group_symop_operation_xyz
x,y,z
1/2-x,1/2-y,1/2+z
1/2+x,1/2-y,-z
-x,y,1/2-z
-x,-y,-z
1/2+x,1/2+y,1/2-z
1/2-x,1/2+y,z
x,-y,1/2+z
loop_
_atom_site_type_symbol
_atom_site_label
_atom_site_fract_x
_atom_site_fract_y
_atom_site_fract_z
Si Si1 0.542149 0.130143 0.673638
Si Si2 0.687273 0.007350 0.751852
Si Si3 0.369521 0.231226 0.768965
Si Si4 0.334997 0.613324 0.037639
Si Si5 0.235968 0.638182 0.995628
Si Si6 0.328479 0.670239 0.532798
Si Si7 0.543506 0.863495 0.818652
Si Si8 0.132098 0.278379 0.801170
O O1 0.500000 0.187907 0.750000
O O2 0.579536 0.216408 0.737920
O O3 0.539876 0.125653 0.495806
O O4 0.549284 0.994528 0.739233
O O5 0.712070 0.939535 0.880145
O O6 0.654716 0.911211 0.672315
O O7 0.655934 0.117315 0.807398
O O8 0.724851 0.065520 0.652430
O O9 0.351831 0.360802 0.701961
O O10 0.359227 0.237461 0.941564
O O11 0.286115 0.654985 0.018961
O O12 0.337290 0.471050 0.992538
O O13 0.368566 0.700620 0.950314
O O14 0.219765 0.781725 0.995434
O O15 0.337583 0.692484 0.701709
O O16 0.500000 0.802480 0.750000
O O17 0.584682 0.783940 0.769623
#
# Coordination Sequence:
#
# PCOD8247729 Si02
#       8
#     8   8   8   8   8   8   8   8
#     4  11  23  40  69 104 140 169 210 273 341 411
#     4  10  22  40  65  90 130 168 217 272 338 394
#     4  11  23  41  67  94 131 176 216 278 333 398
#     4  12  27  38  66  93 126 182 233 271 330 399
#     4  10  25  40  63  91 131 172 227 288 327 382
#     4  10  24  44  59  90 130 177 223 277 326 393
#     4  11  23  40  69 104 140 169 210 273 341 411
#     4  11  23  41  67  94 131 176 216 278 333 398
#
# _framework density 20.842806
#
# number of rings (size 3 to 8) (size 9 to 14) (size 15 to 20)
#    0.000    1.250    2.500    3.000   10.500    2.000 
#    0.000    0.000    0.000    4.500    0.000    0.000 
#    0.000    0.000    0.000    0.000    0.000    0.000 
#
# Total GULP energy -793155.025394 kJ/mol
# GULP energy per Si atom -12393.047272 kJ/mol
# Density = 2.079537 g / cm^3
# Si number density = 20.842806 Si / 1000 Ang^3
#
#
#
# Elastic Constant Matrix: (Units=GPa)
#
#
# Indices 1 2 3 4 5 6 
#
# 1 139.3031 35.0233 38.0185 0.0000 0.0000 0.0000
# 2 35.0233 100.2775 26.0909 0.0000 0.0000 0.0000
# 3 38.0185 26.0909 87.3991 0.0000 0.0000 0.0000
# 4 0.0000 0.0000 0.0000 27.1583 0.0000 0.0000
# 5 0.0000 0.0000 0.0000 0.0000 29.6527 0.0000
# 6 0.0000 0.0000 0.0000 0.0000 0.0000 25.3311
#
#
#
# Elastic Compliance Matrix: (Units=1/GPa)
#
#
# Indices 1 2 3 4 5 6 
#
# 1 0.008569 -0.002193 -0.003073 0.000000 0.000000 0.000000
# 2 -0.002193 0.011374 -0.002441 0.000000 0.000000 0.000000
# 3 -0.003073 -0.002441 0.013507 0.000000 0.000000 0.000000
# 4 0.000000 0.000000 0.000000 0.036821 0.000000 0.000000
# 5 0.000000 0.000000 0.000000 0.000000 0.033724 0.000000
# 6 0.000000 0.000000 0.000000 0.000000 0.000000 0.039477
#
#
# Mechanical properties :
#
#
# Convention : Reuss Voigt Hill
#
# Bulk Modulus (GPa) = 55.44749 58.36059 56.90404
# Shear Modulus (GPa) = 30.32196 31.61823 30.97009
#
# Velocity S-wave (km/s) = 3.81831 3.89907 3.85890
# Velocity P-wave (km/s) = 6.78968 6.95209 6.87136
#
# Compressibility (1/GPa) = 0.01803508
#
# Stress axis : x y z
#
# Youngs Moduli (GPa) = 116.70541 87.92347 74.03512
#
# Poissons Ratio (x) = 0.19284 0.22748
# Poissons Ratio (y) = 0.25596 0.18074
# Poissons Ratio (z) = 0.35859 0.21464
#
# Static dielectric constant tensor:
#      x y z
#    x 3.976170 0.000000 0.000000 
#    y 0.000000 3.578030 0.000000 
#    z 0.000000 0.000000 3.835620 
# 
# 
# High freq. dielectric constant tensor:
#      x y z
#    x 1.815370 0.000000 0.000000 
#    y 0.000000 1.796960 0.000000 
#    z 0.000000 0.000000 1.830310 
# 
# From -- ./inp_files/8503.got.cif
#   From: 2010.03.12/outbox.cif.g09.slc.cpg/sg60_5_cif.got.tgz:8503.got - 2010.04.10 18:46:24.
