data_PCOD8247474
_publ_section_title
;
Structure prediction by ZEFSAII (Michael W. Deem and Ramdas Pophale) SiO2 
 PCOD8247474
Probable space group: P B C N
;
_chemical_formula_sum "Si O2"
_cell_formula_units_Z 64
_cell_length_a 11.112442
_cell_length_b 14.613260
_cell_length_c 16.382277
_cell_angle_alpha 90.000000
_cell_angle_beta 90.000000
_cell_angle_gamma 90.000000
_cell_volume 2660.301648
_symmetry_space_group_name_H-M "P B C N"
_symmetry_group_IT_number 60
_symmetry_cell_setting 'orthorhombic'
loop_
_space_group_symop_operation_xyz
x,y,z
1/2-x,1/2-y,1/2+z
1/2+x,1/2-y,-z
-x,y,1/2-z
-x,-y,-z
1/2+x,1/2+y,1/2-z
1/2-x,1/2+y,z
x,-y,1/2+z
loop_
_atom_site_type_symbol
_atom_site_label
_atom_site_fract_x
_atom_site_fract_y
_atom_site_fract_z
Si Si1 0.291544 0.291193 0.945473
Si Si2 0.631513 0.215766 0.717800
Si Si3 0.118313 0.517944 0.571759
Si Si4 0.181760 0.886642 0.516170
Si Si5 0.788878 0.080183 0.795983
Si Si6 0.459433 0.658715 0.576606
Si Si7 0.044341 0.364226 0.929163
Si Si8 0.877519 0.888383 0.799516
O O1 0.377474 0.248645 0.876011
O O2 0.183118 0.349142 0.902929
O O3 0.239020 0.213255 0.005116
O O4 0.365225 0.360828 0.003226
O O5 0.500000 0.183483 0.750000
O O6 0.734093 0.137046 0.720642
O O7 0.691308 0.295489 0.774541
O O8 0.215216 0.463863 0.514357
O O9 0.183624 0.579833 0.637675
O O10 0.040958 0.591393 0.520546
O O11 0.032327 0.442568 0.618796
O O12 0.111880 0.894033 0.602908
O O13 0.081548 0.897482 0.444450
O O14 0.910238 0.123249 0.836215
O O15 0.814393 0.978502 0.763904
O O16 0.476672 0.768083 0.577226
O O17 0.000000 0.874874 0.750000
#
# Coordination Sequence:
#
# PCOD8247474 Si02
#       8
#     8   8   8   8   8   8   8   8
#     4  11  22  42  67 105 130 187 239 290 346 436
#     4  11  26  46  69  97 141 191 234 288 370 441
#     4  10  21  40  65 101 137 173 226 293 358 424
#     4  10  22  40  70 100 135 177 239 292 355 420
#     4  11  25  43  70  99 137 186 234 291 366 429
#     4  11  21  39  71  99 132 175 233 294 350 422
#     4  10  22  38  64 101 135 171 220 298 352 411
#     4  10  23  45  69 100 141 188 227 291 355 436
#
# _framework density 24.057423
#
# number of rings (size 3 to 8) (size 9 to 14) (size 15 to 20)
#    0.000    1.500    2.500    2.250    5.250    4.000 
#    9.000    0.000    0.000    0.000    0.000    0.000 
#    0.000    0.000    0.000    0.000    0.000    0.000 
#
# Total GULP energy -793034.297173 kJ/mol
# GULP energy per Si atom -12391.160893 kJ/mol
# Density = 2.400267 g / cm^3
# Si number density = 24.057423 Si / 1000 Ang^3
#
#
#
# Elastic Constant Matrix: (Units=GPa)
#
#
# Indices 1 2 3 4 5 6 
#
# 1 90.9627 8.5698 5.5303 0.0000 0.0000 0.0000
# 2 8.5698 87.0577 -5.5546 0.0000 0.0000 0.0000
# 3 5.5303 -5.5546 38.1844 0.0000 0.0000 0.0000
# 4 0.0000 0.0000 0.0000 22.7962 0.0000 0.0000
# 5 0.0000 0.0000 0.0000 0.0000 29.8708 0.0000
# 6 0.0000 0.0000 0.0000 0.0000 0.0000 42.7301
#
#
#
# Elastic Compliance Matrix: (Units=1/GPa)
#
#
# Indices 1 2 3 4 5 6 
#
# 1 0.011218 -0.001219 -0.001802 0.000000 0.000000 0.000000
# 2 -0.001219 0.011727 0.001882 0.000000 0.000000 0.000000
# 3 -0.001802 0.001882 0.026724 0.000000 0.000000 0.000000
# 4 0.000000 0.000000 0.000000 0.043867 0.000000 0.000000
# 5 0.000000 0.000000 0.000000 0.000000 0.033477 0.000000
# 6 0.000000 0.000000 0.000000 0.000000 0.000000 0.023403
#
#
# Mechanical properties :
#
#
# Convention : Reuss Voigt Hill
#
# Bulk Modulus (GPa) = 21.10128 25.92175 23.51152
# Shear Modulus (GPa) = 29.67536 32.92338 31.29937
#
# Velocity S-wave (km/s) = 3.51596 3.70338 3.61089
# Velocity P-wave (km/s) = 5.02722 5.39306 5.21335
#
# Compressibility (1/GPa) = 0.04739050
#
# Stress axis : x y z
#
# Youngs Moduli (GPa) = 89.14285 85.27503 37.42017
#
# Poissons Ratio (x) = 0.10397 0.06743
# Poissons Ratio (y) = 0.10869 -0.07044
# Poissons Ratio (z) = 0.16064 -0.16053
#
# Static dielectric constant tensor:
#      x y z
#    x 4.574850 0.000000 0.000000 
#    y 0.000000 4.541070 0.000000 
#    z 0.000000 0.000000 3.802370 
# 
# 
# High freq. dielectric constant tensor:
#      x y z
#    x 1.963400 0.000000 0.000000 
#    y 0.000000 1.965350 0.000000 
#    z 0.000000 0.000000 1.910420 
# 
# From -- ./inp_files/20223.got.cif
#   From: 2010.03.12/outbox.cif.g09.slc.cpg/sg60_11_cif.got.tgz:20223.got - 2010.04.10 18:46:24.
