data_PCOD8247868
_publ_section_title
;
Structure prediction by ZEFSAII (Michael W. Deem and Ramdas Pophale) SiO2 
 PCOD8247868
Probable space group: P B C N
;
_chemical_formula_sum "Si O2"
_cell_formula_units_Z 32
_cell_length_a 7.251686
_cell_length_b 12.471995
_cell_length_c 17.161187
_cell_angle_alpha 90.000000
_cell_angle_beta 90.000000
_cell_angle_gamma 90.000000
_cell_volume 1552.109091
_symmetry_space_group_name_H-M "P B C N"
_symmetry_group_IT_number 60
_symmetry_cell_setting 'orthorhombic'
loop_
_space_group_symop_operation_xyz
x,y,z
1/2-x,1/2-y,1/2+z
1/2+x,1/2-y,-z
-x,y,1/2-z
-x,-y,-z
1/2+x,1/2+y,1/2-z
1/2-x,1/2+y,z
x,-y,1/2+z
loop_
_atom_site_type_symbol
_atom_site_label
_atom_site_fract_x
_atom_site_fract_y
_atom_site_fract_z
Si Si1 0.538410 0.574550 0.659672
Si Si2 0.258059 0.677471 0.559358
Si Si3 0.514435 0.349637 0.589144
Si Si4 0.558817 0.138590 0.662967
O O1 0.500000 0.584475 0.750000
O O2 0.433352 0.672817 0.617628
O O3 0.461639 0.463053 0.625629
O O4 0.754688 0.577733 0.641795
O O5 0.325083 0.635837 0.475577
O O6 0.174760 0.798545 0.552194
O O7 0.096869 0.603563 0.599178
O O8 0.587978 0.268011 0.656050
O O9 0.500000 0.107530 0.750000
#
# Coordination Sequence:
#
# PCOD8247868 Si02
#       4
#     8   8   8   8
#     4  12  22  41  67  92 130 169 210 267 319 382
#     4  10  23  43  62  92 134 162 211 272 310 375
#     4  10  23  42  65  92 126 168 216 255 322 381
#     4  10  22  44  62  93 132 164 212 268 316 378
#
# _framework density 20.617108999999999
#
# number of rings (size 3 to 8) (size 9 to 14) (size 15 to 20)
#    1.500    0.000    2.500    3.000    0.000    1.000 
#    9.000    1.250    0.000    0.000    0.000    0.000 
#    0.000    0.000    0.000    0.000    0.000    0.000 
#
# Total GULP energy -396450.766354 kJ/mol
# GULP energy per Si atom -12389.086449 kJ/mol
# Density = 2.057018 g / cm^3
# Si number density = 20.617109 Si / 1000 Ang^3
#
#
#
# Elastic Constant Matrix: (Units=GPa)
#
#
# Indices 1 2 3 4 5 6 
#
# 1 113.0736 19.2191 20.8891 0.0000 0.0000 0.0000
# 2 19.2191 53.1428 8.6401 0.0000 0.0000 0.0000
# 3 20.8891 8.6401 60.1396 0.0000 0.0000 0.0000
# 4 0.0000 0.0000 0.0000 17.1131 0.0000 0.0000
# 5 0.0000 0.0000 0.0000 0.0000 3.3022 0.0000
# 6 0.0000 0.0000 0.0000 0.0000 0.0000 26.7745
#
#
#
# Elastic Compliance Matrix: (Units=1/GPa)
#
#
# Indices 1 2 3 4 5 6 
#
# 1 0.009926 -0.003101 -0.003002 0.000000 0.000000 0.000000
# 2 -0.003101 0.020236 -0.001830 0.000000 0.000000 0.000000
# 3 -0.003002 -0.001830 0.017934 0.000000 0.000000 0.000000
# 4 0.000000 0.000000 0.000000 0.058435 0.000000 0.000000
# 5 0.000000 0.000000 0.000000 0.000000 0.302831 0.000000
# 6 0.000000 0.000000 0.000000 0.000000 0.000000 0.037349
#
#
# Mechanical properties :
#
#
# Convention : Reuss Voigt Hill
#
# Bulk Modulus (GPa) = 31.02842 35.98363 33.50602
# Shear Modulus (GPa) = 10.56366 21.27846 15.92106
#
# Velocity S-wave (km/s) = 2.26602 3.21608 2.78191
# Velocity P-wave (km/s) = 4.68284 5.59304 5.15806
#
# Compressibility (1/GPa) = 0.03222852
#
# Stress axis : x y z
#
# Youngs Moduli (GPa) = 100.75017 49.41592 55.76120
#
# Poissons Ratio (x) = 0.15326 0.16739
# Poissons Ratio (y) = 0.31248 0.10204
# Poissons Ratio (z) = 0.30245 0.09043
#
# Static dielectric constant tensor:
#      x y z
#    x 3.824260 0.000000 0.000000 
#    y 0.000000 3.308350 0.000000 
#    z 0.000000 0.000000 3.677450 
# 
# 
# High freq. dielectric constant tensor:
#      x y z
#    x 1.812280 0.000000 0.000000 
#    y 0.000000 1.767750 0.000000 
#    z 0.000000 0.000000 1.813790 
# 
# From -- ./inp_files/18379.got.cif
#   From: 2010.03.12/outbox.cif.g09.slc.cpg/sg60_10_cif.got.tgz:18379.got - 2010.04.10 18:46:24.
