data_PCOD8247228
_publ_section_title
;
Structure prediction by ZEFSAII (Michael W. Deem and Ramdas Pophale) SiO2 
 PCOD8247228
Probable space group: P B C N
;
_chemical_formula_sum "Si O2"
_cell_formula_units_Z 28
_cell_length_a 13.449764
_cell_length_b 18.081678
_cell_length_c 5.153752
_cell_angle_alpha 90.000000
_cell_angle_beta 90.000000
_cell_angle_gamma 90.000000
_cell_volume 1253.363119
_symmetry_space_group_name_H-M "P B C N"
_symmetry_group_IT_number 60
_symmetry_cell_setting 'orthorhombic'
loop_
_space_group_symop_operation_xyz
x,y,z
1/2-x,1/2-y,1/2+z
1/2+x,1/2-y,-z
-x,y,1/2-z
-x,-y,-z
1/2+x,1/2+y,1/2-z
1/2-x,1/2+y,z
x,-y,1/2+z
loop_
_atom_site_type_symbol
_atom_site_label
_atom_site_fract_x
_atom_site_fract_y
_atom_site_fract_z
Si Si1 0.500000 0.948124 0.250000
Si Si2 0.189593 0.829138 0.752919
Si Si3 0.890646 0.970201 0.563196
Si Si4 0.182363 0.663022 0.750330
O O1 0.404868 0.895575 0.279419
O O2 0.500000 0.000000 0.500000
O O3 0.142764 0.747596 0.778875
O O4 0.232711 0.847363 0.468771
O O5 0.102911 0.886828 0.829215
O O6 0.276103 0.844622 0.961015
O O7 0.834439 0.019975 0.786333
O O8 0.000000 0.000000 0.500000
#
# Coordination Sequence:
#
# PCOD8247228 Si02
#       4
#     4   8   8   8
#     4  12  26  42  62  92 126 162 210 262 314 368
#     4  10  21  41  64  88 119 159 207 247 305 373
#     4  10  21  35  55  89 123 152 186 235 299 358
#     4  10  23  41  63  87 117 163 206 253 302 360
#
# _framework density 22.339897000000001
#
# number of rings (size 3 to 8) (size 9 to 14) (size 15 to 20)
#    0.000    1.714    0.000    3.429    0.000    9.143 
#    0.000    8.571    0.000    0.000    0.000    0.000 
#    0.000    0.000    0.000    0.000    0.000    0.000 
#
# Total GULP energy -346866.514503 kJ/mol
# GULP energy per Si atom -12388.089804 kJ/mol
# Density = 2.228905 g / cm^3
# Si number density = 22.339897 Si / 1000 Ang^3
#
#
#
# Elastic Constant Matrix: (Units=GPa)
#
#
# Indices 1 2 3 4 5 6 
#
# 1 65.2873 62.6720 15.9086 0.0000 0.0000 0.0000
# 2 62.6720 172.4962 54.1925 0.0000 0.0000 0.0000
# 3 15.9086 54.1925 165.9535 0.0000 0.0000 0.0000
# 4 0.0000 0.0000 0.0000 43.5029 0.0000 0.0000
# 5 0.0000 0.0000 0.0000 0.0000 24.6910 0.0000
# 6 0.0000 0.0000 0.0000 0.0000 0.0000 51.8166
#
#
#
# Elastic Compliance Matrix: (Units=1/GPa)
#
#
# Indices 1 2 3 4 5 6 
#
# 1 0.023573 -0.008753 0.000598 0.000000 0.000000 0.000000
# 2 -0.008753 0.009710 -0.002332 0.000000 0.000000 0.000000
# 3 0.000598 -0.002332 0.006730 0.000000 0.000000 0.000000
# 4 0.000000 0.000000 0.000000 0.022987 0.000000 0.000000
# 5 0.000000 0.000000 0.000000 0.000000 0.040501 0.000000
# 6 0.000000 0.000000 0.000000 0.000000 0.000000 0.019299
#
#
# Mechanical properties :
#
#
# Convention : Reuss Voigt Hill
#
# Bulk Modulus (GPa) = 52.51850 74.36480 63.44165
# Shear Modulus (GPa) = 33.30709 42.06637 37.68673
#
# Velocity S-wave (km/s) = 3.86544 4.34408 4.11173
# Velocity P-wave (km/s) = 6.59409 7.64994 7.14155
#
# Compressibility (1/GPa) = 0.01904091
#
# Stress axis : x y z
#
# Youngs Moduli (GPa) = 42.42109 102.98827 148.59183
#
# Poissons Ratio (x) = 0.90143 -0.08892
# Poissons Ratio (y) = 0.37130 0.34647
# Poissons Ratio (z) = -0.02539 0.24014
#
# Static dielectric constant tensor:
#      x y z
#    x 3.205250 0.000000 0.000000 
#    y 0.000000 4.586960 0.000000 
#    z 0.000000 0.000000 2.899280 
# 
# 
# High freq. dielectric constant tensor:
#      x y z
#    x 1.833130 0.000000 0.000000 
#    y 0.000000 1.904210 0.000000 
#    z 0.000000 0.000000 1.920390 
# 
# From -- ./inp_files/1020.got.cif
#   From: 2010.03.12/outbox.cif.g09.slc.cpg/sg60_1_cif.got.tgz:1020.got - 2010.04.10 18:46:24.
