data_PCOD8247935
_publ_section_title
;
Structure prediction by ZEFSAII (Michael W. Deem and Ramdas Pophale) SiO2 
 PCOD8247935
Probable space group: P B C N
;
_chemical_formula_sum "Si O2"
_cell_formula_units_Z 56
_cell_length_a 12.734485
_cell_length_b 13.457688
_cell_length_c 16.296691
_cell_angle_alpha 90.000000
_cell_angle_beta 90.000000
_cell_angle_gamma 90.000000
_cell_volume 2792.873548
_symmetry_space_group_name_H-M "P B C N"
_symmetry_group_IT_number 60
_symmetry_cell_setting 'orthorhombic'
loop_
_space_group_symop_operation_xyz
x,y,z
1/2-x,1/2-y,1/2+z
1/2+x,1/2-y,-z
-x,y,1/2-z
-x,-y,-z
1/2+x,1/2+y,1/2-z
1/2-x,1/2+y,z
x,-y,1/2+z
loop_
_atom_site_type_symbol
_atom_site_label
_atom_site_fract_x
_atom_site_fract_y
_atom_site_fract_z
Si Si1 0.112112 0.706712 0.289176
Si Si2 0.124607 0.200563 0.465077
Si Si3 0.894399 0.183058 0.417612
Si Si4 0.391135 0.493644 0.708694
Si Si5 0.207807 0.194260 0.641381
Si Si6 0.205165 0.155136 0.911508
Si Si7 0.763998 0.056985 0.141267
O O1 0.185594 0.725215 0.211072
O O2 0.114976 0.803769 0.348974
O O3 0.153692 0.614071 0.343679
O O4 0.000000 0.684093 0.250000
O O5 0.134526 0.213440 0.562566
O O6 0.197435 0.271307 0.411121
O O7 0.166207 0.092696 0.436627
O O8 0.006854 0.227152 0.440546
O O9 0.828429 0.278142 0.382928
O O10 0.840815 0.138873 0.498685
O O11 0.912786 0.087378 0.361004
O O12 0.500000 0.534306 0.750000
O O13 0.317395 0.583282 0.674364
O O14 0.330460 0.431050 0.776501
O O15 0.258583 0.057060 0.876236
#
# Coordination Sequence:
#
# PCOD8247935 Si02
#       7
#     8   8   8   8   8   8   8
#     4  11  22  39  62  87 124 166 204 251 308 364
#     4  10  23  40  63  90 122 164 204 252 311 362
#     4  11  23  42  64  91 126 159 206 259 302 365
#     4  12  23  38  66  95 122 162 207 252 306 362
#     4  11  23  39  62  93 123 158 208 256 304 364
#     4  10  23  41  63  89 126 161 206 254 307 369
#     4  11  22  40  58  93 126 156 206 256 300 370
#
# _framework density 20.051034000000001
#
# number of rings (size 3 to 8) (size 9 to 14) (size 15 to 20)
#    0.000    1.143    4.286    2.143    2.000    1.143 
#    2.571    0.000    0.000    6.000    0.000    0.000 
#    0.000    0.000    0.000    0.000    0.000    0.000 
#
# Total GULP energy -694037.880890 kJ/mol
# GULP energy per Si atom -12393.533587 kJ/mol
# Density = 2.000540 g / cm^3
# Si number density = 20.051034 Si / 1000 Ang^3
#
#
#
# Elastic Constant Matrix: (Units=GPa)
#
#
# Indices 1 2 3 4 5 6 
#
# 1 100.5249 38.6740 25.7777 0.0000 0.0000 0.0000
# 2 38.6740 92.3946 29.0342 0.0000 0.0000 0.0000
# 3 25.7777 29.0342 103.6566 0.0000 0.0000 0.0000
# 4 0.0000 0.0000 0.0000 26.5395 0.0000 0.0000
# 5 0.0000 0.0000 0.0000 0.0000 28.8339 0.0000
# 6 0.0000 0.0000 0.0000 0.0000 0.0000 15.9215
#
#
#
# Elastic Compliance Matrix: (Units=1/GPa)
#
#
# Indices 1 2 3 4 5 6 
#
# 1 0.012140 -0.004532 -0.001750 0.000000 0.000000 0.000000
# 2 -0.004532 0.013559 -0.002671 0.000000 0.000000 0.000000
# 3 -0.001750 -0.002671 0.010831 0.000000 0.000000 0.000000
# 4 0.000000 0.000000 0.000000 0.037680 0.000000 0.000000
# 5 0.000000 0.000000 0.000000 0.000000 0.034681 0.000000
# 6 0.000000 0.000000 0.000000 0.000000 0.000000 0.062808
#
#
# Mechanical properties :
#
#
# Convention : Reuss Voigt Hill
#
# Bulk Modulus (GPa) = 53.69115 53.72755 53.70935
# Shear Modulus (GPa) = 25.53472 27.79833 26.66653
#
# Velocity S-wave (km/s) = 3.57247 3.72745 3.65078
# Velocity P-wave (km/s) = 6.62209 6.73638 6.67948
#
# Compressibility (1/GPa) = 0.01862504
#
# Stress axis : x y z
#
# Youngs Moduli (GPa) = 82.37329 73.75012 92.33178
#
# Poissons Ratio (x) = 0.33421 0.16155
# Poissons Ratio (y) = 0.37328 0.24662
# Poissons Ratio (z) = 0.14413 0.19699
#
# Static dielectric constant tensor:
#      x y z
#    x 3.560540 0.000000 0.000000 
#    y 0.000000 3.501770 0.000000 
#    z 0.000000 0.000000 3.981020 
# 
# 
# High freq. dielectric constant tensor:
#      x y z
#    x 1.771500 0.000000 0.000000 
#    y 0.000000 1.772790 0.000000 
#    z 0.000000 0.000000 1.807720 
# 
# From -- ./inp_files/16190.got.cif
#   From: 2010.03.12/outbox.cif.g09.slc.cpg/sg60_9_cif.got.tgz:16190.got - 2010.04.10 18:46:24.
