data_PCOD8247862
_publ_section_title
;
Structure prediction by ZEFSAII (Michael W. Deem and Ramdas Pophale) SiO2 
 PCOD8247862
Probable space group: P B C N
;
_chemical_formula_sum "Si O2"
_cell_formula_units_Z 48
_cell_length_a 24.511932
_cell_length_b 9.850125
_cell_length_c 9.044910
_cell_angle_alpha 90.000000
_cell_angle_beta 90.000000
_cell_angle_gamma 90.000000
_cell_volume 2183.853669
_symmetry_space_group_name_H-M "P B C N"
_symmetry_group_IT_number 60
_symmetry_cell_setting 'orthorhombic'
loop_
_space_group_symop_operation_xyz
x,y,z
1/2-x,1/2-y,1/2+z
1/2+x,1/2-y,-z
-x,y,1/2-z
-x,-y,-z
1/2+x,1/2+y,1/2-z
1/2-x,1/2+y,z
x,-y,1/2+z
loop_
_atom_site_type_symbol
_atom_site_label
_atom_site_fract_x
_atom_site_fract_y
_atom_site_fract_z
Si Si1 0.628869 0.730426 0.637959
Si Si2 0.668961 0.972435 0.083613
Si Si3 0.402872 0.755636 0.521742
Si Si4 0.988287 0.860314 0.080000
Si Si5 0.245075 0.505513 0.167210
Si Si6 0.819196 0.053995 0.082713
O O1 0.617955 0.749150 0.810773
O O2 0.571987 0.699457 0.552676
O O3 0.669734 0.606560 0.604444
O O4 0.657345 0.866522 0.576344
O O5 0.611965 0.894977 0.062190
O O6 0.708055 0.915690 0.952275
O O7 0.700587 0.925597 0.232166
O O8 0.468139 0.747367 0.515472
O O9 0.375795 0.634576 0.424574
O O10 0.000000 0.888581 0.250000
O O11 0.000000 0.000000 0.000000
O O12 0.286484 0.414225 0.069523
O O13 0.281317 0.600207 0.277780
#
# Coordination Sequence:
#
# PCOD8247862 Si02
#       6
#     8   8   8   8   8   8
#     4  11  23  43  67  98 130 169 213 269 323 380
#     4  11  24  43  62  92 138 169 216 259 324 378
#     4  11  23  43  67  98 130 169 213 269 323 380
#     4  10  22  43  70  98 126 160 214 269 322 380
#     4  10  24  40  64  96 124 180 216 264 310 384
#     4  11  22  39  68  94 128 169 224 261 318 374
#
# _framework density 21.979495
#
# number of rings (size 3 to 8) (size 9 to 14) (size 15 to 20)
#    0.000    1.333    5.000    0.000    0.000   10.000 
#    3.000    0.000    0.000    0.000    0.000    0.000 
#    0.000    0.000    0.000    0.000    0.000    0.000 
#
# Total GULP energy -594693.290872 kJ/mol
# GULP energy per Si atom -12389.443560 kJ/mol
# Density = 2.192947 g / cm^3
# Si number density = 21.979495 Si / 1000 Ang^3
#
#
#
# Elastic Constant Matrix: (Units=GPa)
#
#
# Indices 1 2 3 4 5 6 
#
# 1 114.4065 28.3149 27.0516 0.0000 0.0000 0.0000
# 2 28.3149 110.7146 8.7469 0.0000 0.0000 0.0000
# 3 27.0516 8.7469 96.3452 0.0000 0.0000 0.0000
# 4 0.0000 0.0000 0.0000 17.3325 0.0000 0.0000
# 5 0.0000 0.0000 0.0000 0.0000 33.0996 0.0000
# 6 0.0000 0.0000 0.0000 0.0000 0.0000 23.4905
#
#
#
# Elastic Compliance Matrix: (Units=1/GPa)
#
#
# Indices 1 2 3 4 5 6 
#
# 1 0.009928 -0.002336 -0.002575 0.000000 0.000000 0.000000
# 2 -0.002336 0.009647 -0.000220 0.000000 0.000000 0.000000
# 3 -0.002575 -0.000220 0.011122 0.000000 0.000000 0.000000
# 4 0.000000 0.000000 0.000000 0.057695 0.000000 0.000000
# 5 0.000000 0.000000 0.000000 0.000000 0.030212 0.000000
# 6 0.000000 0.000000 0.000000 0.000000 0.000000 0.042570
#
#
# Mechanical properties :
#
#
# Convention : Reuss Voigt Hill
#
# Bulk Modulus (GPa) = 48.93550 49.96591 49.45070
# Shear Modulus (GPa) = 28.05075 31.94137 29.99606
#
# Velocity S-wave (km/s) = 3.57630 3.81627 3.69823
# Velocity P-wave (km/s) = 6.27421 6.49622 6.38618
#
# Compressibility (1/GPa) = 0.02043506
#
# Stress axis : x y z
#
# Youngs Moduli (GPa) = 100.72767 103.66004 89.90826
#
# Poissons Ratio (x) = 0.24210 0.23155
# Poissons Ratio (y) = 0.23525 0.01978
# Poissons Ratio (z) = 0.25942 0.02281
#
# Static dielectric constant tensor:
#      x y z
#    x 4.426310 0.000000 0.000000 
#    y 0.000000 3.545340 0.000000 
#    z 0.000000 0.000000 4.145250 
# 
# 
# High freq. dielectric constant tensor:
#      x y z
#    x 1.879880 0.000000 0.000000 
#    y 0.000000 1.828280 0.000000 
#    z 0.000000 0.000000 1.871470 
# 
# From -- ./inp_files/8406.got.cif
#   From: 2010.03.12/outbox.cif.g09.slc.cpg/sg60_5_cif.got.tgz:8406.got - 2010.04.10 18:46:24.
