data_PCOD8247717
_publ_section_title
;
Structure prediction by ZEFSAII (Michael W. Deem and Ramdas Pophale) SiO2 
 PCOD8247717
Probable space group: P B C N
;
_chemical_formula_sum "Si O2"
_cell_formula_units_Z 48
_cell_length_a 27.904789
_cell_length_b 5.142833
_cell_length_c 15.474282
_cell_angle_alpha 90.000000
_cell_angle_beta 90.000000
_cell_angle_gamma 90.000000
_cell_volume 2220.709099
_symmetry_space_group_name_H-M "P B C N"
_symmetry_group_IT_number 60
_symmetry_cell_setting 'orthorhombic'
loop_
_space_group_symop_operation_xyz
x,y,z
1/2-x,1/2-y,1/2+z
1/2+x,1/2-y,-z
-x,y,1/2-z
-x,-y,-z
1/2+x,1/2+y,1/2-z
1/2-x,1/2+y,z
x,-y,1/2+z
loop_
_atom_site_type_symbol
_atom_site_label
_atom_site_fract_x
_atom_site_fract_y
_atom_site_fract_z
Si Si1 0.440324 0.024911 0.589794
Si Si2 0.643822 0.630165 0.460672
Si Si3 0.047816 0.585016 0.898682
Si Si4 0.894755 0.931186 0.140195
Si Si5 0.139390 0.735138 0.186803
Si Si6 0.717486 0.086257 0.871086
O O1 0.409087 0.279461 0.568720
O O2 0.492045 0.102148 0.626863
O O3 0.446251 0.859136 0.501266
O O4 0.414202 0.857170 0.663447
O O5 0.641447 0.533122 0.559297
O O6 0.660100 0.405231 0.393647
O O7 0.683375 0.866313 0.456311
O O8 0.069358 0.308063 0.873126
O O9 0.074876 0.807948 0.845786
O O10 0.862207 0.896092 0.224869
O O11 0.176472 0.491608 0.199935
O O12 0.743984 0.359710 0.863840
#
# Coordination Sequence:
#
# PCOD8247717 Si02
#       6
#     8   8   8   8   8   8
#     4   9  21  38  64  90 128 179 221 274 327 375
#     4  10  22  43  67  92 130 169 217 269 333 392
#     4  10  22  40  61  92 131 173 230 271 314 390
#     4  11  25  40  63  96 133 176 218 270 325 386
#     4  11  23  42  66  96 134 173 218 273 340 395
#     4  11  23  43  72  95 120 163 210 267 336 403
#
# _framework density 21.614719000000001
#
# number of rings (size 3 to 8) (size 9 to 14) (size 15 to 20)
#    0.000    1.667    3.333    0.000    7.000    2.667 
#    0.000    1.667    0.000    0.000    0.000    0.000 
#    0.000    0.000    0.000    0.000    0.000    0.000 
#
# Total GULP energy -594694.366793 kJ/mol
# GULP energy per Si atom -12389.465975 kJ/mol
# Density = 2.156552 g / cm^3
# Si number density = 21.614719 Si / 1000 Ang^3
#
#
#
# Elastic Constant Matrix: (Units=GPa)
#
#
# Indices 1 2 3 4 5 6 
#
# 1 93.4711 14.8388 19.2280 0.0000 0.0000 0.0000
# 2 14.8388 77.8997 7.8736 0.0000 0.0000 0.0000
# 3 19.2280 7.8736 94.9873 0.0000 0.0000 0.0000
# 4 0.0000 0.0000 0.0000 24.2639 0.0000 0.0000
# 5 0.0000 0.0000 0.0000 0.0000 14.2680 0.0000
# 6 0.0000 0.0000 0.0000 0.0000 0.0000 43.4663
#
#
#
# Elastic Compliance Matrix: (Units=1/GPa)
#
#
# Indices 1 2 3 4 5 6 
#
# 1 0.011454 -0.001964 -0.002156 0.000000 0.000000 0.000000
# 2 -0.001964 0.013282 -0.000703 0.000000 0.000000 0.000000
# 3 -0.002156 -0.000703 0.011022 0.000000 0.000000 0.000000
# 4 0.000000 0.000000 0.000000 0.041213 0.000000 0.000000
# 5 0.000000 0.000000 0.000000 0.000000 0.070087 0.000000
# 6 0.000000 0.000000 0.000000 0.000000 0.000000 0.023006
#
#
# Mechanical properties :
#
#
# Convention : Reuss Voigt Hill
#
# Bulk Modulus (GPa) = 38.29628 38.91544 38.60586
# Shear Modulus (GPa) = 26.53710 31.36081 28.94896
#
# Velocity S-wave (km/s) = 3.50770 3.81320 3.66364
# Velocity P-wave (km/s) = 5.84478 6.11805 5.98298
#
# Compressibility (1/GPa) = 0.02611220
#
# Stress axis : x y z
#
# Youngs Moduli (GPa) = 87.30787 75.28866 90.72423
#
# Poissons Ratio (x) = 0.14786 0.19558
# Poissons Ratio (y) = 0.17146 0.06382
# Poissons Ratio (z) = 0.18821 0.05296
#
# Static dielectric constant tensor:
#      x y z
#    x 4.176410 0.000000 0.000000 
#    y 0.000000 3.950630 0.000000 
#    z 0.000000 0.000000 3.744840 
# 
# 
# High freq. dielectric constant tensor:
#      x y z
#    x 1.855730 0.000000 0.000000 
#    y 0.000000 1.855020 0.000000 
#    z 0.000000 0.000000 1.814670 
# 
# From -- ./inp_files/21113.got.cif
#   From: 2010.03.12/outbox.cif.g09.slc.cpg/sg60_11_cif.got.tgz:21113.got - 2010.04.10 18:46:24.
