data_PCOD8247161
_publ_section_title
;
Structure prediction by ZEFSAII (Michael W. Deem and Ramdas Pophale) SiO2 
 PCOD8247161
Probable space group: P B C N
;
_chemical_formula_sum "Si O2"
_cell_formula_units_Z 60
_cell_length_a 8.262310
_cell_length_b 17.485252
_cell_length_c 17.745695
_cell_angle_alpha 90.000000
_cell_angle_beta 90.000000
_cell_angle_gamma 90.000000
_cell_volume 2563.695224
_symmetry_space_group_name_H-M "P B C N"
_symmetry_group_IT_number 60
_symmetry_cell_setting 'orthorhombic'
loop_
_space_group_symop_operation_xyz
x,y,z
1/2-x,1/2-y,1/2+z
1/2+x,1/2-y,-z
-x,y,1/2-z
-x,-y,-z
1/2+x,1/2+y,1/2-z
1/2-x,1/2+y,z
x,-y,1/2+z
loop_
_atom_site_type_symbol
_atom_site_label
_atom_site_fract_x
_atom_site_fract_y
_atom_site_fract_z
Si Si1 0.962218 0.649935 0.016062
Si Si2 0.153577 0.568255 0.706505
Si Si3 0.500000 0.384508 0.250000
Si Si4 0.116207 0.077698 0.483938
Si Si5 0.278750 0.037930 0.077913
Si Si6 0.533498 0.616771 0.333222
Si Si7 0.401270 0.782696 0.131945
Si Si8 0.537872 0.296578 0.403295
O O1 0.800311 0.602902 0.008463
O O2 0.093056 0.584774 0.031453
O O3 0.941800 0.718398 0.077443
O O4 0.014139 0.688354 0.936709
O O5 0.336054 0.562537 0.742795
O O6 0.150763 0.535458 0.621596
O O7 0.111328 0.657559 0.699984
O O8 0.000000 0.529476 0.750000
O O9 0.480501 0.330721 0.323312
O O10 0.008610 0.138379 0.532063
O O11 0.081901 0.076708 0.394736
O O12 0.127954 0.991172 0.522982
O O13 0.215012 0.093422 0.144107
O O14 0.500000 0.584931 0.250000
O O15 0.515530 0.707675 0.334634
O O16 0.223213 0.768799 0.097884
#
# Coordination Sequence:
#
# PCOD8247161 Si02
#       8
#     8   8   4   8   8   8   8   8
#     4  11  22  42  74  98 133 183 240 296 348 422
#     4  11  25  46  70 105 146 192 240 294 362 433
#     4  10  22  46  74 100 148 190 240 292 360 428
#     4  11  24  45  69 101 139 186 238 285 359 440
#     4  12  25  46  67  99 147 185 232 296 359 436
#     4  12  27  44  70 101 139 182 233 299 359 418
#     4  10  21  45  70  98 135 178 238 295 346 429
#     4  10  20  41  71 102 136 183 238 291 344 424
#
# _framework density 23.403718000000001
#
# number of rings (size 3 to 8) (size 9 to 14) (size 15 to 20)
#    0.000    1.067    6.667    1.200    0.933    4.267 
#    3.600    0.000    0.000    0.000    0.000    0.000 
#    0.000    0.000    0.000    0.000    0.000    0.000 
#
# Total GULP energy -743718.081421 kJ/mol
# GULP energy per Si atom -12395.301357 kJ/mol
# Density = 2.335045 g / cm^3
# Si number density = 23.403718 Si / 1000 Ang^3
#
#
#
# Elastic Constant Matrix: (Units=GPa)
#
#
# Indices 1 2 3 4 5 6 
#
# 1 72.9210 16.6565 43.0537 0.0000 0.0000 0.0000
# 2 16.6565 97.1959 35.7769 0.0000 0.0000 0.0000
# 3 43.0537 35.7769 154.4277 0.0000 0.0000 0.0000
# 4 0.0000 0.0000 0.0000 29.1088 0.0000 0.0000
# 5 0.0000 0.0000 0.0000 0.0000 39.3732 0.0000
# 6 0.0000 0.0000 0.0000 0.0000 0.0000 16.7588
#
#
#
# Elastic Compliance Matrix: (Units=1/GPa)
#
#
# Indices 1 2 3 4 5 6 
#
# 1 0.016552 -0.001244 -0.004326 0.000000 0.000000 0.000000
# 2 -0.001244 0.011341 -0.002281 0.000000 0.000000 0.000000
# 3 -0.004326 -0.002281 0.008210 0.000000 0.000000 0.000000
# 4 0.000000 0.000000 0.000000 0.034354 0.000000 0.000000
# 5 0.000000 0.000000 0.000000 0.000000 0.025398 0.000000
# 6 0.000000 0.000000 0.000000 0.000000 0.000000 0.059670
#
#
# Mechanical properties :
#
#
# Convention : Reuss Voigt Hill
#
# Bulk Modulus (GPa) = 49.01690 57.27986 53.14838
# Shear Modulus (GPa) = 28.08550 32.31866 30.20208
#
# Velocity S-wave (km/s) = 3.46792 3.72010 3.59623
# Velocity P-wave (km/s) = 6.08481 6.55592 6.32475
#
# Compressibility (1/GPa) = 0.02040113
#
# Stress axis : x y z
#
# Youngs Moduli (GPa) = 60.41566 88.17436 121.80177
#
# Poissons Ratio (x) = 0.10969 0.52696
# Poissons Ratio (y) = 0.07516 0.27778
# Poissons Ratio (z) = 0.26138 0.20109
#
# Static dielectric constant tensor:
#      x y z
#    x 4.190140 0.000000 0.000000 
#    y 0.000000 4.418930 0.000000 
#    z 0.000000 0.000000 4.139650 
# 
# 
# High freq. dielectric constant tensor:
#      x y z
#    x 1.916050 0.000000 0.000000 
#    y 0.000000 1.938580 0.000000 
#    z 0.000000 0.000000 1.927230 
# 
# From -- ./inp_files/19565.got.cif
#   From: 2010.03.12/outbox.cif.g09.slc.cpg/sg60_10_cif.got.tgz:19565.got - 2010.04.10 18:46:24.
