data_PCOD8247198
_publ_section_title
;
Structure prediction by ZEFSAII (Michael W. Deem and Ramdas Pophale) SiO2 
 PCOD8247198
Probable space group: P B C N
;
_chemical_formula_sum "Si O2"
_cell_formula_units_Z 28
_cell_length_a 13.590273
_cell_length_b 5.298255
_cell_length_c 15.371443
_cell_angle_alpha 90.000000
_cell_angle_beta 90.000000
_cell_angle_gamma 90.000000
_cell_volume 1106.816632
_symmetry_space_group_name_H-M "P B C N"
_symmetry_group_IT_number 60
_symmetry_cell_setting 'orthorhombic'
loop_
_space_group_symop_operation_xyz
x,y,z
1/2-x,1/2-y,1/2+z
1/2+x,1/2-y,-z
-x,y,1/2-z
-x,-y,-z
1/2+x,1/2+y,1/2-z
1/2-x,1/2+y,z
x,-y,1/2+z
loop_
_atom_site_type_symbol
_atom_site_label
_atom_site_fract_x
_atom_site_fract_y
_atom_site_fract_z
Si Si1 0.691478 0.050625 0.821362
Si Si2 0.617046 0.979383 0.513392
Si Si3 0.000000 0.233664 0.250000
Si Si4 0.922990 0.020017 0.078262
O O1 0.761945 0.283236 0.794445
O O2 0.590297 0.080299 0.769231
O O3 0.674316 0.058291 0.924210
O O4 0.649354 0.240233 0.561000
O O5 0.500000 0.000000 0.500000
O O6 0.639892 0.739326 0.576275
O O7 0.019306 0.049759 0.331371
O O8 0.000000 0.000000 0.000000
#
# Coordination Sequence:
#
# PCOD8247198 Si02
#       4
#     8   8   4   8
#     4  12  28  47  74 115 153 203 260 324 389 455
#     4  10  20  44  71 100 140 188 251 305 389 445
#     4  12  26  48  82 102 172 198 260 338 380 470
#     4  10  21  40  75 108 130 205 248 299 395 447
#
# _framework density 25.297777
#
# number of rings (size 3 to 8) (size 9 to 14) (size 15 to 20)
#    0.000    1.143    5.714    1.714    4.000    4.571 
#    0.000    8.571    0.000    0.000    0.000    0.000 
#    0.000    0.000    0.000    0.000    0.000    0.000 
#
# Total GULP energy -347137.905827 kJ/mol
# GULP energy per Si atom -12397.782351 kJ/mol
# Density = 2.524020 g / cm^3
# Si number density = 25.297777 Si / 1000 Ang^3
#
#
#
# Elastic Constant Matrix: (Units=GPa)
#
#
# Indices 1 2 3 4 5 6 
#
# 1 92.0970 25.5140 27.9172 0.0000 0.0000 0.0000
# 2 25.5140 234.3432 38.7978 0.0000 0.0000 0.0000
# 3 27.9172 38.7978 141.2494 0.0000 0.0000 0.0000
# 4 0.0000 0.0000 0.0000 28.9787 0.0000 0.0000
# 5 0.0000 0.0000 0.0000 0.0000 43.8646 0.0000
# 6 0.0000 0.0000 0.0000 0.0000 0.0000 14.6426
#
#
#
# Elastic Compliance Matrix: (Units=1/GPa)
#
#
# Indices 1 2 3 4 5 6 
#
# 1 0.011743 -0.000937 -0.002064 0.000000 0.000000 0.000000
# 2 -0.000937 0.004545 -0.001063 0.000000 0.000000 0.000000
# 3 -0.002064 -0.001063 0.007780 0.000000 0.000000 0.000000
# 4 0.000000 0.000000 0.000000 0.034508 0.000000 0.000000
# 5 0.000000 0.000000 0.000000 0.000000 0.022797 0.000000
# 6 0.000000 0.000000 0.000000 0.000000 0.000000 0.068294
#
#
# Mechanical properties :
#
#
# Convention : Reuss Voigt Hill
#
# Bulk Modulus (GPa) = 62.73355 72.46086 67.59721
# Shear Modulus (GPa) = 30.65438 42.52788 36.59113
#
# Velocity S-wave (km/s) = 3.48478 4.10456 3.80730
# Velocity P-wave (km/s) = 6.40652 7.15322 6.79014
#
# Compressibility (1/GPa) = 0.01594043
#
# Stress axis : x y z
#
# Youngs Moduli (GPa) = 85.15559 220.00793 128.54115
#
# Poissons Ratio (x) = 0.20612 0.26526
# Poissons Ratio (y) = 0.07978 0.13668
# Poissons Ratio (z) = 0.17573 0.23394
#
# Static dielectric constant tensor:
#      x y z
#    x 4.283930 0.000000 0.000000 
#    y 0.000000 3.901120 0.000000 
#    z 0.000000 0.000000 4.417040 
# 
# 
# High freq. dielectric constant tensor:
#      x y z
#    x 1.986460 0.000000 0.000000 
#    y 0.000000 2.037650 0.000000 
#    z 0.000000 0.000000 1.997520 
# 
# From -- ./inp_files/20327.got.cif
#   From: 2010.03.12/outbox.cif.g09.slc.cpg/sg60_11_cif.got.tgz:20327.got - 2010.04.10 18:46:24.
