data_PCOD8247695
_publ_section_title
;
Structure prediction by ZEFSAII (Michael W. Deem and Ramdas Pophale) SiO2 
 PCOD8247695
Probable space group: P B C N
;
_chemical_formula_sum "Si O2"
_cell_formula_units_Z 24
_cell_length_a 4.926863
_cell_length_b 22.747312
_cell_length_c 8.684717
_cell_angle_alpha 90.000000
_cell_angle_beta 90.000000
_cell_angle_gamma 90.000000
_cell_volume 973.321332
_symmetry_space_group_name_H-M "P B C N"
_symmetry_group_IT_number 60
_symmetry_cell_setting 'orthorhombic'
loop_
_space_group_symop_operation_xyz
x,y,z
1/2-x,1/2-y,1/2+z
1/2+x,1/2-y,-z
-x,y,1/2-z
-x,-y,-z
1/2+x,1/2+y,1/2-z
1/2-x,1/2+y,z
x,-y,1/2+z
loop_
_atom_site_type_symbol
_atom_site_label
_atom_site_fract_x
_atom_site_fract_y
_atom_site_fract_z
Si Si1 0.404015 0.778092 0.426170
Si Si2 0.741896 0.527132 0.143571
Si Si3 0.089323 0.407740 0.421794
O O1 0.652761 0.764460 0.540690
O O2 0.500000 0.770653 0.250000
O O3 0.298208 0.844115 0.471330
O O4 0.500000 0.550115 0.250000
O O5 0.689491 0.462226 0.062087
O O6 0.000000 0.513644 0.250000
O O7 0.820323 0.576621 0.020702
O O8 0.000000 0.397405 0.250000
#
# Coordination Sequence:
#
# PCOD8247695 Si02
#       3
#     8   8   8
#     4  11  25  44  66  93 128 172 221 271 323 381
#     4  10  22  39  63  95 127 162 205 257 319 385
#     4   9  22  41  63  90 127 166 207 261 323 382
#
# _framework density 24.65784
#
# number of rings (size 3 to 8) (size 9 to 14) (size 15 to 20)
#    0.000    2.000    0.000    1.000    0.000   26.667 
#    0.000    0.000    0.000    0.000    0.000    0.000 
#    0.000    0.000    0.000    0.000    0.000    0.000 
#
# Total GULP energy -297457.873978 kJ/mol
# GULP energy per Si atom -12394.078082 kJ/mol
# Density = 2.460172 g / cm^3
# Si number density = 24.657840 Si / 1000 Ang^3
#
#
#
# Elastic Constant Matrix: (Units=GPa)
#
#
# Indices 1 2 3 4 5 6 
#
# 1 79.9942 12.2772 20.8423 0.0000 0.0000 0.0000
# 2 12.2772 144.6173 45.9701 0.0000 0.0000 0.0000
# 3 20.8423 45.9701 101.6249 0.0000 0.0000 0.0000
# 4 0.0000 0.0000 0.0000 33.1850 0.0000 0.0000
# 5 0.0000 0.0000 0.0000 0.0000 43.4334 0.0000
# 6 0.0000 0.0000 0.0000 0.0000 0.0000 22.8515
#
#
#
# Elastic Compliance Matrix: (Units=1/GPa)
#
#
# Indices 1 2 3 4 5 6 
#
# 1 0.013218 -0.000304 -0.002573 0.000000 0.000000 0.000000
# 2 -0.000304 0.008083 -0.003594 0.000000 0.000000 0.000000
# 3 -0.002573 -0.003594 0.011994 0.000000 0.000000 0.000000
# 4 0.000000 0.000000 0.000000 0.030134 0.000000 0.000000
# 5 0.000000 0.000000 0.000000 0.000000 0.023024 0.000000
# 6 0.000000 0.000000 0.000000 0.000000 0.000000 0.043761
#
#
# Mechanical properties :
#
#
# Convention : Reuss Voigt Hill
#
# Bulk Modulus (GPa) = 49.13567 53.82394 51.47980
# Shear Modulus (GPa) = 33.34663 36.37045 34.85854
#
# Velocity S-wave (km/s) = 3.68145 3.84475 3.76399
# Velocity P-wave (km/s) = 6.16774 6.44865 6.30976
#
# Compressibility (1/GPa) = 0.02035182
#
# Stress axis : x y z
#
# Youngs Moduli (GPa) = 75.65408 123.71547 83.37772
#
# Poissons Ratio (x) = 0.03763 0.21456
# Poissons Ratio (y) = 0.02301 0.29966
# Poissons Ratio (z) = 0.19468 0.44463
#
# Static dielectric constant tensor:
#      x y z
#    x 2.852100 0.000000 0.000000 
#    y 0.000000 4.870030 0.000000 
#    z 0.000000 0.000000 4.770150 
# 
# 
# High freq. dielectric constant tensor:
#      x y z
#    x 1.963920 0.000000 0.000000 
#    y 0.000000 1.982080 0.000000 
#    z 0.000000 0.000000 2.000580 
# 
# From -- ./inp_files/2876.got.cif
#   From: 2010.03.12/outbox.cif.g09.slc.cpg/sg60_2_cif.got.tgz:2876.got - 2010.04.10 18:46:24.
