data_PCOD8247334
_publ_section_title
;
Structure prediction by ZEFSAII (Michael W. Deem and Ramdas Pophale) SiO2 
 PCOD8247334
Probable space group: P B C N
;
_chemical_formula_sum "Si O2"
_cell_formula_units_Z 48
_cell_length_a 8.927025
_cell_length_b 9.915287
_cell_length_c 29.145778
_cell_angle_alpha 90.000000
_cell_angle_beta 90.000000
_cell_angle_gamma 90.000000
_cell_volume 2579.809829
_symmetry_space_group_name_H-M "P B C N"
_symmetry_group_IT_number 60
_symmetry_cell_setting 'orthorhombic'
loop_
_space_group_symop_operation_xyz
x,y,z
1/2-x,1/2-y,1/2+z
1/2+x,1/2-y,-z
-x,y,1/2-z
-x,-y,-z
1/2+x,1/2+y,1/2-z
1/2-x,1/2+y,z
x,-y,1/2+z
loop_
_atom_site_type_symbol
_atom_site_label
_atom_site_fract_x
_atom_site_fract_y
_atom_site_fract_z
Si Si1 0.569486 0.865304 0.480229
Si Si2 0.925073 0.117825 0.971759
Si Si3 0.882278 0.016655 0.711821
Si Si4 0.113999 0.287608 0.289603
Si Si5 0.602264 0.527785 0.609026
Si Si6 0.890317 0.285642 0.106449
O O1 0.509729 0.753356 0.514838
O O2 0.748942 0.870938 0.480915
O O3 0.518090 0.836582 0.428130
O O4 0.500000 0.000000 0.500000
O O5 0.958874 0.082243 0.918829
O O6 0.000000 0.000000 0.000000
O O7 0.745188 0.111686 0.720001
O O8 0.951123 0.039292 0.661460
O O9 0.000000 0.057023 0.750000
O O10 0.826269 0.863669 0.717203
O O11 0.049411 0.305359 0.341380
O O12 0.000000 0.325457 0.250000
O O13 0.645331 0.372510 0.596498
O O14 0.743234 0.624024 0.598323
#
# Coordination Sequence:
#
# PCOD8247334 Si02
#       6
#     8   8   8   8   8   8
#     4  12  26  40  62  88 118 156 197 245 293 349
#     4  12  24  42  60  86 118 155 197 242 293 345
#     4   9  19  36  58  85 116 154 192 237 291 344
#     4   9  19  36  59  85 117 153 191 239 289 344
#     4  10  21  38  61  85 117 154 196 244 293 350
#     4  10  21  39  60  87 116 153 197 243 295 347
#
# _framework density 18.606021999999999
#
# number of rings (size 3 to 8) (size 9 to 14) (size 15 to 20)
#    0.000    1.667    1.667    3.000    2.333    2.000 
#    0.000    0.000    0.000    0.000    0.000    0.000 
#    0.000    0.000    0.000    0.000    0.000    0.000 
#
# Total GULP energy -595071.895224 kJ/mol
# GULP energy per Si atom -12397.331150 kJ/mol
# Density = 1.856367 g / cm^3
# Si number density = 18.606022 Si / 1000 Ang^3
#
#
#
# Elastic Constant Matrix: (Units=GPa)
#
#
# Indices 1 2 3 4 5 6 
#
# 1 136.7617 69.1108 81.6662 0.0000 0.0000 0.0000
# 2 69.1108 124.3772 78.7536 0.0000 0.0000 0.0000
# 3 81.6662 78.7536 139.6357 0.0000 0.0000 0.0000
# 4 0.0000 0.0000 0.0000 33.2070 0.0000 0.0000
# 5 0.0000 0.0000 0.0000 0.0000 42.7491 0.0000
# 6 0.0000 0.0000 0.0000 0.0000 0.0000 30.6689
#
#
#
# Elastic Compliance Matrix: (Units=1/GPa)
#
#
# Indices 1 2 3 4 5 6 
#
# 1 0.012143 -0.003501 -0.005127 0.000000 0.000000 0.000000
# 2 -0.003501 0.013515 -0.005575 0.000000 0.000000 0.000000
# 3 -0.005127 -0.005575 0.013305 0.000000 0.000000 0.000000
# 4 0.000000 0.000000 0.000000 0.030114 0.000000 0.000000
# 5 0.000000 0.000000 0.000000 0.000000 0.023392 0.000000
# 6 0.000000 0.000000 0.000000 0.000000 0.000000 0.032606
#
#
# Mechanical properties :
#
#
# Convention : Reuss Voigt Hill
#
# Bulk Modulus (GPa) = 94.73020 95.53728 95.13374
# Shear Modulus (GPa) = 31.84700 32.74128 32.29414
#
# Velocity S-wave (km/s) = 4.14170 4.19945 4.17067
# Velocity P-wave (km/s) = 8.59627 8.65868 8.62753
#
# Compressibility (1/GPa) = 0.01055630
#
# Stress axis : x y z
#
# Youngs Moduli (GPa) = 82.35361 73.99012 75.16171
#
# Poissons Ratio (x) = 0.25901 0.38538
# Poissons Ratio (y) = 0.28829 0.41904
# Poissons Ratio (z) = 0.42226 0.41251
#
# Static dielectric constant tensor:
#      x y z
#    x 3.563040 0.000000 0.000000 
#    y 0.000000 3.651840 0.000000 
#    z 0.000000 0.000000 3.290870 
# 
# 
# High freq. dielectric constant tensor:
#      x y z
#    x 1.700220 0.000000 0.000000 
#    y 0.000000 1.743410 0.000000 
#    z 0.000000 0.000000 1.742860 
# 
# From -- ./inp_files/25903.got.cif
#   From: 2010.03.12/outbox.cif.g09.slc.cpg/sg60_13_cif.got.tgz:25903.got - 2010.04.10 18:46:24.
