data_PCOD8247784
_publ_section_title
;
Structure prediction by ZEFSAII (Michael W. Deem and Ramdas Pophale) SiO2 
 PCOD8247784
Probable space group: P B C N
;
_chemical_formula_sum "Si O2"
_cell_formula_units_Z 48
_cell_length_a 23.471745
_cell_length_b 15.209710
_cell_length_c 5.439795
_cell_angle_alpha 90.000000
_cell_angle_beta 90.000000
_cell_angle_gamma 90.000000
_cell_volume 1941.998300
_symmetry_space_group_name_H-M "P B C N"
_symmetry_group_IT_number 60
_symmetry_cell_setting 'orthorhombic'
loop_
_space_group_symop_operation_xyz
x,y,z
1/2-x,1/2-y,1/2+z
1/2+x,1/2-y,-z
-x,y,1/2-z
-x,-y,-z
1/2+x,1/2+y,1/2-z
1/2-x,1/2+y,z
x,-y,1/2+z
loop_
_atom_site_type_symbol
_atom_site_label
_atom_site_fract_x
_atom_site_fract_y
_atom_site_fract_z
Si Si1 0.500000 0.884510 0.250000
Si Si2 0.300869 0.638618 0.174721
Si Si3 0.878861 0.792854 0.221798
Si Si4 0.121480 0.020614 0.648873
Si Si5 0.500000 0.222835 0.250000
Si Si6 0.808861 0.309676 0.062343
Si Si7 0.876608 0.548439 0.793226
O O1 0.488398 0.830996 0.500358
O O2 0.555148 0.944004 0.298738
O O3 0.322762 0.538997 0.235916
O O4 0.285093 0.710696 0.383117
O O5 0.353629 0.687118 0.043358
O O6 0.244730 0.628839 0.006157
O O7 0.863509 0.877075 0.399439
O O8 0.852520 0.703602 0.334515
O O9 0.946352 0.784508 0.197882
O O10 0.087219 0.982026 0.412608
O O11 0.844394 0.357331 0.280452
O O12 0.856832 0.496738 0.546718
#
# Coordination Sequence:
#
# PCOD8247784 Si02
#       7
#     4   8   8   8   4   8   8
#     4  12  24  49  76 101 148 192 244 304 367 433
#     4  11  24  43  72 103 141 194 240 299 371 434
#     4  11  24  45  70 106 144 189 240 300 368 437
#     4  10  22  41  68  99 139 181 226 290 353 421
#     4  12  26  43  80 109 142 196 248 300 361 449
#     4  12  24  44  73  99 146 188 246 298 367 442
#     4  12  28  46  71 108 146 189 246 305 370 439
#
# _framework density 24.716806999999999
#
# number of rings (size 3 to 8) (size 9 to 14) (size 15 to 20)
#    0.000    0.667    5.000    2.500    2.333    2.667 
#    0.000    3.333    0.000    0.000    0.000    0.000 
#    0.000    0.000    0.000    0.000    0.000    0.000 
#
# Total GULP energy -594673.838703 kJ/mol
# GULP energy per Si atom -12389.038306 kJ/mol
# Density = 2.466055 g / cm^3
# Si number density = 24.716807 Si / 1000 Ang^3
#
#
#
# Elastic Constant Matrix: (Units=GPa)
#
#
# Indices 1 2 3 4 5 6 
#
# 1 101.4843 11.9386 -8.1749 0.0000 0.0000 0.0000
# 2 11.9386 84.0753 12.3147 0.0000 0.0000 0.0000
# 3 -8.1749 12.3147 115.3540 0.0000 0.0000 0.0000
# 4 0.0000 0.0000 0.0000 43.8595 0.0000 0.0000
# 5 0.0000 0.0000 0.0000 0.0000 24.9991 0.0000
# 6 0.0000 0.0000 0.0000 0.0000 0.0000 33.0537
#
#
#
# Elastic Compliance Matrix: (Units=1/GPa)
#
#
# Indices 1 2 3 4 5 6 
#
# 1 0.010109 -0.001565 0.000883 0.000000 0.000000 0.000000
# 2 -0.001565 0.012325 -0.001427 0.000000 0.000000 0.000000
# 3 0.000883 -0.001427 0.008884 0.000000 0.000000 0.000000
# 4 0.000000 0.000000 0.000000 0.022800 0.000000 0.000000
# 5 0.000000 0.000000 0.000000 0.000000 0.040002 0.000000
# 6 0.000000 0.000000 0.000000 0.000000 0.000000 0.030254
#
#
# Mechanical properties :
#
#
# Convention : Reuss Voigt Hill
#
# Bulk Modulus (GPa) = 36.89771 37.00784 36.95277
# Shear Modulus (GPa) = 36.33093 39.37146 37.85119
#
# Velocity S-wave (km/s) = 3.83807 3.99545 3.91755
# Velocity P-wave (km/s) = 5.88232 6.02412 5.95364
#
# Compressibility (1/GPa) = 0.02710195
#
# Stress axis : x y z
#
# Youngs Moduli (GPa) = 98.92180 81.13406 112.56337
#
# Poissons Ratio (x) = 0.12696 -0.09945
# Poissons Ratio (y) = 0.15480 0.16059
# Poissons Ratio (z) = -0.08739 0.11575
#
# Static dielectric constant tensor:
#      x y z
#    x 4.100130 0.000000 0.000000 
#    y 0.000000 4.617570 0.000000 
#    z 0.000000 0.000000 4.612470 
# 
# 
# High freq. dielectric constant tensor:
#      x y z
#    x 1.951710 0.000000 0.000000 
#    y 0.000000 1.991590 0.000000 
#    z 0.000000 0.000000 2.001400 
# 
# From -- ./inp_files/2556.got.cif
#   From: 2010.03.12/outbox.cif.g09.slc.cpg/sg60_2_cif.got.tgz:2556.got - 2010.04.10 18:46:24.
