data_PCOD8247447
_publ_section_title
;
Structure prediction by ZEFSAII (Michael W. Deem and Ramdas Pophale) SiO2 
 PCOD8247447
Probable space group: P B C N
;
_chemical_formula_sum "Si O2"
_cell_formula_units_Z 60
_cell_length_a 17.748446
_cell_length_b 19.521057
_cell_length_c 9.188246
_cell_angle_alpha 90.000000
_cell_angle_beta 90.000000
_cell_angle_gamma 90.000000
_cell_volume 3183.437130
_symmetry_space_group_name_H-M "P B C N"
_symmetry_group_IT_number 60
_symmetry_cell_setting 'orthorhombic'
loop_
_space_group_symop_operation_xyz
x,y,z
1/2-x,1/2-y,1/2+z
1/2+x,1/2-y,-z
-x,y,1/2-z
-x,-y,-z
1/2+x,1/2+y,1/2-z
1/2-x,1/2+y,z
x,-y,1/2+z
loop_
_atom_site_type_symbol
_atom_site_label
_atom_site_fract_x
_atom_site_fract_y
_atom_site_fract_z
Si Si1 0.724498 0.580390 0.212273
Si Si2 0.122180 0.207738 0.291782
Si Si3 0.533040 0.440329 0.091669
Si Si4 0.023540 0.200406 0.032257
Si Si5 0.704085 0.553292 0.542104
Si Si6 0.500000 0.219176 0.250000
Si Si7 0.168215 0.303363 0.735317
Si Si8 0.242585 0.703818 0.923611
O O1 0.659388 0.634637 0.162572
O O2 0.702725 0.548807 0.368165
O O3 0.739247 0.517705 0.101680
O O4 0.802545 0.622105 0.216599
O O5 0.102382 0.206111 0.120009
O O6 0.176690 0.271616 0.316259
O O7 0.047291 0.227051 0.378138
O O8 0.500000 0.438532 0.250000
O O9 0.621826 0.443687 0.109659
O O10 0.500000 0.500000 0.000000
O O11 0.505488 0.377442 0.997433
O O12 0.032357 0.237812 0.881513
O O13 0.746734 0.622133 0.595447
O O14 0.421481 0.182119 0.203008
O O15 0.184152 0.246953 0.864266
O O16 0.215807 0.280076 0.590256
#
# Coordination Sequence:
#
# PCOD8247447 Si02
#       8
#     8   8   8   8   8   4   8   8
#     4  10  22  40  58  82 121 159 205 247 299 363
#     4  10  21  40  58  86 122 159 202 249 308 362
#     4  12  24  34  53  84 123 159 198 237 296 368
#     4  11  22  36  59  85 123 158 194 251 307 363
#     4  11  22  39  58  83 118 162 204 248 297 365
#     4  12  22  40  62  92 116 156 208 258 312 364
#     4  10  23  39  63  90 123 156 203 262 309 364
#     4  10  22  40  61  88 120 161 210 253 301 367
#
# _framework density 18.847553999999999
#
# number of rings (size 3 to 8) (size 9 to 14) (size 15 to 20)
#    0.000    1.333    3.333    2.400    5.600    2.133 
#    0.000    0.000    0.000    4.800    0.000    0.000 
#    0.000    0.000    0.000    0.000    0.000    0.000 
#
# Total GULP energy -743405.792599 kJ/mol
# GULP energy per Si atom -12390.096543 kJ/mol
# Density = 1.880466 g / cm^3
# Si number density = 18.847554 Si / 1000 Ang^3
#
#
#
# Elastic Constant Matrix: (Units=GPa)
#
#
# Indices 1 2 3 4 5 6 
#
# 1 103.1480 34.5666 21.6560 0.0000 0.0000 0.0000
# 2 34.5666 96.1960 33.7848 0.0000 0.0000 0.0000
# 3 21.6560 33.7848 77.6038 0.0000 0.0000 0.0000
# 4 0.0000 0.0000 0.0000 33.2802 0.0000 0.0000
# 5 0.0000 0.0000 0.0000 0.0000 25.3306 0.0000
# 6 0.0000 0.0000 0.0000 0.0000 0.0000 25.4726
#
#
#
# Elastic Compliance Matrix: (Units=1/GPa)
#
#
# Indices 1 2 3 4 5 6 
#
# 1 0.011192 -0.003453 -0.001620 0.000000 0.000000 0.000000
# 2 -0.003453 0.013337 -0.004843 0.000000 0.000000 0.000000
# 3 -0.001620 -0.004843 0.015446 0.000000 0.000000 0.000000
# 4 0.000000 0.000000 0.000000 0.030048 0.000000 0.000000
# 5 0.000000 0.000000 0.000000 0.000000 0.039478 0.000000
# 6 0.000000 0.000000 0.000000 0.000000 0.000000 0.039258
#
#
# Mechanical properties :
#
#
# Convention : Reuss Voigt Hill
#
# Bulk Modulus (GPa) = 49.64195 50.77362 50.20779
# Shear Modulus (GPa) = 28.52175 29.27936 28.90055
#
# Velocity S-wave (km/s) = 3.89432 3.94570 3.92009
# Velocity P-wave (km/s) = 6.82765 6.91055 6.86922
#
# Compressibility (1/GPa) = 0.02014425
#
# Stress axis : x y z
#
# Youngs Moduli (GPa) = 89.34949 74.97985 64.74024
#
# Poissons Ratio (x) = 0.25888 0.10489
# Poissons Ratio (y) = 0.30850 0.31352
# Poissons Ratio (z) = 0.14475 0.36311
#
# Static dielectric constant tensor:
#      x y z
#    x 3.823880 0.000000 0.000000 
#    y 0.000000 3.360490 0.000000 
#    z 0.000000 0.000000 3.500790 
# 
# 
# High freq. dielectric constant tensor:
#      x y z
#    x 1.737000 0.000000 0.000000 
#    y 0.000000 1.711430 0.000000 
#    z 0.000000 0.000000 1.745250 
# 
# From -- ./inp_files/6935.got.cif
#   From: 2010.03.12/outbox.cif.g09.slc.cpg/sg60_4_cif.got.tgz:6935.got - 2010.04.10 18:46:24.
