data_PCOD8247566
_publ_section_title
;
Structure prediction by ZEFSAII (Michael W. Deem and Ramdas Pophale) SiO2 
 PCOD8247566
Probable space group: P B C N
;
_chemical_formula_sum "Si O2"
_cell_formula_units_Z 60
_cell_length_a 7.895757
_cell_length_b 27.555435
_cell_length_c 12.427520
_cell_angle_alpha 90.000000
_cell_angle_beta 90.000000
_cell_angle_gamma 90.000000
_cell_volume 2703.868187
_symmetry_space_group_name_H-M "P B C N"
_symmetry_group_IT_number 60
_symmetry_cell_setting 'orthorhombic'
loop_
_space_group_symop_operation_xyz
x,y,z
1/2-x,1/2-y,1/2+z
1/2+x,1/2-y,-z
-x,y,1/2-z
-x,-y,-z
1/2+x,1/2+y,1/2-z
1/2-x,1/2+y,z
x,-y,1/2+z
loop_
_atom_site_type_symbol
_atom_site_label
_atom_site_fract_x
_atom_site_fract_y
_atom_site_fract_z
Si Si1 0.077954 0.891822 0.968033
Si Si2 0.072441 0.652928 0.458139
Si Si3 0.177971 0.970131 0.810759
Si Si4 0.274522 0.748013 0.955973
Si Si5 0.139619 0.663819 0.835366
Si Si6 0.500000 0.088472 0.250000
Si Si7 0.963774 0.200877 0.372252
Si Si8 0.142071 0.923501 0.334639
O O1 0.247197 0.864409 0.006830
O O2 0.144326 0.941900 0.920451
O O3 0.980884 0.857434 0.880819
O O4 0.941138 0.902857 0.058079
O O5 0.087301 0.710219 0.429111
O O6 0.010968 0.622785 0.354434
O O7 0.939066 0.646007 0.552438
O O8 0.331220 0.945090 0.743208
O O9 0.000000 0.968771 0.750000
O O10 0.235044 0.024374 0.847044
O O11 0.273252 0.706998 0.861402
O O12 0.092899 0.773778 0.955024
O O13 0.291404 0.722301 0.075130
O O14 0.231680 0.616745 0.786581
O O15 0.000000 0.682508 0.750000
O O16 0.000000 0.216827 0.250000
O O17 0.000000 0.934484 0.250000
#
# Coordination Sequence:
#
# PCOD8247566 Si02
#       8
#     8   8   8   8   8   4   8   8
#     4  10  21  43  65  98 134 177 240 292 349 429
#     4  10  24  44  67 101 139 181 238 296 361 431
#     4  10  23  42  72 100 141 186 238 299 371 432
#     4  11  23  42  63  97 132 179 230 282 352 425
#     4  12  25  43  67  99 144 188 232 292 360 438
#     4  10  24  48  70 110 142 180 246 314 358 438
#     4  11  23  43  67  95 136 179 228 287 348 424
#     4  11  24  43  67  99 137 187 234 294 361 433
#
# _framework density 22.190429000000002
#
# number of rings (size 3 to 8) (size 9 to 14) (size 15 to 20)
#    0.000    1.333    2.667    2.000    2.800    3.200 
#    1.200    2.000    0.000    0.000    0.000    0.000 
#    0.000    0.000    0.000    0.000    0.000    0.000 
#
# Total GULP energy -743493.068054 kJ/mol
# GULP energy per Si atom -12391.551134 kJ/mol
# Density = 2.213992 g / cm^3
# Si number density = 22.190429 Si / 1000 Ang^3
#
#
#
# Elastic Constant Matrix: (Units=GPa)
#
#
# Indices 1 2 3 4 5 6 
#
# 1 74.7481 36.3335 32.4490 0.0000 0.0000 0.0000
# 2 36.3335 168.6707 39.7861 0.0000 0.0000 0.0000
# 3 32.4490 39.7861 105.1421 0.0000 0.0000 0.0000
# 4 0.0000 0.0000 0.0000 30.0882 0.0000 0.0000
# 5 0.0000 0.0000 0.0000 0.0000 39.1995 0.0000
# 6 0.0000 0.0000 0.0000 0.0000 0.0000 35.1836
#
#
#
# Elastic Compliance Matrix: (Units=1/GPa)
#
#
# Indices 1 2 3 4 5 6 
#
# 1 0.016402 -0.002568 -0.004090 0.000000 0.000000 0.000000
# 2 -0.002568 0.006912 -0.001823 0.000000 0.000000 0.000000
# 3 -0.004090 -0.001823 0.011463 0.000000 0.000000 0.000000
# 4 0.000000 0.000000 0.000000 0.033236 0.000000 0.000000
# 5 0.000000 0.000000 0.000000 0.000000 0.025511 0.000000
# 6 0.000000 0.000000 0.000000 0.000000 0.000000 0.028422
#
#
# Mechanical properties :
#
#
# Convention : Reuss Voigt Hill
#
# Bulk Modulus (GPa) = 56.13445 62.85536 59.49490
# Shear Modulus (GPa) = 34.51920 36.89373 35.70647
#
# Velocity S-wave (km/s) = 3.94838 4.08192 4.01570
# Velocity P-wave (km/s) = 6.79248 7.11358 6.95488
#
# Compressibility (1/GPa) = 0.01781437
#
# Stress axis : x y z
#
# Youngs Moduli (GPa) = 60.96689 144.67685 87.23703
#
# Poissons Ratio (x) = 0.37160 0.35682
# Poissons Ratio (y) = 0.15659 0.15902
# Poissons Ratio (z) = 0.24937 0.26372
#
# Static dielectric constant tensor:
#      x y z
#    x 4.131150 0.000000 0.000000 
#    y 0.000000 4.479630 0.000000 
#    z 0.000000 0.000000 3.601150 
# 
# 
# High freq. dielectric constant tensor:
#      x y z
#    x 1.872090 0.000000 0.000000 
#    y 0.000000 1.898520 0.000000 
#    z 0.000000 0.000000 1.849990 
# 
# From -- ./inp_files/10301.got.cif
#   From: 2010.03.12/outbox.cif.g09.slc.cpg/sg60_6_cif.got.tgz:10301.got - 2010.04.10 18:46:24.
