data_PCOD8247457
_publ_section_title
;
Structure prediction by ZEFSAII (Michael W. Deem and Ramdas Pophale) SiO2 
 PCOD8247457
Probable space group: P B C N
;
_chemical_formula_sum "Si O2"
_cell_formula_units_Z 40
_cell_length_a 23.537485
_cell_length_b 5.672573
_cell_length_c 13.107680
_cell_angle_alpha 90.000000
_cell_angle_beta 90.000000
_cell_angle_gamma 90.000000
_cell_volume 1750.112554
_symmetry_space_group_name_H-M "P B C N"
_symmetry_group_IT_number 60
_symmetry_cell_setting 'orthorhombic'
loop_
_space_group_symop_operation_xyz
x,y,z
1/2-x,1/2-y,1/2+z
1/2+x,1/2-y,-z
-x,y,1/2-z
-x,-y,-z
1/2+x,1/2+y,1/2-z
1/2-x,1/2+y,z
x,-y,1/2+z
loop_
_atom_site_type_symbol
_atom_site_label
_atom_site_fract_x
_atom_site_fract_y
_atom_site_fract_z
Si Si1 0.282469 0.278137 0.484275
Si Si2 0.440370 0.398950 0.215714
Si Si3 0.626207 0.923299 0.649643
Si Si4 0.061620 0.580020 0.032784
Si Si5 0.642036 0.780933 0.330350
O O1 0.249890 0.525576 0.466275
O O2 0.334595 0.272261 0.405086
O O3 0.303847 0.283767 0.601138
O O4 0.500000 0.518347 0.250000
O O5 0.429334 0.189587 0.296639
O O6 0.442870 0.320167 0.097039
O O7 0.385225 0.559928 0.227049
O O8 0.601950 0.111582 0.566737
O O9 0.662855 0.047810 0.739188
O O10 0.090596 0.383379 0.103014
O O11 0.000000 0.500000 0.000000
#
# Coordination Sequence:
#
# PCOD8247457 Si02
#       5
#     8   8   8   8   8
#     4  11  28  50  74 102 137 185 240 303 362 407
#     4  11  23  39  67 103 142 187 230 287 362 429
#     4  10  24  44  67  99 138 184 238 293 350 435
#     4  10  21  40  60  95 142 185 227 280 347 426
#     4  10  26  41  67 100 140 176 238 295 347 434
#
# _framework density 22.855674
#
# number of rings (size 3 to 8) (size 9 to 14) (size 15 to 20)
#    0.000    1.600    2.000    0.000   14.000    4.000 
#    0.000    0.000    0.000    0.000    0.000    0.000 
#    0.000    0.000    0.000    0.000    0.000    0.000 
#
# Total GULP energy -495692.522223 kJ/mol
# GULP energy per Si atom -12392.313056 kJ/mol
# Density = 2.280365 g / cm^3
# Si number density = 22.855674 Si / 1000 Ang^3
#
#
#
# Elastic Constant Matrix: (Units=GPa)
#
#
# Indices 1 2 3 4 5 6 
#
# 1 73.4468 16.5319 29.4406 0.0000 0.0000 0.0000
# 2 16.5319 74.0648 17.9107 0.0000 0.0000 0.0000
# 3 29.4406 17.9107 126.3523 0.0000 0.0000 0.0000
# 4 0.0000 0.0000 0.0000 23.1217 0.0000 0.0000
# 5 0.0000 0.0000 0.0000 0.0000 38.1192 0.0000
# 6 0.0000 0.0000 0.0000 0.0000 0.0000 37.3589
#
#
#
# Elastic Compliance Matrix: (Units=1/GPa)
#
#
# Indices 1 2 3 4 5 6 
#
# 1 0.015516 -0.002681 -0.003235 0.000000 0.000000 0.000000
# 2 -0.002681 0.014444 -0.001423 0.000000 0.000000 0.000000
# 3 -0.003235 -0.001423 0.008870 0.000000 0.000000 0.000000
# 4 0.000000 0.000000 0.000000 0.043249 0.000000 0.000000
# 5 0.000000 0.000000 0.000000 0.000000 0.026234 0.000000
# 6 0.000000 0.000000 0.000000 0.000000 0.000000 0.026767
#
#
# Mechanical properties :
#
#
# Convention : Reuss Voigt Hill
#
# Bulk Modulus (GPa) = 41.40473 44.62560 43.01517
# Shear Modulus (GPa) = 31.68403 33.71866 32.70135
#
# Velocity S-wave (km/s) = 3.72730 3.84511 3.78666
# Velocity P-wave (km/s) = 6.05630 6.26742 6.16276
#
# Compressibility (1/GPa) = 0.02415183
#
# Stress axis : x y z
#
# Youngs Moduli (GPa) = 64.45165 69.23212 112.74115
#
# Poissons Ratio (x) = 0.18560 0.36474
# Poissons Ratio (y) = 0.17279 0.16041
# Poissons Ratio (z) = 0.20851 0.09851
#
# Static dielectric constant tensor:
#      x y z
#    x 3.976020 0.000000 0.000000 
#    y 0.000000 3.922630 0.000000 
#    z 0.000000 0.000000 4.470430 
# 
# 
# High freq. dielectric constant tensor:
#      x y z
#    x 1.892210 0.000000 0.000000 
#    y 0.000000 1.879410 0.000000 
#    z 0.000000 0.000000 1.926690 
# 
# From -- ./inp_files/13203.got.cif
#   From: 2010.03.12/outbox.cif.g09.slc.cpg/sg60_7_cif.got.tgz:13203.got - 2010.04.10 18:46:24.
