data_PCOD8247107
_publ_section_title
;
Structure prediction by ZEFSAII (Michael W. Deem and Ramdas Pophale) SiO2 
 PCOD8247107
Probable space group: P B C N
;
_chemical_formula_sum "Si O2"
_cell_formula_units_Z 36
_cell_length_a 18.819804
_cell_length_b 10.444891
_cell_length_c 8.306856
_cell_angle_alpha 90.000000
_cell_angle_beta 90.000000
_cell_angle_gamma 90.000000
_cell_volume 1632.885341
_symmetry_space_group_name_H-M "P B C N"
_symmetry_group_IT_number 60
_symmetry_cell_setting 'orthorhombic'
loop_
_space_group_symop_operation_xyz
x,y,z
1/2-x,1/2-y,1/2+z
1/2+x,1/2-y,-z
-x,y,1/2-z
-x,-y,-z
1/2+x,1/2+y,1/2-z
1/2-x,1/2+y,z
x,-y,1/2+z
loop_
_atom_site_type_symbol
_atom_site_label
_atom_site_fract_x
_atom_site_fract_y
_atom_site_fract_z
Si Si1 0.917374 0.355364 0.526774
Si Si2 0.240305 0.648233 0.566429
Si Si3 0.000000 0.488605 0.250000
Si Si4 0.201503 0.089261 0.230384
Si Si5 0.546243 0.399843 0.899522
O O1 0.836930 0.390364 0.494312
O O2 0.935474 0.420282 0.695497
O O3 0.932539 0.204757 0.533127
O O4 0.971317 0.402154 0.391129
O O5 0.258119 0.545669 0.705922
O O6 0.295662 0.630101 0.418518
O O7 0.239051 0.794197 0.631716
O O8 0.121056 0.056459 0.178214
O O9 0.500000 0.347695 0.750000
O O10 0.500000 0.500000 0.000000
#
# Coordination Sequence:
#
# PCOD8247107 Si02
#       5
#     8   8   4   8   8
#     4  10  22  40  64  92 127 164 211 268 318 387
#     4  11  23  43  64  98 129 172 221 267 337 383
#     4  10  20  40  62  94 122 164 212 260 328 374
#     4  11  24  43  67  95 131 174 218 277 324 398
#     4  11  24  43  62  92 129 169 217 262 322 384
#
# _framework density 22.046862999999998
#
# number of rings (size 3 to 8) (size 9 to 14) (size 15 to 20)
#    0.000    1.333    1.111    4.000    1.556    3.556 
#   12.000    0.000    0.000    0.000    0.000    0.000 
#    0.000    0.000    0.000    0.000    0.000    0.000 
#
# Total GULP energy -446179.386421 kJ/mol
# GULP energy per Si atom -12393.871845 kJ/mol
# Density = 2.199668 g / cm^3
# Si number density = 22.046863 Si / 1000 Ang^3
#
#
#
# Elastic Constant Matrix: (Units=GPa)
#
#
# Indices 1 2 3 4 5 6 
#
# 1 82.1339 32.5581 -4.3483 0.0000 0.0000 0.0000
# 2 32.5581 88.3772 11.7900 0.0000 0.0000 0.0000
# 3 -4.3483 11.7900 61.9858 0.0000 0.0000 0.0000
# 4 0.0000 0.0000 0.0000 21.7294 0.0000 0.0000
# 5 0.0000 0.0000 0.0000 0.0000 41.2174 0.0000
# 6 0.0000 0.0000 0.0000 0.0000 0.0000 28.4785
#
#
#
# Elastic Compliance Matrix: (Units=1/GPa)
#
#
# Indices 1 2 3 4 5 6 
#
# 1 0.014516 -0.005626 0.002088 0.000000 0.000000 0.000000
# 2 -0.005626 0.013790 -0.003018 0.000000 0.000000 0.000000
# 3 0.002088 -0.003018 0.016853 0.000000 0.000000 0.000000
# 4 0.000000 0.000000 0.000000 0.046021 0.000000 0.000000
# 5 0.000000 0.000000 0.000000 0.000000 0.024262 0.000000
# 6 0.000000 0.000000 0.000000 0.000000 0.000000 0.035114
#
#
# Mechanical properties :
#
#
# Convention : Reuss Voigt Hill
#
# Bulk Modulus (GPa) = 31.20260 34.72184 32.96222
# Shear Modulus (GPa) = 28.67791 31.11819 29.89805
#
# Velocity S-wave (km/s) = 3.61053 3.76101 3.68654
# Velocity P-wave (km/s) = 5.61826 5.88588 5.75363
#
# Compressibility (1/GPa) = 0.03204861
#
# Stress axis : x y z
#
# Youngs Moduli (GPa) = 68.88908 72.51402 59.33589
#
# Poissons Ratio (x) = 0.40799 -0.12392
# Poissons Ratio (y) = 0.38759 0.17906
# Poissons Ratio (z) = -0.14387 0.21882
#
# Static dielectric constant tensor:
#      x y z
#    x 4.036380 0.000000 0.000000 
#    y 0.000000 4.065550 0.000000 
#    z 0.000000 0.000000 4.054980 
# 
# 
# High freq. dielectric constant tensor:
#      x y z
#    x 1.876210 0.000000 0.000000 
#    y 0.000000 1.873270 0.000000 
#    z 0.000000 0.000000 1.865420 
# 
# From -- ./inp_files/7168.got.cif
#   From: 2010.03.12/outbox.cif.g09.slc.cpg/sg60_4_cif.got.tgz:7168.got - 2010.04.10 18:46:24.
