data_PCOD8247060
_publ_section_title
;
Structure prediction by ZEFSAII (Michael W. Deem and Ramdas Pophale) SiO2 
 PCOD8247060
Probable space group: P B C N
;
_chemical_formula_sum "Si O2"
_cell_formula_units_Z 40
_cell_length_a 15.884827
_cell_length_b 14.038515
_cell_length_c 8.372335
_cell_angle_alpha 90.000000
_cell_angle_beta 90.000000
_cell_angle_gamma 90.000000
_cell_volume 1867.025532
_symmetry_space_group_name_H-M "P B C N"
_symmetry_group_IT_number 60
_symmetry_cell_setting 'orthorhombic'
loop_
_space_group_symop_operation_xyz
x,y,z
1/2-x,1/2-y,1/2+z
1/2+x,1/2-y,-z
-x,y,1/2-z
-x,-y,-z
1/2+x,1/2+y,1/2-z
1/2-x,1/2+y,z
x,-y,1/2+z
loop_
_atom_site_type_symbol
_atom_site_label
_atom_site_fract_x
_atom_site_fract_y
_atom_site_fract_z
Si Si1 0.893066 0.427377 0.525966
Si Si2 0.221700 0.086165 0.604187
Si Si3 0.500000 0.152770 0.750000
Si Si4 0.111725 0.757012 0.986466
Si Si5 0.500000 0.815741 0.750000
Si Si6 0.223891 0.592058 0.953616
O O1 0.809328 0.372738 0.466459
O O2 0.965110 0.417619 0.389345
O O3 0.866297 0.535991 0.573245
O O4 0.923541 0.380834 0.689602
O O5 0.145035 0.134883 0.506509
O O6 0.219089 0.970818 0.575379
O O7 0.221042 0.106024 0.793213
O O8 0.573590 0.224596 0.684751
O O9 0.194776 0.692715 0.026400
O O10 0.035552 0.749946 0.110781
#
# Coordination Sequence:
#
# PCOD8247060 Si02
#       6
#     8   8   4   8   4   8
#     4   9  21  36  55  89 121 157 186 242 295 350
#     4  10  23  39  59  87 118 158 201 238 292 354
#     4  10  20  39  58  93 124 154 192 245 310 357
#     4  11  22  38  63  88 119 157 194 248 298 355
#     4  10  22  33  58  91 122 150 190 241 304 353
#     4  10  21  39  58  91 114 154 199 239 294 343
#
# _framework density 21.424453
#
# number of rings (size 3 to 8) (size 9 to 14) (size 15 to 20)
#    1.200    0.800    2.000    1.200    2.800    4.800 
#    0.000    0.000    0.000    3.600    0.000    0.000 
#    0.000    0.000    0.000    0.000    0.000    0.000 
#
# Total GULP energy -495582.615112 kJ/mol
# GULP energy per Si atom -12389.565378 kJ/mol
# Density = 2.137569 g / cm^3
# Si number density = 21.424453 Si / 1000 Ang^3
#
#
#
# Elastic Constant Matrix: (Units=GPa)
#
#
# Indices 1 2 3 4 5 6 
#
# 1 35.7702 17.5185 5.7112 0.0000 0.0000 0.0000
# 2 17.5185 57.7091 2.1026 0.0000 0.0000 0.0000
# 3 5.7112 2.1026 65.7712 0.0000 0.0000 0.0000
# 4 0.0000 0.0000 0.0000 18.2111 0.0000 0.0000
# 5 0.0000 0.0000 0.0000 0.0000 21.0356 0.0000
# 6 0.0000 0.0000 0.0000 0.0000 0.0000 26.2132
#
#
#
# Elastic Compliance Matrix: (Units=1/GPa)
#
#
# Indices 1 2 3 4 5 6 
#
# 1 0.033266 -0.010005 -0.002569 0.000000 0.000000 0.000000
# 2 -0.010005 0.020357 0.000218 0.000000 0.000000 0.000000
# 3 -0.002569 0.000218 0.015420 0.000000 0.000000 0.000000
# 4 0.000000 0.000000 0.000000 0.054912 0.000000 0.000000
# 5 0.000000 0.000000 0.000000 0.000000 0.047538 0.000000
# 6 0.000000 0.000000 0.000000 0.000000 0.000000 0.038149
#
#
# Mechanical properties :
#
#
# Convention : Reuss Voigt Hill
#
# Bulk Modulus (GPa) = 22.55675 23.32389 22.94032
# Shear Modulus (GPa) = 20.06967 22.01984 21.04476
#
# Velocity S-wave (km/s) = 3.06398 3.20939 3.13753
# Velocity P-wave (km/s) = 4.80299 4.96426 4.88429
#
# Compressibility (1/GPa) = 0.04433262
#
# Stress axis : x y z
#
# Youngs Moduli (GPa) = 30.06041 49.12197 64.84947
#
# Poissons Ratio (x) = 0.49146 0.16659
# Poissons Ratio (y) = 0.30075 -0.01414
# Poissons Ratio (z) = 0.07722 -0.01071
#
# Static dielectric constant tensor:
#      x y z
#    x 3.617340 0.000000 0.000000 
#    y 0.000000 3.439060 0.000000 
#    z 0.000000 0.000000 3.760820 
# 
# 
# High freq. dielectric constant tensor:
#      x y z
#    x 1.817200 0.000000 0.000000 
#    y 0.000000 1.802690 0.000000 
#    z 0.000000 0.000000 1.841020 
# 
# From -- ./inp_files/6553.got.cif
#   From: 2010.03.12/outbox.cif.g09.slc.cpg/sg60_4_cif.got.tgz:6553.got - 2010.04.10 18:46:24.
