data_PCOD8247336
_publ_section_title
;
Structure prediction by ZEFSAII (Michael W. Deem and Ramdas Pophale) SiO2 
 PCOD8247336
Probable space group: P B C N
;
_chemical_formula_sum "Si O2"
_cell_formula_units_Z 32
_cell_length_a 8.751657
_cell_length_b 34.274569
_cell_length_c 5.010513
_cell_angle_alpha 90.000000
_cell_angle_beta 90.000000
_cell_angle_gamma 90.000000
_cell_volume 1502.949830
_symmetry_space_group_name_H-M "P B C N"
_symmetry_group_IT_number 60
_symmetry_cell_setting 'orthorhombic'
loop_
_space_group_symop_operation_xyz
x,y,z
1/2-x,1/2-y,1/2+z
1/2+x,1/2-y,-z
-x,y,1/2-z
-x,-y,-z
1/2+x,1/2+y,1/2-z
1/2-x,1/2+y,z
x,-y,1/2+z
loop_
_atom_site_type_symbol
_atom_site_label
_atom_site_fract_x
_atom_site_fract_y
_atom_site_fract_z
Si Si1 0.674777 0.474422 0.274325
Si Si2 0.177892 0.606653 0.718409
Si Si3 0.674975 0.642607 0.282291
Si Si4 0.174223 0.766881 0.714749
O O1 0.500000 0.459891 0.250000
O O2 0.709105 0.491216 0.566159
O O3 0.785703 0.438315 0.219537
O O4 0.223911 0.616964 0.417316
O O5 0.000000 0.614591 0.750000
O O6 0.271734 0.634418 0.917233
O O7 0.500000 0.629677 0.250000
O O8 0.696781 0.687913 0.215933
O O9 0.221363 0.758564 0.411141
O O10 0.000000 0.753886 0.750000
#
# Coordination Sequence:
#
# PCOD8247336 Si02
#       4
#     8   8   8   8
#     4  10  21  38  61  87 118 160 203 242 295 365
#     4  12  25  40  63  95 126 158 201 258 311 351
#     4  11  24  43  64  88 123 167 208 245 298 371
#     4  11  24  41  64  92 123 161 204 253 306 361
#
# _framework density 21.291464000000001
#
# number of rings (size 3 to 8) (size 9 to 14) (size 15 to 20)
#    0.000    1.000    0.000    6.750    0.000   13.000 
#    0.000    0.000    0.000    0.000    0.000    0.000 
#    0.000    0.000    0.000    0.000    0.000    0.000 
#
# Total GULP energy -397144.421095 kJ/mol
# GULP energy per Si atom -12410.763159 kJ/mol
# Density = 2.124300 g / cm^3
# Si number density = 21.291464 Si / 1000 Ang^3
#
#
#
# Elastic Constant Matrix: (Units=GPa)
#
#
# Indices 1 2 3 4 5 6 
#
# 1 110.6579 40.6871 14.9562 0.0000 0.0000 0.0000
# 2 40.6871 69.2104 8.3863 0.0000 0.0000 0.0000
# 3 14.9562 8.3863 83.4191 0.0000 0.0000 0.0000
# 4 0.0000 0.0000 0.0000 24.2742 0.0000 0.0000
# 5 0.0000 0.0000 0.0000 0.0000 36.7497 0.0000
# 6 0.0000 0.0000 0.0000 0.0000 0.0000 15.2800
#
#
#
# Elastic Compliance Matrix: (Units=1/GPa)
#
#
# Indices 1 2 3 4 5 6 
#
# 1 0.011693 -0.006702 -0.001423 0.000000 0.000000 0.000000
# 2 -0.006702 0.018468 -0.000655 0.000000 0.000000 0.000000
# 3 -0.001423 -0.000655 0.012309 0.000000 0.000000 0.000000
# 4 0.000000 0.000000 0.000000 0.041196 0.000000 0.000000
# 5 0.000000 0.000000 0.000000 0.000000 0.027211 0.000000
# 6 0.000000 0.000000 0.000000 0.000000 0.000000 0.065445
#
#
# Mechanical properties :
#
#
# Convention : Reuss Voigt Hill
#
# Bulk Modulus (GPa) = 40.14358 43.48297 41.81327
# Shear Modulus (GPa) = 24.72986 28.54462 26.63724
#
# Velocity S-wave (km/s) = 3.41176 3.66548 3.54089
# Velocity P-wave (km/s) = 5.86647 6.19527 6.03311
#
# Compressibility (1/GPa) = 0.02491059
#
# Stress axis : x y z
#
# Youngs Moduli (GPa) = 85.51909 54.14802 81.24400
#
# Poissons Ratio (x) = 0.36289 0.11559
# Poissons Ratio (y) = 0.57313 0.05322
# Poissons Ratio (z) = 0.12167 0.03547
#
# Static dielectric constant tensor:
#      x y z
#    x 3.876920 0.000000 0.000000 
#    y 0.000000 3.670130 0.000000 
#    z 0.000000 0.000000 3.877060 
# 
# 
# High freq. dielectric constant tensor:
#      x y z
#    x 1.835060 0.000000 0.000000 
#    y 0.000000 1.840230 0.000000 
#    z 0.000000 0.000000 1.849400 
# 
# From -- ./inp_files/371.got.cif
#   From: 2010.03.12/outbox.cif.g09.slc.cpg/sg60_1_cif.got.tgz:371.got - 2010.04.10 18:46:24.
