data_PCOD8247005
_publ_section_title
;
Structure prediction by ZEFSAII (Michael W. Deem and Ramdas Pophale) SiO2 
 PCOD8247005
Probable space group: P B C N
;
_chemical_formula_sum "Si O2"
_cell_formula_units_Z 48
_cell_length_a 25.231987
_cell_length_b 11.491461
_cell_length_c 8.877371
_cell_angle_alpha 90.000000
_cell_angle_beta 90.000000
_cell_angle_gamma 90.000000
_cell_volume 2574.014979
_symmetry_space_group_name_H-M "P B C N"
_symmetry_group_IT_number 60
_symmetry_cell_setting 'orthorhombic'
loop_
_space_group_symop_operation_xyz
x,y,z
1/2-x,1/2-y,1/2+z
1/2+x,1/2-y,-z
-x,y,1/2-z
-x,-y,-z
1/2+x,1/2+y,1/2-z
1/2-x,1/2+y,z
x,-y,1/2+z
loop_
_atom_site_type_symbol
_atom_site_label
_atom_site_fract_x
_atom_site_fract_y
_atom_site_fract_z
Si Si1 0.236377 0.896409 0.812111
Si Si2 0.553950 0.158945 0.815570
Si Si3 0.345376 0.783375 0.794077
Si Si4 0.148527 0.823364 0.613580
Si Si5 0.552900 0.925494 0.658246
Si Si6 0.815044 0.069254 0.879291
O O1 0.296426 0.869466 0.766010
O O2 0.196990 0.803847 0.730032
O O3 0.224403 0.026976 0.753272
O O4 0.224008 0.893781 0.987499
O O5 0.500000 0.215183 0.750000
O O6 0.595641 0.264529 0.819191
O O7 0.569669 0.058734 0.694635
O O8 0.545580 0.097299 0.979226
O O9 0.400713 0.846886 0.775239
O O10 0.348108 0.680438 0.672668
O O11 0.335878 0.736459 0.960005
O O12 0.143112 0.963784 0.583543
O O13 0.500000 0.892600 0.750000
#
# Coordination Sequence:
#
# PCOD8247005 Si02
#       6
#     8   8   8   8   8   8
#     4  10  21  34  59  80 117 147 184 233 282 339
#     4  10  20  38  60  81 116 148 195 237 289 340
#     4  11  21  37  58  83 111 154 189 231 290 345
#     4   9  20  39  54  83 115 147 188 235 278 337
#     4  10  22  37  56  86 116 145 193 246 283 337
#     4  10  20  39  54  82 120 142 191 234 277 340
#
# _framework density 18.647911000000001
#
# number of rings (size 3 to 8) (size 9 to 14) (size 15 to 20)
#    1.000    1.000    1.667    3.000    0.000    6.667 
#    0.000    0.833    0.000    5.000    0.000    0.000 
#    0.000    0.000    0.000    0.000    0.000    0.000 
#
# Total GULP energy -594739.010952 kJ/mol
# GULP energy per Si atom -12390.396062 kJ/mol
# Density = 1.860547 g / cm^3
# Si number density = 18.647911 Si / 1000 Ang^3
#
#
#
# Elastic Constant Matrix: (Units=GPa)
#
#
# Indices 1 2 3 4 5 6 
#
# 1 102.0605 48.4386 33.1858 0.0000 0.0000 0.0000
# 2 48.4386 73.8910 10.9036 0.0000 0.0000 0.0000
# 3 33.1858 10.9036 61.9750 0.0000 0.0000 0.0000
# 4 0.0000 0.0000 0.0000 23.7720 0.0000 0.0000
# 5 0.0000 0.0000 0.0000 0.0000 27.1328 0.0000
# 6 0.0000 0.0000 0.0000 0.0000 0.0000 20.8996
#
#
#
# Elastic Compliance Matrix: (Units=1/GPa)
#
#
# Indices 1 2 3 4 5 6 
#
# 1 0.016927 -0.010019 -0.007301 0.000000 0.000000 0.000000
# 2 -0.010019 0.019824 0.001877 0.000000 0.000000 0.000000
# 3 -0.007301 0.001877 0.019715 0.000000 0.000000 0.000000
# 4 0.000000 0.000000 0.000000 0.042066 0.000000 0.000000
# 5 0.000000 0.000000 0.000000 0.000000 0.036856 0.000000
# 6 0.000000 0.000000 0.000000 0.000000 0.000000 0.047848
#
#
# Mechanical properties :
#
#
# Convention : Reuss Voigt Hill
#
# Bulk Modulus (GPa) = 39.09314 46.99806 43.04560
# Shear Modulus (GPa) = 22.45675 24.05411 23.25543
#
# Velocity S-wave (km/s) = 3.47400 3.59543 3.53523
# Velocity P-wave (km/s) = 6.09105 6.51872 6.30851
#
# Compressibility (1/GPa) = 0.02557993
#
# Stress axis : x y z
#
# Youngs Moduli (GPa) = 59.07586 50.44275 50.72297
#
# Poissons Ratio (x) = 0.50540 0.37035
# Poissons Ratio (y) = 0.59189 -0.09521
# Poissons Ratio (z) = 0.43133 -0.09469
#
# Static dielectric constant tensor:
#      x y z
#    x 3.315200 0.000000 0.000000 
#    y 0.000000 3.363240 0.000000 
#    z 0.000000 0.000000 3.479860 
# 
# 
# High freq. dielectric constant tensor:
#      x y z
#    x 1.711780 0.000000 0.000000 
#    y 0.000000 1.714320 0.000000 
#    z 0.000000 0.000000 1.735210 
# 
# From -- ./inp_files/8120.got.cif
#   From: 2010.03.12/outbox.cif.g09.slc.cpg/sg60_5_cif.got.tgz:8120.got - 2010.04.10 18:46:24.
