data_PCOD8247936
_publ_section_title
;
Structure prediction by ZEFSAII (Michael W. Deem and Ramdas Pophale) SiO2 
 PCOD8247936
Probable space group: P B C N
;
_chemical_formula_sum "Si O2"
_cell_formula_units_Z 32
_cell_length_a 18.187017
_cell_length_b 4.899303
_cell_length_c 13.253026
_cell_angle_alpha 90.000000
_cell_angle_beta 90.000000
_cell_angle_gamma 90.000000
_cell_volume 1180.893745
_symmetry_space_group_name_H-M "P B C N"
_symmetry_group_IT_number 60
_symmetry_cell_setting 'orthorhombic'
loop_
_space_group_symop_operation_xyz
x,y,z
1/2-x,1/2-y,1/2+z
1/2+x,1/2-y,-z
-x,y,1/2-z
-x,-y,-z
1/2+x,1/2+y,1/2-z
1/2-x,1/2+y,z
x,-y,1/2+z
loop_
_atom_site_type_symbol
_atom_site_label
_atom_site_fract_x
_atom_site_fract_y
_atom_site_fract_z
Si Si1 0.603774 0.637504 0.822134
Si Si2 0.372737 0.272912 0.967269
Si Si3 0.056121 0.281238 0.886176
Si Si4 0.702828 0.209151 0.731935
O O1 0.600609 0.824500 0.721064
O O2 0.521272 0.634263 0.867470
O O3 0.630810 0.331891 0.789523
O O4 0.651974 0.762672 0.915168
O O5 0.397153 0.585286 0.957691
O O6 0.306672 0.213435 0.889815
O O7 0.442729 0.076231 0.939784
O O8 0.772576 0.403960 0.763003
#
# Coordination Sequence:
#
# PCOD8247936 Si02
#       4
#     8   8   8   8
#     4  10  23  41  68  94 130 176 216 276 348 397
#     4  11  23  41  65  94 131 171 217 280 342 399
#     4  10  23  40  64 101 131 161 221 281 337 415
#     4  11  25  43  61  91 130 172 228 275 318 400
#
# _framework density 27.098117999999999
#
# number of rings (size 3 to 8) (size 9 to 14) (size 15 to 20)
#    0.000    1.500    0.000    4.500    0.000   18.000 
#    0.000    0.000    0.000    0.000    0.000    0.000 
#    0.000    0.000    0.000    0.000    0.000    0.000 
#
# Total GULP energy -396496.599601 kJ/mol
# GULP energy per Si atom -12390.518738 kJ/mol
# Density = 2.703644 g / cm^3
# Si number density = 27.098118 Si / 1000 Ang^3
#
#
#
# Elastic Constant Matrix: (Units=GPa)
#
#
# Indices 1 2 3 4 5 6 
#
# 1 70.1622 -3.2508 16.2717 0.0000 0.0000 0.0000
# 2 -3.2508 79.5316 23.3410 0.0000 0.0000 0.0000
# 3 16.2717 23.3410 168.5820 0.0000 0.0000 0.0000
# 4 0.0000 0.0000 0.0000 26.4088 0.0000 0.0000
# 5 0.0000 0.0000 0.0000 0.0000 38.5374 0.0000
# 6 0.0000 0.0000 0.0000 0.0000 0.0000 48.2149
#
#
#
# Elastic Compliance Matrix: (Units=1/GPa)
#
#
# Indices 1 2 3 4 5 6 
#
# 1 0.014664 0.001058 -0.001562 0.000000 0.000000 0.000000
# 2 0.001058 0.013182 -0.001927 0.000000 0.000000 0.000000
# 3 -0.001562 -0.001927 0.006349 0.000000 0.000000 0.000000
# 4 0.000000 0.000000 0.000000 0.037866 0.000000 0.000000
# 5 0.000000 0.000000 0.000000 0.000000 0.025949 0.000000
# 6 0.000000 0.000000 0.000000 0.000000 0.000000 0.020740
#
#
# Mechanical properties :
#
#
# Convention : Reuss Voigt Hill
#
# Bulk Modulus (GPa) = 34.09118 43.44439 38.76778
# Shear Modulus (GPa) = 37.48359 41.42648 39.45504
#
# Velocity S-wave (km/s) = 3.72325 3.91418 3.81990
# Velocity P-wave (km/s) = 5.57597 6.04109 5.81318
#
# Compressibility (1/GPa) = 0.02933310
#
# Stress axis : x y z
#
# Youngs Moduli (GPa) = 68.19468 75.85829 157.49472
#
# Poissons Ratio (x) = -0.08024 0.24598
# Poissons Ratio (y) = -0.07213 0.30353
# Poissons Ratio (z) = 0.10651 0.14620
#
# Static dielectric constant tensor:
#      x y z
#    x 4.773380 0.000000 0.000000 
#    y 0.000000 4.593980 0.000000 
#    z 0.000000 0.000000 5.426810 
# 
# 
# High freq. dielectric constant tensor:
#      x y z
#    x 2.080830 0.000000 0.000000 
#    y 0.000000 2.083800 0.000000 
#    z 0.000000 0.000000 2.106910 
# 
# From -- ./inp_files/12713.got.cif
#   From: 2010.03.12/outbox.cif.g09.slc.cpg/sg60_7_cif.got.tgz:12713.got - 2010.04.10 18:46:24.
