data_PCOD8247151
_publ_section_title
;
Structure prediction by ZEFSAII (Michael W. Deem and Ramdas Pophale) SiO2 
 PCOD8247151
Probable space group: P B C N
;
_chemical_formula_sum "Si O2"
_cell_formula_units_Z 56
_cell_length_a 15.046084
_cell_length_b 9.753892
_cell_length_c 19.054870
_cell_angle_alpha 90.000000
_cell_angle_beta 90.000000
_cell_angle_gamma 90.000000
_cell_volume 2796.452294
_symmetry_space_group_name_H-M "P B C N"
_symmetry_group_IT_number 60
_symmetry_cell_setting 'orthorhombic'
loop_
_space_group_symop_operation_xyz
x,y,z
1/2-x,1/2-y,1/2+z
1/2+x,1/2-y,-z
-x,y,1/2-z
-x,-y,-z
1/2+x,1/2+y,1/2-z
1/2-x,1/2+y,z
x,-y,1/2+z
loop_
_atom_site_type_symbol
_atom_site_label
_atom_site_fract_x
_atom_site_fract_y
_atom_site_fract_z
Si Si1 0.717740 0.203154 0.617212
Si Si2 0.338076 0.469449 0.936432
Si Si3 0.402160 0.101530 0.765916
Si Si4 0.518555 0.540615 0.676188
Si Si5 0.135008 0.710399 0.277405
Si Si6 0.765085 0.281489 0.343387
Si Si7 0.656376 0.504674 0.407601
O O1 0.692395 0.311513 0.556598
O O2 0.787856 0.282495 0.665323
O O3 0.755697 0.065982 0.583126
O O4 0.630297 0.166895 0.661416
O O5 0.410354 0.469145 0.874165
O O6 0.374798 0.519005 0.011515
O O7 0.500000 0.158173 0.750000
O O8 0.406045 0.939048 0.774793
O O9 0.338032 0.142633 0.703008
O O10 0.500000 0.458567 0.750000
O O11 0.555579 0.688595 0.700259
O O12 0.426404 0.551719 0.635950
O O13 0.178383 0.745447 0.202393
O O14 0.734463 0.391610 0.401902
O O15 0.808618 0.149708 0.379536
#
# Coordination Sequence:
#
# PCOD8247151 Si02
#       7
#     8   8   8   8   8   8   8
#     4  10  22  40  64  91 124 174 211 265 324 389
#     4  11  24  43  65  93 135 169 220 265 332 389
#     4  11  23  37  64  97 127 162 218 277 318 370
#     4  11  24  39  69  97 126 167 218 265 325 386
#     4  10  20  41  64  94 124 165 211 265 323 382
#     4  11  24  40  64  94 130 169 220 260 331 382
#     4  12  25  43  66  96 130 177 212 273 323 399
#
# _framework density 20.025373999999999
#
# number of rings (size 3 to 8) (size 9 to 14) (size 15 to 20)
#    0.000    1.143    4.286    1.714    6.000    0.000 
#    0.000    0.000    0.000    1.714    0.000    0.000 
#    0.000    0.000    0.000    0.000    0.000    0.000 
#
# Total GULP energy -694283.207169 kJ/mol
# GULP energy per Si atom -12397.914414 kJ/mol
# Density = 1.997980 g / cm^3
# Si number density = 20.025374 Si / 1000 Ang^3
#
#
#
# Elastic Constant Matrix: (Units=GPa)
#
#
# Indices 1 2 3 4 5 6 
#
# 1 106.1454 42.1132 42.1483 0.0000 0.0000 0.0000
# 2 42.1132 105.8212 28.6860 0.0000 0.0000 0.0000
# 3 42.1483 28.6860 123.9899 0.0000 0.0000 0.0000
# 4 0.0000 0.0000 0.0000 22.5874 0.0000 0.0000
# 5 0.0000 0.0000 0.0000 0.0000 15.0152 0.0000
# 6 0.0000 0.0000 0.0000 0.0000 0.0000 -113.6708
#
#
#
# Elastic Compliance Matrix: (Units=1/GPa)
#
#
# Indices 1 2 3 4 5 6 
#
# 1 0.012306 -0.004015 -0.003254 0.000000 0.000000 0.000000
# 2 -0.004015 0.011392 -0.001271 0.000000 0.000000 0.000000
# 3 -0.003254 -0.001271 0.009465 0.000000 0.000000 0.000000
# 4 0.000000 0.000000 0.000000 0.044273 0.000000 0.000000
# 5 0.000000 0.000000 0.000000 0.000000 0.066599 0.000000
# 6 0.000000 0.000000 0.000000 0.000000 0.000000 -0.008797
#
#
# Mechanical properties :
#
#
# Convention : Reuss Voigt Hill
#
# Bulk Modulus (GPa) = 62.17652 62.42796 62.30224
# Shear Modulus (GPa) = 31.70968 -0.34638 15.68165
#
# Velocity S-wave (km/s) = 3.98361 -0.41635 2.80141
# Velocity P-wave (km/s) = 7.23015 5.56875 6.45314
#
# Compressibility (1/GPa) = 0.01608324
#
# Stress axis : x y z
#
# Youngs Moduli (GPa) = 81.25876 87.77826 105.64747
#
# Poissons Ratio (x) = 0.35246 0.34382
# Poissons Ratio (y) = 0.32628 0.13425
# Poissons Ratio (z) = 0.26445 0.11155
#
# Static dielectric constant tensor:
#      x y z
#    x 3.764770 0.000000 0.000000 
#    y 0.000000 3.623040 0.000000 
#    z 0.000000 0.000000 3.660610 
# 
# 
# High freq. dielectric constant tensor:
#      x y z
#    x 1.784850 0.000000 0.000000 
#    y 0.000000 1.790100 0.000000 
#    z 0.000000 0.000000 1.775810 
# 
# From -- ./inp_files/22894.got.cif
#   From: 2010.03.12/outbox.cif.g09.slc.cpg/sg60_12_cif.got.tgz:22894.got - 2010.04.10 18:46:24.
