data_PCOD8247636
_publ_section_title
;
Structure prediction by ZEFSAII (Michael W. Deem and Ramdas Pophale) SiO2 
 PCOD8247636
Probable space group: P B C N
;
_chemical_formula_sum "Si O2"
_cell_formula_units_Z 32
_cell_length_a 11.331015
_cell_length_b 13.945793
_cell_length_c 9.814917
_cell_angle_alpha 90.000000
_cell_angle_beta 90.000000
_cell_angle_gamma 90.000000
_cell_volume 1550.953083
_symmetry_space_group_name_H-M "P B C N"
_symmetry_group_IT_number 60
_symmetry_cell_setting 'orthorhombic'
loop_
_space_group_symop_operation_xyz
x,y,z
1/2-x,1/2-y,1/2+z
1/2+x,1/2-y,-z
-x,y,1/2-z
-x,-y,-z
1/2+x,1/2+y,1/2-z
1/2-x,1/2+y,z
x,-y,1/2+z
loop_
_atom_site_type_symbol
_atom_site_label
_atom_site_fract_x
_atom_site_fract_y
_atom_site_fract_z
Si Si1 0.293702 0.536350 0.682176
Si Si2 0.983053 0.123203 0.394975
Si Si3 0.248348 0.403134 0.908827
Si Si4 0.391910 0.280857 0.338626
O O1 0.403385 0.470455 0.633496
O O2 0.214790 0.478854 0.791839
O O3 0.203080 0.563389 0.558439
O O4 0.341375 0.631270 0.753986
O O5 0.926918 0.190688 0.508427
O O6 0.000000 0.179127 0.250000
O O7 0.112191 0.092628 0.443227
O O8 0.206490 0.300045 0.858258
O O9 0.500000 0.237976 0.250000
#
# Coordination Sequence:
#
# PCOD8247636 Si02
#       4
#     8   8   8   8
#     4  11  22  41  66  97 125 166 219 269 310 385
#     4  10  22  37  63  96 125 159 216 267 313 375
#     4  11  24  38  67  93 126 169 214 268 322 373
#     4  12  24  41  64  98 133 164 212 272 325 382
#
# _framework density 20.632473000000001
#
# number of rings (size 3 to 8) (size 9 to 14) (size 15 to 20)
#    0.000    1.000    5.000    3.000    7.000    0.000 
#    0.000    1.250    0.000    0.000    0.000    0.000 
#    0.000    0.000    0.000    0.000    0.000    0.000 
#
# Total GULP energy -396537.512205 kJ/mol
# GULP energy per Si atom -12391.797256 kJ/mol
# Density = 2.058551 g / cm^3
# Si number density = 20.632473 Si / 1000 Ang^3
#
#
#
# Elastic Constant Matrix: (Units=GPa)
#
#
# Indices 1 2 3 4 5 6 
#
# 1 26.8860 36.2996 40.0691 0.0000 0.0000 0.0000
# 2 36.2996 90.4165 72.7020 0.0000 0.0000 0.0000
# 3 40.0691 72.7020 186.6644 0.0000 0.0000 0.0000
# 4 0.0000 0.0000 0.0000 34.9368 0.0000 0.0000
# 5 0.0000 0.0000 0.0000 0.0000 22.1465 0.0000
# 6 0.0000 0.0000 0.0000 0.0000 0.0000 21.6781
#
#
#
# Elastic Compliance Matrix: (Units=1/GPa)
#
#
# Indices 1 2 3 4 5 6 
#
# 1 0.087802 -0.029258 -0.007452 0.000000 0.000000 0.000000
# 2 -0.029258 0.025852 -0.003789 0.000000 0.000000 0.000000
# 3 -0.007452 -0.003789 0.008432 0.000000 0.000000 0.000000
# 4 0.000000 0.000000 0.000000 0.028623 0.000000 0.000000
# 5 0.000000 0.000000 0.000000 0.000000 0.045154 0.000000
# 6 0.000000 0.000000 0.000000 0.000000 0.000000 0.046129
#
#
# Mechanical properties :
#
#
# Convention : Reuss Voigt Hill
#
# Bulk Modulus (GPa) = 24.33692 66.90094 45.61893
# Shear Modulus (GPa) = 14.85058 26.07869 20.46464
#
# Velocity S-wave (km/s) = 2.68576 3.55908 3.15281
# Velocity P-wave (km/s) = 4.63020 7.02744 5.95079
#
# Compressibility (1/GPa) = 0.04108983
#
# Stress axis : x y z
#
# Youngs Moduli (GPa) = 11.38925 38.68112 118.58978
#
# Poissons Ratio (x) = 1.13173 0.88375
# Poissons Ratio (y) = 0.33323 0.44928
# Poissons Ratio (z) = 0.08487 0.14654
#
# Static dielectric constant tensor:
#      x y z
#    x 3.436080 0.000000 0.000000 
#    y 0.000000 3.497190 0.000000 
#    z 0.000000 0.000000 4.672490 
# 
# 
# High freq. dielectric constant tensor:
#      x y z
#    x 1.754960 0.000000 0.000000 
#    y 0.000000 1.791450 0.000000 
#    z 0.000000 0.000000 1.856670 
# 
# From -- ./inp_files/10593.got.cif
#   From: 2010.03.12/outbox.cif.g09.slc.cpg/sg60_6_cif.got.tgz:10593.got - 2010.04.10 18:46:24.
