data_PCOD8247988
_publ_section_title
;
Structure prediction by ZEFSAII (Michael W. Deem and Ramdas Pophale) SiO2 
 PCOD8247988
Probable space group: P B C N
;
_chemical_formula_sum "Si O2"
_cell_formula_units_Z 40
_cell_length_a 7.142981
_cell_length_b 17.706901
_cell_length_c 15.152687
_cell_angle_alpha 90.000000
_cell_angle_beta 90.000000
_cell_angle_gamma 90.000000
_cell_volume 1916.512722
_symmetry_space_group_name_H-M "P B C N"
_symmetry_group_IT_number 60
_symmetry_cell_setting 'orthorhombic'
loop_
_space_group_symop_operation_xyz
x,y,z
1/2-x,1/2-y,1/2+z
1/2+x,1/2-y,-z
-x,y,1/2-z
-x,-y,-z
1/2+x,1/2+y,1/2-z
1/2-x,1/2+y,z
x,-y,1/2+z
loop_
_atom_site_type_symbol
_atom_site_label
_atom_site_fract_x
_atom_site_fract_y
_atom_site_fract_z
Si Si1 0.533510 0.931850 0.066515
Si Si2 0.500000 0.991771 0.750000
Si Si3 0.751648 0.170466 0.027159
Si Si4 0.877701 0.168590 0.569932
Si Si5 0.280820 0.635781 0.272554
Si Si6 0.000000 0.238715 0.750000
O O1 0.490427 0.954550 0.165987
O O2 0.747668 0.904752 0.066292
O O3 0.404637 0.862169 0.037998
O O4 0.500000 0.000000 0.000000
O O5 0.312906 0.941264 0.739201
O O6 0.733347 0.260551 0.029774
O O7 0.733714 0.136101 0.124120
O O8 0.952391 0.146627 0.992271
O O9 0.953658 0.185244 0.667939
O O10 0.500000 0.638053 0.250000
O O11 0.179412 0.708003 0.226987
#
# Coordination Sequence:
#
# PCOD8247988 Si02
#       6
#     8   4   8   8   8   4
#     4  12  27  47  69 101 142 186 233 295 349 414
#     4  11  26  46  66 100 145 178 234 288 347 424
#     4  11  24  44  72 100 136 182 231 287 352 425
#     4  11  25  43  71 102 138 180 233 289 351 413
#     4  10  23  42  73  98 138 188 227 286 361 419
#     4   9  24  42  64 108 137 178 238 290 345 430
#
# _framework density 20.871241000000001
#
# number of rings (size 3 to 8) (size 9 to 14) (size 15 to 20)
#    0.000    1.200    4.000    0.000    8.400    2.400 
#    1.800    0.000    0.000    0.000    0.000    0.000 
#    0.000    0.000    0.000    0.000    0.000    0.000 
#
# Total GULP energy -496142.247537 kJ/mol
# GULP energy per Si atom -12403.556188 kJ/mol
# Density = 2.082374 g / cm^3
# Si number density = 20.871241 Si / 1000 Ang^3
#
#
#
# Elastic Constant Matrix: (Units=GPa)
#
#
# Indices 1 2 3 4 5 6 
#
# 1 155.7884 42.3836 45.6707 0.0000 0.0000 0.0000
# 2 42.3836 85.3273 53.7255 0.0000 0.0000 0.0000
# 3 45.6707 53.7255 119.8958 0.0000 0.0000 0.0000
# 4 0.0000 0.0000 0.0000 32.2061 0.0000 0.0000
# 5 0.0000 0.0000 0.0000 0.0000 35.8350 0.0000
# 6 0.0000 0.0000 0.0000 0.0000 0.0000 38.1770
#
#
#
# Elastic Compliance Matrix: (Units=1/GPa)
#
#
# Indices 1 2 3 4 5 6 
#
# 1 0.007660 -0.002741 -0.001690 0.000000 0.000000 0.000000
# 2 -0.002741 0.017307 -0.006711 0.000000 0.000000 0.000000
# 3 -0.001690 -0.006711 0.011991 0.000000 0.000000 0.000000
# 4 0.000000 0.000000 0.000000 0.031050 0.000000 0.000000
# 5 0.000000 0.000000 0.000000 0.000000 0.027906 0.000000
# 6 0.000000 0.000000 0.000000 0.000000 0.000000 0.026194
#
#
# Mechanical properties :
#
#
# Convention : Reuss Voigt Hill
#
# Bulk Modulus (GPa) = 68.14427 71.61903 69.88165
# Shear Modulus (GPa) = 33.49360 35.85908 34.67634
#
# Velocity S-wave (km/s) = 4.01031 4.14951 4.08050
# Velocity P-wave (km/s) = 7.35963 7.57278 7.46697
#
# Compressibility (1/GPa) = 0.01467475
#
# Stress axis : x y z
#
# Youngs Moduli (GPa) = 130.54827 57.78140 83.39320
#
# Poissons Ratio (x) = 0.15838 0.14090
# Poissons Ratio (y) = 0.35784 0.55965
# Poissons Ratio (z) = 0.22057 0.38777
#
# Static dielectric constant tensor:
#      x y z
#    x 2.900150 0.000000 0.000000 
#    y 0.000000 3.757470 0.000000 
#    z 0.000000 0.000000 3.714140 
# 
# 
# High freq. dielectric constant tensor:
#      x y z
#    x 1.826460 0.000000 0.000000 
#    y 0.000000 1.814400 0.000000 
#    z 0.000000 0.000000 1.827130 
# 
# From -- ./inp_files/18561.got.cif
#   From: 2010.03.12/outbox.cif.g09.slc.cpg/sg60_10_cif.got.tgz:18561.got - 2010.04.10 18:46:24.
