data_PCOD8247288
_publ_section_title
;
Structure prediction by ZEFSAII (Michael W. Deem and Ramdas Pophale) SiO2 
 PCOD8247288
Probable space group: P B C N
;
_chemical_formula_sum "Si O2"
_cell_formula_units_Z 48
_cell_length_a 24.099538
_cell_length_b 9.926063
_cell_length_c 8.841183
_cell_angle_alpha 90.000000
_cell_angle_beta 90.000000
_cell_angle_gamma 90.000000
_cell_volume 2114.930617
_symmetry_space_group_name_H-M "P B C N"
_symmetry_group_IT_number 60
_symmetry_cell_setting 'orthorhombic'
loop_
_space_group_symop_operation_xyz
x,y,z
1/2-x,1/2-y,1/2+z
1/2+x,1/2-y,-z
-x,y,1/2-z
-x,-y,-z
1/2+x,1/2+y,1/2-z
1/2-x,1/2+y,z
x,-y,1/2+z
loop_
_atom_site_type_symbol
_atom_site_label
_atom_site_fract_x
_atom_site_fract_y
_atom_site_fract_z
Si Si1 0.718419 0.326231 0.310250
Si Si2 0.092415 0.094217 0.038054
Si Si3 0.587424 0.327764 0.295804
Si Si4 0.064489 0.659858 0.731238
Si Si5 0.777399 0.092554 0.476794
Si Si6 0.942451 0.571801 0.457433
O O1 0.652881 0.299538 0.301355
O O2 0.747284 0.187796 0.356164
O O3 0.741501 0.375521 0.147526
O O4 0.735576 0.437872 0.434604
O O5 0.068135 0.129334 0.872959
O O6 0.157613 0.113717 0.041231
O O7 0.070368 0.190812 0.170064
O O8 0.072785 0.945057 0.084240
O O9 0.552137 0.194932 0.338344
O O10 0.092867 0.549505 0.619130
O O11 0.000000 0.626080 0.750000
O O12 0.090300 0.635032 0.898420
O O13 0.000000 0.500000 0.500000
#
# Coordination Sequence:
#
# PCOD8247288 Si02
#       6
#     8   8   8   8   8   8
#     4  10  21  37  59  88 122 160 201 246 298 356
#     4  10  21  39  62  89 121 158 201 250 303 360
#     4  10  21  39  62  88 120 158 200 249 302 359
#     4  10  21  38  58  85 114 150 196 245 299 355
#     4  10  21  37  59  88 123 161 202 248 298 357
#     4  10  21  38  59  84 115 151 194 246 300 355
#
# _framework density 22.695781
#
# number of rings (size 3 to 8) (size 9 to 14) (size 15 to 20)
#    0.000    2.000    0.000    3.000    0.000    6.667 
#    0.000   10.000    0.000    0.000    0.000    0.000 
#    0.000    0.000    0.000    0.000    0.000    0.000 
#
# Total GULP energy -594977.975643 kJ/mol
# GULP energy per Si atom -12395.374493 kJ/mol
# Density = 2.264412 g / cm^3
# Si number density = 22.695781 Si / 1000 Ang^3
#
#
#
# Elastic Constant Matrix: (Units=GPa)
#
#
# Indices 1 2 3 4 5 6 
#
# 1 19.3877 26.4203 17.0884 0.0000 0.0000 0.0000
# 2 26.4203 122.3867 16.9014 0.0000 0.0000 0.0000
# 3 17.0884 16.9014 99.2869 0.0000 0.0000 0.0000
# 4 0.0000 0.0000 0.0000 54.6222 0.0000 0.0000
# 5 0.0000 0.0000 0.0000 0.0000 26.0329 0.0000
# 6 0.0000 0.0000 0.0000 0.0000 0.0000 35.4740
#
#
#
# Elastic Compliance Matrix: (Units=1/GPa)
#
#
# Indices 1 2 3 4 5 6 
#
# 1 0.084594 -0.016642 -0.011727 0.000000 0.000000 0.000000
# 2 -0.016642 0.011642 0.000883 0.000000 0.000000 0.000000
# 3 -0.011727 0.000883 0.011940 0.000000 0.000000 0.000000
# 4 0.000000 0.000000 0.000000 0.018308 0.000000 0.000000
# 5 0.000000 0.000000 0.000000 0.000000 0.038413 0.000000
# 6 0.000000 0.000000 0.000000 0.000000 0.000000 0.028190
#
#
# Mechanical properties :
#
#
# Convention : Reuss Voigt Hill
#
# Bulk Modulus (GPa) = 18.79595 40.20904 29.50249
# Shear Modulus (GPa) = 18.81163 35.26924 27.04044
#
# Velocity S-wave (km/s) = 2.88212 3.94636 3.45545
# Velocity P-wave (km/s) = 4.40172 6.20645 5.38029
#
# Compressibility (1/GPa) = 0.05320296
#
# Stress axis : x y z
#
# Youngs Moduli (GPa) = 11.82113 85.89876 83.75307
#
# Poissons Ratio (x) = 1.42956 0.98214
# Poissons Ratio (y) = 0.19673 -0.07392
# Poissons Ratio (z) = 0.13862 -0.07582
#
# Static dielectric constant tensor:
#      x y z
#    x 3.599290 0.000000 0.000000 
#    y 0.000000 4.153700 0.000000 
#    z 0.000000 0.000000 5.716210 
# 
# 
# High freq. dielectric constant tensor:
#      x y z
#    x 1.852620 0.000000 0.000000 
#    y 0.000000 1.908890 0.000000 
#    z 0.000000 0.000000 1.919230 
# 
# From -- ./inp_files/8386.got.cif
#   From: 2010.03.12/outbox.cif.g09.slc.cpg/sg60_5_cif.got.tgz:8386.got - 2010.04.10 18:46:24.
