data_PCOD8247541
_publ_section_title
;
Structure prediction by ZEFSAII (Michael W. Deem and Ramdas Pophale) SiO2 
 PCOD8247541
Probable space group: P B C N
;
_chemical_formula_sum "Si O2"
_cell_formula_units_Z 48
_cell_length_a 10.939579
_cell_length_b 21.946146
_cell_length_c 9.099679
_cell_angle_alpha 90.000000
_cell_angle_beta 90.000000
_cell_angle_gamma 90.000000
_cell_volume 2184.665475
_symmetry_space_group_name_H-M "P B C N"
_symmetry_group_IT_number 60
_symmetry_cell_setting 'orthorhombic'
loop_
_space_group_symop_operation_xyz
x,y,z
1/2-x,1/2-y,1/2+z
1/2+x,1/2-y,-z
-x,y,1/2-z
-x,-y,-z
1/2+x,1/2+y,1/2-z
1/2-x,1/2+y,z
x,-y,1/2+z
loop_
_atom_site_type_symbol
_atom_site_label
_atom_site_fract_x
_atom_site_fract_y
_atom_site_fract_z
Si Si1 0.254207 0.968059 0.703092
Si Si2 0.596103 0.677883 0.473075
Si Si3 0.152970 0.855147 0.838029
Si Si4 0.233375 0.578402 0.887986
Si Si5 0.000000 0.599802 0.250000
Si Si6 0.000000 0.367167 0.250000
Si Si7 0.598439 0.186047 0.025481
O O1 0.153009 0.923983 0.774940
O O2 0.258899 0.966441 0.527465
O O3 0.384399 0.943915 0.760894
O O4 0.222948 0.037199 0.750176
O O5 0.461851 0.650120 0.446622
O O6 0.653577 0.686755 0.309775
O O7 0.679068 0.636115 0.581025
O O8 0.584425 0.742216 0.556337
O O9 0.268364 0.836701 0.932371
O O10 0.092476 0.594468 0.852383
O O11 0.003848 0.646368 0.111464
O O12 0.917693 0.324445 0.352459
#
# Coordination Sequence:
#
# PCOD8247541 Si02
#       7
#     8   8   8   8   4   4   8
#     4  10  22  41  65  94 136 171 227 276 335 402
#     4  10  23  44  67  96 134 179 226 275 341 410
#     4   9  22  43  66  92 134 181 218 280 345 390
#     4  11  25  41  67 100 131 180 226 277 340 405
#     4  10  21  42  62 100 132 181 214 292 336 390
#     4  12  25  42  66 102 132 179 226 276 352 400
#     4  11  24  40  70  98 138 172 230 283 342 404
#
# _framework density 21.971326999999999
#
# number of rings (size 3 to 8) (size 9 to 14) (size 15 to 20)
#    0.000    1.667    1.667    1.500    9.333    2.000 
#    0.000    0.000    0.000    0.000    0.000    0.000 
#    0.000    0.000    0.000    0.000    0.000    0.000 
#
# Total GULP energy -594945.039820 kJ/mol
# GULP energy per Si atom -12394.688330 kJ/mol
# Density = 2.192132 g / cm^3
# Si number density = 21.971327 Si / 1000 Ang^3
#
#
#
# Elastic Constant Matrix: (Units=GPa)
#
#
# Indices 1 2 3 4 5 6 
#
# 1 100.5345 27.7881 40.8993 0.0000 0.0000 0.0000
# 2 27.7881 100.5651 42.1731 0.0000 0.0000 0.0000
# 3 40.8993 42.1731 94.6126 0.0000 0.0000 0.0000
# 4 0.0000 0.0000 0.0000 37.8764 0.0000 0.0000
# 5 0.0000 0.0000 0.0000 0.0000 39.8288 0.0000
# 6 0.0000 0.0000 0.0000 0.0000 0.0000 22.7605
#
#
#
# Elastic Compliance Matrix: (Units=1/GPa)
#
#
# Indices 1 2 3 4 5 6 
#
# 1 0.012234 -0.001430 -0.004651 0.000000 0.000000 0.000000
# 2 -0.001430 0.012397 -0.004908 0.000000 0.000000 0.000000
# 3 -0.004651 -0.004908 0.014768 0.000000 0.000000 0.000000
# 4 0.000000 0.000000 0.000000 0.026402 0.000000 0.000000
# 5 0.000000 0.000000 0.000000 0.000000 0.025107 0.000000
# 6 0.000000 0.000000 0.000000 0.000000 0.000000 0.043936
#
#
# Mechanical properties :
#
#
# Convention : Reuss Voigt Hill
#
# Bulk Modulus (GPa) = 57.40198 57.49258 57.44728
# Shear Modulus (GPa) = 30.74483 32.41659 31.58071
#
# Velocity S-wave (km/s) = 3.74480 3.84527 3.79537
# Velocity P-wave (km/s) = 6.69930 6.77781 6.73867
#
# Compressibility (1/GPa) = 0.01742100
#
# Stress axis : x y z
#
# Youngs Moduli (GPa) = 81.73733 80.66423 67.71552
#
# Poissons Ratio (x) = 0.11535 0.31496
# Poissons Ratio (y) = 0.11689 0.33233
# Poissons Ratio (z) = 0.38018 0.39588
#
# Static dielectric constant tensor:
#      x y z
#    x 3.879160 0.000000 0.000000 
#    y 0.000000 3.892620 0.000000 
#    z 0.000000 0.000000 4.016110 
# 
# 
# High freq. dielectric constant tensor:
#      x y z
#    x 1.857990 0.000000 0.000000 
#    y 0.000000 1.858800 0.000000 
#    z 0.000000 0.000000 1.866810 
# 
# From -- ./inp_files/5109.got.cif
#   From: 2010.03.12/outbox.cif.g09.slc.cpg/sg60_3_cif.got.tgz:5109.got - 2010.04.10 18:46:24.
