data_PCOD8247278
_publ_section_title
;
Structure prediction by ZEFSAII (Michael W. Deem and Ramdas Pophale) SiO2 
 PCOD8247278
Probable space group: P B C N
;
_chemical_formula_sum "Si O2"
_cell_formula_units_Z 48
_cell_length_a 8.733531
_cell_length_b 20.000484
_cell_length_c 14.112077
_cell_angle_alpha 90.000000
_cell_angle_beta 90.000000
_cell_angle_gamma 90.000000
_cell_volume 2465.024891
_symmetry_space_group_name_H-M "P B C N"
_symmetry_group_IT_number 60
_symmetry_cell_setting 'orthorhombic'
loop_
_space_group_symop_operation_xyz
x,y,z
1/2-x,1/2-y,1/2+z
1/2+x,1/2-y,-z
-x,y,1/2-z
-x,-y,-z
1/2+x,1/2+y,1/2-z
1/2-x,1/2+y,z
x,-y,1/2+z
loop_
_atom_site_type_symbol
_atom_site_label
_atom_site_fract_x
_atom_site_fract_y
_atom_site_fract_z
Si Si1 0.838083 0.575894 0.458887
Si Si2 0.681474 0.888794 0.754407
Si Si3 0.802247 0.441161 0.553009
Si Si4 0.664924 0.320008 0.455399
Si Si5 0.306707 0.300025 0.443160
Si Si6 0.679526 0.739011 0.757803
O O1 0.774468 0.571451 0.350837
O O2 0.765324 0.517279 0.522876
O O3 0.793585 0.646939 0.501286
O O4 0.020309 0.574063 0.461926
O O5 0.500000 0.884505 0.750000
O O6 0.746405 0.928363 0.662574
O O7 0.752696 0.813738 0.758873
O O8 0.703473 0.395993 0.481655
O O9 0.484608 0.309460 0.465113
O O10 0.758393 0.274224 0.527687
O O11 0.725500 0.302720 0.350364
O O12 0.266283 0.304869 0.331742
O O13 0.500000 0.749778 0.750000
#
# Coordination Sequence:
#
# PCOD8247278 Si02
#       6
#     8   8   8   8   8   8
#     4  10  21  37  58  83 113 150 187 226 275 331
#     4   9  16  33  56  78 112 151 181 218 283 339
#     4  10  21  37  58  83 113 150 187 226 275 331
#     4  11  21  36  58  83 110 144 187 230 274 327
#     4  11  21  36  58  83 110 144 187 230 274 327
#     4   9  18  33  56  80 110 149 181 220 285 337
#
# _framework density 19.472421000000001
#
# number of rings (size 3 to 8) (size 9 to 14) (size 15 to 20)
#    0.000    2.000    3.333    1.000    0.000    2.000 
#    0.000    7.500    0.000    0.000    0.000    0.000 
#    0.000    0.000    0.000    0.000    0.000    0.000 
#
# Total GULP energy -595131.534921 kJ/mol
# GULP energy per Si atom -12398.573644 kJ/mol
# Density = 1.942810 g / cm^3
# Si number density = 19.472421 Si / 1000 Ang^3
#
#
#
# Elastic Constant Matrix: (Units=GPa)
#
#
# Indices 1 2 3 4 5 6 
#
# 1 28.0181 5.6988 8.9337 0.0000 0.0000 0.0000
# 2 5.6988 65.4452 25.3700 0.0000 0.0000 0.0000
# 3 8.9337 25.3700 139.0405 0.0000 0.0000 0.0000
# 4 0.0000 0.0000 0.0000 34.2963 0.0000 0.0000
# 5 0.0000 0.0000 0.0000 0.0000 20.3570 0.0000
# 6 0.0000 0.0000 0.0000 0.0000 0.0000 21.5086
#
#
#
# Elastic Compliance Matrix: (Units=1/GPa)
#
#
# Indices 1 2 3 4 5 6 
#
# 1 0.036803 -0.002462 -0.001915 0.000000 0.000000 0.000000
# 2 -0.002462 0.016608 -0.002872 0.000000 0.000000 0.000000
# 3 -0.001915 -0.002872 0.007839 0.000000 0.000000 0.000000
# 4 0.000000 0.000000 0.000000 0.029158 0.000000 0.000000
# 5 0.000000 0.000000 0.000000 0.000000 0.049123 0.000000
# 6 0.000000 0.000000 0.000000 0.000000 0.000000 0.046493
#
#
# Mechanical properties :
#
#
# Convention : Reuss Voigt Hill
#
# Bulk Modulus (GPa) = 21.39024 34.72321 28.05673
# Shear Modulus (GPa) = 23.13675 28.06581 25.60128
#
# Velocity S-wave (km/s) = 3.45074 3.80058 3.62988
# Velocity P-wave (km/s) = 5.18513 6.09343 5.65754
#
# Compressibility (1/GPa) = 0.04675029
#
# Stress axis : x y z
#
# Youngs Moduli (GPa) = 27.17192 60.21292 127.56274
#
# Poissons Ratio (x) = 0.14825 0.24434
# Poissons Ratio (y) = 0.06690 0.36638
# Poissons Ratio (z) = 0.05205 0.17294
#
# Static dielectric constant tensor:
#      x y z
#    x 3.143480 0.000000 0.000000 
#    y 0.000000 3.579390 0.000000 
#    z 0.000000 0.000000 4.482450 
# 
# 
# High freq. dielectric constant tensor:
#      x y z
#    x 1.722530 0.000000 0.000000 
#    y 0.000000 1.751520 0.000000 
#    z 0.000000 0.000000 1.776710 
# 
# From -- ./inp_files/14981.got.cif
#   From: 2010.03.12/outbox.cif.g09.slc.cpg/sg60_8_cif.got.tgz:14981.got - 2010.04.10 18:46:24.
