data_PCOD8247269
_publ_section_title
;
Structure prediction by ZEFSAII (Michael W. Deem and Ramdas Pophale) SiO2 
 PCOD8247269
Probable space group: P B C N
;
_chemical_formula_sum "Si O2"
_cell_formula_units_Z 56
_cell_length_a 15.612550
_cell_length_b 32.909790
_cell_length_c 5.147634
_cell_angle_alpha 90.000000
_cell_angle_beta 90.000000
_cell_angle_gamma 90.000000
_cell_volume 2644.883906
_symmetry_space_group_name_H-M "P B C N"
_symmetry_group_IT_number 60
_symmetry_cell_setting 'orthorhombic'
loop_
_space_group_symop_operation_xyz
x,y,z
1/2-x,1/2-y,1/2+z
1/2+x,1/2-y,-z
-x,y,1/2-z
-x,-y,-z
1/2+x,1/2+y,1/2-z
1/2-x,1/2+y,z
x,-y,1/2+z
loop_
_atom_site_type_symbol
_atom_site_label
_atom_site_fract_x
_atom_site_fract_y
_atom_site_fract_z
Si Si1 0.461514 0.771599 0.000749
Si Si2 0.253923 0.586889 0.192322
Si Si3 0.271248 0.228353 0.645600
Si Si4 0.266951 0.863681 0.161937
Si Si5 0.460342 0.136174 0.503289
Si Si6 0.901760 0.526603 0.278903
Si Si7 0.097131 0.025359 0.253194
O O1 0.500000 0.748478 0.250000
O O2 0.360193 0.770760 0.992044
O O3 0.497092 0.817813 0.002830
O O4 0.500000 0.748794 0.750000
O O5 0.286441 0.613496 0.439182
O O6 0.165136 0.563466 0.257723
O O7 0.334286 0.557730 0.151533
O O8 0.238815 0.614522 0.938824
O O9 0.213622 0.251251 0.429064
O O10 0.236693 0.182841 0.695043
O O11 0.359511 0.864797 0.026500
O O12 0.500000 0.112434 0.750000
O O13 0.500000 0.114192 0.250000
O O14 0.883628 0.506980 0.558626
O O15 0.000000 0.542107 0.250000
O O16 0.000000 0.042826 0.250000
O O17 0.111600 0.011480 0.549795
#
# Coordination Sequence:
#
# PCOD8247269 Si02
#       7
#     8   8   8   8   8   8   8
#     4   9  17  31  53  79 103 133 179 235 291 341
#     4  12  22  37  59  86 124 156 193 250 301 347
#     4  11  22  39  61  82 113 156 200 250 306 366
#     4  11  24  36  55  88 117 152 198 243 300 361
#     4   9  17  31  49  72 108 145 180 228 276 324
#     4  10  21  37  56  82 121 167 203 225 265 341
#     4  10  21  39  65  93 116 147 195 245 299 359
#
# _framework density 21.172951999999999
#
# number of rings (size 3 to 8) (size 9 to 14) (size 15 to 20)
#    0.000    1.714    0.000    5.143    0.000    6.286 
#    0.000    0.000    0.000    8.571    0.000    0.000 
#    0.000    0.000    0.000    0.000    0.000    0.000 
#
# Total GULP energy -693980.334491 kJ/mol
# GULP energy per Si atom -12392.505973 kJ/mol
# Density = 2.112476 g / cm^3
# Si number density = 21.172952 Si / 1000 Ang^3
#
#
#
# Elastic Constant Matrix: (Units=GPa)
#
#
# Indices 1 2 3 4 5 6 
#
# 1 73.9155 34.8065 23.0105 0.0000 0.0000 0.0000
# 2 34.8065 101.6228 36.6605 0.0000 0.0000 0.0000
# 3 23.0105 36.6605 154.5434 0.0000 0.0000 0.0000
# 4 0.0000 0.0000 0.0000 27.1831 0.0000 0.0000
# 5 0.0000 0.0000 0.0000 0.0000 29.6584 0.0000
# 6 0.0000 0.0000 0.0000 0.0000 0.0000 9.5566
#
#
#
# Elastic Compliance Matrix: (Units=1/GPa)
#
#
# Indices 1 2 3 4 5 6 
#
# 1 0.016334 -0.005159 -0.001208 0.000000 0.000000 0.000000
# 2 -0.005159 0.012390 -0.002171 0.000000 0.000000 0.000000
# 3 -0.001208 -0.002171 0.007166 0.000000 0.000000 0.000000
# 4 0.000000 0.000000 0.000000 0.036788 0.000000 0.000000
# 5 0.000000 0.000000 0.000000 0.000000 0.033717 0.000000
# 6 0.000000 0.000000 0.000000 0.000000 0.000000 0.104639
#
#
# Mechanical properties :
#
#
# Convention : Reuss Voigt Hill
#
# Bulk Modulus (GPa) = 53.15183 57.67075 55.41129
# Shear Modulus (GPa) = 21.33267 28.98657 25.15962
#
# Velocity S-wave (km/s) = 3.17763 3.70407 3.45090
# Velocity P-wave (km/s) = 6.21460 6.75208 6.48890
#
# Compressibility (1/GPa) = 0.01881403
#
# Stress axis : x y z
#
# Youngs Moduli (GPa) = 61.22069 80.70726 139.55520
#
# Poissons Ratio (x) = 0.41635 0.16863
# Poissons Ratio (y) = 0.31582 0.30299
# Poissons Ratio (z) = 0.07397 0.17523
#
# Static dielectric constant tensor:
#      x y z
#    x 3.658030 0.000000 0.000000 
#    y 0.000000 3.678870 0.000000 
#    z 0.000000 0.000000 4.994460 
# 
# 
# High freq. dielectric constant tensor:
#      x y z
#    x 1.811320 0.000000 0.000000 
#    y 0.000000 1.802640 0.000000 
#    z 0.000000 0.000000 1.862570 
# 
# From -- ./inp_files/1474.got.cif
#   From: 2010.03.12/outbox.cif.g09.slc.cpg/sg60_1_cif.got.tgz:1474.got - 2010.04.10 18:46:24.
