data_PCOD8247981
_publ_section_title
;
Structure prediction by ZEFSAII (Michael W. Deem and Ramdas Pophale) SiO2 
 PCOD8247981
Probable space group: P B C N
;
_chemical_formula_sum "Si O2"
_cell_formula_units_Z 40
_cell_length_a 8.993325
_cell_length_b 23.375500
_cell_length_c 8.362472
_cell_angle_alpha 90.000000
_cell_angle_beta 90.000000
_cell_angle_gamma 90.000000
_cell_volume 1757.987869
_symmetry_space_group_name_H-M "P B C N"
_symmetry_group_IT_number 60
_symmetry_cell_setting 'orthorhombic'
loop_
_space_group_symop_operation_xyz
x,y,z
1/2-x,1/2-y,1/2+z
1/2+x,1/2-y,-z
-x,y,1/2-z
-x,-y,-z
1/2+x,1/2+y,1/2-z
1/2-x,1/2+y,z
x,-y,1/2+z
loop_
_atom_site_type_symbol
_atom_site_label
_atom_site_fract_x
_atom_site_fract_y
_atom_site_fract_z
Si Si1 0.839329 0.950263 0.815367
Si Si2 0.654590 0.760395 0.661791
Si Si3 0.254898 0.666374 0.065035
Si Si4 0.049997 0.651788 0.576583
Si Si5 0.154566 0.465884 0.991042
O O1 0.858231 0.888224 0.899645
O O2 0.704674 0.948262 0.687014
O O3 0.000000 0.968246 0.750000
O O4 0.792130 0.997648 0.943297
O O5 0.500000 0.751805 0.750000
O O6 0.768599 0.789475 0.786206
O O7 0.704036 0.697769 0.601505
O O8 0.651868 0.799779 0.503263
O O9 0.088287 0.642223 0.043879
O O10 0.137592 0.592051 0.593950
O O11 0.000000 0.673509 0.750000
O O12 0.000000 0.500000 0.000000
#
# Coordination Sequence:
#
# PCOD8247981 Si02
#       5
#     8   8   8   8   8
#     4  12  27  46  70 106 149 186 237 309 374 430
#     4  10  23  42  69 102 146 187 244 298 360 435
#     4  11  23  44  69 103 142 190 238 304 362 432
#     4  11  22  41  71 103 134 184 253 293 353 444
#     4  12  24  46  77 102 137 194 248 296 356 441
#
# _framework density 22.753287
#
# number of rings (size 3 to 8) (size 9 to 14) (size 15 to 20)
#    0.000    0.800    4.000    3.600    0.000    4.000 
#    3.600    1.000    0.000    0.000    0.000    0.000 
#    0.000    0.000    0.000    0.000    0.000    0.000 
#
# Total GULP energy -496079.969311 kJ/mol
# GULP energy per Si atom -12401.999233 kJ/mol
# Density = 2.270150 g / cm^3
# Si number density = 22.753287 Si / 1000 Ang^3
#
#
#
# Elastic Constant Matrix: (Units=GPa)
#
#
# Indices 1 2 3 4 5 6 
#
# 1 75.2157 42.7969 8.5556 0.0000 0.0000 0.0000
# 2 42.7969 147.6608 44.3479 0.0000 0.0000 0.0000
# 3 8.5556 44.3479 101.6524 0.0000 0.0000 0.0000
# 4 0.0000 0.0000 0.0000 46.0571 0.0000 0.0000
# 5 0.0000 0.0000 0.0000 0.0000 40.3273 0.0000
# 6 0.0000 0.0000 0.0000 0.0000 0.0000 28.3279
#
#
#
# Elastic Compliance Matrix: (Units=1/GPa)
#
#
# Indices 1 2 3 4 5 6 
#
# 1 0.015974 -0.004863 0.000777 0.000000 0.000000 0.000000
# 2 -0.004863 0.009274 -0.003637 0.000000 0.000000 0.000000
# 3 0.000777 -0.003637 0.011359 0.000000 0.000000 0.000000
# 4 0.000000 0.000000 0.000000 0.021712 0.000000 0.000000
# 5 0.000000 0.000000 0.000000 0.000000 0.024797 0.000000
# 6 0.000000 0.000000 0.000000 0.000000 0.000000 0.035301
#
#
# Mechanical properties :
#
#
# Convention : Reuss Voigt Hill
#
# Bulk Modulus (GPa) = 47.25638 57.32552 52.29095
# Shear Modulus (GPa) = 35.48229 38.19769 36.83999
#
# Velocity S-wave (km/s) = 3.95325 4.10173 4.02818
# Velocity P-wave (km/s) = 6.45382 6.90517 6.68330
#
# Compressibility (1/GPa) = 0.02116116
#
# Stress axis : x y z
#
# Youngs Moduli (GPa) = 62.60273 107.82846 88.03901
#
# Poissons Ratio (x) = 0.52438 -0.06842
# Poissons Ratio (y) = 0.30444 0.32017
# Poissons Ratio (z) = -0.04865 0.39214
#
# Static dielectric constant tensor:
#      x y z
#    x 3.802380 0.000000 0.000000 
#    y 0.000000 4.108540 0.000000 
#    z 0.000000 0.000000 4.112210 
# 
# 
# High freq. dielectric constant tensor:
#      x y z
#    x 1.877790 0.000000 0.000000 
#    y 0.000000 1.905780 0.000000 
#    z 0.000000 0.000000 1.906740 
# 
# From -- ./inp_files/3820.got.cif
#   From: 2010.03.12/outbox.cif.g09.slc.cpg/sg60_2_cif.got.tgz:3820.got - 2010.04.10 18:46:24.
