data_PCOD8247650
_publ_section_title
;
Structure prediction by ZEFSAII (Michael W. Deem and Ramdas Pophale) SiO2 
 PCOD8247650
Probable space group: P B C N
;
_chemical_formula_sum "Si O2"
_cell_formula_units_Z 40
_cell_length_a 9.371367
_cell_length_b 23.956755
_cell_length_c 9.003242
_cell_angle_alpha 90.000000
_cell_angle_beta 90.000000
_cell_angle_gamma 90.000000
_cell_volume 2021.295743
_symmetry_space_group_name_H-M "P B C N"
_symmetry_group_IT_number 60
_symmetry_cell_setting 'orthorhombic'
loop_
_space_group_symop_operation_xyz
x,y,z
1/2-x,1/2-y,1/2+z
1/2+x,1/2-y,-z
-x,y,1/2-z
-x,-y,-z
1/2+x,1/2+y,1/2-z
1/2-x,1/2+y,z
x,-y,1/2+z
loop_
_atom_site_type_symbol
_atom_site_label
_atom_site_fract_x
_atom_site_fract_y
_atom_site_fract_z
Si Si1 0.366382 0.936798 0.042877
Si Si2 0.993423 0.222152 0.080222
Si Si3 0.176572 0.455512 0.386174
Si Si4 0.713927 0.185097 0.926738
Si Si5 0.365888 0.643502 0.850605
O O1 0.537095 0.935904 0.021308
O O2 0.340307 0.955140 0.210568
O O3 0.302011 0.876397 0.002403
O O4 0.287678 0.981257 0.935938
O O5 0.061586 0.283931 0.064731
O O6 0.000000 0.202399 0.250000
O O7 0.092221 0.180829 0.988503
O O8 0.832766 0.220594 0.016032
O O9 0.302128 0.412376 0.423998
O O10 0.754442 0.177978 0.752598
O O11 0.500000 0.626154 0.750000
#
# Coordination Sequence:
#
# PCOD8247650 Si02
#       5
#     8   8   8   8   8
#     4   9  19  34  58  84 112 147 191 231 284 349
#     4  11  23  37  59  87 115 154 194 237 280 339
#     4   9  18  35  59  82 111 150 184 236 289 339
#     4  10  22  38  60  85 118 152 192 231 290 343
#     4   9  20  39  57  82 116 153 190 232 291 351
#
# _framework density 19.789287000000002
#
# number of rings (size 3 to 8) (size 9 to 14) (size 15 to 20)
#    0.000    2.400    0.000    1.200    8.400    1.600 
#    0.000   10.000   13.200    0.000    0.000    0.000 
#    0.000    0.000    0.000    0.000    0.000    0.000 
#
# Total GULP energy -495932.578462 kJ/mol
# GULP energy per Si atom -12398.314462 kJ/mol
# Density = 1.974425 g / cm^3
# Si number density = 19.789287 Si / 1000 Ang^3
#
#
#
# Elastic Constant Matrix: (Units=GPa)
#
#
# Indices 1 2 3 4 5 6 
#
# 1 71.1268 64.5409 26.7720 0.0000 0.0000 0.0000
# 2 64.5409 145.7818 55.9363 0.0000 0.0000 0.0000
# 3 26.7720 55.9363 71.0001 0.0000 0.0000 0.0000
# 4 0.0000 0.0000 0.0000 28.0640 0.0000 0.0000
# 5 0.0000 0.0000 0.0000 0.0000 24.7164 0.0000
# 6 0.0000 0.0000 0.0000 0.0000 0.0000 43.1881
#
#
#
# Elastic Compliance Matrix: (Units=1/GPa)
#
#
# Indices 1 2 3 4 5 6 
#
# 1 0.023545 -0.010058 -0.000954 0.000000 0.000000 0.000000
# 2 -0.010058 0.014128 -0.007338 0.000000 0.000000 0.000000
# 3 -0.000954 -0.007338 0.020225 0.000000 0.000000 0.000000
# 4 0.000000 0.000000 0.000000 0.035633 0.000000 0.000000
# 5 0.000000 0.000000 0.000000 0.000000 0.040459 0.000000
# 6 0.000000 0.000000 0.000000 0.000000 0.000000 0.023155
#
#
# Mechanical properties :
#
#
# Convention : Reuss Voigt Hill
#
# Bulk Modulus (GPa) = 47.17349 64.71190 55.94269
# Shear Modulus (GPa) = 24.88664 28.57101 26.72883
#
# Velocity S-wave (km/s) = 3.55009 3.80381 3.67914
# Velocity P-wave (km/s) = 6.37917 7.21550 6.81018
#
# Compressibility (1/GPa) = 0.02119835
#
# Stress axis : x y z
#
# Youngs Moduli (GPa) = 42.47170 70.78169 49.44272
#
# Poissons Ratio (x) = 0.71191 0.04718
# Poissons Ratio (y) = 0.42717 0.36281
# Poissons Ratio (z) = 0.04053 0.51939
#
# Static dielectric constant tensor:
#      x y z
#    x 3.727680 0.000000 0.000000 
#    y 0.000000 3.644190 0.000000 
#    z 0.000000 0.000000 3.507070 
# 
# 
# High freq. dielectric constant tensor:
#      x y z
#    x 1.769650 0.000000 0.000000 
#    y 0.000000 1.772770 0.000000 
#    z 0.000000 0.000000 1.758760 
# 
# From -- ./inp_files/3996.got.cif
#   From: 2010.03.12/outbox.cif.g09.slc.cpg/sg60_2_cif.got.tgz:3996.got - 2010.04.10 18:46:24.
