data_PCOD8247213
_publ_section_title
;
Structure prediction by ZEFSAII (Michael W. Deem and Ramdas Pophale) SiO2 
 PCOD8247213
Probable space group: P B C N
;
_chemical_formula_sum "Si O2"
_cell_formula_units_Z 56
_cell_length_a 17.640446
_cell_length_b 16.865649
_cell_length_c 9.531629
_cell_angle_alpha 90.000000
_cell_angle_beta 90.000000
_cell_angle_gamma 90.000000
_cell_volume 2835.827102
_symmetry_space_group_name_H-M "P B C N"
_symmetry_group_IT_number 60
_symmetry_cell_setting 'orthorhombic'
loop_
_space_group_symop_operation_xyz
x,y,z
1/2-x,1/2-y,1/2+z
1/2+x,1/2-y,-z
-x,y,1/2-z
-x,-y,-z
1/2+x,1/2+y,1/2-z
1/2-x,1/2+y,z
x,-y,1/2+z
loop_
_atom_site_type_symbol
_atom_site_label
_atom_site_fract_x
_atom_site_fract_y
_atom_site_fract_z
Si Si1 0.641435 0.751644 0.843543
Si Si2 0.568789 0.883613 0.660685
Si Si3 0.931216 0.616426 0.839305
Si Si4 0.306977 0.000016 0.249967
Si Si5 0.713604 0.640612 0.350611
Si Si6 0.713539 0.640489 0.649471
Si Si7 0.141452 0.251694 0.343519
O O1 0.587386 0.801764 0.740983
O O2 0.721296 0.794066 0.857044
O O3 0.655410 0.664494 0.773966
O O4 0.605743 0.741379 0.000020
O O5 0.500000 0.922578 0.750000
O O6 0.544349 0.866575 0.500005
O O7 0.639782 0.943767 0.655015
O O8 0.860175 0.556333 0.844876
O O9 0.912691 0.698319 0.759083
O O10 0.000000 0.577437 0.750000
O O11 0.251048 0.945829 0.339911
O O12 0.251338 0.054396 0.159792
O O13 0.669876 0.642402 0.500007
O O14 0.655535 0.664533 0.225967
O O15 0.778826 0.705604 0.642986
#
# Coordination Sequence:
#
# PCOD8247213 Si02
#       7
#     8   8   8   8   8   8   8
#     4   9  18  32  49  69  94 128 170 211 251 296
#     4  11  22  35  51  72 102 139 175 210 249 298
#     4  11  22  35  51  72 102 139 175 210 249 298
#     4  10  21  32  50  76 107 138 168 204 252 304
#     4   9  17  30  48  70  97 129 166 208 252 298
#     4   9  17  30  48  70  97 129 166 208 252 298
#     4   9  18  32  49  69  94 128 170 211 251 296
#
# _framework density 19.747326000000001
#
# number of rings (size 3 to 8) (size 9 to 14) (size 15 to 20)
#    0.000    2.286    0.000    3.000    0.000   12.571 
#    0.000    0.000    0.000    0.000    0.000    1.000 
#    0.000    6.857    0.000    0.000    0.000    0.000 
#
# Total GULP energy -693786.165000 kJ/mol
# GULP energy per Si atom -12389.038661 kJ/mol
# Density = 1.970238 g / cm^3
# Si number density = 19.747326 Si / 1000 Ang^3
#
#
#
# Elastic Constant Matrix: (Units=GPa)
#
#
# Indices 1 2 3 4 5 6 
#
# 1 27.2460 37.4498 30.8480 0.0000 0.0000 0.0000
# 2 37.4498 95.5347 56.8764 0.0000 0.0000 0.0000
# 3 30.8480 56.8764 195.5833 0.0000 0.0000 0.0000
# 4 0.0000 0.0000 0.0000 5.4579 0.0000 0.0000
# 5 0.0000 0.0000 0.0000 0.0000 11.0137 0.0000
# 6 0.0000 0.0000 0.0000 0.0000 0.0000 20.0823
#
#
#
# Elastic Compliance Matrix: (Units=1/GPa)
#
#
# Indices 1 2 3 4 5 6 
#
# 1 0.082554 -0.029762 -0.004366 0.000000 0.000000 0.000000
# 2 -0.029762 0.023389 -0.002107 0.000000 0.000000 0.000000
# 3 -0.004366 -0.002107 0.006414 0.000000 0.000000 0.000000
# 4 0.000000 0.000000 0.000000 0.183220 0.000000 0.000000
# 5 0.000000 0.000000 0.000000 0.000000 0.090796 0.000000
# 6 0.000000 0.000000 0.000000 0.000000 0.000000 0.049795
#
#
# Mechanical properties :
#
#
# Convention : Reuss Voigt Hill
#
# Bulk Modulus (GPa) = 25.07119 63.19029 44.13074
# Shear Modulus (GPa) = 9.57976 20.19010 14.88493
#
# Velocity S-wave (km/s) = 2.20493 3.20100 2.74846
# Velocity P-wave (km/s) = 4.38244 6.76245 5.69810
#
# Compressibility (1/GPa) = 0.03988642
#
# Stress axis : x y z
#
# Youngs Moduli (GPa) = 12.11334 42.75539 155.90124
#
# Poissons Ratio (x) = 1.27249 0.68061
# Poissons Ratio (y) = 0.36052 0.32855
# Poissons Ratio (z) = 0.05288 0.09010
#
# Static dielectric constant tensor:
#      x y z
#    x 3.255840 0.000000 0.000000 
#    y 0.000000 3.546830 0.000000 
#    z 0.000000 0.000000 3.869280 
# 
# 
# High freq. dielectric constant tensor:
#      x y z
#    x 1.717300 0.000000 0.000000 
#    y 0.000000 1.747340 0.000000 
#    z 0.000000 0.000000 1.786460 
# 
# From -- ./inp_files/6965.got.cif
#   From: 2010.03.12/outbox.cif.g09.slc.cpg/sg60_4_cif.got.tgz:6965.got - 2010.04.10 18:46:24.
