data_PCOD8247707
_publ_section_title
;
Structure prediction by ZEFSAII (Michael W. Deem and Ramdas Pophale) SiO2 
 PCOD8247707
Probable space group: P B C N
;
_chemical_formula_sum "Si O2"
_cell_formula_units_Z 52
_cell_length_a 28.015759
_cell_length_b 10.505828
_cell_length_c 8.783672
_cell_angle_alpha 90.000000
_cell_angle_beta 90.000000
_cell_angle_gamma 90.000000
_cell_volume 2585.287159
_symmetry_space_group_name_H-M "P B C N"
_symmetry_group_IT_number 60
_symmetry_cell_setting 'orthorhombic'
loop_
_space_group_symop_operation_xyz
x,y,z
1/2-x,1/2-y,1/2+z
1/2+x,1/2-y,-z
-x,y,1/2-z
-x,-y,-z
1/2+x,1/2+y,1/2-z
1/2-x,1/2+y,z
x,-y,1/2+z
loop_
_atom_site_type_symbol
_atom_site_label
_atom_site_fract_x
_atom_site_fract_y
_atom_site_fract_z
Si Si1 0.145327 0.010457 0.365863
Si Si2 0.000000 0.456413 0.750000
Si Si3 0.309502 0.667942 0.614932
Si Si4 0.881158 0.172389 0.393610
Si Si5 0.299458 0.848867 0.154884
Si Si6 0.659894 0.924639 0.017163
Si Si7 0.564729 0.086764 0.992715
O O1 0.110549 0.936976 0.481332
O O2 0.186299 0.086209 0.459331
O O3 0.168176 0.908757 0.253359
O O4 0.112791 0.111620 0.274190
O O5 0.960103 0.377557 0.655152
O O6 0.025729 0.541721 0.625721
O O7 0.255067 0.694332 0.660846
O O8 0.337211 0.802133 0.594332
O O9 0.827275 0.226653 0.411415
O O10 0.917860 0.284514 0.416354
O O11 0.322901 0.884954 0.316072
O O12 0.303992 0.968470 0.042834
O O13 0.606137 0.981292 0.019415
#
# Coordination Sequence:
#
# PCOD8247707 Si02
#       7
#     8   4   8   8   8   8   8
#     4  10  23  39  56  86 115 179 200 257 291 363
#     4  10  22  40  72 100 120 148 192 274 336 398
#     4  11  24  37  58  84 125 169 223 250 300 353
#     4  10  22  40  60  86 127 160 214 250 307 379
#     4  11  24  36  57  88 125 168 216 266 301 349
#     4  11  24  39  62  90 126 171 205 270 307 373
#     4  10  22  42  67 101 121 154 204 261 340 378
#
# _framework density 20.11382
#
# number of rings (size 3 to 8) (size 9 to 14) (size 15 to 20)
#    0.000    1.538    1.538    2.769   12.923    0.000 
#    0.000    0.000    0.000    2.769    0.000    0.000 
#    0.000    0.000    0.000    0.000    0.000    0.000 
#
# Total GULP energy -644636.964623 kJ/mol
# GULP energy per Si atom -12396.864704 kJ/mol
# Density = 2.006804 g / cm^3
# Si number density = 20.113820 Si / 1000 Ang^3
#
#
#
# Elastic Constant Matrix: (Units=GPa)
#
#
# Indices 1 2 3 4 5 6 
#
# 1 80.5558 22.2902 30.8628 0.0000 0.0000 0.0000
# 2 22.2902 97.4469 34.2051 0.0000 0.0000 0.0000
# 3 30.8628 34.2051 110.3086 0.0000 0.0000 0.0000
# 4 0.0000 0.0000 0.0000 27.6058 0.0000 0.0000
# 5 0.0000 0.0000 0.0000 0.0000 29.0121 0.0000
# 6 0.0000 0.0000 0.0000 0.0000 0.0000 9.3515
#
#
#
# Elastic Compliance Matrix: (Units=1/GPa)
#
#
# Indices 1 2 3 4 5 6 
#
# 1 0.014274 -0.002091 -0.003345 0.000000 0.000000 0.000000
# 2 -0.002091 0.011822 -0.003081 0.000000 0.000000 0.000000
# 3 -0.003345 -0.003081 0.010957 0.000000 0.000000 0.000000
# 4 0.000000 0.000000 0.000000 0.036224 0.000000 0.000000
# 5 0.000000 0.000000 0.000000 0.000000 0.034468 0.000000
# 6 0.000000 0.000000 0.000000 0.000000 0.000000 0.106935
#
#
# Mechanical properties :
#
#
# Convention : Reuss Voigt Hill
#
# Bulk Modulus (GPa) = 49.95354 51.44751 50.70052
# Shear Modulus (GPa) = 20.97436 26.59074 23.78255
#
# Velocity S-wave (km/s) = 3.23272 3.63989 3.44233
# Velocity P-wave (km/s) = 6.23084 6.58018 6.40789
#
# Compressibility (1/GPa) = 0.02001860
#
# Stress axis : x y z
#
# Youngs Moduli (GPa) = 70.05758 84.59066 91.26789
#
# Poissons Ratio (x) = 0.17686 0.30532
# Poissons Ratio (y) = 0.14648 0.28117
# Poissons Ratio (z) = 0.23437 0.26060
#
# Static dielectric constant tensor:
#      x y z
#    x 3.544300 0.000000 0.000000 
#    y 0.000000 3.846040 0.000000 
#    z 0.000000 0.000000 4.031560 
# 
# 
# High freq. dielectric constant tensor:
#      x y z
#    x 1.754950 0.000000 0.000000 
#    y 0.000000 1.790700 0.000000 
#    z 0.000000 0.000000 1.808880 
# 
# From -- ./inp_files/8144.got.cif
#   From: 2010.03.12/outbox.cif.g09.slc.cpg/sg60_5_cif.got.tgz:8144.got - 2010.04.10 18:46:24.
