data_PCOD8247714
_publ_section_title
;
Structure prediction by ZEFSAII (Michael W. Deem and Ramdas Pophale) SiO2 
 PCOD8247714
Probable space group: P B C N
;
_chemical_formula_sum "Si O2"
_cell_formula_units_Z 24
_cell_length_a 8.531761
_cell_length_b 26.749759
_cell_length_c 4.853432
_cell_angle_alpha 90.000000
_cell_angle_beta 90.000000
_cell_angle_gamma 90.000000
_cell_volume 1107.662630
_symmetry_space_group_name_H-M "P B C N"
_symmetry_group_IT_number 60
_symmetry_cell_setting 'orthorhombic'
loop_
_space_group_symop_operation_xyz
x,y,z
1/2-x,1/2-y,1/2+z
1/2+x,1/2-y,-z
-x,y,1/2-z
-x,-y,-z
1/2+x,1/2+y,1/2-z
1/2-x,1/2+y,z
x,-y,1/2+z
loop_
_atom_site_type_symbol
_atom_site_label
_atom_site_fract_x
_atom_site_fract_y
_atom_site_fract_z
Si Si1 0.326131 0.773980 0.352261
Si Si2 0.894673 0.618857 0.500343
Si Si3 0.318533 0.467637 0.741290
O O1 0.302499 0.745453 0.638450
O O2 0.500000 0.761658 0.250000
O O3 0.299480 0.833575 0.385600
O O4 0.779409 0.578607 0.368207
O O5 0.000000 0.639113 0.250000
O O6 0.000000 0.595959 0.750000
O O7 0.500000 0.452187 0.750000
O O8 0.277773 0.515838 0.551504
#
# Coordination Sequence:
#
# PCOD8247714 Si02
#       3
#     8   8   8
#     4  11  23  42  64  91 126 163 206 256 309 367
#     4  11  23  40  62  91 124 159 205 255 304 364
#     4  10  22  40  61  88 123 160 202 251 302 362
#
# _framework density 21.667244
#
# number of rings (size 3 to 8) (size 9 to 14) (size 15 to 20)
#    0.000    1.333    0.000    7.000    0.000    5.333 
#    0.000   13.333    0.000    0.000    0.000    0.000 
#    0.000    0.000    0.000    0.000    0.000    0.000 
#
# Total GULP energy -297586.407567 kJ/mol
# GULP energy per Si atom -12399.433649 kJ/mol
# Density = 2.161793 g / cm^3
# Si number density = 21.667244 Si / 1000 Ang^3
#
#
#
# Elastic Constant Matrix: (Units=GPa)
#
#
# Indices 1 2 3 4 5 6 
#
# 1 82.5323 66.3090 30.5408 0.0000 0.0000 0.0000
# 2 66.3090 120.0968 24.5281 0.0000 0.0000 0.0000
# 3 30.5408 24.5281 105.1625 0.0000 0.0000 0.0000
# 4 0.0000 0.0000 0.0000 58.0305 0.0000 0.0000
# 5 0.0000 0.0000 0.0000 0.0000 49.3456 0.0000
# 6 0.0000 0.0000 0.0000 0.0000 0.0000 19.9554
#
#
#
# Elastic Compliance Matrix: (Units=1/GPa)
#
#
# Indices 1 2 3 4 5 6 
#
# 1 0.023236 -0.012024 -0.003944 0.000000 0.000000 0.000000
# 2 -0.012024 0.014965 0.000001 0.000000 0.000000 0.000000
# 3 -0.003944 0.000001 0.010654 0.000000 0.000000 0.000000
# 4 0.000000 0.000000 0.000000 0.017232 0.000000 0.000000
# 5 0.000000 0.000000 0.000000 0.000000 0.020265 0.000000
# 6 0.000000 0.000000 0.000000 0.000000 0.000000 0.050112
#
#
# Mechanical properties :
#
#
# Convention : Reuss Voigt Hill
#
# Bulk Modulus (GPa) = 59.09103 61.17195 60.13149
# Shear Modulus (GPa) = 28.72934 37.89388 33.31161
#
# Velocity S-wave (km/s) = 3.64529 4.18652 3.92525
# Velocity P-wave (km/s) = 6.71184 7.18770 6.95384
#
# Compressibility (1/GPa) = 0.01692304
#
# Stress axis : x y z
#
# Youngs Moduli (GPa) = 43.03619 66.82205 93.86098
#
# Poissons Ratio (x) = 0.80347 0.37016
# Poissons Ratio (y) = 0.51747 -0.00014
# Poissons Ratio (z) = 0.16972 -0.00010
#
# Static dielectric constant tensor:
#      x y z
#    x 3.796510 0.000000 0.000000 
#    y 0.000000 3.639880 0.000000 
#    z 0.000000 0.000000 4.441150 
# 
# 
# High freq. dielectric constant tensor:
#      x y z
#    x 1.840830 0.000000 0.000000 
#    y 0.000000 1.842880 0.000000 
#    z 0.000000 0.000000 1.883440 
# 
# From -- ./inp_files/212.got.cif
#   From: 2010.03.12/outbox.cif.g09.slc.cpg/sg60_1_cif.got.tgz:212.got - 2010.04.10 18:46:24.
