data_PCOD8247352
_publ_section_title
;
Structure prediction by ZEFSAII (Michael W. Deem and Ramdas Pophale) SiO2 
 PCOD8247352
Probable space group: P B C N
;
_chemical_formula_sum "Si O2"
_cell_formula_units_Z 40
_cell_length_a 23.467710
_cell_length_b 5.660358
_cell_length_c 13.127341
_cell_angle_alpha 90.000000
_cell_angle_beta 90.000000
_cell_angle_gamma 90.000000
_cell_volume 1743.778744
_symmetry_space_group_name_H-M "P B C N"
_symmetry_group_IT_number 60
_symmetry_cell_setting 'orthorhombic'
loop_
_space_group_symop_operation_xyz
x,y,z
1/2-x,1/2-y,1/2+z
1/2+x,1/2-y,-z
-x,y,1/2-z
-x,-y,-z
1/2+x,1/2+y,1/2-z
1/2-x,1/2+y,z
x,-y,1/2+z
loop_
_atom_site_type_symbol
_atom_site_label
_atom_site_fract_x
_atom_site_fract_y
_atom_site_fract_z
Si Si1 0.782732 0.219889 0.764582
Si Si2 0.940054 0.548696 0.711804
Si Si3 0.858398 0.745120 0.075853
Si Si4 0.057153 0.873151 0.967629
Si Si5 0.873417 0.566953 0.396519
O O1 0.749707 0.471481 0.782049
O O2 0.804404 0.211986 0.648059
O O3 0.833695 0.230291 0.846817
O O4 0.911335 0.359050 0.638424
O O5 0.951032 0.786659 0.648338
O O6 0.897351 0.602426 0.806285
O O7 0.000000 0.444541 0.750000
O O8 0.883963 0.981439 0.027853
O O9 0.838423 0.579698 0.981732
O O10 0.069616 0.669172 0.049922
O O11 0.000000 0.000000 0.000000
#
# Coordination Sequence:
#
# PCOD8247352 Si02
#       5
#     8   8   8   8   8
#     4  11  28  47  73 102 137 184 243 297 359 414
#     4  10  21  38  62  96 139 177 225 280 349 432
#     4  10  24  42  67  96 139 175 232 295 351 423
#     4  11  23  40  69 103 139 184 230 283 361 432
#     4  10  24  43  67  97 137 180 231 295 356 424
#
# _framework density 22.938692
#
# number of rings (size 3 to 8) (size 9 to 14) (size 15 to 20)
#    0.000    1.600    0.000    2.400   11.200   10.400 
#    0.000    0.000    0.000    0.000    0.000    0.000 
#    0.000    0.000    0.000    0.000    0.000    0.000 
#
# Total GULP energy -495759.647388 kJ/mol
# GULP energy per Si atom -12393.991185 kJ/mol
# Density = 2.288648 g / cm^3
# Si number density = 22.938692 Si / 1000 Ang^3
#
#
#
# Elastic Constant Matrix: (Units=GPa)
#
#
# Indices 1 2 3 4 5 6 
#
# 1 74.4778 19.0988 32.1372 0.0000 0.0000 0.0000
# 2 19.0988 82.5142 27.8671 0.0000 0.0000 0.0000
# 3 32.1372 27.8671 137.0710 0.0000 0.0000 0.0000
# 4 0.0000 0.0000 0.0000 23.1539 0.0000 0.0000
# 5 0.0000 0.0000 0.0000 0.0000 39.1835 0.0000
# 6 0.0000 0.0000 0.0000 0.0000 0.0000 39.0160
#
#
#
# Elastic Compliance Matrix: (Units=1/GPa)
#
#
# Indices 1 2 3 4 5 6 
#
# 1 0.015411 -0.002520 -0.003101 0.000000 0.000000 0.000000
# 2 -0.002520 0.013425 -0.002138 0.000000 0.000000 0.000000
# 3 -0.003101 -0.002138 0.008457 0.000000 0.000000 0.000000
# 4 0.000000 0.000000 0.000000 0.043189 0.000000 0.000000
# 5 0.000000 0.000000 0.000000 0.000000 0.025521 0.000000
# 6 0.000000 0.000000 0.000000 0.000000 0.000000 0.025631
#
#
# Mechanical properties :
#
#
# Convention : Reuss Voigt Hill
#
# Bulk Modulus (GPa) = 45.92533 50.25213 48.08873
# Shear Modulus (GPa) = 32.38129 34.60134 33.49132
#
# Velocity S-wave (km/s) = 3.76126 3.88806 3.82519
# Velocity P-wave (km/s) = 6.23916 6.48928 6.36545
#
# Compressibility (1/GPa) = 0.02177448
#
# Stress axis : x y z
#
# Youngs Moduli (GPa) = 64.88855 74.49030 118.24124
#
# Poissons Ratio (x) = 0.18770 0.36666
# Poissons Ratio (y) = 0.16351 0.25286
# Poissons Ratio (z) = 0.20122 0.15930
#
# Static dielectric constant tensor:
#      x y z
#    x 3.940390 0.000000 0.000000 
#    y 0.000000 3.953180 0.000000 
#    z 0.000000 0.000000 4.496340 
# 
# 
# High freq. dielectric constant tensor:
#      x y z
#    x 1.895580 0.000000 0.000000 
#    y 0.000000 1.889270 0.000000 
#    z 0.000000 0.000000 1.931320 
# 
# From -- ./inp_files/13196.got.cif
#   From: 2010.03.12/outbox.cif.g09.slc.cpg/sg60_7_cif.got.tgz:13196.got - 2010.04.10 18:46:24.
