data_PCOD8247402
_publ_section_title
;
Structure prediction by ZEFSAII (Michael W. Deem and Ramdas Pophale) SiO2 
 PCOD8247402
Probable space group: P B C N
;
_chemical_formula_sum "Si O2"
_cell_formula_units_Z 40
_cell_length_a 19.176749
_cell_length_b 5.063897
_cell_length_c 17.345143
_cell_angle_alpha 90.000000
_cell_angle_beta 90.000000
_cell_angle_gamma 90.000000
_cell_volume 1684.370909
_symmetry_space_group_name_H-M "P B C N"
_symmetry_group_IT_number 60
_symmetry_cell_setting 'orthorhombic'
loop_
_space_group_symop_operation_xyz
x,y,z
1/2-x,1/2-y,1/2+z
1/2+x,1/2-y,-z
-x,y,1/2-z
-x,-y,-z
1/2+x,1/2+y,1/2-z
1/2-x,1/2+y,z
x,-y,1/2+z
loop_
_atom_site_type_symbol
_atom_site_label
_atom_site_fract_x
_atom_site_fract_y
_atom_site_fract_z
Si Si1 0.794284 0.746190 0.760573
Si Si2 0.704365 0.739991 0.081466
Si Si3 0.416985 0.171885 0.624187
Si Si4 0.502996 0.327887 0.339251
Si Si5 0.078660 0.070024 0.972673
O O1 0.751612 0.492068 0.784594
O O2 0.815037 0.765849 0.671444
O O3 0.862602 0.747059 0.811009
O O4 0.764440 0.525379 0.060145
O O5 0.632806 0.674468 0.035536
O O6 0.480965 0.363968 0.646917
O O7 0.390018 0.233139 0.537411
O O8 0.438271 0.865073 0.625409
O O9 0.500000 0.252937 0.250000
O O10 0.430700 0.284308 0.388431
O O11 0.000000 0.000000 0.000000
#
# Coordination Sequence:
#
# PCOD8247402 Si02
#       5
#     8   8   8   8   8
#     4  10  21  39  62  90 124 167 216 265 319 390
#     4  10  23  41  65  93 127 172 221 271 330 400
#     4  11  23  39  61  92 125 163 210 268 327 384
#     4  11  23  40  63  90 123 167 213 264 321 389
#     4  10  24  43  65  97 136 173 219 276 339 403
#
# _framework density 23.747738999999999
#
# number of rings (size 3 to 8) (size 9 to 14) (size 15 to 20)
#    0.000    1.600    0.000    3.600    0.000   12.800 
#    0.000    0.000    0.000    0.000    0.000    0.000 
#    0.000    0.000    0.000    0.000    0.000    0.000 
#
# Total GULP energy -495716.499834 kJ/mol
# GULP energy per Si atom -12392.912496 kJ/mol
# Density = 2.369369 g / cm^3
# Si number density = 23.747739 Si / 1000 Ang^3
#
#
#
# Elastic Constant Matrix: (Units=GPa)
#
#
# Indices 1 2 3 4 5 6 
#
# 1 75.7426 4.3403 9.3219 0.0000 0.0000 0.0000
# 2 4.3403 87.8567 -1.5857 0.0000 0.0000 0.0000
# 3 9.3219 -1.5857 67.7536 0.0000 0.0000 0.0000
# 4 0.0000 0.0000 0.0000 18.3196 0.0000 0.0000
# 5 0.0000 0.0000 0.0000 0.0000 51.8352 0.0000
# 6 0.0000 0.0000 0.0000 0.0000 0.0000 29.5678
#
#
#
# Elastic Compliance Matrix: (Units=1/GPa)
#
#
# Indices 1 2 3 4 5 6 
#
# 1 0.013473 -0.000699 -0.001870 0.000000 0.000000 0.000000
# 2 -0.000699 0.011423 0.000364 0.000000 0.000000 0.000000
# 3 -0.001870 0.000364 0.015025 0.000000 0.000000 0.000000
# 4 0.000000 0.000000 0.000000 0.054586 0.000000 0.000000
# 5 0.000000 0.000000 0.000000 0.000000 0.019292 0.000000
# 6 0.000000 0.000000 0.000000 0.000000 0.000000 0.033821
#
#
# Mechanical properties :
#
#
# Convention : Reuss Voigt Hill
#
# Bulk Modulus (GPa) = 28.16136 28.38956 28.27546
# Shear Modulus (GPa) = 30.51233 34.56295 32.53764
#
# Velocity S-wave (km/s) = 3.58837 3.81914 3.70555
# Velocity P-wave (km/s) = 5.39007 5.60610 5.49914
#
# Compressibility (1/GPa) = 0.03550965
#
# Stress axis : x y z
#
# Youngs Moduli (GPa) = 74.22338 87.54048 66.55506
#
# Poissons Ratio (x) = 0.06122 0.12446
# Poissons Ratio (y) = 0.05191 -0.02420
# Poissons Ratio (z) = 0.13880 -0.03183
#
# Static dielectric constant tensor:
#      x y z
#    x 4.117880 0.000000 0.000000 
#    y 0.000000 4.223820 0.000000 
#    z 0.000000 0.000000 4.910440 
# 
# 
# High freq. dielectric constant tensor:
#      x y z
#    x 1.926470 0.000000 0.000000 
#    y 0.000000 1.941180 0.000000 
#    z 0.000000 0.000000 1.958300 
# 
# From -- ./inp_files/20733.got.cif
#   From: 2010.03.12/outbox.cif.g09.slc.cpg/sg60_11_cif.got.tgz:20733.got - 2010.04.10 18:46:24.
