data_PCOD8247354
_publ_section_title
;
Structure prediction by ZEFSAII (Michael W. Deem and Ramdas Pophale) SiO2 
 PCOD8247354
Probable space group: P B C N
;
_chemical_formula_sum "Si O2"
_cell_formula_units_Z 40
_cell_length_a 8.119519
_cell_length_b 24.132463
_cell_length_c 9.268701
_cell_angle_alpha 90.000000
_cell_angle_beta 90.000000
_cell_angle_gamma 90.000000
_cell_volume 1816.146273
_symmetry_space_group_name_H-M "P B C N"
_symmetry_group_IT_number 60
_symmetry_cell_setting 'orthorhombic'
loop_
_space_group_symop_operation_xyz
x,y,z
1/2-x,1/2-y,1/2+z
1/2+x,1/2-y,-z
-x,y,1/2-z
-x,-y,-z
1/2+x,1/2+y,1/2-z
1/2-x,1/2+y,z
x,-y,1/2+z
loop_
_atom_site_type_symbol
_atom_site_label
_atom_site_fract_x
_atom_site_fract_y
_atom_site_fract_z
Si Si1 0.272514 0.218054 0.878615
Si Si2 0.148282 0.891284 0.451227
Si Si3 0.797322 0.081374 0.875460
Si Si4 0.646595 0.190386 0.933821
Si Si5 0.614598 0.971129 0.885340
O O1 0.154652 0.175470 0.968864
O O2 0.456512 0.202985 0.922752
O O3 0.253258 0.213164 0.705789
O O4 0.223985 0.279925 0.926073
O O5 0.194540 0.897978 0.286006
O O6 0.282162 0.918813 0.557502
O O7 0.964413 0.915304 0.471402
O O8 0.667779 0.123370 0.952241
O O9 0.748590 0.018013 0.853496
O O10 0.500000 0.953719 0.750000
O O11 0.500000 0.000000 0.000000
#
# Coordination Sequence:
#
# PCOD8247354 Si02
#       5
#     8   8   8   8   8
#     4  10  21  39  62  89 122 156 206 248 309 365
#     4  10  21  40  62  90 123 161 206 254 310 372
#     4  10  21  39  65  87 122 165 204 250 314 375
#     4  10  21  38  63  89 120 161 199 253 303 371
#     4  12  23  40  63  90 123 159 206 252 306 370
#
# _framework density 22.024657999999999
#
# number of rings (size 3 to 8) (size 9 to 14) (size 15 to 20)
#    0.000    1.600    2.000    3.000    2.800    2.400 
#    7.200    0.000    0.000    0.000    0.000    0.000 
#    0.000    0.000    0.000    0.000    0.000    0.000 
#
# Total GULP energy -495699.446957 kJ/mol
# GULP energy per Si atom -12392.486174 kJ/mol
# Density = 2.197453 g / cm^3
# Si number density = 22.024658 Si / 1000 Ang^3
#
#
#
# Elastic Constant Matrix: (Units=GPa)
#
#
# Indices 1 2 3 4 5 6 
#
# 1 78.1836 5.5768 21.4701 0.0000 0.0000 0.0000
# 2 5.5768 79.5159 8.7857 0.0000 0.0000 0.0000
# 3 21.4701 8.7857 68.5906 0.0000 0.0000 0.0000
# 4 0.0000 0.0000 0.0000 27.3664 0.0000 0.0000
# 5 0.0000 0.0000 0.0000 0.0000 34.4897 0.0000
# 6 0.0000 0.0000 0.0000 0.0000 0.0000 29.8833
#
#
#
# Elastic Compliance Matrix: (Units=1/GPa)
#
#
# Indices 1 2 3 4 5 6 
#
# 1 0.014013 -0.000505 -0.004322 0.000000 0.000000 0.000000
# 2 -0.000505 0.012775 -0.001478 0.000000 0.000000 0.000000
# 3 -0.004322 -0.001478 0.016121 0.000000 0.000000 0.000000
# 4 0.000000 0.000000 0.000000 0.036541 0.000000 0.000000
# 5 0.000000 0.000000 0.000000 0.000000 0.028994 0.000000
# 6 0.000000 0.000000 0.000000 0.000000 0.000000 0.033464
#
#
# Mechanical properties :
#
#
# Convention : Reuss Voigt Hill
#
# Bulk Modulus (GPa) = 33.00416 33.10613 33.05515
# Shear Modulus (GPa) = 30.37330 31.04504 30.70917
#
# Velocity S-wave (km/s) = 3.71760 3.75848 3.73810
# Velocity P-wave (km/s) = 5.78316 5.82228 5.80276
#
# Compressibility (1/GPa) = 0.03029921
#
# Stress axis : x y z
#
# Youngs Moduli (GPa) = 71.36109 78.27871 62.02949
#
# Poissons Ratio (x) = 0.03956 0.26807
# Poissons Ratio (y) = 0.03606 0.09169
# Poissons Ratio (z) = 0.30840 0.11571
#
# Static dielectric constant tensor:
#      x y z
#    x 4.082000 0.000000 0.000000 
#    y 0.000000 -3.432520 0.000000 
#    z 0.000000 0.000000 3.906350 
# 
# 
# High freq. dielectric constant tensor:
#      x y z
#    x 1.874530 0.000000 0.000000 
#    y 0.000000 1.872060 0.000000 
#    z 0.000000 0.000000 1.840360 
# 
# From -- ./inp_files/3866.got.cif
#   From: 2010.03.12/outbox.cif.g09.slc.cpg/sg60_2_cif.got.tgz:3866.got - 2010.04.10 18:46:24.
