data_PCOD8247443
_publ_section_title
;
Structure prediction by ZEFSAII (Michael W. Deem and Ramdas Pophale) SiO2 
 PCOD8247443
Probable space group: P B C N
;
_chemical_formula_sum "Si O2"
_cell_formula_units_Z 28
_cell_length_a 5.310859
_cell_length_b 28.296033
_cell_length_c 7.452330
_cell_angle_alpha 90.000000
_cell_angle_beta 90.000000
_cell_angle_gamma 90.000000
_cell_volume 1119.908143
_symmetry_space_group_name_H-M "P B C N"
_symmetry_group_IT_number 60
_symmetry_cell_setting 'orthorhombic'
loop_
_space_group_symop_operation_xyz
x,y,z
1/2-x,1/2-y,1/2+z
1/2+x,1/2-y,-z
-x,y,1/2-z
-x,-y,-z
1/2+x,1/2+y,1/2-z
1/2-x,1/2+y,z
x,-y,1/2+z
loop_
_atom_site_type_symbol
_atom_site_label
_atom_site_fract_x
_atom_site_fract_y
_atom_site_fract_z
Si Si1 0.514078 0.098114 0.052979
Si Si2 0.490144 0.554873 0.040275
Si Si3 0.197464 0.188143 0.393079
Si Si4 0.500000 0.728228 0.750000
O O1 0.500000 0.074411 0.250000
O O2 0.759552 0.077560 0.950236
O O3 0.556055 0.154910 0.075222
O O4 0.255132 0.081825 0.955063
O O5 0.500000 0.565182 0.250000
O O6 0.500000 0.500000 0.000000
O O7 0.269461 0.238822 0.311884
O O8 0.000000 0.164330 0.250000
O O9 0.071797 0.194491 0.586350
#
# Coordination Sequence:
#
# PCOD8247443 Si02
#       4
#     8   8   8   4
#     4  10  21  39  70  97 131 184 229 284 359 434
#     4  10  21  40  68  96 131 176 225 283 362 433
#     4  12  24  44  70 103 146 190 250 305 368 436
#     4  12  26  42  72 104 140 200 252 308 370 442
#
# _framework density 25.002050000000001
#
# number of rings (size 3 to 8) (size 9 to 14) (size 15 to 20)
#    0.000    1.143    4.286    3.429    0.000    0.000 
#    2.571    0.000   12.571    0.000    0.000    0.000 
#    0.000    0.000    0.000    0.000    0.000    0.000 
#
# Total GULP energy -347016.406938 kJ/mol
# GULP energy per Si atom -12393.443105 kJ/mol
# Density = 2.494514 g / cm^3
# Si number density = 25.002050 Si / 1000 Ang^3
#
#
#
# Elastic Constant Matrix: (Units=GPa)
#
#
# Indices 1 2 3 4 5 6 
#
# 1 213.3019 71.1020 36.1711 0.0000 0.0000 0.0000
# 2 71.1020 135.9494 23.3319 0.0000 0.0000 0.0000
# 3 36.1711 23.3319 102.7283 0.0000 0.0000 0.0000
# 4 0.0000 0.0000 0.0000 21.3014 0.0000 0.0000
# 5 0.0000 0.0000 0.0000 0.0000 17.0720 0.0000
# 6 0.0000 0.0000 0.0000 0.0000 0.0000 58.8260
#
#
#
# Elastic Compliance Matrix: (Units=1/GPa)
#
#
# Indices 1 2 3 4 5 6 
#
# 1 0.005872 -0.002826 -0.001426 0.000000 0.000000 0.000000
# 2 -0.002826 0.009015 -0.001052 0.000000 0.000000 0.000000
# 3 -0.001426 -0.001052 0.010475 0.000000 0.000000 0.000000
# 4 0.000000 0.000000 0.000000 0.046945 0.000000 0.000000
# 5 0.000000 0.000000 0.000000 0.000000 0.058576 0.000000
# 6 0.000000 0.000000 0.000000 0.000000 0.000000 0.016999
#
#
# Mechanical properties :
#
#
# Convention : Reuss Voigt Hill
#
# Bulk Modulus (GPa) = 67.78100 79.24330 73.51215
# Shear Modulus (GPa) = 30.59818 40.86485 35.73151
#
# Velocity S-wave (km/s) = 3.50212 4.04723 3.78450
# Velocity P-wave (km/s) = 6.59713 7.32145 6.96871
#
# Compressibility (1/GPa) = 0.01475340
#
# Stress axis : x y z
#
# Youngs Moduli (GPa) = 170.29621 110.93227 95.46203
#
# Poissons Ratio (x) = 0.31355 0.13609
# Poissons Ratio (y) = 0.48134 0.10044
# Poissons Ratio (z) = 0.24278 0.11672
#
# Static dielectric constant tensor:
#      x y z
#    x 5.209000 0.000000 0.000000 
#    y 0.000000 4.248420 0.000000 
#    z 0.000000 0.000000 4.157180 
# 
# 
# High freq. dielectric constant tensor:
#      x y z
#    x 2.015890 0.000000 0.000000 
#    y 0.000000 1.989840 0.000000 
#    z 0.000000 0.000000 1.963930 
# 
# From -- ./inp_files/2963.got.cif
#   From: 2010.03.12/outbox.cif.g09.slc.cpg/sg60_2_cif.got.tgz:2963.got - 2010.04.10 18:46:24.
