data_PCOD8247762
_publ_section_title
;
Structure prediction by ZEFSAII (Michael W. Deem and Ramdas Pophale) SiO2 
 PCOD8247762
Probable space group: P B C N
;
_chemical_formula_sum "Si O2"
_cell_formula_units_Z 52
_cell_length_a 8.538742
_cell_length_b 19.039388
_cell_length_c 15.473922
_cell_angle_alpha 90.000000
_cell_angle_beta 90.000000
_cell_angle_gamma 90.000000
_cell_volume 2515.632977
_symmetry_space_group_name_H-M "P B C N"
_symmetry_group_IT_number 60
_symmetry_cell_setting 'orthorhombic'
loop_
_space_group_symop_operation_xyz
x,y,z
1/2-x,1/2-y,1/2+z
1/2+x,1/2-y,-z
-x,y,1/2-z
-x,-y,-z
1/2+x,1/2+y,1/2-z
1/2-x,1/2+y,z
x,-y,1/2+z
loop_
_atom_site_type_symbol
_atom_site_label
_atom_site_fract_x
_atom_site_fract_y
_atom_site_fract_z
Si Si1 0.432530 0.191698 0.577463
Si Si2 0.069076 0.949016 0.427653
Si Si3 0.103189 0.173066 0.492515
Si Si4 0.000000 0.002566 0.250000
Si Si5 0.500000 0.741403 0.250000
Si Si6 0.939681 0.461154 0.083421
Si Si7 0.000000 0.452655 0.750000
Si Si8 0.209528 0.121670 0.310488
O O1 0.252375 0.188056 0.551142
O O2 0.525991 0.252511 0.527969
O O3 0.439307 0.207236 0.677681
O O4 0.518037 0.118675 0.564792
O O5 0.251366 0.965420 0.409751
O O6 0.033038 0.869897 0.458268
O O7 0.000000 0.000000 0.500000
O O8 0.976825 0.956645 0.336572
O O9 0.162132 0.126195 0.411175
O O10 0.853296 0.052774 0.237527
O O11 0.650414 0.693400 0.231394
O O12 0.026552 0.494694 0.168036
O O13 0.000000 0.500000 0.000000
O O14 0.888104 0.392220 0.710449
#
# Coordination Sequence:
#
# PCOD8247762 Si02
#       8
#     8   8   8   4   4   8   4   8
#     4  11  24  44  65  95 135 179 232 279 345 409
#     4  12  24  42  67 101 135 178 232 281 348 410
#     4  11  24  45  68  98 138 188 228 280 347 417
#     4  11  22  40  65  99 137 170 220 276 339 400
#     4   9  23  42  68  90 132 182 220 272 340 408
#     4  12  27  41  67 100 135 177 227 292 340 406
#     4  12  23  40  65  99 139 168 226 288 339 398
#     4  10  22  41  65 100 131 180 222 272 340 411
#
# _framework density 20.670741
#
# number of rings (size 3 to 8) (size 9 to 14) (size 15 to 20)
#    0.000    0.923    3.077    3.231    4.308    3.692 
#    0.000    0.000    0.000    0.923    0.000    0.000 
#    0.000    0.000    0.000    0.000    0.000    0.000 
#
# Total GULP energy -644247.189192 kJ/mol
# GULP energy per Si atom -12389.369023 kJ/mol
# Density = 2.062369 g / cm^3
# Si number density = 20.670741 Si / 1000 Ang^3
#
#
#
# Elastic Constant Matrix: (Units=GPa)
#
#
# Indices 1 2 3 4 5 6 
#
# 1 77.3629 32.7547 34.1358 0.0000 0.0000 0.0000
# 2 32.7547 114.3776 72.6920 0.0000 0.0000 0.0000
# 3 34.1358 72.6920 161.7986 0.0000 0.0000 0.0000
# 4 0.0000 0.0000 0.0000 27.9482 0.0000 0.0000
# 5 0.0000 0.0000 0.0000 0.0000 31.8726 0.0000
# 6 0.0000 0.0000 0.0000 0.0000 0.0000 39.2666
#
#
#
# Elastic Compliance Matrix: (Units=1/GPa)
#
#
# Indices 1 2 3 4 5 6 
#
# 1 0.015049 -0.003208 -0.001734 0.000000 0.000000 0.000000
# 2 -0.003208 0.012921 -0.005128 0.000000 0.000000 0.000000
# 3 -0.001734 -0.005128 0.008850 0.000000 0.000000 0.000000
# 4 0.000000 0.000000 0.000000 0.035780 0.000000 0.000000
# 5 0.000000 0.000000 0.000000 0.000000 0.031375 0.000000
# 6 0.000000 0.000000 0.000000 0.000000 0.000000 0.025467
#
#
# Mechanical properties :
#
#
# Convention : Reuss Voigt Hill
#
# Bulk Modulus (GPa) = 59.94965 70.30044 65.12505
# Shear Modulus (GPa) = 32.22839 34.08125 33.15482
#
# Velocity S-wave (km/s) = 3.95287 4.06491 4.00928
# Velocity P-wave (km/s) = 7.06390 7.49098 7.28057
#
# Compressibility (1/GPa) = 0.01668066
#
# Stress axis : x y z
#
# Youngs Moduli (GPa) = 66.44832 77.39457 112.99031
#
# Poissons Ratio (x) = 0.24826 0.19591
# Poissons Ratio (y) = 0.21315 0.57944
# Poissons Ratio (z) = 0.11521 0.39690
#
# Static dielectric constant tensor:
#      x y z
#    x 3.483100 0.000000 0.000000 
#    y 0.000000 3.910390 0.000000 
#    z 0.000000 0.000000 4.010170 
# 
# 
# High freq. dielectric constant tensor:
#      x y z
#    x 1.804960 0.000000 0.000000 
#    y 0.000000 1.823730 0.000000 
#    z 0.000000 0.000000 1.822750 
# 
# From -- ./inp_files/15245.got.cif
#   From: 2010.03.12/outbox.cif.g09.slc.cpg/sg60_8_cif.got.tgz:15245.got - 2010.04.10 18:46:24.
