data_PCOD8247364
_publ_section_title
;
Structure prediction by ZEFSAII (Michael W. Deem and Ramdas Pophale) SiO2 
 PCOD8247364
Probable space group: P B C N
;
_chemical_formula_sum "Si O2"
_cell_formula_units_Z 24
_cell_length_a 9.783185
_cell_length_b 13.474855
_cell_length_c 8.215228
_cell_angle_alpha 90.000000
_cell_angle_beta 90.000000
_cell_angle_gamma 90.000000
_cell_volume 1082.988856
_symmetry_space_group_name_H-M "P B C N"
_symmetry_group_IT_number 60
_symmetry_cell_setting 'orthorhombic'
loop_
_space_group_symop_operation_xyz
x,y,z
1/2-x,1/2-y,1/2+z
1/2+x,1/2-y,-z
-x,y,1/2-z
-x,-y,-z
1/2+x,1/2+y,1/2-z
1/2-x,1/2+y,z
x,-y,1/2+z
loop_
_atom_site_type_symbol
_atom_site_label
_atom_site_fract_x
_atom_site_fract_y
_atom_site_fract_z
Si Si1 0.972513 0.290231 0.439953
Si Si2 0.258915 0.140311 0.045866
Si Si3 0.861263 0.540721 0.153625
O O1 0.883867 0.194221 0.487624
O O2 0.897284 0.391021 0.498334
O O3 0.000000 0.297271 0.250000
O O4 0.116544 0.280127 0.535237
O O5 0.285934 0.057614 0.908750
O O6 0.255143 0.096017 0.227630
O O7 0.000000 0.513757 0.250000
#
# Coordination Sequence:
#
# PCOD8247364 Si02
#       3
#     8   8   8
#     4  11  22  40  64  91 121 158 206 251 298 359
#     4  11  22  40  65  92 121 161 203 249 300 360
#     4  10  21  38  65  91 121 165 204 240 299 373
#
# _framework density 22.160893999999999
#
# number of rings (size 3 to 8) (size 9 to 14) (size 15 to 20)
#    0.000    1.333    0.000    9.000    0.000    0.000 
#    0.000   10.000    0.000    0.000    0.000    2.333 
#    0.000    0.000    0.000    0.000    0.000    0.000 
#
# Total GULP energy -297622.475991 kJ/mol
# GULP energy per Si atom -12400.936500 kJ/mol
# Density = 2.211046 g / cm^3
# Si number density = 22.160894 Si / 1000 Ang^3
#
#
#
# Elastic Constant Matrix: (Units=GPa)
#
#
# Indices 1 2 3 4 5 6 
#
# 1 92.9524 70.6608 50.9649 0.0000 0.0000 0.0000
# 2 70.6608 122.6607 74.5997 0.0000 0.0000 0.0000
# 3 50.9649 74.5997 127.7850 0.0000 0.0000 0.0000
# 4 0.0000 0.0000 0.0000 24.9218 0.0000 0.0000
# 5 0.0000 0.0000 0.0000 0.0000 23.3432 0.0000
# 6 0.0000 0.0000 0.0000 0.0000 0.0000 22.5978
#
#
#
# Elastic Compliance Matrix: (Units=1/GPa)
#
#
# Indices 1 2 3 4 5 6 
#
# 1 0.019428 -0.010046 -0.001884 0.000000 0.000000 0.000000
# 2 -0.010046 0.017836 -0.006405 0.000000 0.000000 0.000000
# 3 -0.001884 -0.006405 0.012316 0.000000 0.000000 0.000000
# 4 0.000000 0.000000 0.000000 0.040126 0.000000 0.000000
# 5 0.000000 0.000000 0.000000 0.000000 0.042839 0.000000
# 6 0.000000 0.000000 0.000000 0.000000 0.000000 0.044252
#
#
# Mechanical properties :
#
#
# Convention : Reuss Voigt Hill
#
# Bulk Modulus (GPa) = 77.46399 81.76101 79.61250
# Shear Modulus (GPa) = 22.95998 23.98405 23.47202
#
# Velocity S-wave (km/s) = 3.22228 3.29335 3.25801
# Velocity P-wave (km/s) = 6.99108 7.17189 7.08206
#
# Compressibility (1/GPa) = 0.01290922
#
# Stress axis : x y z
#
# Youngs Moduli (GPa) = 51.47223 56.06787 81.19298
#
# Poissons Ratio (x) = 0.56327 0.15294
# Poissons Ratio (y) = 0.51710 0.52008
# Poissons Ratio (z) = 0.09695 0.35914
#
# Static dielectric constant tensor:
#      x y z
#    x 3.896870 0.000000 0.000000 
#    y 0.000000 3.983120 0.000000 
#    z 0.000000 0.000000 4.204380 
# 
# 
# High freq. dielectric constant tensor:
#      x y z
#    x 1.842170 0.000000 0.000000 
#    y 0.000000 1.867040 0.000000 
#    z 0.000000 0.000000 1.892760 
# 
# From -- ./inp_files/3343.got.cif
#   From: 2010.03.12/outbox.cif.g09.slc.cpg/sg60_2_cif.got.tgz:3343.got - 2010.04.10 18:46:24.
