data_PCOD8247929
_publ_section_title
;
Structure prediction by ZEFSAII (Michael W. Deem and Ramdas Pophale) SiO2 
 PCOD8247929
Probable space group: P B C N
;
_chemical_formula_sum "Si O2"
_cell_formula_units_Z 60
_cell_length_a 15.901126
_cell_length_b 18.104337
_cell_length_c 9.790877
_cell_angle_alpha 90.000000
_cell_angle_beta 90.000000
_cell_angle_gamma 90.000000
_cell_volume 2818.591246
_symmetry_space_group_name_H-M "P B C N"
_symmetry_group_IT_number 60
_symmetry_cell_setting 'orthorhombic'
loop_
_space_group_symop_operation_xyz
x,y,z
1/2-x,1/2-y,1/2+z
1/2+x,1/2-y,-z
-x,y,1/2-z
-x,-y,-z
1/2+x,1/2+y,1/2-z
1/2-x,1/2+y,z
x,-y,1/2+z
loop_
_atom_site_type_symbol
_atom_site_label
_atom_site_fract_x
_atom_site_fract_y
_atom_site_fract_z
Si Si1 0.813003 0.485832 0.410178
Si Si2 0.946405 0.007193 0.630646
Si Si3 0.500000 0.225594 0.250000
Si Si4 0.631532 0.340469 0.133874
Si Si5 0.278524 0.441366 0.823153
Si Si6 0.678608 0.153477 0.740143
Si Si7 0.707677 0.307775 0.854589
Si Si8 0.617087 0.143951 0.449653
O O1 0.792710 0.461629 0.565706
O O2 0.733721 0.512935 0.318064
O O3 0.851203 0.414075 0.336584
O O4 0.874733 0.556787 0.411908
O O5 0.925923 0.090715 0.671512
O O6 0.000000 0.969667 0.750000
O O7 0.863320 0.961662 0.601451
O O8 0.000000 0.000000 0.500000
O O9 0.579837 0.270533 0.191095
O O10 0.534236 0.174725 0.374401
O O11 0.723071 0.351722 0.200567
O O12 0.645338 0.339472 0.970390
O O13 0.287338 0.355255 0.785395
O O14 0.668635 0.228524 0.823228
O O15 0.613741 0.152124 0.613398
O O16 0.803144 0.305849 0.907615
#
# Coordination Sequence:
#
# PCOD8247929 Si02
#       8
#     8   8   4   8   8   8   8   8
#     4  11  21  40  69  91 129 169 228 283 328 388
#     4  12  23  37  59  89 137 177 210 263 341 417
#     4  12  24  44  72  94 150 178 222 294 370 412
#     4  11  23  42  62 103 132 178 226 277 346 420
#     4  11  22  39  62  96 128 172 223 283 328 402
#     4  11  22  42  68  97 130 171 238 284 331 409
#     4  10  23  39  69  95 130 169 234 278 331 405
#     4  10  23  42  64 101 129 180 227 277 343 422
#
# _framework density 21.287231999999999
#
# number of rings (size 3 to 8) (size 9 to 14) (size 15 to 20)
#    0.000    1.067    4.667    3.200    3.733    1.067 
#    0.000    2.667    0.000    0.000    0.000    0.000 
#    0.000    0.000    0.000    0.000    0.000    0.000 
#
# Total GULP energy -743621.662389 kJ/mol
# GULP energy per Si atom -12393.694373 kJ/mol
# Density = 2.123878 g / cm^3
# Si number density = 21.287232 Si / 1000 Ang^3
#
#
#
# Elastic Constant Matrix: (Units=GPa)
#
#
# Indices 1 2 3 4 5 6 
#
# 1 38.8020 0.5581 13.0624 0.0000 0.0000 0.0000
# 2 0.5581 78.3367 10.5222 0.0000 0.0000 0.0000
# 3 13.0624 10.5222 99.5992 0.0000 0.0000 0.0000
# 4 0.0000 0.0000 0.0000 35.2994 0.0000 0.0000
# 5 0.0000 0.0000 0.0000 0.0000 31.3916 0.0000
# 6 0.0000 0.0000 0.0000 0.0000 0.0000 3.6926
#
#
#
# Elastic Compliance Matrix: (Units=1/GPa)
#
#
# Indices 1 2 3 4 5 6 
#
# 1 0.026969 0.000287 -0.003567 0.000000 0.000000 0.000000
# 2 0.000287 0.012952 -0.001406 0.000000 0.000000 0.000000
# 3 -0.003567 -0.001406 0.010657 0.000000 0.000000 0.000000
# 4 0.000000 0.000000 0.000000 0.028329 0.000000 0.000000
# 5 0.000000 0.000000 0.000000 0.000000 0.031856 0.000000
# 6 0.000000 0.000000 0.000000 0.000000 0.000000 0.270810
#
#
# Mechanical properties :
#
#
# Convention : Reuss Voigt Hill
#
# Bulk Modulus (GPa) = 24.26888 29.44703 26.85795
# Shear Modulus (GPa) = 12.35546 26.91641 19.63593
#
# Velocity S-wave (km/s) = 2.41180 3.55975 3.04044
# Velocity P-wave (km/s) = 4.37962 5.54608 4.99700
#
# Compressibility (1/GPa) = 0.04120503
#
# Stress axis : x y z
#
# Youngs Moduli (GPa) = 37.08014 77.20682 93.83845
#
# Poissons Ratio (x) = -0.02216 0.33474
# Poissons Ratio (y) = -0.01064 0.13194
# Poissons Ratio (z) = 0.13227 0.10855
#
# Static dielectric constant tensor:
#      x y z
#    x 3.453480 0.000000 0.000000 
#    y 0.000000 3.784030 0.000000 
#    z 0.000000 0.000000 4.001450 
# 
# 
# High freq. dielectric constant tensor:
#      x y z
#    x 1.800420 0.000000 0.000000 
#    y 0.000000 1.840800 0.000000 
#    z 0.000000 0.000000 1.848140 
# 
# From -- ./inp_files/6910.got.cif
#   From: 2010.03.12/outbox.cif.g09.slc.cpg/sg60_4_cif.got.tgz:6910.got - 2010.04.10 18:46:24.
