data_PCOD8247713
_publ_section_title
;
Structure prediction by ZEFSAII (Michael W. Deem and Ramdas Pophale) SiO2 
 PCOD8247713
Probable space group: P B C N
;
_chemical_formula_sum "Si O2"
_cell_formula_units_Z 32
_cell_length_a 4.986120
_cell_length_b 12.822655
_cell_length_c 20.754419
_cell_angle_alpha 90.000000
_cell_angle_beta 90.000000
_cell_angle_gamma 90.000000
_cell_volume 1326.939933
_symmetry_space_group_name_H-M "P B C N"
_symmetry_group_IT_number 60
_symmetry_cell_setting 'orthorhombic'
loop_
_space_group_symop_operation_xyz
x,y,z
1/2-x,1/2-y,1/2+z
1/2+x,1/2-y,-z
-x,y,1/2-z
-x,-y,-z
1/2+x,1/2+y,1/2-z
1/2-x,1/2+y,z
x,-y,1/2+z
loop_
_atom_site_type_symbol
_atom_site_label
_atom_site_fract_x
_atom_site_fract_y
_atom_site_fract_z
Si Si1 0.220281 0.960018 0.942567
Si Si2 0.256327 0.317522 0.205878
Si Si3 0.863525 0.377452 0.428095
Si Si4 0.741690 0.157568 0.396458
O O1 0.459173 0.881259 0.922825
O O2 0.960705 0.935176 0.899357
O O3 0.330734 0.078285 0.933649
O O4 0.170602 0.938319 0.019946
O O5 0.500000 0.351974 0.250000
O O6 0.235456 0.398230 0.145543
O O7 0.292461 0.200052 0.176809
O O8 0.000000 0.322732 0.250000
O O9 0.856026 0.253023 0.440994
#
# Coordination Sequence:
#
# PCOD8247713 Si02
#       4
#     8   8   8   8
#     4  11  21  41  61 103 123 165 217 260 338 377
#     4  10  22  40  61  87 124 171 214 260 318 377
#     4   9  24  37  68  92 134 164 210 275 317 391
#     4  10  23  37  66  88 131 167 207 269 319 379
#
# _framework density 24.115634
#
# number of rings (size 3 to 8) (size 9 to 14) (size 15 to 20)
#    1.500    0.500    0.000    3.000    0.000   10.000 
#    0.000    5.000    0.000    0.000    0.000    0.000 
#    0.000    0.000    0.000    0.000    0.000    0.000 
#
# Total GULP energy -396556.743735 kJ/mol
# GULP energy per Si atom -12392.398242 kJ/mol
# Density = 2.406075 g / cm^3
# Si number density = 24.115634 Si / 1000 Ang^3
#
#
#
# Elastic Constant Matrix: (Units=GPa)
#
#
# Indices 1 2 3 4 5 6 
#
# 1 95.1035 17.1006 60.3516 0.0000 0.0000 0.0000
# 2 17.1006 73.4967 12.5125 0.0000 0.0000 0.0000
# 3 60.3516 12.5125 139.4797 0.0000 0.0000 0.0000
# 4 0.0000 0.0000 0.0000 42.0935 0.0000 0.0000
# 5 0.0000 0.0000 0.0000 0.0000 38.8421 0.0000
# 6 0.0000 0.0000 0.0000 0.0000 0.0000 39.8061
#
#
#
# Elastic Compliance Matrix: (Units=1/GPa)
#
#
# Indices 1 2 3 4 5 6 
#
# 1 0.014902 -0.002406 -0.006232 0.000000 0.000000 0.000000
# 2 -0.002406 0.014206 -0.000233 0.000000 0.000000 0.000000
# 3 -0.006232 -0.000233 0.009887 0.000000 0.000000 0.000000
# 4 0.000000 0.000000 0.000000 0.023757 0.000000 0.000000
# 5 0.000000 0.000000 0.000000 0.000000 0.025745 0.000000
# 6 0.000000 0.000000 0.000000 0.000000 0.000000 0.025122
#
#
# Mechanical properties :
#
#
# Convention : Reuss Voigt Hill
#
# Bulk Modulus (GPa) = 47.05534 54.22326 50.63930
# Shear Modulus (GPa) = 36.11507 38.68937 37.40222
#
# Velocity S-wave (km/s) = 3.87406 4.00975 3.94249
# Velocity P-wave (km/s) = 6.29014 6.63106 6.46285
#
# Compressibility (1/GPa) = 0.02125157
#
# Stress axis : x y z
#
# Youngs Moduli (GPa) = 67.10284 70.39456 101.14214
#
# Poissons Ratio (x) = 0.16939 0.63035
# Poissons Ratio (y) = 0.16147 0.02358
# Poissons Ratio (z) = 0.41821 0.01641
#
# Static dielectric constant tensor:
#      x y z
#    x 4.169040 0.000000 0.000000 
#    y 0.000000 4.345530 0.000000 
#    z 0.000000 0.000000 4.330490 
# 
# 
# High freq. dielectric constant tensor:
#      x y z
#    x 1.968240 0.000000 0.000000 
#    y 0.000000 1.957340 0.000000 
#    z 0.000000 0.000000 1.948890 
# 
# From -- ./inp_files/18388.got.cif
#   From: 2010.03.12/outbox.cif.g09.slc.cpg/sg60_10_cif.got.tgz:18388.got - 2010.04.10 18:46:24.
