data_PCOD8247084
_publ_section_title
;
Structure prediction by ZEFSAII (Michael W. Deem and Ramdas Pophale) SiO2 
 PCOD8247084
Probable space group: P B C N
;
_chemical_formula_sum "Si O2"
_cell_formula_units_Z 56
_cell_length_a 11.724566
_cell_length_b 14.464846
_cell_length_c 13.897569
_cell_angle_alpha 90.000000
_cell_angle_beta 90.000000
_cell_angle_gamma 90.000000
_cell_volume 2356.944895
_symmetry_space_group_name_H-M "P B C N"
_symmetry_group_IT_number 60
_symmetry_cell_setting 'orthorhombic'
loop_
_space_group_symop_operation_xyz
x,y,z
1/2-x,1/2-y,1/2+z
1/2+x,1/2-y,-z
-x,y,1/2-z
-x,-y,-z
1/2+x,1/2+y,1/2-z
1/2-x,1/2+y,z
x,-y,1/2+z
loop_
_atom_site_type_symbol
_atom_site_label
_atom_site_fract_x
_atom_site_fract_y
_atom_site_fract_z
Si Si1 0.008347 0.589167 0.637118
Si Si2 0.777583 0.382997 0.037799
Si Si3 0.803538 0.988788 0.695785
Si Si4 0.885707 0.725488 0.983026
Si Si5 0.956380 0.116633 0.061850
Si Si6 0.665826 0.513742 0.914141
Si Si7 0.566282 0.105225 0.161584
O O1 0.903121 0.634612 0.578410
O O2 0.010161 0.478992 0.618765
O O3 0.000000 0.612056 0.750000
O O4 0.123737 0.637973 0.592462
O O5 0.696795 0.423594 0.123693
O O6 0.728249 0.286618 0.994576
O O7 0.779891 0.462067 0.953743
O O8 0.894164 0.910755 0.662199
O O9 0.834568 0.028868 0.800347
O O10 0.681163 0.941272 0.700608
O O11 0.994850 0.780066 0.939976
O O12 0.913908 0.686324 0.087490
O O13 0.066805 0.054079 0.049030
O O14 0.863334 0.107194 0.973967
O O15 0.500000 0.152222 0.250000
#
# Coordination Sequence:
#
# PCOD8247084 Si02
#       7
#     8   8   8   8   8   8   8
#     4  10  23  46  67  88 129 175 217 260 321 394
#     4   9  22  41  60 101 127 159 224 258 323 388
#     4  10  20  39  65  90 130 172 218 258 315 395
#     4  11  23  40  65  93 134 161 206 280 316 382
#     4   9  20  36  59 100 126 162 208 261 334 379
#     4   9  18  37  67  90 130 169 203 265 324 382
#     4  10  24  43  60  91 122 175 222 256 315 385
#
# _framework density 23.759571000000001
#
# number of rings (size 3 to 8) (size 9 to 14) (size 15 to 20)
#    0.000    2.286    0.000    1.714    4.000    3.429 
#   15.429    0.000    0.000    0.000    0.000    0.000 
#    0.000    0.000    0.000    0.000    0.000    0.000 
#
# Total GULP energy -693912.201928 kJ/mol
# GULP energy per Si atom -12391.289320 kJ/mol
# Density = 2.370549 g / cm^3
# Si number density = 23.759571 Si / 1000 Ang^3
#
#
#
# Elastic Constant Matrix: (Units=GPa)
#
#
# Indices 1 2 3 4 5 6 
#
# 1 37.4467 -22.2502 -14.6633 0.0000 0.0000 0.0000
# 2 -22.2502 37.0600 -23.3846 0.0000 0.0000 0.0000
# 3 -14.6633 -23.3846 80.8550 0.0000 0.0000 0.0000
# 4 0.0000 0.0000 0.0000 28.4628 0.0000 0.0000
# 5 0.0000 0.0000 0.0000 0.0000 35.9126 0.0000
# 6 0.0000 0.0000 0.0000 0.0000 0.0000 18.7547
#
#
#
# Elastic Compliance Matrix: (Units=1/GPa)
#
#
# Indices 1 2 3 4 5 6 
#
# 1 0.086027 0.075221 0.037356 0.000000 0.000000 0.000000
# 2 0.075221 0.098779 0.042210 0.000000 0.000000 0.000000
# 3 0.037356 0.042210 0.031350 0.000000 0.000000 0.000000
# 4 0.000000 0.000000 0.000000 0.035134 0.000000 0.000000
# 5 0.000000 0.000000 0.000000 0.000000 0.027845 0.000000
# 6 0.000000 0.000000 0.000000 0.000000 0.000000 0.053320
#
#
# Mechanical properties :
#
#
# Convention : Reuss Voigt Hill
#
# Bulk Modulus (GPa) = 1.90212 3.86286 2.88249
# Shear Modulus (GPa) = 25.23667 31.00334 28.12000
#
# Velocity S-wave (km/s) = 3.26263 3.61623 3.44397
# Velocity P-wave (km/s) = 3.87238 4.36640 4.12679
#
# Compressibility (1/GPa) = 0.52573025
#
# Stress axis : x y z
#
# Youngs Moduli (GPa) = 11.62421 10.12366 31.89765
#
# Poissons Ratio (x) = -0.76151 -1.19158
# Poissons Ratio (y) = -0.87438 -1.34640
# Poissons Ratio (z) = -0.43424 -0.42732
#
# Static dielectric constant tensor:
#      x y z
#    x 4.437810 0.000000 0.000000 
#    y 0.000000 4.365730 0.000000 
#    z 0.000000 0.000000 4.188790 
# 
# 
# High freq. dielectric constant tensor:
#      x y z
#    x 1.947070 0.000000 0.000000 
#    y 0.000000 1.928090 0.000000 
#    z 0.000000 0.000000 1.939080 
# 
# From -- ./inp_files/11987.got.cif
#   From: 2010.03.12/outbox.cif.g09.slc.cpg/sg60_6_cif.got.tgz:11987.got - 2010.04.10 18:46:24.
