data_PCOD8247943
_publ_section_title
;
Structure prediction by ZEFSAII (Michael W. Deem and Ramdas Pophale) SiO2 
 PCOD8247943
Probable space group: P B C N
;
_chemical_formula_sum "Si O2"
_cell_formula_units_Z 36
_cell_length_a 5.001855
_cell_length_b 24.746705
_cell_length_c 11.269319
_cell_angle_alpha 90.000000
_cell_angle_beta 90.000000
_cell_angle_gamma 90.000000
_cell_volume 1394.909884
_symmetry_space_group_name_H-M "P B C N"
_symmetry_group_IT_number 60
_symmetry_cell_setting 'orthorhombic'
loop_
_space_group_symop_operation_xyz
x,y,z
1/2-x,1/2-y,1/2+z
1/2+x,1/2-y,-z
-x,y,1/2-z
-x,-y,-z
1/2+x,1/2+y,1/2-z
1/2-x,1/2+y,z
x,-y,1/2+z
loop_
_atom_site_type_symbol
_atom_site_label
_atom_site_fract_x
_atom_site_fract_y
_atom_site_fract_z
Si Si1 0.556472 0.463329 0.115911
Si Si2 0.000000 0.811186 0.750000
Si Si3 0.055720 0.535796 0.115865
Si Si4 0.322991 0.234913 0.569293
Si Si5 0.216564 0.125437 0.477237
O O1 0.500000 0.444930 0.250000
O O2 0.361356 0.515447 0.091839
O O3 0.860897 0.483933 0.089270
O O4 0.513933 0.412123 0.031453
O O5 0.783114 0.769812 0.810005
O O6 0.874225 0.849186 0.648721
O O7 0.000000 0.552107 0.250000
O O8 0.983314 0.589860 0.042834
O O9 0.630904 0.241037 0.530990
O O10 0.272878 0.170683 0.577957
#
# Coordination Sequence:
#
# PCOD8247943 Si02
#       5
#     8   4   8   8   8
#     4  10  23  45  65 109 143 180 225 283 340 427
#     4  10  26  48  72 106 136 182 250 288 346 420
#     4  10  23  40  71 104 145 176 233 279 340 428
#     4  10  25  47  68 103 138 173 237 299 339 406
#     4  11  24  44  77  99 141 194 225 290 362 406
#
# _framework density 25.808122000000001
#
# number of rings (size 3 to 8) (size 9 to 14) (size 15 to 20)
#    0.000    1.778    0.000    1.333    7.778    8.000 
#   22.000    0.000    0.000    0.000    0.000    0.000 
#    0.000    0.000    0.000    0.000    0.000    0.000 
#
# Total GULP energy -446196.617191 kJ/mol
# GULP energy per Si atom -12394.350478 kJ/mol
# Density = 2.574938 g / cm^3
# Si number density = 25.808122 Si / 1000 Ang^3
#
#
#
# Elastic Constant Matrix: (Units=GPa)
#
#
# Indices 1 2 3 4 5 6 
#
# 1 125.4824 55.2454 35.4262 0.0000 0.0000 0.0000
# 2 55.2454 211.8661 82.5271 0.0000 0.0000 0.0000
# 3 35.4262 82.5271 144.0112 0.0000 0.0000 0.0000
# 4 0.0000 0.0000 0.0000 248.5411 0.0000 0.0000
# 5 0.0000 0.0000 0.0000 0.0000 44.5285 0.0000
# 6 0.0000 0.0000 0.0000 0.0000 0.0000 37.3219
#
#
#
# Elastic Compliance Matrix: (Units=1/GPa)
#
#
# Indices 1 2 3 4 5 6 
#
# 1 0.009145 -0.001942 -0.001137 0.000000 0.000000 0.000000
# 2 -0.001942 0.006489 -0.003241 0.000000 0.000000 0.000000
# 3 -0.001137 -0.003241 0.009081 0.000000 0.000000 0.000000
# 4 0.000000 0.000000 0.000000 0.004023 0.000000 0.000000
# 5 0.000000 0.000000 0.000000 0.000000 0.022458 0.000000
# 6 0.000000 0.000000 0.000000 0.000000 0.000000 0.026794
#
#
# Mechanical properties :
#
#
# Convention : Reuss Voigt Hill
#
# Bulk Modulus (GPa) = 82.81127 91.97302 87.39215
# Shear Modulus (GPa) = 52.82431 86.62236 69.72333
#
# Velocity S-wave (km/s) = 4.52908 5.79973 5.20333
# Velocity P-wave (km/s) = 7.71408 8.97573 8.36871
#
# Compressibility (1/GPa) = 0.01207565
#
# Stress axis : x y z
#
# Youngs Moduli (GPa) = 109.34797 154.11565 110.12371
#
# Poissons Ratio (x) = 0.29926 0.12520
# Poissons Ratio (y) = 0.21233 0.35688
# Poissons Ratio (z) = 0.12432 0.49944
#
# Static dielectric constant tensor:
#      x y z
#    x 4.582230 0.000000 0.000000 
#    y 0.000000 4.899620 0.000000 
#    z 0.000000 0.000000 5.477030 
# 
# 
# High freq. dielectric constant tensor:
#      x y z
#    x 2.030230 0.000000 0.000000 
#    y 0.000000 2.041070 0.000000 
#    z 0.000000 0.000000 2.062520 
# 
# From -- ./inp_files/13704.got.cif
#   From: 2010.03.12/outbox.cif.g09.slc.cpg/sg60_7_cif.got.tgz:13704.got - 2010.04.10 18:46:24.
