data_PCOD8247301
_publ_section_title
;
Structure prediction by ZEFSAII (Michael W. Deem and Ramdas Pophale) SiO2 
 PCOD8247301
Probable space group: P B C N
;
_chemical_formula_sum "Si O2"
_cell_formula_units_Z 64
_cell_length_a 22.407047
_cell_length_b 9.375547
_cell_length_c 14.846710
_cell_angle_alpha 90.000000
_cell_angle_beta 90.000000
_cell_angle_gamma 90.000000
_cell_volume 3118.971928
_symmetry_space_group_name_H-M "P B C N"
_symmetry_group_IT_number 60
_symmetry_cell_setting 'orthorhombic'
loop_
_space_group_symop_operation_xyz
x,y,z
1/2-x,1/2-y,1/2+z
1/2+x,1/2-y,-z
-x,y,1/2-z
-x,-y,-z
1/2+x,1/2+y,1/2-z
1/2-x,1/2+y,z
x,-y,1/2+z
loop_
_atom_site_type_symbol
_atom_site_label
_atom_site_fract_x
_atom_site_fract_y
_atom_site_fract_z
Si Si1 0.885351 0.926843 0.737199
Si Si2 0.045652 0.109163 0.896827
Si Si3 0.314768 0.950821 0.061021
Si Si4 0.086228 0.958890 0.072170
Si Si5 0.154251 0.386321 0.263280
Si Si6 0.370847 0.140892 0.384013
Si Si7 0.301287 0.724782 0.583618
Si Si8 0.711031 0.346166 0.213098
O O1 0.894816 0.945432 0.843456
O O2 0.880664 0.759768 0.717101
O O3 0.940203 0.993670 0.681185
O O4 0.823851 0.003730 0.708397
O O5 0.069807 0.264759 0.870904
O O6 0.078310 0.063619 0.988483
O O7 0.974977 0.124679 0.907844
O O8 0.344059 0.919438 0.157432
O O9 0.254509 0.862270 0.045170
O O10 0.296966 0.114985 0.048431
O O11 0.363709 0.911723 0.986191
O O12 0.137104 0.844145 0.048838
O O13 0.119623 0.509995 0.315783
O O14 0.220230 0.377989 0.305604
O O15 0.312959 0.236153 0.360740
O O16 0.299347 0.729198 0.691336
#
# Coordination Sequence:
#
# PCOD8247301 Si02
#       8
#     8   8   8   8   8   8   8   8
#     4  10  21  37  65  87 119 162 207 248 299 370
#     4  10  23  42  65  91 114 162 213 253 297 367
#     4  11  25  38  61  94 128 163 202 245 321 372
#     4  10  22  42  69  84 120 161 212 250 303 358
#     4  11  22  38  59  91 129 158 198 258 313 367
#     4  11  23  38  61  92 129 159 204 255 307 364
#     4  10  23  40  62  90 123 163 199 253 302 373
#     4   9  20  37  57  88 124 165 197 244 309 369
#
# _framework density 20.519580999999999
#
# number of rings (size 3 to 8) (size 9 to 14) (size 15 to 20)
#    0.000    1.750    1.250    1.875   14.000    1.000 
#    0.000    0.625    5.500    0.000    0.000    0.000 
#    0.000    0.000    0.000    0.000    0.000    0.000 
#
# Total GULP energy -793952.915166 kJ/mol
# GULP energy per Si atom -12405.514299 kJ/mol
# Density = 2.047288 g / cm^3
# Si number density = 20.519581 Si / 1000 Ang^3
#
#
#
# Elastic Constant Matrix: (Units=GPa)
#
#
# Indices 1 2 3 4 5 6 
#
# 1 53.0706 39.6468 14.6098 0.0000 0.0000 0.0000
# 2 39.6468 165.6193 41.5634 0.0000 0.0000 0.0000
# 3 14.6098 41.5634 77.0206 0.0000 0.0000 0.0000
# 4 0.0000 0.0000 0.0000 29.8932 0.0000 0.0000
# 5 0.0000 0.0000 0.0000 0.0000 20.9883 0.0000
# 6 0.0000 0.0000 0.0000 0.0000 0.0000 14.6218
#
#
#
# Elastic Compliance Matrix: (Units=1/GPa)
#
#
# Indices 1 2 3 4 5 6 
#
# 1 0.023119 -0.005128 -0.001618 0.000000 0.000000 0.000000
# 2 -0.005128 0.008121 -0.003410 0.000000 0.000000 0.000000
# 3 -0.001618 -0.003410 0.015130 0.000000 0.000000 0.000000
# 4 0.000000 0.000000 0.000000 0.033452 0.000000 0.000000
# 5 0.000000 0.000000 0.000000 0.000000 0.047646 0.000000
# 6 0.000000 0.000000 0.000000 0.000000 0.000000 0.068391
#
#
# Mechanical properties :
#
#
# Convention : Reuss Voigt Hill
#
# Bulk Modulus (GPa) = 38.37457 54.15007 46.26232
# Shear Modulus (GPa) = 22.23616 26.42670 24.33143
#
# Velocity S-wave (km/s) = 3.29546 3.59259 3.44723
# Velocity P-wave (km/s) = 5.76387 6.60725 6.19991
#
# Compressibility (1/GPa) = 0.02605892
#
# Stress axis : x y z
#
# Youngs Moduli (GPa) = 43.25360 123.13268 66.09169
#
# Poissons Ratio (x) = 0.63148 0.10693
# Poissons Ratio (y) = 0.22182 0.22536
# Poissons Ratio (z) = 0.06998 0.41986
#
# Static dielectric constant tensor:
#      x y z
#    x 3.524390 0.000000 0.000000 
#    y 0.000000 3.685950 0.000000 
#    z 0.000000 0.000000 3.759250 
# 
# 
# High freq. dielectric constant tensor:
#      x y z
#    x 1.781690 0.000000 0.000000 
#    y 0.000000 1.805310 0.000000 
#    z 0.000000 0.000000 1.811390 
# 
# From -- ./inp_files/17929.got.cif
#   From: 2010.03.12/outbox.cif.g09.slc.cpg/sg60_9_cif.got.tgz:17929.got - 2010.04.10 18:46:24.
