data_PCOD8247170
_publ_section_title
;
Structure prediction by ZEFSAII (Michael W. Deem and Ramdas Pophale) SiO2 
 PCOD8247170
Probable space group: P B C N
;
_chemical_formula_sum "Si O2"
_cell_formula_units_Z 52
_cell_length_a 18.409635
_cell_length_b 8.895187
_cell_length_c 13.711002
_cell_angle_alpha 90.000000
_cell_angle_beta 90.000000
_cell_angle_gamma 90.000000
_cell_volume 2245.274555
_symmetry_space_group_name_H-M "P B C N"
_symmetry_group_IT_number 60
_symmetry_cell_setting 'orthorhombic'
loop_
_space_group_symop_operation_xyz
x,y,z
1/2-x,1/2-y,1/2+z
1/2+x,1/2-y,-z
-x,y,1/2-z
-x,-y,-z
1/2+x,1/2+y,1/2-z
1/2-x,1/2+y,z
x,-y,1/2+z
loop_
_atom_site_type_symbol
_atom_site_label
_atom_site_fract_x
_atom_site_fract_y
_atom_site_fract_z
Si Si1 0.500000 0.183877 0.750000
Si Si2 0.819910 0.636090 0.476889
Si Si3 0.244977 0.261561 0.336215
Si Si4 0.593621 0.753724 0.673377
Si Si5 0.956554 0.409519 0.870284
Si Si6 0.380206 0.429641 0.774174
Si Si7 0.716703 0.577678 0.863663
O O1 0.432749 0.288082 0.778497
O O2 0.475559 0.080399 0.659373
O O3 0.790952 0.620907 0.587094
O O4 0.905604 0.595201 0.465975
O O5 0.806706 0.808309 0.447234
O O6 0.779183 0.527692 0.403194
O O7 0.326152 0.209622 0.368799
O O8 0.193772 0.115100 0.330822
O O9 0.250861 0.340639 0.231549
O O10 0.531859 0.823778 0.603823
O O11 0.584761 0.823877 0.781778
O O12 0.582436 0.573182 0.674756
O O13 0.354687 0.479703 0.665500
#
# Coordination Sequence:
#
# PCOD8247170 Si02
#       7
#     4   8   8   8   8   8   8
#     4  10  22  36  72  94 136 190 226 284 356 416
#     4  12  25  43  72 103 138 184 231 283 356 413
#     4  11  24  42  72 103 135 183 235 287 342 415
#     4   9  20  39  68  95 141 179 228 284 351 404
#     4  10  20  42  65 101 136 185 222 288 357 409
#     4  11  20  40  64  98 132 183 231 281 339 414
#     4  11  24  43  67 101 143 177 230 293 338 414
#
# _framework density 23.159749999999999
#
# number of rings (size 3 to 8) (size 9 to 14) (size 15 to 20)
#    0.000    1.538    4.615    1.846    4.308    3.692 
#    0.000    3.077    0.000    0.000    0.000    0.000 
#    0.000    0.000    0.000    0.000    0.000    0.000 
#
# Total GULP energy -644637.693345 kJ/mol
# GULP energy per Si atom -12396.878718 kJ/mol
# Density = 2.310704 g / cm^3
# Si number density = 23.159750 Si / 1000 Ang^3
#
#
#
# Elastic Constant Matrix: (Units=GPa)
#
#
# Indices 1 2 3 4 5 6 
#
# 1 141.7029 66.7989 8.7009 0.0000 0.0000 0.0000
# 2 66.7989 144.6621 10.3902 0.0000 0.0000 0.0000
# 3 8.7009 10.3902 48.7702 0.0000 0.0000 0.0000
# 4 0.0000 0.0000 0.0000 18.7716 0.0000 0.0000
# 5 0.0000 0.0000 0.0000 0.0000 30.8882 0.0000
# 6 0.0000 0.0000 0.0000 0.0000 0.0000 45.8506
#
#
#
# Elastic Compliance Matrix: (Units=1/GPa)
#
#
# Indices 1 2 3 4 5 6 
#
# 1 0.009046 -0.004124 -0.000735 0.000000 0.000000 0.000000
# 2 -0.004124 0.008901 -0.001160 0.000000 0.000000 0.000000
# 3 -0.000735 -0.001160 0.020883 0.000000 0.000000 0.000000
# 4 0.000000 0.000000 0.000000 0.053272 0.000000 0.000000
# 5 0.000000 0.000000 0.000000 0.000000 0.032375 0.000000
# 6 0.000000 0.000000 0.000000 0.000000 0.000000 0.021810
#
#
# Mechanical properties :
#
#
# Convention : Reuss Voigt Hill
#
# Bulk Modulus (GPa) = 37.32808 56.32391 46.82600
# Shear Modulus (GPa) = 29.89422 35.71843 32.80633
#
# Velocity S-wave (km/s) = 3.59665 3.93143 3.76776
# Velocity P-wave (km/s) = 5.77931 6.70676 6.26024
#
# Compressibility (1/GPa) = 0.02678948
#
# Stress axis : x y z
#
# Youngs Moduli (GPa) = 110.54072 112.35315 47.88656
#
# Poissons Ratio (x) = 0.46340 0.03521
# Poissons Ratio (y) = 0.45592 0.05557
# Poissons Ratio (z) = 0.08127 0.13037
#
# Static dielectric constant tensor:
#      x y z
#    x 4.586000 0.000000 0.000000 
#    y 0.000000 4.295670 0.000000 
#    z 0.000000 0.000000 3.779990 
# 
# 
# High freq. dielectric constant tensor:
#      x y z
#    x 1.927930 0.000000 0.000000 
#    y 0.000000 1.931580 0.000000 
#    z 0.000000 0.000000 1.874380 
# 
# From -- ./inp_files/17670.got.cif
#   From: 2010.03.12/outbox.cif.g09.slc.cpg/sg60_9_cif.got.tgz:17670.got - 2010.04.10 18:46:24.
