data_PCOD8247933
_publ_section_title
;
Structure prediction by ZEFSAII (Michael W. Deem and Ramdas Pophale) SiO2 
 PCOD8247933
Probable space group: P B C N
;
_chemical_formula_sum "Si O2"
_cell_formula_units_Z 48
_cell_length_a 8.992076
_cell_length_b 19.497023
_cell_length_c 13.914183
_cell_angle_alpha 90.000000
_cell_angle_beta 90.000000
_cell_angle_gamma 90.000000
_cell_volume 2439.416650
_symmetry_space_group_name_H-M "P B C N"
_symmetry_group_IT_number 60
_symmetry_cell_setting 'orthorhombic'
loop_
_space_group_symop_operation_xyz
x,y,z
1/2-x,1/2-y,1/2+z
1/2+x,1/2-y,-z
-x,y,1/2-z
-x,-y,-z
1/2+x,1/2+y,1/2-z
1/2-x,1/2+y,z
x,-y,1/2+z
loop_
_atom_site_type_symbol
_atom_site_label
_atom_site_fract_x
_atom_site_fract_y
_atom_site_fract_z
Si Si1 0.618496 0.928505 0.832097
Si Si2 0.716732 0.279303 0.018397
Si Si3 0.847020 0.187845 0.305777
Si Si4 0.167489 0.184088 0.776599
Si Si5 0.133611 0.419590 0.176736
Si Si6 0.475935 0.159776 0.493296
O O1 0.500000 0.936035 0.750000
O O2 0.750612 0.880780 0.794345
O O3 0.533476 0.899526 0.924365
O O4 0.681239 0.004249 0.857926
O O5 0.676049 0.328139 0.108405
O O6 0.666201 0.201875 0.047383
O O7 0.630089 0.299814 0.920202
O O8 0.893666 0.283411 0.004250
O O9 0.768221 0.252650 0.257197
O O10 0.000000 0.175475 0.250000
O O11 0.221768 0.115040 0.724423
O O12 0.000000 0.201574 0.750000
O O13 0.000000 0.423972 0.250000
O O14 0.072738 0.373394 0.091777
#
# Coordination Sequence:
#
# PCOD8247933 Si02
#       6
#     8   8   8   8   8   8
#     4  10  23  40  62  90 126 166 211 255 311 383
#     4  11  22  35  63  93 123 159 210 259 316 379
#     4  11  22  40  64  91 128 165 207 265 323 377
#     4  12  23  39  62  92 125 161 215 269 317 370
#     4  11  22  42  63  87 124 173 205 256 318 380
#     4  11  21  39  62  95 126 163 207 258 319 377
#
# _framework density 19.676833999999999
#
# number of rings (size 3 to 8) (size 9 to 14) (size 15 to 20)
#    0.000    1.000    3.333    5.500    0.000    0.667 
#    0.000    0.000    0.000    3.000    0.000    0.000 
#    0.000    0.000    0.000    0.000    0.000    0.000 
#
# Total GULP energy -595127.282519 kJ/mol
# GULP energy per Si atom -12398.485052 kJ/mol
# Density = 1.963205 g / cm^3
# Si number density = 19.676834 Si / 1000 Ang^3
#
#
#
# Elastic Constant Matrix: (Units=GPa)
#
#
# Indices 1 2 3 4 5 6 
#
# 1 80.4658 49.2873 43.3610 0.0000 0.0000 0.0000
# 2 49.2873 137.9372 38.7543 0.0000 0.0000 0.0000
# 3 43.3610 38.7543 129.7340 0.0000 0.0000 0.0000
# 4 0.0000 0.0000 0.0000 29.4364 0.0000 0.0000
# 5 0.0000 0.0000 0.0000 0.0000 32.1611 0.0000
# 6 0.0000 0.0000 0.0000 0.0000 0.0000 30.7636
#
#
#
# Elastic Compliance Matrix: (Units=1/GPa)
#
#
# Indices 1 2 3 4 5 6 
#
# 1 0.018010 -0.005179 -0.004472 0.000000 0.000000 0.000000
# 2 -0.005179 0.009403 -0.001078 0.000000 0.000000 0.000000
# 3 -0.004472 -0.001078 0.009525 0.000000 0.000000 0.000000
# 4 0.000000 0.000000 0.000000 0.033972 0.000000 0.000000
# 5 0.000000 0.000000 0.000000 0.000000 0.031094 0.000000
# 6 0.000000 0.000000 0.000000 0.000000 0.000000 0.032506
#
#
# Mechanical properties :
#
#
# Convention : Reuss Voigt Hill
#
# Bulk Modulus (GPa) = 64.60159 67.88246 66.24202
# Shear Modulus (GPa) = 31.03147 32.92116 31.97632
#
# Velocity S-wave (km/s) = 3.97552 4.09478 4.03559
# Velocity P-wave (km/s) = 7.34681 7.54519 7.44666
#
# Compressibility (1/GPa) = 0.01547950
#
# Stress axis : x y z
#
# Youngs Moduli (GPa) = 55.52537 106.34939 104.98766
#
# Poissons Ratio (x) = 0.55075 0.46955
# Poissons Ratio (y) = 0.28755 0.11318
# Poissons Ratio (z) = 0.24833 0.11465
#
# Static dielectric constant tensor:
#      x y z
#    x 3.561530 0.000000 0.000000 
#    y 0.000000 3.975820 0.000000 
#    z 0.000000 0.000000 4.045050 
# 
# 
# High freq. dielectric constant tensor:
#      x y z
#    x 1.762520 0.000000 0.000000 
#    y 0.000000 1.760490 0.000000 
#    z 0.000000 0.000000 1.784970 
# 
# From -- ./inp_files/15036.got.cif
#   From: 2010.03.12/outbox.cif.g09.slc.cpg/sg60_8_cif.got.tgz:15036.got - 2010.04.10 18:46:24.
