data_PCOD8247176
_publ_section_title
;
Structure prediction by ZEFSAII (Michael W. Deem and Ramdas Pophale) SiO2 
 PCOD8247176
Probable space group: P B C N
;
_chemical_formula_sum "Si O2"
_cell_formula_units_Z 64
_cell_length_a 11.460816
_cell_length_b 8.900449
_cell_length_c 29.335719
_cell_angle_alpha 90.000000
_cell_angle_beta 90.000000
_cell_angle_gamma 90.000000
_cell_volume 2992.431330
_symmetry_space_group_name_H-M "P B C N"
_symmetry_group_IT_number 60
_symmetry_cell_setting 'orthorhombic'
loop_
_space_group_symop_operation_xyz
x,y,z
1/2-x,1/2-y,1/2+z
1/2+x,1/2-y,-z
-x,y,1/2-z
-x,-y,-z
1/2+x,1/2+y,1/2-z
1/2-x,1/2+y,z
x,-y,1/2+z
loop_
_atom_site_type_symbol
_atom_site_label
_atom_site_fract_x
_atom_site_fract_y
_atom_site_fract_z
Si Si1 0.776182 0.909680 0.697980
Si Si2 0.851909 0.328516 0.357151
Si Si3 0.948081 0.852504 0.978092
Si Si4 0.521403 0.177026 0.065711
Si Si5 0.734011 0.100399 0.414242
Si Si6 0.826711 0.829069 0.137218
Si Si7 0.631565 0.852527 0.253421
Si Si8 0.076814 0.345269 0.406814
O O1 0.680366 0.800057 0.675605
O O2 0.860473 0.813954 0.731022
O O3 0.847067 0.005185 0.659364
O O4 0.709461 0.032124 0.726686
O O5 0.792153 0.171569 0.369293
O O6 0.800457 0.436087 0.396723
O O7 0.821503 0.360648 0.305047
O O8 0.992626 0.330911 0.362536
O O9 0.825223 0.898364 0.955702
O O10 0.039045 0.783221 0.942188
O O11 0.928087 0.729345 0.017268
O O12 0.000000 0.000000 0.000000
O O13 0.381381 0.185234 0.067789
O O14 0.565150 0.291861 0.104780
O O15 0.569813 0.010029 0.071598
O O16 0.707584 0.818780 0.108777
O O17 0.500000 0.907950 0.250000
#
# Coordination Sequence:
#
# PCOD8247176 Si02
#       8
#     8   8   8   8   8   8   8   8
#     4  10  23  42  64 102 129 164 230 277 333 416
#     4  10  20  42  66  92 128 171 214 263 341 403
#     4  11  25  42  66 103 134 170 228 281 327 396
#     4  11  24  42  67  93 130 184 217 279 336 400
#     4  10  23  42  65  95 133 172 221 268 330 413
#     4  11  22  43  66  94 130 174 224 275 340 400
#     4  11  23  42  70  98 134 175 215 286 347 407
#     4  10  23  43  68  90 129 181 216 274 337 399
#
# _framework density 21.387291000000001
#
# number of rings (size 3 to 8) (size 9 to 14) (size 15 to 20)
#    0.000    1.500    1.250    3.375    5.250    0.000 
#    4.500    1.250    0.000    0.000    0.000    0.000 
#    0.000    0.000    0.000    0.000    0.000    0.000 
#
# Total GULP energy -793636.547957 kJ/mol
# GULP energy per Si atom -12400.571062 kJ/mol
# Density = 2.133861 g / cm^3
# Si number density = 21.387291 Si / 1000 Ang^3
#
#
#
# Elastic Constant Matrix: (Units=GPa)
#
#
# Indices 1 2 3 4 5 6 
#
# 1 100.9262 20.2199 41.4769 0.0000 0.0000 0.0000
# 2 20.2199 84.5673 36.9763 0.0000 0.0000 0.0000
# 3 41.4769 36.9763 126.3509 0.0000 0.0000 0.0000
# 4 0.0000 0.0000 0.0000 37.9261 0.0000 0.0000
# 5 0.0000 0.0000 0.0000 0.0000 25.2993 0.0000
# 6 0.0000 0.0000 0.0000 0.0000 0.0000 12.4547
#
#
#
# Elastic Compliance Matrix: (Units=1/GPa)
#
#
# Indices 1 2 3 4 5 6 
#
# 1 0.011571 -0.001268 -0.003427 0.000000 0.000000 0.000000
# 2 -0.001268 0.013699 -0.003593 0.000000 0.000000 0.000000
# 3 -0.003427 -0.003593 0.010091 0.000000 0.000000 0.000000
# 4 0.000000 0.000000 0.000000 0.026367 0.000000 0.000000
# 5 0.000000 0.000000 0.000000 0.000000 0.039527 0.000000
# 6 0.000000 0.000000 0.000000 0.000000 0.000000 0.080291
#
#
# Mechanical properties :
#
#
# Convention : Reuss Voigt Hill
#
# Bulk Modulus (GPa) = 53.23482 56.57673 54.90577
# Shear Modulus (GPa) = 24.46389 29.34744 26.90567
#
# Velocity S-wave (km/s) = 3.38576 3.70833 3.55071
# Velocity P-wave (km/s) = 6.34266 6.69675 6.52211
#
# Compressibility (1/GPa) = 0.01878470
#
# Stress axis : x y z
#
# Youngs Moduli (GPa) = 86.42500 72.99821 99.09914
#
# Poissons Ratio (x) = 0.09256 0.33963
# Poissons Ratio (y) = 0.10959 0.35603
# Poissons Ratio (z) = 0.29620 0.26226
#
# Static dielectric constant tensor:
#      x y z
#    x 3.749880 0.000000 0.000000 
#    y 0.000000 4.156420 0.000000 
#    z 0.000000 0.000000 4.155800 
# 
# 
# High freq. dielectric constant tensor:
#      x y z
#    x 1.829530 0.000000 0.000000 
#    y 0.000000 1.852540 0.000000 
#    z 0.000000 0.000000 1.849750 
# 
# From -- ./inp_files/26100.got.cif
#   From: 2010.03.12/outbox.cif.g09.slc.cpg/sg60_14_cif.got.tgz:26100.got - 2010.04.10 18:46:24.
