data_PCOD8247045
_publ_section_title
;
Structure prediction by ZEFSAII (Michael W. Deem and Ramdas Pophale) SiO2 
 PCOD8247045
Probable space group: P B C N
;
_chemical_formula_sum "Si O2"
_cell_formula_units_Z 56
_cell_length_a 15.567849
_cell_length_b 14.218056
_cell_length_c 11.299862
_cell_angle_alpha 90.000000
_cell_angle_beta 90.000000
_cell_angle_gamma 90.000000
_cell_volume 2501.162857
_symmetry_space_group_name_H-M "P B C N"
_symmetry_group_IT_number 60
_symmetry_cell_setting 'orthorhombic'
loop_
_space_group_symop_operation_xyz
x,y,z
1/2-x,1/2-y,1/2+z
1/2+x,1/2-y,-z
-x,y,1/2-z
-x,-y,-z
1/2+x,1/2+y,1/2-z
1/2-x,1/2+y,z
x,-y,1/2+z
loop_
_atom_site_type_symbol
_atom_site_label
_atom_site_fract_x
_atom_site_fract_y
_atom_site_fract_z
Si Si1 0.299568 0.882812 0.351489
Si Si2 0.514713 0.444487 0.877522
Si Si3 0.585719 0.040918 0.056194
Si Si4 0.272071 0.858324 0.090771
Si Si5 0.883339 0.204678 0.051561
Si Si6 0.159273 0.838886 0.526304
Si Si7 0.978729 0.265126 0.621959
O O1 0.252868 0.890500 0.224729
O O2 0.339038 0.778194 0.360116
O O3 0.231716 0.898048 0.457228
O O4 0.372530 0.962420 0.359593
O O5 0.500000 0.498126 0.750000
O O6 0.500000 0.500000 0.000000
O O7 0.448280 0.357911 0.872642
O O8 0.613100 0.407368 0.879510
O O9 0.561095 0.130932 0.134928
O O10 0.653049 0.074053 0.956839
O O11 0.500000 0.000000 0.000000
O O12 0.186014 0.864205 0.011694
O O13 0.301446 0.749778 0.093806
O O14 0.934224 0.266454 0.954513
O O15 0.088803 0.807269 0.431292
O O16 0.000000 0.225296 0.750000
#
# Coordination Sequence:
#
# PCOD8247045 Si02
#       7
#     8   8   8   8   8   8   8
#     4  11  22  40  68  90 133 172 212 271 328 392
#     4  11  25  44  69  98 132 172 219 275 331 391
#     4  11  24  39  57  99 131 166 222 266 337 398
#     4  10  23  41  65  94 130 173 218 266 327 394
#     4  10  22  43  65  95 126 170 225 264 325 398
#     4   9  22  43  62  96 126 169 224 264 321 399
#     4  10  20  38  64  90 131 170 220 274 330 393
#
# _framework density 22.389585
#
# number of rings (size 3 to 8) (size 9 to 14) (size 15 to 20)
#    0.000    1.714    1.429    1.714    4.000    3.429 
#    0.000    1.429    0.000    0.000    0.000    0.000 
#    0.000    0.000    0.000    0.000    0.000    0.000 
#
# Total GULP energy -694368.776113 kJ/mol
# GULP energy per Si atom -12399.442431 kJ/mol
# Density = 2.233863 g / cm^3
# Si number density = 22.389585 Si / 1000 Ang^3
#
#
#
# Elastic Constant Matrix: (Units=GPa)
#
#
# Indices 1 2 3 4 5 6 
#
# 1 105.7357 16.4653 13.6230 0.0000 0.0000 0.0000
# 2 16.4653 59.4111 15.5962 0.0000 0.0000 0.0000
# 3 13.6230 15.5962 111.9267 0.0000 0.0000 0.0000
# 4 0.0000 0.0000 0.0000 16.1081 0.0000 0.0000
# 5 0.0000 0.0000 0.0000 0.0000 19.9850 0.0000
# 6 0.0000 0.0000 0.0000 0.0000 0.0000 43.2682
#
#
#
# Elastic Compliance Matrix: (Units=1/GPa)
#
#
# Indices 1 2 3 4 5 6 
#
# 1 0.009963 -0.002536 -0.000859 0.000000 0.000000 0.000000
# 2 -0.002536 0.018116 -0.002216 0.000000 0.000000 0.000000
# 3 -0.000859 -0.002216 0.009348 0.000000 0.000000 0.000000
# 4 0.000000 0.000000 0.000000 0.062081 0.000000 0.000000
# 5 0.000000 0.000000 0.000000 0.000000 0.050038 0.000000
# 6 0.000000 0.000000 0.000000 0.000000 0.000000 0.023112
#
#
# Mechanical properties :
#
#
# Convention : Reuss Voigt Hill
#
# Bulk Modulus (GPa) = 38.15955 40.93804 39.54880
# Shear Modulus (GPa) = 25.95869 31.29819 28.62844
#
# Velocity S-wave (km/s) = 3.40870 3.74289 3.57970
# Velocity P-wave (km/s) = 5.70726 6.08302 5.89813
#
# Compressibility (1/GPa) = 0.02620576
#
# Stress axis : x y z
#
# Youngs Moduli (GPa) = 100.37029 55.19904 106.97753
#
# Poissons Ratio (x) = 0.13996 0.09193
# Poissons Ratio (y) = 0.25450 0.23704
# Poissons Ratio (z) = 0.08625 0.12231
#
# Static dielectric constant tensor:
#      x y z
#    x 4.269620 0.000000 0.000000 
#    y 0.000000 4.062270 0.000000 
#    z 0.000000 0.000000 3.774120 
# 
# 
# High freq. dielectric constant tensor:
#      x y z
#    x 1.894240 0.000000 0.000000 
#    y 0.000000 1.876740 0.000000 
#    z 0.000000 0.000000 1.870770 
# 
# From -- ./inp_files/11978.got.cif
#   From: 2010.03.12/outbox.cif.g09.slc.cpg/sg60_6_cif.got.tgz:11978.got - 2010.04.10 18:46:24.
