data_PCOD8247223
_publ_section_title
;
Structure prediction by ZEFSAII (Michael W. Deem and Ramdas Pophale) SiO2 
 PCOD8247223
Probable space group: P B C N
;
_chemical_formula_sum "Si O2"
_cell_formula_units_Z 48
_cell_length_a 29.230655
_cell_length_b 8.610128
_cell_length_c 9.433440
_cell_angle_alpha 90.000000
_cell_angle_beta 90.000000
_cell_angle_gamma 90.000000
_cell_volume 2374.205171
_symmetry_space_group_name_H-M "P B C N"
_symmetry_group_IT_number 60
_symmetry_cell_setting 'orthorhombic'
loop_
_space_group_symop_operation_xyz
x,y,z
1/2-x,1/2-y,1/2+z
1/2+x,1/2-y,-z
-x,y,1/2-z
-x,-y,-z
1/2+x,1/2+y,1/2-z
1/2-x,1/2+y,z
x,-y,1/2+z
loop_
_atom_site_type_symbol
_atom_site_label
_atom_site_fract_x
_atom_site_fract_y
_atom_site_fract_z
Si Si1 0.535551 0.159305 0.861735
Si Si2 0.369649 0.105486 0.739840
Si Si3 0.879240 0.685344 0.448034
Si Si4 0.281345 0.684385 0.216044
Si Si5 0.522091 0.792709 0.886858
Si Si6 0.209463 0.124360 0.542874
O O1 0.500000 0.228273 0.750000
O O2 0.588059 0.202312 0.828299
O O3 0.532049 0.974220 0.866818
O O4 0.518988 0.238565 0.005080
O O5 0.323203 0.196258 0.709919
O O6 0.366090 0.932025 0.678174
O O7 0.379622 0.085880 0.906823
O O8 0.927973 0.774125 0.426972
O O9 0.842720 0.821575 0.458196
O O10 0.271793 0.628329 0.379108
O O11 0.290989 0.546919 0.106359
O O12 0.237386 0.769099 0.151777
O O13 0.500000 0.712940 0.750000
#
# Coordination Sequence:
#
# PCOD8247223 Si02
#       6
#     8   8   8   8   8   8
#     4   9  15  28  48  75 113 148 187 231 278 324
#     4  10  21  34  56  86 116 151 191 235 285 338
#     4  10  21  35  55  85 119 150 190 236 285 337
#     4  11  24  43  63  88 116 150 192 236 293 348
#     4   9  17  28  46  79 113 149 189 233 278 328
#     4  11  24  43  64  87 117 150 190 240 289 351
#
# _framework density 20.217293000000002
#
# number of rings (size 3 to 8) (size 9 to 14) (size 15 to 20)
#    0.000    2.000    1.667    2.000    7.000    5.333 
#    0.000    0.000    0.000    2.000    0.000    0.000 
#    0.000    0.000    0.000    0.000    0.000    0.000 
#
# Total GULP energy -594883.773748 kJ/mol
# GULP energy per Si atom -12393.411953 kJ/mol
# Density = 2.017128 g / cm^3
# Si number density = 20.217293 Si / 1000 Ang^3
#
#
#
# Elastic Constant Matrix: (Units=GPa)
#
#
# Indices 1 2 3 4 5 6 
#
# 1 98.0610 -0.3993 29.1835 0.0000 0.0000 0.0000
# 2 -0.3993 28.9277 0.2897 0.0000 0.0000 0.0000
# 3 29.1835 0.2897 105.0326 0.0000 0.0000 0.0000
# 4 0.0000 0.0000 0.0000 22.4707 0.0000 0.0000
# 5 0.0000 0.0000 0.0000 0.0000 35.7406 0.0000
# 6 0.0000 0.0000 0.0000 0.0000 0.0000 14.1448
#
#
#
# Elastic Compliance Matrix: (Units=1/GPa)
#
#
# Indices 1 2 3 4 5 6 
#
# 1 0.011118 0.000184 -0.003090 0.000000 0.000000 0.000000
# 2 0.000184 0.034573 -0.000147 0.000000 0.000000 0.000000
# 3 -0.003090 -0.000147 0.010380 0.000000 0.000000 0.000000
# 4 0.000000 0.000000 0.000000 0.044502 0.000000 0.000000
# 5 0.000000 0.000000 0.000000 0.000000 0.027979 0.000000
# 6 0.000000 0.000000 0.000000 0.000000 0.000000 0.070697
#
#
# Mechanical properties :
#
#
# Convention : Reuss Voigt Hill
#
# Bulk Modulus (GPa) = 20.01320 32.24101 26.12711
# Shear Modulus (GPa) = 22.52160 28.00105 25.26132
#
# Velocity S-wave (km/s) = 3.34125 3.72560 3.53865
# Velocity P-wave (km/s) = 4.98054 5.87271 5.44493
#
# Compressibility (1/GPa) = 0.04996701
#
# Stress axis : x y z
#
# Youngs Moduli (GPa) = 89.94437 28.92430 96.34165
#
# Poissons Ratio (x) = -0.00533 0.29766
# Poissons Ratio (y) = -0.01659 0.01412
# Poissons Ratio (z) = 0.27790 0.00424
#
# Static dielectric constant tensor:
#      x y z
#    x 4.063120 0.000000 0.000000 
#    y 0.000000 3.105110 0.000000 
#    z 0.000000 0.000000 4.319720 
# 
# 
# High freq. dielectric constant tensor:
#      x y z
#    x 1.810260 0.000000 0.000000 
#    y 0.000000 1.732370 0.000000 
#    z 0.000000 0.000000 1.809830 
# 
# From -- ./inp_files/8382.got.cif
#   From: 2010.03.12/outbox.cif.g09.slc.cpg/sg60_5_cif.got.tgz:8382.got - 2010.04.10 18:46:24.
