data_PCOD8247444
_publ_section_title
;
Structure prediction by ZEFSAII (Michael W. Deem and Ramdas Pophale) SiO2 
 PCOD8247444
Probable space group: P B C N
;
_chemical_formula_sum "Si O2"
_cell_formula_units_Z 64
_cell_length_a 23.656222
_cell_length_b 9.397746
_cell_length_c 13.252234
_cell_angle_alpha 90.000000
_cell_angle_beta 90.000000
_cell_angle_gamma 90.000000
_cell_volume 2946.172597
_symmetry_space_group_name_H-M "P B C N"
_symmetry_group_IT_number 60
_symmetry_cell_setting 'orthorhombic'
loop_
_space_group_symop_operation_xyz
x,y,z
1/2-x,1/2-y,1/2+z
1/2+x,1/2-y,-z
-x,y,1/2-z
-x,-y,-z
1/2+x,1/2+y,1/2-z
1/2-x,1/2+y,z
x,-y,1/2+z
loop_
_atom_site_type_symbol
_atom_site_label
_atom_site_fract_x
_atom_site_fract_y
_atom_site_fract_z
Si Si1 0.125378 0.496890 0.082278
Si Si2 0.317415 0.507016 0.157384
Si Si3 0.598959 0.377835 0.685765
Si Si4 0.922926 0.400373 0.104690
Si Si5 0.211160 0.686222 0.194847
Si Si6 0.098638 0.089869 0.981234
Si Si7 0.653108 0.145106 0.108686
Si Si8 0.457735 0.234544 0.640421
O O1 0.156236 0.610175 0.150437
O O2 0.095922 0.372841 0.147917
O O3 0.076862 0.578893 0.017025
O O4 0.169348 0.424944 0.000424
O O5 0.350157 0.541302 0.260552
O O6 0.267796 0.622629 0.147840
O O7 0.290278 0.351563 0.166340
O O8 0.358021 0.519444 0.061020
O O9 0.619321 0.229182 0.635132
O O10 0.573038 0.471172 0.593823
O O11 0.548262 0.340528 0.763966
O O12 0.897990 0.545559 0.155009
O O13 0.985390 0.358707 0.143390
O O14 0.206538 0.656545 0.315587
O O15 0.047680 0.172146 0.038189
O O16 0.131071 0.196550 0.907417
#
# Coordination Sequence:
#
# PCOD8247444 Si02
#       8
#     8   8   8   8   8   8   8   8
#     4   9  22  39  66  95 133 166 222 274 333 391
#     4  11  28  41  69  92 135 177 226 285 337 402
#     4  11  22  42  63  96 138 177 218 278 336 399
#     4  10  21  39  70  98 129 178 219 269 337 395
#     4  12  24  45  64  98 128 176 228 275 345 397
#     4  10  22  45  62  97 141 171 225 279 336 397
#     4   9  22  41  68  94 133 169 221 276 327 401
#     4  10  21  40  72  97 137 177 223 277 330 405
#
# _framework density 21.723099000000001
#
# number of rings (size 3 to 8) (size 9 to 14) (size 15 to 20)
#    0.750    1.000    1.250    2.250    7.000    1.500 
#    2.250    1.250    0.000    0.000    0.000    0.000 
#    0.000    0.000    0.000    0.000    0.000    0.000 
#
# Total GULP energy -792879.803654 kJ/mol
# GULP energy per Si atom -12388.746932 kJ/mol
# Density = 2.167366 g / cm^3
# Si number density = 21.723099 Si / 1000 Ang^3
#
#
#
# Elastic Constant Matrix: (Units=GPa)
#
#
# Indices 1 2 3 4 5 6 
#
# 1 67.4374 24.8914 18.6957 0.0000 0.0000 0.0000
# 2 24.8914 121.6396 43.9908 0.0000 0.0000 0.0000
# 3 18.6957 43.9908 76.7255 0.0000 0.0000 0.0000
# 4 0.0000 0.0000 0.0000 45.1006 0.0000 0.0000
# 5 0.0000 0.0000 0.0000 0.0000 21.1598 0.0000
# 6 0.0000 0.0000 0.0000 0.0000 0.0000 28.6520
#
#
#
# Elastic Compliance Matrix: (Units=1/GPa)
#
#
# Indices 1 2 3 4 5 6 
#
# 1 0.016448 -0.002418 -0.002622 0.000000 0.000000 0.000000
# 2 -0.002418 0.010727 -0.005561 0.000000 0.000000 0.000000
# 3 -0.002622 -0.005561 0.016861 0.000000 0.000000 0.000000
# 4 0.000000 0.000000 0.000000 0.022173 0.000000 0.000000
# 5 0.000000 0.000000 0.000000 0.000000 0.047259 0.000000
# 6 0.000000 0.000000 0.000000 0.000000 0.000000 0.034902
#
#
# Mechanical properties :
#
#
# Convention : Reuss Voigt Hill
#
# Bulk Modulus (GPa) = 43.79341 48.99539 46.39440
# Shear Modulus (GPa) = 28.21964 30.86414 29.54189
#
# Velocity S-wave (km/s) = 3.60816 3.77344 3.69172
# Velocity P-wave (km/s) = 6.12879 6.44892 6.29089
#
# Compressibility (1/GPa) = 0.02283449
#
# Stress axis : x y z
#
# Youngs Moduli (GPa) = 60.79869 93.22326 59.30903
#
# Poissons Ratio (x) = 0.22538 0.15549
# Poissons Ratio (y) = 0.14699 0.32983
# Poissons Ratio (z) = 0.15939 0.51844
#
# Static dielectric constant tensor:
#      x y z
#    x 3.479050 0.000000 0.000000 
#    y 0.000000 4.097920 0.000000 
#    z 0.000000 0.000000 4.114080 
# 
# 
# High freq. dielectric constant tensor:
#      x y z
#    x 1.815880 0.000000 0.000000 
#    y 0.000000 1.866790 0.000000 
#    z 0.000000 0.000000 1.866880 
# 
# From -- ./inp_files/17957.got.cif
#   From: 2010.03.12/outbox.cif.g09.slc.cpg/sg60_9_cif.got.tgz:17957.got - 2010.04.10 18:46:24.
