data_PCOD8247991
_publ_section_title
;
Structure prediction by ZEFSAII (Michael W. Deem and Ramdas Pophale) SiO2 
 PCOD8247991
Probable space group: P B C N
;
_chemical_formula_sum "Si O2"
_cell_formula_units_Z 36
_cell_length_a 8.623021
_cell_length_b 14.516358
_cell_length_c 13.174931
_cell_angle_alpha 90.000000
_cell_angle_beta 90.000000
_cell_angle_gamma 90.000000
_cell_volume 1649.170142
_symmetry_space_group_name_H-M "P B C N"
_symmetry_group_IT_number 60
_symmetry_cell_setting 'orthorhombic'
loop_
_space_group_symop_operation_xyz
x,y,z
1/2-x,1/2-y,1/2+z
1/2+x,1/2-y,-z
-x,y,1/2-z
-x,-y,-z
1/2+x,1/2+y,1/2-z
1/2-x,1/2+y,z
x,-y,1/2+z
loop_
_atom_site_type_symbol
_atom_site_label
_atom_site_fract_x
_atom_site_fract_y
_atom_site_fract_z
Si Si1 0.500000 0.541356 0.250000
Si Si2 0.203374 0.080022 0.886980
Si Si3 0.725192 0.640654 0.399005
Si Si4 0.975630 0.504597 0.362105
Si Si5 0.161162 0.319780 0.205010
O O1 0.432323 0.482879 0.343101
O O2 0.634381 0.600089 0.302608
O O3 0.233846 0.158954 0.803192
O O4 0.142554 0.127883 0.991148
O O5 0.358047 0.018684 0.911764
O O6 0.890692 0.590104 0.416021
O O7 0.744120 0.748534 0.371709
O O8 0.867250 0.413346 0.358804
O O9 0.000000 0.541287 0.250000
O O10 0.000000 0.279870 0.250000
#
# Coordination Sequence:
#
# PCOD8247991 Si02
#       5
#     4   8   8   8   8
#     4  12  22  42  64  90 132 158 218 270 302 374
#     4  10  23  43  62  95 127 166 211 262 314 374
#     4  12  21  41  70  89 121 176 204 256 332 365
#     4   9  19  43  64  85 130 156 203 263 306 373
#     4   9  20  42  60  89 132 156 202 265 306 375
#
# _framework density 21.829160999999999
#
# number of rings (size 3 to 8) (size 9 to 14) (size 15 to 20)
#    0.000    2.222    5.556    1.333    0.000    0.000 
#   14.000    0.000    0.000    0.000    0.000    0.000 
#    0.000    0.000    0.000    0.000    0.000    0.000 
#
# Total GULP energy -446080.818868 kJ/mol
# GULP energy per Si atom -12391.133857 kJ/mol
# Density = 2.177948 g / cm^3
# Si number density = 21.829161 Si / 1000 Ang^3
#
#
#
# Elastic Constant Matrix: (Units=GPa)
#
#
# Indices 1 2 3 4 5 6 
#
# 1 53.0696 23.6352 -0.5017 0.0000 0.0000 0.0000
# 2 23.6352 77.0860 3.9770 0.0000 0.0000 0.0000
# 3 -0.5017 3.9770 52.3115 0.0000 0.0000 0.0000
# 4 0.0000 0.0000 0.0000 -236.6200 0.0000 0.0000
# 5 0.0000 0.0000 0.0000 0.0000 8.5122 0.0000
# 6 0.0000 0.0000 0.0000 0.0000 0.0000 133.6350
#
#
#
# Elastic Compliance Matrix: (Units=1/GPa)
#
#
# Indices 1 2 3 4 5 6 
#
# 1 0.021850 -0.006737 0.000722 0.000000 0.000000 0.000000
# 2 -0.006737 0.015101 -0.001213 0.000000 0.000000 0.000000
# 3 0.000722 -0.001213 0.019215 0.000000 0.000000 0.000000
# 4 0.000000 0.000000 0.000000 -0.004226 0.000000 0.000000
# 5 0.000000 0.000000 0.000000 0.000000 0.117479 0.000000
# 6 0.000000 0.000000 0.000000 0.000000 0.000000 0.007483
#
#
# Mechanical properties :
#
#
# Convention : Reuss Voigt Hill
#
# Bulk Modulus (GPa) = 23.97449 26.29868 25.13658
# Shear Modulus (GPa) = 24.35928 -8.53744 7.91092
#
# Velocity S-wave (km/s) = 3.34414 -1.97978 1.90575
# Velocity P-wave (km/s) = 5.09094 2.61680 4.04755
#
# Compressibility (1/GPa) = 0.04171101
#
# Stress axis : x y z
#
# Youngs Moduli (GPa) = 45.76598 66.22249 52.04172
#
# Poissons Ratio (x) = 0.44612 -0.03756
# Poissons Ratio (y) = 0.30831 0.06311
# Poissons Ratio (z) = -0.03303 0.08030
#
# Static dielectric constant tensor:
#      x y z
#    x 3.819680 0.000000 0.000000 
#    y 0.000000 3.732090 0.000000 
#    z 0.000000 0.000000 3.983820 
# 
# 
# High freq. dielectric constant tensor:
#      x y z
#    x 1.836450 0.000000 0.000000 
#    y 0.000000 1.838050 0.000000 
#    z 0.000000 0.000000 1.869110 
# 
# From -- ./inp_files/10789.got.cif
#   From: 2010.03.12/outbox.cif.g09.slc.cpg/sg60_6_cif.got.tgz:10789.got - 2010.04.10 18:46:24.
