data_PCOD8247678
_publ_section_title
;
Structure prediction by ZEFSAII (Michael W. Deem and Ramdas Pophale) SiO2 
 PCOD8247678
Probable space group: P B C N
;
_chemical_formula_sum "Si O2"
_cell_formula_units_Z 48
_cell_length_a 8.553296
_cell_length_b 10.280925
_cell_length_c 28.453297
_cell_angle_alpha 90.000000
_cell_angle_beta 90.000000
_cell_angle_gamma 90.000000
_cell_volume 2502.063283
_symmetry_space_group_name_H-M "P B C N"
_symmetry_group_IT_number 60
_symmetry_cell_setting 'orthorhombic'
loop_
_space_group_symop_operation_xyz
x,y,z
1/2-x,1/2-y,1/2+z
1/2+x,1/2-y,-z
-x,y,1/2-z
-x,-y,-z
1/2+x,1/2+y,1/2-z
1/2-x,1/2+y,z
x,-y,1/2+z
loop_
_atom_site_type_symbol
_atom_site_label
_atom_site_fract_x
_atom_site_fract_y
_atom_site_fract_z
Si Si1 0.436196 0.877387 0.025670
Si Si2 0.856332 0.111872 0.124285
Si Si3 0.896248 0.912089 0.795779
Si Si4 0.092330 0.399513 0.373507
Si Si5 0.401671 0.378138 0.986529
Si Si6 0.874263 0.381125 0.291258
O O1 0.499071 0.887113 0.078128
O O2 0.502444 0.750041 0.000147
O O3 0.250579 0.874642 0.019400
O O4 0.500000 0.000000 0.000000
O O5 0.819526 0.262498 0.138152
O O6 0.881324 0.108554 0.068891
O O7 0.004103 0.064846 0.155980
O O8 0.711163 0.017781 0.132683
O O9 0.816872 0.768738 0.797014
O O10 0.000000 0.917285 0.750000
O O11 0.773476 0.025854 0.786334
O O12 0.956332 0.430637 0.337824
O O13 0.500000 0.500000 0.000000
O O14 0.000000 0.397087 0.250000
#
# Coordination Sequence:
#
# PCOD8247678 Si02
#       6
#     8   8   8   8   8   8
#     4  11  22  40  60  86 121 161 202 253 303 360
#     4  10  22  39  59  87 119 157 197 247 297 359
#     4  10  22  40  62  89 121 154 198 245 302 363
#     4  10  22  39  60  88 120 155 203 246 300 359
#     4  11  24  39  60  87 120 160 206 250 304 361
#     4  10  22  40  61  89 121 154 197 249 299 363
#
# _framework density 19.184168
#
# number of rings (size 3 to 8) (size 9 to 14) (size 15 to 20)
#    0.000    1.667    1.667    2.000    4.667    2.000 
#    3.000    0.000    0.000    0.000    0.000    0.000 
#    0.000    0.000    0.000    0.000    0.000    0.000 
#
# Total GULP energy -594818.867164 kJ/mol
# GULP energy per Si atom -12392.059733 kJ/mol
# Density = 1.914050 g / cm^3
# Si number density = 19.184168 Si / 1000 Ang^3
#
#
#
# Elastic Constant Matrix: (Units=GPa)
#
#
# Indices 1 2 3 4 5 6 
#
# 1 112.2206 74.4310 23.0395 0.0000 0.0000 0.0000
# 2 74.4310 142.2712 32.3612 0.0000 0.0000 0.0000
# 3 23.0395 32.3612 60.4366 0.0000 0.0000 0.0000
# 4 0.0000 0.0000 0.0000 25.1479 0.0000 0.0000
# 5 0.0000 0.0000 0.0000 0.0000 29.3202 0.0000
# 6 0.0000 0.0000 0.0000 0.0000 0.0000 23.6498
#
#
#
# Elastic Compliance Matrix: (Units=1/GPa)
#
#
# Indices 1 2 3 4 5 6 
#
# 1 0.013778 -0.006848 -0.001586 0.000000 0.000000 0.000000
# 2 -0.006848 0.011407 -0.003497 0.000000 0.000000 0.000000
# 3 -0.001586 -0.003497 0.019024 0.000000 0.000000 0.000000
# 4 0.000000 0.000000 0.000000 0.039765 0.000000 0.000000
# 5 0.000000 0.000000 0.000000 0.000000 0.034106 0.000000
# 6 0.000000 0.000000 0.000000 0.000000 0.000000 0.042284
#
#
# Mechanical properties :
#
#
# Convention : Reuss Voigt Hill
#
# Bulk Modulus (GPa) = 49.14787 63.84354 56.49571
# Shear Modulus (GPa) = 26.17701 27.96336 27.07019
#
# Velocity S-wave (km/s) = 3.69794 3.82203 3.76050
# Velocity P-wave (km/s) = 6.62628 7.26834 6.95472
#
# Compressibility (1/GPa) = 0.02034676
#
# Stress axis : x y z
#
# Youngs Moduli (GPa) = 72.57791 87.66757 52.56637
#
# Poissons Ratio (x) = 0.60031 0.08337
# Poissons Ratio (y) = 0.49698 0.18385
# Poissons Ratio (z) = 0.11511 0.30661
#
# Static dielectric constant tensor:
#      x y z
#    x 3.358200 0.000000 0.000000 
#    y 0.000000 3.829860 0.000000 
#    z 0.000000 0.000000 3.449710 
# 
# 
# High freq. dielectric constant tensor:
#      x y z
#    x 1.735860 0.000000 0.000000 
#    y 0.000000 1.768080 0.000000 
#    z 0.000000 0.000000 1.761440 
# 
# From -- ./inp_files/25932.got.cif
#   From: 2010.03.12/outbox.cif.g09.slc.cpg/sg60_13_cif.got.tgz:25932.got - 2010.04.10 18:46:24.
