data_PCOD8247332
_publ_section_title
;
Structure prediction by ZEFSAII (Michael W. Deem and Ramdas Pophale) SiO2 
 PCOD8247332
Probable space group: P B C N
;
_chemical_formula_sum "Si O2"
_cell_formula_units_Z 40
_cell_length_a 26.031471
_cell_length_b 4.843742
_cell_length_c 14.004510
_cell_angle_alpha 90.000000
_cell_angle_beta 90.000000
_cell_angle_gamma 90.000000
_cell_volume 1765.824876
_symmetry_space_group_name_H-M "P B C N"
_symmetry_group_IT_number 60
_symmetry_cell_setting 'orthorhombic'
loop_
_space_group_symop_operation_xyz
x,y,z
1/2-x,1/2-y,1/2+z
1/2+x,1/2-y,-z
-x,y,1/2-z
-x,-y,-z
1/2+x,1/2+y,1/2-z
1/2-x,1/2+y,z
x,-y,1/2+z
loop_
_atom_site_type_symbol
_atom_site_label
_atom_site_fract_x
_atom_site_fract_y
_atom_site_fract_z
Si Si1 0.962615 0.755585 0.663628
Si Si2 0.534674 0.237816 0.045584
Si Si3 0.348215 0.324551 0.856574
Si Si4 0.215392 0.217842 0.170169
Si Si5 0.648202 0.192408 0.014558
O O1 0.955650 0.427977 0.645912
O O2 0.905980 0.877902 0.682837
O O3 0.000000 0.812394 0.750000
O O4 0.986681 0.949789 0.574562
O O5 0.588878 0.271179 0.991123
O O6 0.500000 0.000000 0.000000
O O7 0.312723 0.227269 0.770283
O O8 0.327931 0.606688 0.904530
O O9 0.347357 0.113265 0.944457
O O10 0.266582 0.402333 0.163950
O O11 0.177698 0.289188 0.084363
#
# Coordination Sequence:
#
# PCOD8247332 Si02
#       5
#     8   8   8   8   8
#     4  10  21  38  60  92 124 164 207 250 318 374
#     4  10  21  38  60  92 124 164 207 251 319 378
#     4  10  23  43  63  91 132 163 206 266 317 377
#     4  12  26  42  66  97 119 169 223 258 324 380
#     4  10  23  43  63  92 131 164 206 267 319 376
#
# _framework density 22.652304000000001
#
# number of rings (size 3 to 8) (size 9 to 14) (size 15 to 20)
#    0.000    1.600    0.000    3.600    2.800    4.800 
#    3.600    0.000    0.000    0.000    0.000    0.000 
#    0.000    0.000    0.000    0.000    0.000    0.000 
#
# Total GULP energy -495836.277482 kJ/mol
# GULP energy per Si atom -12395.906937 kJ/mol
# Density = 2.260075 g / cm^3
# Si number density = 22.652304 Si / 1000 Ang^3
#
#
#
# Elastic Constant Matrix: (Units=GPa)
#
#
# Indices 1 2 3 4 5 6 
#
# 1 58.8113 10.6007 23.6556 0.0000 0.0000 0.0000
# 2 10.6007 119.3191 4.3393 0.0000 0.0000 0.0000
# 3 23.6556 4.3393 68.3781 0.0000 0.0000 0.0000
# 4 0.0000 0.0000 0.0000 22.9506 0.0000 0.0000
# 5 0.0000 0.0000 0.0000 0.0000 11.7405 0.0000
# 6 0.0000 0.0000 0.0000 0.0000 0.0000 25.9563
#
#
#
# Elastic Compliance Matrix: (Units=1/GPa)
#
#
# Indices 1 2 3 4 5 6 
#
# 1 0.020027 -0.001531 -0.006831 0.000000 0.000000 0.000000
# 2 -0.001531 0.008517 -0.000011 0.000000 0.000000 0.000000
# 3 -0.006831 -0.000011 0.016989 0.000000 0.000000 0.000000
# 4 0.000000 0.000000 0.000000 0.043572 0.000000 0.000000
# 5 0.000000 0.000000 0.000000 0.000000 0.085175 0.000000
# 6 0.000000 0.000000 0.000000 0.000000 0.000000 0.038526
#
#
# Mechanical properties :
#
#
# Convention : Reuss Voigt Hill
#
# Bulk Modulus (GPa) = 34.73801 35.96664 35.35232
# Shear Modulus (GPa) = 20.90753 25.99035 23.44894
#
# Velocity S-wave (km/s) = 3.04135 3.39095 3.22089
# Velocity P-wave (km/s) = 5.26324 5.58959 5.42887
#
# Compressibility (1/GPa) = 0.02878691
#
# Stress axis : x y z
#
# Youngs Moduli (GPa) = 49.93200 117.40829 58.86311
#
# Poissons Ratio (x) = 0.17973 0.40211
# Poissons Ratio (y) = 0.07644 0.00064
# Poissons Ratio (z) = 0.34110 0.00128
#
# Static dielectric constant tensor:
#      x y z
#    x 3.961110 0.000000 0.000000 
#    y 0.000000 8.686490 0.000000 
#    z 0.000000 0.000000 3.882070 
# 
# 
# High freq. dielectric constant tensor:
#      x y z
#    x 1.889180 0.000000 0.000000 
#    y 0.000000 1.922280 0.000000 
#    z 0.000000 0.000000 1.888010 
# 
# From -- ./inp_files/13200.got.cif
#   From: 2010.03.12/outbox.cif.g09.slc.cpg/sg60_7_cif.got.tgz:13200.got - 2010.04.10 18:46:24.
