data_PCOD8247672
_publ_section_title
;
Structure prediction by ZEFSAII (Michael W. Deem and Ramdas Pophale) SiO2 
 PCOD8247672
Probable space group: P B C N
;
_chemical_formula_sum "Si O2"
_cell_formula_units_Z 64
_cell_length_a 10.730096
_cell_length_b 8.783663
_cell_length_c 31.026458
_cell_angle_alpha 90.000000
_cell_angle_beta 90.000000
_cell_angle_gamma 90.000000
_cell_volume 2924.229618
_symmetry_space_group_name_H-M "P B C N"
_symmetry_group_IT_number 60
_symmetry_cell_setting 'orthorhombic'
loop_
_space_group_symop_operation_xyz
x,y,z
1/2-x,1/2-y,1/2+z
1/2+x,1/2-y,-z
-x,y,1/2-z
-x,-y,-z
1/2+x,1/2+y,1/2-z
1/2-x,1/2+y,z
x,-y,1/2+z
loop_
_atom_site_type_symbol
_atom_site_label
_atom_site_fract_x
_atom_site_fract_y
_atom_site_fract_z
Si Si1 0.588175 0.227669 0.379810
Si Si2 0.701062 0.801575 0.094094
Si Si3 0.378934 0.365966 0.726739
Si Si4 0.139811 0.473131 0.258454
Si Si5 0.348811 0.083523 0.352154
Si Si6 0.159050 0.921146 0.632204
Si Si7 0.478110 0.655575 0.050339
Si Si8 0.950577 0.180190 0.542578
O O1 0.630546 0.399720 0.369928
O O2 0.693322 0.104777 0.369111
O O3 0.539917 0.208551 0.429328
O O4 0.473637 0.184395 0.348513
O O5 0.635011 0.952789 0.111780
O O6 0.733334 0.690697 0.134145
O O7 0.614347 0.718231 0.059933
O O8 0.823312 0.846398 0.067763
O O9 0.500000 0.444421 0.750000
O O10 0.360273 0.205245 0.749638
O O11 0.248964 0.457562 0.729079
O O12 0.403899 0.352345 0.675491
O O13 0.182250 0.506246 0.306973
O O14 0.000000 0.539913 0.250000
O O15 0.107318 0.820132 0.592391
O O16 0.476594 0.477771 0.040316
O O17 0.429208 0.740234 0.006553
#
# Coordination Sequence:
#
# PCOD8247672 Si02
#       8
#     8   8   8   8   8   8   8   8
#     4  10  24  43  67  99 133 176 218 273 325 411
#     4  11  22  40  67  98 128 178 219 277 326 401
#     4  11  26  42  66  98 129 170 227 274 337 400
#     4  11  25  43  66  95 131 173 219 282 330 403
#     4  11  24  42  68  95 136 170 231 269 340 393
#     4  11  24  43  67  92 136 176 218 271 344 391
#     4  10  22  38  68  89 136 175 212 279 327 395
#     4   9  21  43  59 101 131 170 226 267 329 391
#
# _framework density 21.886105000000001
#
# number of rings (size 3 to 8) (size 9 to 14) (size 15 to 20)
#    0.000    1.500    1.250    2.250    8.750    1.500 
#    0.000    2.500    0.000    0.000    0.000    0.000 
#    0.000    0.000    0.000    0.000    0.000    0.000 
#
# Total GULP energy -793403.462449 kJ/mol
# GULP energy per Si atom -12396.929101 kJ/mol
# Density = 2.183629 g / cm^3
# Si number density = 21.886105 Si / 1000 Ang^3
#
#
#
# Elastic Constant Matrix: (Units=GPa)
#
#
# Indices 1 2 3 4 5 6 
#
# 1 83.9755 25.3609 25.9552 0.0000 0.0000 0.0000
# 2 25.3609 69.4819 11.1044 0.0000 0.0000 0.0000
# 3 25.9552 11.1044 125.6061 0.0000 0.0000 0.0000
# 4 0.0000 0.0000 0.0000 21.0271 0.0000 0.0000
# 5 0.0000 0.0000 0.0000 0.0000 26.4426 0.0000
# 6 0.0000 0.0000 0.0000 0.0000 0.0000 30.7258
#
#
#
# Elastic Compliance Matrix: (Units=1/GPa)
#
#
# Indices 1 2 3 4 5 6 
#
# 1 0.014115 -0.004753 -0.002497 0.000000 0.000000 0.000000
# 2 -0.004753 0.016199 -0.000450 0.000000 0.000000 0.000000
# 3 -0.002497 -0.000450 0.008517 0.000000 0.000000 0.000000
# 4 0.000000 0.000000 0.000000 0.047558 0.000000 0.000000
# 5 0.000000 0.000000 0.000000 0.000000 0.037818 0.000000
# 6 0.000000 0.000000 0.000000 0.000000 0.000000 0.032546
#
#
# Mechanical properties :
#
#
# Convention : Reuss Voigt Hill
#
# Bulk Modulus (GPa) = 42.67630 44.87828 43.77729
# Shear Modulus (GPa) = 27.78354 30.08197 28.93275
#
# Velocity S-wave (km/s) = 3.56681 3.71142 3.63983
# Velocity P-wave (km/s) = 6.04189 6.23827 6.14087
#
# Compressibility (1/GPa) = 0.02343221
#
# Stress axis : x y z
#
# Youngs Moduli (GPa) = 70.84491 61.73209 117.41128
#
# Poissons Ratio (x) = 0.29342 0.29313
# Poissons Ratio (y) = 0.33673 0.05283
# Poissons Ratio (z) = 0.17687 0.02777
#
# Static dielectric constant tensor:
#      x y z
#    x 4.040170 0.000000 0.000000 
#    y 0.000000 3.727920 0.000000 
#    z 0.000000 0.000000 4.270010 
# 
# 
# High freq. dielectric constant tensor:
#      x y z
#    x 1.862410 0.000000 0.000000 
#    y 0.000000 1.843750 0.000000 
#    z 0.000000 0.000000 1.873120 
# 
# From -- ./inp_files/26091.got.cif
#   From: 2010.03.12/outbox.cif.g09.slc.cpg/sg60_14_cif.got.tgz:26091.got - 2010.04.10 18:46:24.
