data_PCOD8247434
_publ_section_title
;
Structure prediction by ZEFSAII (Michael W. Deem and Ramdas Pophale) SiO2 
 PCOD8247434
Probable space group: P B C N
;
_chemical_formula_sum "Si O2"
_cell_formula_units_Z 64
_cell_length_a 18.091369
_cell_length_b 9.870179
_cell_length_c 17.783050
_cell_angle_alpha 90.000000
_cell_angle_beta 90.000000
_cell_angle_gamma 90.000000
_cell_volume 3175.431219
_symmetry_space_group_name_H-M "P B C N"
_symmetry_group_IT_number 60
_symmetry_cell_setting 'orthorhombic'
loop_
_space_group_symop_operation_xyz
x,y,z
1/2-x,1/2-y,1/2+z
1/2+x,1/2-y,-z
-x,y,1/2-z
-x,-y,-z
1/2+x,1/2+y,1/2-z
1/2-x,1/2+y,z
x,-y,1/2+z
loop_
_atom_site_type_symbol
_atom_site_label
_atom_site_fract_x
_atom_site_fract_y
_atom_site_fract_z
Si Si1 0.061225 0.273900 0.850836
Si Si2 0.691685 0.496118 0.022655
Si Si3 0.337582 0.120351 0.648668
Si Si4 0.824744 0.316297 0.525219
Si Si5 0.595470 0.837011 0.812965
Si Si6 0.172033 0.083404 0.645193
Si Si7 0.435307 0.638346 0.190161
Si Si8 0.036403 0.013380 0.420385
O O1 0.105319 0.339250 0.920430
O O2 0.107409 0.283865 0.772967
O O3 0.034780 0.121217 0.868769
O O4 0.988983 0.364428 0.835926
O O5 0.703743 0.336854 0.037633
O O6 0.761592 0.580197 0.051794
O O7 0.621829 0.555349 0.068790
O O8 0.680801 0.508825 0.933882
O O9 0.346959 0.153901 0.560525
O O10 0.252558 0.126838 0.676445
O O11 0.389450 0.222728 0.695011
O O12 0.360578 0.970980 0.669850
O O13 0.627636 0.721553 0.867494
O O14 0.125153 0.982731 0.699218
O O15 0.500000 0.629439 0.250000
O O16 0.483437 0.627840 0.114243
O O17 0.000000 0.000000 0.500000
#
# Coordination Sequence:
#
# PCOD8247434 Si02
#       8
#     8   8   8   8   8   8   8   8
#     4  10  22  42  65  93 131 174 213 273 330 402
#     4  10  21  39  67  93 131 166 217 280 323 388
#     4  11  25  41  65  96 129 167 216 279 320 392
#     4  10  22  43  65  95 130 167 224 274 330 391
#     4  11  23  41  66  89 132 177 210 259 338 399
#     4  11  21  42  67  92 119 174 224 254 325 403
#     4  12  23  40  66  98 128 167 220 273 321 387
#     4  11  19  40  69  97 125 168 228 269 317 394
#
# _framework density 20.154741999999999
#
# number of rings (size 3 to 8) (size 9 to 14) (size 15 to 20)
#    0.000    1.250    3.750    2.250    7.000    0.500 
#   11.250    0.000    0.000    0.000    0.000    0.000 
#    0.000    0.000    0.000    0.000    0.000    0.000 
#
# Total GULP energy -793311.741481 kJ/mol
# GULP energy per Si atom -12395.495961 kJ/mol
# Density = 2.010887 g / cm^3
# Si number density = 20.154742 Si / 1000 Ang^3
#
#
#
# Elastic Constant Matrix: (Units=GPa)
#
#
# Indices 1 2 3 4 5 6 
#
# 1 127.6572 41.1620 44.1714 0.0000 0.0000 0.0000
# 2 41.1620 101.2738 21.8032 0.0000 0.0000 0.0000
# 3 44.1714 21.8032 69.9875 0.0000 0.0000 0.0000
# 4 0.0000 0.0000 0.0000 23.3646 0.0000 0.0000
# 5 0.0000 0.0000 0.0000 0.0000 38.0125 0.0000
# 6 0.0000 0.0000 0.0000 0.0000 0.0000 45.4553
#
#
#
# Elastic Compliance Matrix: (Units=1/GPa)
#
#
# Indices 1 2 3 4 5 6 
#
# 1 0.010889 -0.003158 -0.005889 0.000000 0.000000 0.000000
# 2 -0.003158 0.011500 -0.001589 0.000000 0.000000 0.000000
# 3 -0.005889 -0.001589 0.018500 0.000000 0.000000 0.000000
# 4 0.000000 0.000000 0.000000 0.042800 0.000000 0.000000
# 5 0.000000 0.000000 0.000000 0.000000 0.026307 0.000000
# 6 0.000000 0.000000 0.000000 0.000000 0.000000 0.022000
#
#
# Mechanical properties :
#
#
# Convention : Reuss Voigt Hill
#
# Bulk Modulus (GPa) = 50.97678 57.02130 53.99904
# Shear Modulus (GPa) = 31.28763 34.15195 32.71979
#
# Velocity S-wave (km/s) = 3.94429 4.12088 4.03355
# Velocity P-wave (km/s) = 6.78902 7.14110 6.96729
#
# Compressibility (1/GPa) = 0.01961678
#
# Stress axis : x y z
#
# Youngs Moduli (GPa) = 91.83235 86.95650 54.05401
#
# Poissons Ratio (x) = 0.27462 0.31831
# Poissons Ratio (y) = 0.29002 0.08591
# Poissons Ratio (z) = 0.54078 0.13821
#
# Static dielectric constant tensor:
#      x y z
#    x 4.023490 0.000000 0.000000 
#    y 0.000000 3.612510 0.000000 
#    z 0.000000 0.000000 3.159170 
# 
# 
# High freq. dielectric constant tensor:
#      x y z
#    x 1.806720 0.000000 0.000000 
#    y 0.000000 1.777540 0.000000 
#    z 0.000000 0.000000 1.774470 
# 
# From -- ./inp_files/21066.got.cif
#   From: 2010.03.12/outbox.cif.g09.slc.cpg/sg60_11_cif.got.tgz:21066.got - 2010.04.10 18:46:24.
