data_PCOD8247687
_publ_section_title
;
Structure prediction by ZEFSAII (Michael W. Deem and Ramdas Pophale) SiO2 
 PCOD8247687
Probable space group: P B C N
;
_chemical_formula_sum "Si O2"
_cell_formula_units_Z 56
_cell_length_a 20.626030
_cell_length_b 13.473374
_cell_length_c 8.950802
_cell_angle_alpha 90.000000
_cell_angle_beta 90.000000
_cell_angle_gamma 90.000000
_cell_volume 2487.447714
_symmetry_space_group_name_H-M "P B C N"
_symmetry_group_IT_number 60
_symmetry_cell_setting 'orthorhombic'
loop_
_space_group_symop_operation_xyz
x,y,z
1/2-x,1/2-y,1/2+z
1/2+x,1/2-y,-z
-x,y,1/2-z
-x,-y,-z
1/2+x,1/2+y,1/2-z
1/2-x,1/2+y,z
x,-y,1/2+z
loop_
_atom_site_type_symbol
_atom_site_label
_atom_site_fract_x
_atom_site_fract_y
_atom_site_fract_z
Si Si1 0.128206 0.945939 0.073971
Si Si2 0.923108 0.537030 0.264259
Si Si3 0.404201 0.609655 0.884344
Si Si4 0.829947 0.303140 0.657746
Si Si5 0.477150 0.330854 0.917686
Si Si6 0.285067 0.265666 0.046919
Si Si7 0.601539 0.140113 0.568692
O O1 0.091311 0.955722 0.232539
O O2 0.191482 0.877498 0.083989
O O3 0.083636 0.901200 0.943169
O O4 0.142990 0.055929 0.006981
O O5 0.876957 0.601440 0.153086
O O6 0.906499 0.422406 0.222313
O O7 0.902458 0.561335 0.433193
O O8 0.000000 0.558493 0.250000
O O9 0.378008 0.712470 0.824045
O O10 0.472341 0.631963 0.959498
O O11 0.782603 0.300862 0.802594
O O12 0.787059 0.285992 0.511261
O O13 0.500000 0.345299 0.750000
O O14 0.458478 0.216043 0.946759
O O15 0.331512 0.203959 0.932203
#
# Coordination Sequence:
#
# PCOD8247687 Si02
#       7
#     8   8   8   8   8   8   8
#     4  10  22  39  61  88 122 157 202 259 308 382
#     4  11  22  40  63  94 127 167 214 261 319 379
#     4  11  22  39  61  89 119 161 203 252 317 368
#     4  10  23  40  64  87 124 169 208 266 316 384
#     4  11  22  38  60  90 123 159 200 251 309 370
#     4   9  22  42  59  88 121 161 213 255 321 377
#     4  10  23  40  62  90 126 164 206 260 308 378
#
# _framework density 22.513034999999999
#
# number of rings (size 3 to 8) (size 9 to 14) (size 15 to 20)
#    0.000    1.714    0.000    4.286    0.000    6.857 
#    0.000    5.714    0.000    0.000    0.000    0.000 
#    0.000    0.000    0.000    0.000    0.000    0.000 
#
# Total GULP energy -693899.607382 kJ/mol
# GULP energy per Si atom -12391.064418 kJ/mol
# Density = 2.246179 g / cm^3
# Si number density = 22.513035 Si / 1000 Ang^3
#
#
#
# Elastic Constant Matrix: (Units=GPa)
#
#
# Indices 1 2 3 4 5 6 
#
# 1 57.2460 5.4700 3.1913 0.0000 0.0000 0.0000
# 2 5.4700 70.3114 15.1712 0.0000 0.0000 0.0000
# 3 3.1913 15.1712 87.5995 0.0000 0.0000 0.0000
# 4 0.0000 0.0000 0.0000 36.2725 0.0000 0.0000
# 5 0.0000 0.0000 0.0000 0.0000 33.9620 0.0000
# 6 0.0000 0.0000 0.0000 0.0000 0.0000 21.7154
#
#
#
# Elastic Compliance Matrix: (Units=1/GPa)
#
#
# Indices 1 2 3 4 5 6 
#
# 1 0.017614 -0.001280 -0.000420 0.000000 0.000000 0.000000
# 2 -0.001280 0.014868 -0.002528 0.000000 0.000000 0.000000
# 3 -0.000420 -0.002528 0.011869 0.000000 0.000000 0.000000
# 4 0.000000 0.000000 0.000000 0.027569 0.000000 0.000000
# 5 0.000000 0.000000 0.000000 0.000000 0.029445 0.000000
# 6 0.000000 0.000000 0.000000 0.000000 0.000000 0.046050
#
#
# Mechanical properties :
#
#
# Convention : Reuss Voigt Hill
#
# Bulk Modulus (GPa) = 27.85949 29.20244 28.53097
# Shear Modulus (GPa) = 29.79108 31.14493 30.46800
#
# Velocity S-wave (km/s) = 3.64164 3.72347 3.68278
# Velocity P-wave (km/s) = 5.48487 5.61116 5.54837
#
# Compressibility (1/GPa) = 0.03589441
#
# Stress axis : x y z
#
# Youngs Moduli (GPa) = 56.77248 67.26065 84.25485
#
# Poissons Ratio (x) = 0.08607 0.03539
# Poissons Ratio (y) = 0.07265 0.21302
# Poissons Ratio (z) = 0.02385 0.17005
#
# Static dielectric constant tensor:
#      x y z
#    x 3.764830 0.000000 0.000000 
#    y 0.000000 4.265850 0.000000 
#    z 0.000000 0.000000 4.172510 
# 
# 
# High freq. dielectric constant tensor:
#      x y z
#    x 1.863360 0.000000 0.000000 
#    y 0.000000 1.895070 0.000000 
#    z 0.000000 0.000000 1.891010 
# 
# From -- ./inp_files/7440.got.cif
#   From: 2010.03.12/outbox.cif.g09.slc.cpg/sg60_4_cif.got.tgz:7440.got - 2010.04.10 18:46:24.
