data_PCOD8247390
_publ_section_title
;
Structure prediction by ZEFSAII (Michael W. Deem and Ramdas Pophale) SiO2 
 PCOD8247390
Probable space group: P B C N
;
_chemical_formula_sum "Si O2"
_cell_formula_units_Z 60
_cell_length_a 24.001311
_cell_length_b 5.049375
_cell_length_c 25.400053
_cell_angle_alpha 90.000000
_cell_angle_beta 90.000000
_cell_angle_gamma 90.000000
_cell_volume 3078.273564
_symmetry_space_group_name_H-M "P B C N"
_symmetry_group_IT_number 60
_symmetry_cell_setting 'orthorhombic'
loop_
_space_group_symop_operation_xyz
x,y,z
1/2-x,1/2-y,1/2+z
1/2+x,1/2-y,-z
-x,y,1/2-z
-x,-y,-z
1/2+x,1/2+y,1/2-z
1/2-x,1/2+y,z
x,-y,1/2+z
loop_
_atom_site_type_symbol
_atom_site_label
_atom_site_fract_x
_atom_site_fract_y
_atom_site_fract_z
Si Si1 0.451707 0.737694 0.153512
Si Si2 0.212960 0.190094 0.765614
Si Si3 0.216015 0.854081 0.144071
Si Si4 0.000000 0.506617 0.250000
Si Si5 0.600234 0.232871 0.391411
Si Si6 0.571189 0.279780 0.613181
Si Si7 0.596877 0.792331 0.677475
Si Si8 0.539504 0.749435 0.000413
O O1 0.463826 0.807436 0.214110
O O2 0.430898 0.436197 0.148411
O O3 0.506248 0.788710 0.119010
O O4 0.405460 0.937330 0.131063
O O5 0.255285 0.422886 0.781679
O O6 0.197467 0.189773 0.704272
O O7 0.153931 0.216232 0.794174
O O8 0.265988 0.652783 0.131911
O O9 0.165121 0.796828 0.105646
O O10 0.043860 0.686930 0.282784
O O11 0.578439 0.259185 0.449997
O O12 0.583386 0.571787 0.634182
O O13 0.581554 0.257797 0.550622
O O14 0.606797 0.067363 0.646455
O O15 0.500000 0.500000 0.000000
O O16 0.500000 0.000000 0.000000
#
# Coordination Sequence:
#
# PCOD8247390 Si02
#       8
#     8   8   8   4   8   8   8   8
#     4  11  22  35  55  87 120 159 190 230 291 373
#     4  10  21  39  61  85 113 159 209 248 290 355
#     4  10  22  38  59  85 115 148 200 253 300 352
#     4  10  24  36  56  88 132 162 188 236 320 382
#     4  12  22  38  62  84 117 159 199 247 299 358
#     4  11  22  37  56  87 124 152 195 244 297 349
#     4  11  23  38  59  86 123 162 197 250 300 369
#     4  12  22  39  62  88 120 161 202 247 297 373
#
# _framework density 19.491446
#
# number of rings (size 3 to 8) (size 9 to 14) (size 15 to 20)
#    0.000    1.067    2.667    4.800    0.000    9.067 
#    0.000    0.000    0.000    4.800    0.000    0.000 
#    0.000    0.000    0.000    0.000    0.000    0.000 
#
# Total GULP energy -744157.031692 kJ/mol
# GULP energy per Si atom -12402.617195 kJ/mol
# Density = 1.944708 g / cm^3
# Si number density = 19.491446 Si / 1000 Ang^3
#
#
#
# Elastic Constant Matrix: (Units=GPa)
#
#
# Indices 1 2 3 4 5 6 
#
# 1 85.8078 10.6364 45.1208 0.0000 0.0000 0.0000
# 2 10.6364 94.8411 28.0712 0.0000 0.0000 0.0000
# 3 45.1208 28.0712 102.4396 0.0000 0.0000 0.0000
# 4 0.0000 0.0000 0.0000 25.7357 0.0000 0.0000
# 5 0.0000 0.0000 0.0000 0.0000 28.8001 0.0000
# 6 0.0000 0.0000 0.0000 0.0000 0.0000 17.0201
#
#
#
# Elastic Compliance Matrix: (Units=1/GPa)
#
#
# Indices 1 2 3 4 5 6 
#
# 1 0.015175 0.000301 -0.006766 0.000000 0.000000 0.000000
# 2 0.000301 0.011481 -0.003279 0.000000 0.000000 0.000000
# 3 -0.006766 -0.003279 0.013641 0.000000 0.000000 0.000000
# 4 0.000000 0.000000 0.000000 0.038857 0.000000 0.000000
# 5 0.000000 0.000000 0.000000 0.000000 0.034722 0.000000
# 6 0.000000 0.000000 0.000000 0.000000 0.000000 0.058754
#
#
# Mechanical properties :
#
#
# Convention : Reuss Voigt Hill
#
# Bulk Modulus (GPa) = 48.05871 50.08280 49.07075
# Shear Modulus (GPa) = 25.11902 27.59518 26.35710
#
# Velocity S-wave (km/s) = 3.59377 3.76674 3.68127
# Velocity P-wave (km/s) = 6.47534 6.68343 6.58021
#
# Compressibility (1/GPa) = 0.02080788
#
# Stress axis : x y z
#
# Youngs Moduli (GPa) = 65.89954 87.10353 73.31088
#
# Poissons Ratio (x) = -0.02621 0.49604
# Poissons Ratio (y) = -0.01983 0.24035
# Poissons Ratio (z) = 0.44590 0.28557
#
# Static dielectric constant tensor:
#      x y z
#    x 3.362160 0.000000 0.000000 
#    y 0.000000 3.777580 0.000000 
#    z 0.000000 0.000000 3.632260 
# 
# 
# High freq. dielectric constant tensor:
#      x y z
#    x 1.741380 0.000000 0.000000 
#    y 0.000000 1.781560 0.000000 
#    z 0.000000 0.000000 1.749510 
# 
# From -- ./inp_files/24611.got.cif
#   From: 2010.03.12/outbox.cif.g09.slc.cpg/sg60_13_cif.got.tgz:24611.got - 2010.04.10 18:46:24.
