data_PCOD8247476
_publ_section_title
;
Structure prediction by ZEFSAII (Michael W. Deem and Ramdas Pophale) SiO2 
 PCOD8247476
Probable space group: P B C N
;
_chemical_formula_sum "Si O2"
_cell_formula_units_Z 64
_cell_length_a 11.517630
_cell_length_b 14.829377
_cell_length_c 18.251848
_cell_angle_alpha 90.000000
_cell_angle_beta 90.000000
_cell_angle_gamma 90.000000
_cell_volume 3117.402450
_symmetry_space_group_name_H-M "P B C N"
_symmetry_group_IT_number 60
_symmetry_cell_setting 'orthorhombic'
loop_
_space_group_symop_operation_xyz
x,y,z
1/2-x,1/2-y,1/2+z
1/2+x,1/2-y,-z
-x,y,1/2-z
-x,-y,-z
1/2+x,1/2+y,1/2-z
1/2-x,1/2+y,z
x,-y,1/2+z
loop_
_atom_site_type_symbol
_atom_site_label
_atom_site_fract_x
_atom_site_fract_y
_atom_site_fract_z
Si Si1 0.546135 0.547076 0.070576
Si Si2 0.701895 0.926649 0.600599
Si Si3 0.187464 0.372746 0.415467
Si Si4 0.994224 0.117097 0.668751
Si Si5 0.297850 0.243039 0.306564
Si Si6 0.681508 0.253539 0.363860
Si Si7 0.007510 0.333535 0.533738
Si Si8 0.132190 0.183647 0.033990
O O1 0.673456 0.591954 0.061040
O O2 0.560023 0.468761 0.129916
O O3 0.446815 0.621698 0.087924
O O4 0.500000 0.500000 0.000000
O O5 0.694419 0.861121 0.670289
O O6 0.594968 0.905197 0.546730
O O7 0.690684 0.030589 0.625016
O O8 0.197736 0.296097 0.352246
O O9 0.066719 0.361228 0.457485
O O10 0.287258 0.372615 0.478107
O O11 0.916044 0.207212 0.670613
O O12 0.000000 0.079287 0.750000
O O13 0.117935 0.148591 0.634492
O O14 0.278657 0.237051 0.219631
O O15 0.596624 0.175408 0.397362
O O16 0.795292 0.253049 0.415184
O O17 0.952083 0.235449 0.521498
#
# Coordination Sequence:
#
# PCOD8247476 Si02
#       8
#     8   8   8   8   8   8   8   8
#     4  12  23  38  63  99 126 161 222 276 321 388
#     4  12  23  38  68  92 131 176 217 273 334 381
#     4  11  22  42  64  98 130 168 225 272 324 397
#     4  10  21  40  65  88 130 173 214 265 326 401
#     4  11  21  43  68  97 131 173 220 267 335 403
#     4  10  23  41  70  94 130 176 218 266 338 407
#     4  11  23  41  68  96 133 178 215 273 332 400
#     4  11  23  40  65 100 129 165 221 276 335 383
#
# _framework density 20.529910999999998
#
# number of rings (size 3 to 8) (size 9 to 14) (size 15 to 20)
#    0.000    1.000    5.000    1.875    3.500    1.000 
#    0.000    1.875    2.750    0.000    0.000    0.000 
#    0.000    0.000    0.000    0.000    0.000    0.000 
#
# Total GULP energy -793115.218836 kJ/mol
# GULP energy per Si atom -12392.425294 kJ/mol
# Density = 2.048318 g / cm^3
# Si number density = 20.529911 Si / 1000 Ang^3
#
#
#
# Elastic Constant Matrix: (Units=GPa)
#
#
# Indices 1 2 3 4 5 6 
#
# 1 107.1662 21.1986 45.5653 0.0000 0.0000 0.0000
# 2 21.1986 94.5744 39.2924 0.0000 0.0000 0.0000
# 3 45.5653 39.2924 125.4921 0.0000 0.0000 0.0000
# 4 0.0000 0.0000 0.0000 19.6444 0.0000 0.0000
# 5 0.0000 0.0000 0.0000 0.0000 26.8300 0.0000
# 6 0.0000 0.0000 0.0000 0.0000 0.0000 30.9007
#
#
#
# Elastic Compliance Matrix: (Units=1/GPa)
#
#
# Indices 1 2 3 4 5 6 
#
# 1 0.011106 -0.000936 -0.003740 0.000000 0.000000 0.000000
# 2 -0.000936 0.012234 -0.003491 0.000000 0.000000 0.000000
# 3 -0.003740 -0.003491 0.010419 0.000000 0.000000 0.000000
# 4 0.000000 0.000000 0.000000 0.050905 0.000000 0.000000
# 5 0.000000 0.000000 0.000000 0.000000 0.037272 0.000000
# 6 0.000000 0.000000 0.000000 0.000000 0.000000 0.032362
#
#
# Mechanical properties :
#
#
# Convention : Reuss Voigt Hill
#
# Bulk Modulus (GPa) = 57.38114 59.92724 58.65419
# Shear Modulus (GPa) = 28.33832 30.22011 29.27921
#
# Velocity S-wave (km/s) = 3.71933 3.84083 3.78057
# Velocity P-wave (km/s) = 6.81581 6.99449 6.90573
#
# Compressibility (1/GPa) = 0.01742733
#
# Stress axis : x y z
#
# Youngs Moduli (GPa) = 90.03771 81.74147 95.97449
#
# Poissons Ratio (x) = 0.07649 0.35891
# Poissons Ratio (y) = 0.08425 0.33502
# Poissons Ratio (z) = 0.33671 0.28533
#
# Static dielectric constant tensor:
#      x y z
#    x 4.134070 0.000000 0.000000 
#    y 0.000000 3.515690 0.000000 
#    z 0.000000 0.000000 3.719720 
# 
# 
# High freq. dielectric constant tensor:
#      x y z
#    x 1.809310 0.000000 0.000000 
#    y 0.000000 1.794780 0.000000 
#    z 0.000000 0.000000 1.790740 
# 
# From -- ./inp_files/20219.got.cif
#   From: 2010.03.12/outbox.cif.g09.slc.cpg/sg60_11_cif.got.tgz:20219.got - 2010.04.10 18:46:24.
