data_PCOD8247671
_publ_section_title
;
Structure prediction by ZEFSAII (Michael W. Deem and Ramdas Pophale) SiO2 
 PCOD8247671
Probable space group: P B C N
;
_chemical_formula_sum "Si O2"
_cell_formula_units_Z 40
_cell_length_a 10.168704
_cell_length_b 8.713586
_cell_length_c 19.494556
_cell_angle_alpha 90.000000
_cell_angle_beta 90.000000
_cell_angle_gamma 90.000000
_cell_volume 1727.332227
_symmetry_space_group_name_H-M "P B C N"
_symmetry_group_IT_number 60
_symmetry_cell_setting 'orthorhombic'
loop_
_space_group_symop_operation_xyz
x,y,z
1/2-x,1/2-y,1/2+z
1/2+x,1/2-y,-z
-x,y,1/2-z
-x,-y,-z
1/2+x,1/2+y,1/2-z
1/2-x,1/2+y,z
x,-y,1/2+z
loop_
_atom_site_type_symbol
_atom_site_label
_atom_site_fract_x
_atom_site_fract_y
_atom_site_fract_z
Si Si1 0.388483 0.068584 0.548674
Si Si2 0.605210 0.575819 0.451344
Si Si3 0.934327 0.980667 0.677268
Si Si4 0.211386 0.736580 0.282554
Si Si5 0.112921 0.550191 0.706682
O O1 0.380616 0.246641 0.532278
O O2 0.500000 0.000000 0.500000
O O3 0.246285 0.997841 0.534142
O O4 0.426245 0.035047 0.627549
O O5 0.500000 0.500000 0.500000
O O6 0.554082 0.550481 0.374352
O O7 0.820937 0.849953 0.671012
O O8 0.000000 0.969266 0.750000
O O9 0.872106 0.151817 0.666657
O O10 0.123477 0.615730 0.242054
O O11 0.260046 0.845554 0.219787
O O12 0.000000 0.637597 0.750000
#
# Coordination Sequence:
#
# PCOD8247671 Si02
#       5
#     8   8   8   8   8
#     4  12  27  48  72 102 143 189 239 297 362 433
#     4  12  28  48  72 102 142 189 240 298 363 437
#     4  11  23  42  68 101 141 186 237 295 356 425
#     4  10  22  38  67 103 136 174 230 291 347 411
#     4  11  22  40  67  98 131 174 223 277 339 408
#
# _framework density 23.157098999999999
#
# number of rings (size 3 to 8) (size 9 to 14) (size 15 to 20)
#    0.000    0.800    0.000    8.400    0.000   11.200 
#    0.000    0.000    0.000    0.000    0.000    0.000 
#    0.000    0.000    0.000    0.000    0.000    0.000 
#
# Total GULP energy -495980.790453 kJ/mol
# GULP energy per Si atom -12399.519761 kJ/mol
# Density = 2.310439 g / cm^3
# Si number density = 23.157099 Si / 1000 Ang^3
#
#
#
# Elastic Constant Matrix: (Units=GPa)
#
#
# Indices 1 2 3 4 5 6 
#
# 1 165.0169 72.5811 65.6591 0.0000 0.0000 0.0000
# 2 72.5811 182.4446 26.5340 0.0000 0.0000 0.0000
# 3 65.6591 26.5340 101.0221 0.0000 0.0000 0.0000
# 4 0.0000 0.0000 0.0000 27.6983 0.0000 0.0000
# 5 0.0000 0.0000 0.0000 0.0000 50.0478 0.0000
# 6 0.0000 0.0000 0.0000 0.0000 0.0000 39.3439
#
#
#
# Elastic Compliance Matrix: (Units=1/GPa)
#
#
# Indices 1 2 3 4 5 6 
#
# 1 0.009534 -0.003006 -0.005407 0.000000 0.000000 0.000000
# 2 -0.003006 0.006647 0.000208 0.000000 0.000000 0.000000
# 3 -0.005407 0.000208 0.013358 0.000000 0.000000 0.000000
# 4 0.000000 0.000000 0.000000 0.036103 0.000000 0.000000
# 5 0.000000 0.000000 0.000000 0.000000 0.019981 0.000000
# 6 0.000000 0.000000 0.000000 0.000000 0.000000 0.025417
#
#
# Mechanical properties :
#
#
# Convention : Reuss Voigt Hill
#
# Bulk Modulus (GPa) = 76.16820 86.44799 81.30810
# Shear Modulus (GPa) = 37.92880 42.33196 40.13038
#
# Velocity S-wave (km/s) = 4.05148 4.28019 4.16740
# Velocity P-wave (km/s) = 7.40603 7.86377 7.63833
#
# Compressibility (1/GPa) = 0.01312884
#
# Stress axis : x y z
#
# Youngs Moduli (GPa) = 104.89213 150.44705 74.86023
#
# Poissons Ratio (x) = 0.45230 0.40475
# Poissons Ratio (y) = 0.31535 -0.01558
# Poissons Ratio (z) = 0.56712 -0.03132
#
# Static dielectric constant tensor:
#      x y z
#    x 3.115290 0.000000 0.000000 
#    y 0.000000 4.670260 0.000000 
#    z 0.000000 0.000000 3.692870 
# 
# 
# High freq. dielectric constant tensor:
#      x y z
#    x 1.936080 0.000000 0.000000 
#    y 0.000000 1.942050 0.000000 
#    z 0.000000 0.000000 1.894020 
# 
# From -- ./inp_files/22507.got.cif
#   From: 2010.03.12/outbox.cif.g09.slc.cpg/sg60_12_cif.got.tgz:22507.got - 2010.04.10 18:46:24.
