data_PCOD8247180
_publ_section_title
;
Structure prediction by ZEFSAII (Michael W. Deem and Ramdas Pophale) SiO2 
 PCOD8247180
Probable space group: P B C N
;
_chemical_formula_sum "Si O2"
_cell_formula_units_Z 60
_cell_length_a 11.134717
_cell_length_b 9.630472
_cell_length_c 23.705498
_cell_angle_alpha 90.000000
_cell_angle_beta 90.000000
_cell_angle_gamma 90.000000
_cell_volume 2542.001718
_symmetry_space_group_name_H-M "P B C N"
_symmetry_group_IT_number 60
_symmetry_cell_setting 'orthorhombic'
loop_
_space_group_symop_operation_xyz
x,y,z
1/2-x,1/2-y,1/2+z
1/2+x,1/2-y,-z
-x,y,1/2-z
-x,-y,-z
1/2+x,1/2+y,1/2-z
1/2-x,1/2+y,z
x,-y,1/2+z
loop_
_atom_site_type_symbol
_atom_site_label
_atom_site_fract_x
_atom_site_fract_y
_atom_site_fract_z
Si Si1 0.956633 0.745300 0.633211
Si Si2 0.230910 0.625519 0.799109
Si Si3 0.662075 0.869706 0.439074
Si Si4 0.382375 0.207147 0.437210
Si Si5 0.673606 0.504057 0.102938
Si Si6 0.500000 0.368369 0.750000
Si Si7 0.238511 0.608802 0.226630
Si Si8 0.353108 0.164631 0.100928
O O1 0.837937 0.649139 0.639456
O O2 0.937337 0.885843 0.596779
O O3 0.963096 0.765123 0.700485
O O4 0.071115 0.664549 0.611440
O O5 0.337337 0.536687 0.829883
O O6 0.281039 0.761194 0.768276
O O7 0.167425 0.523095 0.753227
O O8 0.598627 0.829581 0.497328
O O9 0.788062 0.794335 0.428502
O O10 0.686732 0.033080 0.436271
O O11 0.342901 0.369039 0.436181
O O12 0.289745 0.096861 0.411966
O O13 0.505064 0.189886 0.402090
O O14 0.620497 0.444861 0.773889
O O15 0.189894 0.645729 0.165240
#
# Coordination Sequence:
#
# PCOD8247180 Si02
#       8
#     8   8   8   8   8   4   8   8
#     4  11  24  42  75 100 149 196 239 305 381 453
#     4  11  21  43  69 105 140 193 238 302 375 457
#     4  12  28  50  75 108 156 196 260 317 383 448
#     4  12  29  49  78 110 151 204 258 325 377 451
#     4  12  24  48  75 108 148 195 262 303 389 456
#     4  10  20  42  68 104 142 198 224 302 378 450
#     4  11  23  42  71 107 150 185 252 304 385 453
#     4  12  28  48  75 115 150 199 254 321 383 457
#
# _framework density 23.603445000000001
#
# number of rings (size 3 to 8) (size 9 to 14) (size 15 to 20)
#    0.000    0.533    5.333    2.800    5.600    1.600 
#    0.000    2.667    0.000    0.000    0.000    0.000 
#    0.000    0.000    0.000    0.000    0.000    0.000 
#
# Total GULP energy -743339.527875 kJ/mol
# GULP energy per Si atom -12388.992131 kJ/mol
# Density = 2.354972 g / cm^3
# Si number density = 23.603445 Si / 1000 Ang^3
#
#
#
# Elastic Constant Matrix: (Units=GPa)
#
#
# Indices 1 2 3 4 5 6 
#
# 1 101.0618 35.3646 24.9438 0.0000 0.0000 0.0000
# 2 35.3646 142.3965 10.0233 0.0000 0.0000 0.0000
# 3 24.9438 10.0233 89.2453 0.0000 0.0000 0.0000
# 4 0.0000 0.0000 0.0000 36.6237 0.0000 0.0000
# 5 0.0000 0.0000 0.0000 0.0000 29.3614 0.0000
# 6 0.0000 0.0000 0.0000 0.0000 0.0000 26.1547
#
#
#
# Elastic Compliance Matrix: (Units=1/GPa)
#
#
# Indices 1 2 3 4 5 6 
#
# 1 0.011549 -0.002662 -0.002929 0.000000 0.000000 0.000000
# 2 -0.002662 0.007692 -0.000120 0.000000 0.000000 0.000000
# 3 -0.002929 -0.000120 0.012037 0.000000 0.000000 0.000000
# 4 0.000000 0.000000 0.000000 0.027305 0.000000 0.000000
# 5 0.000000 0.000000 0.000000 0.000000 0.034058 0.000000
# 6 0.000000 0.000000 0.000000 0.000000 0.000000 0.038234
#
#
# Mechanical properties :
#
#
# Convention : Reuss Voigt Hill
#
# Bulk Modulus (GPa) = 50.36075 52.59635 51.47855
# Shear Modulus (GPa) = 33.57576 35.91942 34.74759
#
# Velocity S-wave (km/s) = 3.77569 3.90524 3.84101
# Velocity P-wave (km/s) = 6.35533 6.53194 6.44424
#
# Compressibility (1/GPa) = 0.01985673
#
# Stress axis : x y z
#
# Youngs Moduli (GPa) = 86.58417 130.00117 83.07581
#
# Poissons Ratio (x) = 0.34608 0.24333
# Poissons Ratio (y) = 0.23050 0.00996
# Poissons Ratio (z) = 0.25361 0.01558
#
# Static dielectric constant tensor:
#      x y z
#    x 4.399740 0.000000 0.000000 
#    y 0.000000 4.649600 0.000000 
#    z 0.000000 0.000000 4.272390 
# 
# 
# High freq. dielectric constant tensor:
#      x y z
#    x 1.923230 0.000000 0.000000 
#    y 0.000000 1.952750 0.000000 
#    z 0.000000 0.000000 1.940960 
# 
# From -- ./inp_files/25323.got.cif
#   From: 2010.03.12/outbox.cif.g09.slc.cpg/sg60_13_cif.got.tgz:25323.got - 2010.04.10 18:46:24.
