data_PCOD8247326
_publ_section_title
;
Structure prediction by ZEFSAII (Michael W. Deem and Ramdas Pophale) SiO2 
 PCOD8247326
Probable space group: P B C N
;
_chemical_formula_sum "Si O2"
_cell_formula_units_Z 56
_cell_length_a 15.242174
_cell_length_b 15.660225
_cell_length_c 11.151327
_cell_angle_alpha 90.000000
_cell_angle_beta 90.000000
_cell_angle_gamma 90.000000
_cell_volume 2661.775748
_symmetry_space_group_name_H-M "P B C N"
_symmetry_group_IT_number 60
_symmetry_cell_setting 'orthorhombic'
loop_
_space_group_symop_operation_xyz
x,y,z
1/2-x,1/2-y,1/2+z
1/2+x,1/2-y,-z
-x,y,1/2-z
-x,-y,-z
1/2+x,1/2+y,1/2-z
1/2-x,1/2+y,z
x,-y,1/2+z
loop_
_atom_site_type_symbol
_atom_site_label
_atom_site_fract_x
_atom_site_fract_y
_atom_site_fract_z
Si Si1 0.756848 0.571223 0.110121
Si Si2 0.588365 0.201351 0.683120
Si Si3 0.845166 0.794400 0.457784
Si Si4 0.541534 0.571156 0.869668
Si Si5 0.285102 0.687775 0.172015
Si Si6 0.636085 0.561019 0.497908
Si Si7 0.554145 0.006534 0.627030
O O1 0.729565 0.609850 0.237677
O O2 0.704384 0.481141 0.092972
O O3 0.861560 0.554781 0.109022
O O4 0.729684 0.640817 0.008874
O O5 0.500000 0.227567 0.750000
O O6 0.596243 0.257166 0.564440
O O7 0.666610 0.229672 0.772271
O O8 0.590579 0.101746 0.649554
O O9 0.913408 0.836732 0.365620
O O10 0.807015 0.719174 0.377980
O O11 0.500000 0.538070 0.750000
O O12 0.462673 0.576244 0.961909
O O13 0.622904 0.508914 0.895090
O O14 0.332295 0.650875 0.053816
O O15 0.500000 0.980505 0.750000
O O16 0.500000 0.000000 0.500000
#
# Coordination Sequence:
#
# PCOD8247326 Si02
#       7
#     8   8   8   8   8   8   8
#     4  10  24  42  66  95 128 173 232 283 342 421
#     4  10  23  43  64  93 133 177 227 282 348 414
#     4  10  23  40  63  95 135 167 224 281 350 421
#     4  10  21  38  59  96 124 162 213 278 339 405
#     4  11  23  40  66  96 129 178 219 286 349 419
#     4  10  21  39  68  89 128 170 221 279 343 417
#     4  11  27  46  72  99 137 187 236 291 340 418
#
# _framework density 21.038588000000001
#
# number of rings (size 3 to 8) (size 9 to 14) (size 15 to 20)
#    0.000    1.714    0.000    2.571    8.000    7.429 
#    2.571    0.000    0.000    0.000    0.000    0.000 
#    0.000    0.000    0.000    0.000    0.000    0.000 
#
# Total GULP energy -693748.535917 kJ/mol
# GULP energy per Si atom -12388.366713 kJ/mol
# Density = 2.099070 g / cm^3
# Si number density = 21.038588 Si / 1000 Ang^3
#
#
#
# Elastic Constant Matrix: (Units=GPa)
#
#
# Indices 1 2 3 4 5 6 
#
# 1 109.4742 39.6493 36.8289 0.0000 0.0000 0.0000
# 2 39.6493 92.9478 34.3412 0.0000 0.0000 0.0000
# 3 36.8289 34.3412 89.2690 0.0000 0.0000 0.0000
# 4 0.0000 0.0000 0.0000 25.3847 0.0000 0.0000
# 5 0.0000 0.0000 0.0000 0.0000 31.8910 0.0000
# 6 0.0000 0.0000 0.0000 0.0000 0.0000 53.0485
#
#
#
# Elastic Compliance Matrix: (Units=1/GPa)
#
#
# Indices 1 2 3 4 5 6 
#
# 1 0.011609 -0.003710 -0.003362 0.000000 0.000000 0.000000
# 2 -0.003710 0.013727 -0.003750 0.000000 0.000000 0.000000
# 3 -0.003362 -0.003750 0.014032 0.000000 0.000000 0.000000
# 4 0.000000 0.000000 0.000000 0.039394 0.000000 0.000000
# 5 0.000000 0.000000 0.000000 0.000000 0.031357 0.000000
# 6 0.000000 0.000000 0.000000 0.000000 0.000000 0.018851
#
#
# Mechanical properties :
#
#
# Convention : Reuss Voigt Hill
#
# Bulk Modulus (GPa) = 56.42278 57.03664 56.72971
# Shear Modulus (GPa) = 31.94437 34.12293 33.03365
#
# Velocity S-wave (km/s) = 3.90085 4.03168 3.96681
# Velocity P-wave (km/s) = 6.86774 6.98870 6.92848
#
# Compressibility (1/GPa) = 0.01772334
#
# Stress axis : x y z
#
# Youngs Moduli (GPa) = 86.13694 72.84990 71.26618
#
# Poissons Ratio (x) = 0.27027 0.23962
# Poissons Ratio (y) = 0.31957 0.26725
# Poissons Ratio (z) = 0.28962 0.27319
#
# Static dielectric constant tensor:
#      x y z
#    x 3.699550 0.000000 0.000000 
#    y 0.000000 3.929150 0.000000 
#    z 0.000000 0.000000 3.940730 
# 
# 
# High freq. dielectric constant tensor:
#      x y z
#    x 1.830080 0.000000 0.000000 
#    y 0.000000 1.823050 0.000000 
#    z 0.000000 0.000000 1.825630 
# 
# From -- ./inp_files/11962.got.cif
#   From: 2010.03.12/outbox.cif.g09.slc.cpg/sg60_6_cif.got.tgz:11962.got - 2010.04.10 18:46:24.
