data_PCOD8247963
_publ_section_title
;
Structure prediction by ZEFSAII (Michael W. Deem and Ramdas Pophale) SiO2 
 PCOD8247963
Probable space group: P B C N
;
_chemical_formula_sum "Si O2"
_cell_formula_units_Z 32
_cell_length_a 8.872553
_cell_length_b 17.082896
_cell_length_c 10.096729
_cell_angle_alpha 90.000000
_cell_angle_beta 90.000000
_cell_angle_gamma 90.000000
_cell_volume 1530.350110
_symmetry_space_group_name_H-M "P B C N"
_symmetry_group_IT_number 60
_symmetry_cell_setting 'orthorhombic'
loop_
_space_group_symop_operation_xyz
x,y,z
1/2-x,1/2-y,1/2+z
1/2+x,1/2-y,-z
-x,y,1/2-z
-x,-y,-z
1/2+x,1/2+y,1/2-z
1/2-x,1/2+y,z
x,-y,1/2+z
loop_
_atom_site_type_symbol
_atom_site_label
_atom_site_fract_x
_atom_site_fract_y
_atom_site_fract_z
Si Si1 0.316530 0.226815 0.659041
Si Si2 0.837101 0.546297 0.787170
Si Si3 0.369577 0.700871 0.416373
Si Si4 0.333607 0.479638 0.955594
O O1 0.360459 0.137143 0.680799
O O2 0.457265 0.276481 0.603979
O O3 0.179517 0.236060 0.557427
O O4 0.266797 0.262307 0.799877
O O5 0.720389 0.533650 0.666279
O O6 0.000000 0.509698 0.750000
O O7 0.776368 0.504695 0.919855
O O8 0.337050 0.609365 0.408473
O O9 0.500000 0.500000 0.000000
#
# Coordination Sequence:
#
# PCOD8247963 Si02
#       4
#     8   8   8   8
#     4  10  23  42  67  92 131 167 221 263 325 391
#     4  11  23  45  65  98 132 175 216 272 326 392
#     4  10  23  42  65  95 125 175 211 273 320 389
#     4  11  26  41  68  99 133 172 220 272 330 387
#
# _framework density 20.910247999999999
#
# number of rings (size 3 to 8) (size 9 to 14) (size 15 to 20)
#    0.000    1.500    2.500    1.500   10.500    1.000 
#    9.000    0.000    0.000    0.000    0.000    0.000 
#    0.000    0.000    0.000    0.000    0.000    0.000 
#
# Total GULP energy -396787.239719 kJ/mol
# GULP energy per Si atom -12399.601241 kJ/mol
# Density = 2.086266 g / cm^3
# Si number density = 20.910248 Si / 1000 Ang^3
#
#
#
# Elastic Constant Matrix: (Units=GPa)
#
#
# Indices 1 2 3 4 5 6 
#
# 1 76.4942 23.1147 22.1185 0.0000 0.0000 0.0000
# 2 23.1147 40.5346 32.2903 0.0000 0.0000 0.0000
# 3 22.1185 32.2903 110.2200 0.0000 0.0000 0.0000
# 4 0.0000 0.0000 0.0000 39.6074 0.0000 0.0000
# 5 0.0000 0.0000 0.0000 0.0000 52.8951 0.0000
# 6 0.0000 0.0000 0.0000 0.0000 0.0000 27.7174
#
#
#
# Elastic Compliance Matrix: (Units=1/GPa)
#
#
# Indices 1 2 3 4 5 6 
#
# 1 0.015835 -0.008477 -0.000694 0.000000 0.000000 0.000000
# 2 -0.008477 0.036718 -0.009056 0.000000 0.000000 0.000000
# 3 -0.000694 -0.009056 0.011865 0.000000 0.000000 0.000000
# 4 0.000000 0.000000 0.000000 0.025248 0.000000 0.000000
# 5 0.000000 0.000000 0.000000 0.000000 0.018905 0.000000
# 6 0.000000 0.000000 0.000000 0.000000 0.000000 0.036078
#
#
# Mechanical properties :
#
#
# Convention : Reuss Voigt Hill
#
# Bulk Modulus (GPa) = 35.75992 42.47733 39.11862
# Shear Modulus (GPa) = 26.25696 34.02567 30.14131
#
# Velocity S-wave (km/s) = 3.54743 4.03826 3.80078
# Velocity P-wave (km/s) = 5.82389 6.48858 6.16520
#
# Compressibility (1/GPa) = 0.02796427
#
# Stress axis : x y z
#
# Youngs Moduli (GPa) = 63.15060 27.23446 84.28043
#
# Poissons Ratio (x) = 0.23086 0.05852
# Poissons Ratio (y) = 0.53532 0.76324
# Poissons Ratio (z) = 0.04385 0.24663
#
# Static dielectric constant tensor:
#      x y z
#    x 3.704450 0.000000 0.000000 
#    y 0.000000 3.809750 0.000000 
#    z 0.000000 0.000000 4.196450 
# 
# 
# High freq. dielectric constant tensor:
#      x y z
#    x 1.811670 0.000000 0.000000 
#    y 0.000000 1.814380 0.000000 
#    z 0.000000 0.000000 1.843170 
# 
# From -- ./inp_files/4597.got.cif
#   From: 2010.03.12/outbox.cif.g09.slc.cpg/sg60_3_cif.got.tgz:4597.got - 2010.04.10 18:46:24.
