data_PCOD8247093
_publ_section_title
;
Structure prediction by ZEFSAII (Michael W. Deem and Ramdas Pophale) SiO2 
 PCOD8247093
Probable space group: P B C N
;
_chemical_formula_sum "Si O2"
_cell_formula_units_Z 36
_cell_length_a 6.940255
_cell_length_b 10.385735
_cell_length_c 20.330252
_cell_angle_alpha 90.000000
_cell_angle_beta 90.000000
_cell_angle_gamma 90.000000
_cell_volume 1465.397434
_symmetry_space_group_name_H-M "P B C N"
_symmetry_group_IT_number 60
_symmetry_cell_setting 'orthorhombic'
loop_
_space_group_symop_operation_xyz
x,y,z
1/2-x,1/2-y,1/2+z
1/2+x,1/2-y,-z
-x,y,1/2-z
-x,-y,-z
1/2+x,1/2+y,1/2-z
1/2-x,1/2+y,z
x,-y,1/2+z
loop_
_atom_site_type_symbol
_atom_site_label
_atom_site_fract_x
_atom_site_fract_y
_atom_site_fract_z
Si Si1 0.119852 0.169249 0.811219
Si Si2 0.573601 0.586641 0.360245
Si Si3 0.764503 0.295672 0.563608
Si Si4 0.222229 0.034964 0.012509
Si Si5 0.000000 0.264044 0.250000
O O1 0.096443 0.263483 0.874354
O O2 0.344921 0.151961 0.790131
O O3 0.000000 0.225651 0.750000
O O4 0.048636 0.029941 0.831294
O O5 0.444062 0.671653 0.408663
O O6 0.751026 0.539725 0.407253
O O7 0.631851 0.675618 0.298713
O O8 0.728258 0.172749 0.517814
O O9 0.847967 0.418643 0.521421
O O10 0.000000 0.000000 0.000000
#
# Coordination Sequence:
#
# PCOD8247093 Si02
#       5
#     8   8   8   8   4
#     4  11  22  43  73 100 144 187 233 294 359 425
#     4  10  21  43  68  97 142 190 229 298 358 420
#     4  10  20  40  66  97 134 184 230 291 348 423
#     4  10  20  39  68  90 139 182 226 296 358 399
#     4  10  24  44  68 104 142 186 238 290 354 438
#
# _framework density 24.566713
#
# number of rings (size 3 to 8) (size 9 to 14) (size 15 to 20)
#    0.000    1.778    5.556    0.000    0.000    1.778 
#    8.000    4.444    0.000    0.000    0.000    0.000 
#    0.000    0.000    0.000    0.000    0.000    0.000 
#
# Total GULP energy -446014.413611 kJ/mol
# GULP energy per Si atom -12389.289267 kJ/mol
# Density = 2.451080 g / cm^3
# Si number density = 24.566713 Si / 1000 Ang^3
#
#
#
# Elastic Constant Matrix: (Units=GPa)
#
#
# Indices 1 2 3 4 5 6 
#
# 1 21.9072 18.4561 30.0877 0.0000 0.0000 0.0000
# 2 18.4561 160.2513 69.9258 0.0000 0.0000 0.0000
# 3 30.0877 69.9258 175.0143 0.0000 0.0000 0.0000
# 4 0.0000 0.0000 0.0000 37.6064 0.0000 0.0000
# 5 0.0000 0.0000 0.0000 0.0000 47.3960 0.0000
# 6 0.0000 0.0000 0.0000 0.0000 0.0000 23.7577
#
#
#
# Elastic Compliance Matrix: (Units=1/GPa)
#
#
# Indices 1 2 3 4 5 6 
#
# 1 0.060895 -0.002962 -0.009286 0.000000 0.000000 0.000000
# 2 -0.002962 0.007702 -0.002568 0.000000 0.000000 0.000000
# 3 -0.009286 -0.002568 0.008336 0.000000 0.000000 0.000000
# 4 0.000000 0.000000 0.000000 0.026591 0.000000 0.000000
# 5 0.000000 0.000000 0.000000 0.000000 0.021099 0.000000
# 6 0.000000 0.000000 0.000000 0.000000 0.000000 0.042092
#
#
# Mechanical properties :
#
#
# Convention : Reuss Voigt Hill
#
# Bulk Modulus (GPa) = 21.14040 66.01246 43.57643
# Shear Modulus (GPa) = 23.57237 37.66557 30.61897
#
# Velocity S-wave (km/s) = 3.10098 3.91985 3.53421
# Velocity P-wave (km/s) = 4.63092 6.88593 5.86777
#
# Compressibility (1/GPa) = 0.04730279
#
# Stress axis : x y z
#
# Youngs Moduli (GPa) = 16.42169 129.83864 119.95842
#
# Poissons Ratio (x) = 0.38452 1.11388
# Poissons Ratio (y) = 0.04863 0.30807
# Poissons Ratio (z) = 0.15248 0.33344
#
# Static dielectric constant tensor:
#      x y z
#    x 4.239030 0.000000 0.000000 
#    y 0.000000 4.661150 0.000000 
#    z 0.000000 0.000000 6.085190 
# 
# 
# High freq. dielectric constant tensor:
#      x y z
#    x 1.934190 0.000000 0.000000 
#    y 0.000000 1.973770 0.000000 
#    z 0.000000 0.000000 2.011370 
# 
# From -- ./inp_files/21945.got.cif
#   From: 2010.03.12/outbox.cif.g09.slc.cpg/sg60_11_cif.got.tgz:21945.got - 2010.04.10 18:46:24.
