data_PCOD8247754
_publ_section_title
;
Structure prediction by ZEFSAII (Michael W. Deem and Ramdas Pophale) SiO2 
 PCOD8247754
Probable space group: P B C N
;
_chemical_formula_sum "Si O2"
_cell_formula_units_Z 32
_cell_length_a 8.687104
_cell_length_b 29.137245
_cell_length_c 5.199922
_cell_angle_alpha 90.000000
_cell_angle_beta 90.000000
_cell_angle_gamma 90.000000
_cell_volume 1316.195300
_symmetry_space_group_name_H-M "P B C N"
_symmetry_group_IT_number 60
_symmetry_cell_setting 'orthorhombic'
loop_
_space_group_symop_operation_xyz
x,y,z
1/2-x,1/2-y,1/2+z
1/2+x,1/2-y,-z
-x,y,1/2-z
-x,-y,-z
1/2+x,1/2+y,1/2-z
1/2-x,1/2+y,z
x,-y,1/2+z
loop_
_atom_site_type_symbol
_atom_site_label
_atom_site_fract_x
_atom_site_fract_y
_atom_site_fract_z
Si Si1 0.101825 0.725151 0.000945
Si Si2 0.068870 0.550953 0.500589
Si Si3 0.894057 0.914452 0.500921
Si Si4 0.824712 0.819203 0.675142
O O1 0.218354 0.682867 0.067502
O O2 0.000000 0.732000 0.250000
O O3 0.204683 0.772004 0.982645
O O4 0.000000 0.713080 0.750000
O O5 0.255717 0.548589 0.506023
O O6 0.000000 0.576983 0.750000
O O7 0.000000 0.500000 0.500000
O O8 0.000000 0.576882 0.250000
O O9 0.801926 0.865721 0.512778
O O10 0.000000 0.922832 0.750000
O O11 0.000000 0.918172 0.250000
O O12 0.000000 0.817970 0.750000
#
# Coordination Sequence:
#
# PCOD8247754 Si02
#       4
#     8   8   8   8
#     4  11  23  39  61  91 126 176 230 274 326 384
#     4  10  22  45  71  99 135 171 211 270 337 405
#     4  11  24  43  68 100 135 176 223 276 337 398
#     4  10  22  41  63  90 132 177 225 280 326 385
#
# _framework density 24.3125
#
# number of rings (size 3 to 8) (size 9 to 14) (size 15 to 20)
#    0.000    1.500    0.000    5.250    0.000    7.000 
#    0.000   21.250    0.000    0.000    0.000    0.000 
#    0.000    0.000    0.000    0.000    0.000    0.000 
#
# Total GULP energy -396464.504173 kJ/mol
# GULP energy per Si atom -12389.515755 kJ/mol
# Density = 2.425716 g / cm^3
# Si number density = 24.312500 Si / 1000 Ang^3
#
#
#
# Elastic Constant Matrix: (Units=GPa)
#
#
# Indices 1 2 3 4 5 6 
#
# 1 182.5347 60.3576 96.7519 0.0000 0.0000 0.0000
# 2 60.3576 79.4977 28.5456 0.0000 0.0000 0.0000
# 3 96.7519 28.5456 224.2971 0.0000 0.0000 0.0000
# 4 0.0000 0.0000 0.0000 15.0337 0.0000 0.0000
# 5 0.0000 0.0000 0.0000 0.0000 55.0844 0.0000
# 6 0.0000 0.0000 0.0000 0.0000 0.0000 -29.6743
#
#
#
# Elastic Compliance Matrix: (Units=1/GPa)
#
#
# Indices 1 2 3 4 5 6 
#
# 1 0.009060 -0.005738 -0.003178 0.000000 0.000000 0.000000
# 2 -0.005738 0.016815 0.000335 0.000000 0.000000 0.000000
# 3 -0.003178 0.000335 0.005787 0.000000 0.000000 0.000000
# 4 0.000000 0.000000 0.000000 0.066517 0.000000 0.000000
# 5 0.000000 0.000000 0.000000 0.000000 0.018154 0.000000
# 6 0.000000 0.000000 0.000000 0.000000 0.000000 -0.033699
#
#
# Mechanical properties :
#
#
# Convention : Reuss Voigt Hill
#
# Bulk Modulus (GPa) = 68.96351 95.29330 82.12841
# Shear Modulus (GPa) = 47.78832 28.13373 37.96102
#
# Velocity S-wave (km/s) = 4.43830 3.40541 3.95572
# Velocity P-wave (km/s) = 7.39539 7.39883 7.39711
#
# Compressibility (1/GPa) = 0.01450042
#
# Stress axis : x y z
#
# Youngs Moduli (GPa) = 110.37432 59.47100 172.81447
#
# Poissons Ratio (x) = 0.34122 0.54919
# Poissons Ratio (y) = 0.63329 -0.05789
# Poissons Ratio (z) = 0.35076 -0.01992
#
# Static dielectric constant tensor:
#      x y z
#    x 4.463130 0.000000 0.000000 
#    y 0.000000 5.185220 0.000000 
#    z 0.000000 0.000000 10.581830 
# 
# 
# High freq. dielectric constant tensor:
#      x y z
#    x 1.987060 0.000000 0.000000 
#    y 0.000000 1.926900 0.000000 
#    z 0.000000 0.000000 1.984650 
# 
# From -- ./inp_files/425.got.cif
#   From: 2010.03.12/outbox.cif.g09.slc.cpg/sg60_1_cif.got.tgz:425.got - 2010.04.10 18:46:24.
