data_PCOD8247652
_publ_section_title
;
Structure prediction by ZEFSAII (Michael W. Deem and Ramdas Pophale) SiO2 
 PCOD8247652
Probable space group: P B C N
;
_chemical_formula_sum "Si O2"
_cell_formula_units_Z 60
_cell_length_a 15.118820
_cell_length_b 8.425391
_cell_length_c 24.050341
_cell_angle_alpha 90.000000
_cell_angle_beta 90.000000
_cell_angle_gamma 90.000000
_cell_volume 3063.579815
_symmetry_space_group_name_H-M "P B C N"
_symmetry_group_IT_number 60
_symmetry_cell_setting 'orthorhombic'
loop_
_space_group_symop_operation_xyz
x,y,z
1/2-x,1/2-y,1/2+z
1/2+x,1/2-y,-z
-x,y,1/2-z
-x,-y,-z
1/2+x,1/2+y,1/2-z
1/2-x,1/2+y,z
x,-y,1/2+z
loop_
_atom_site_type_symbol
_atom_site_label
_atom_site_fract_x
_atom_site_fract_y
_atom_site_fract_z
Si Si1 0.500000 0.496286 0.750000
Si Si2 0.060185 0.995378 0.917816
Si Si3 0.857670 0.830580 0.184043
Si Si4 0.654488 0.056740 0.840363
Si Si5 0.868228 0.970860 0.463404
Si Si6 0.260511 0.792678 0.592345
Si Si7 0.829132 0.526730 0.712135
Si Si8 0.980344 0.261526 0.163188
O O1 0.583302 0.607945 0.735777
O O2 0.476042 0.383606 0.697911
O O3 0.057773 0.816067 0.893132
O O4 0.098234 0.121309 0.874078
O O5 0.124273 0.992073 0.970653
O O6 0.962838 0.052771 0.934740
O O7 0.851676 0.640943 0.184241
O O8 0.762825 0.912166 0.188171
O O9 0.722400 0.196231 0.855324
O O10 0.553566 0.107792 0.849656
O O11 0.668148 0.913232 0.882913
O O12 0.674720 0.003043 0.777999
O O13 0.809527 0.816273 0.452341
O O14 0.821398 0.125629 0.438570
O O15 0.902529 0.657994 0.698335
#
# Coordination Sequence:
#
# PCOD8247652 Si02
#       8
#     4   8   8   8   8   8   8   8
#     4  10  22  38  60  88 126 162 204 250 306 380
#     4  10  23  43  67  87 132 162 212 264 324 372
#     4  11  26  40  64  93 127 171 211 256 318 383
#     4  11  22  38  62  94 129 164 203 266 303 383
#     4  10  22  44  64  94 119 167 210 273 316 370
#     4  10  23  38  68  91 123 161 220 255 319 369
#     4  12  25  41  61  96 130 169 209 253 317 388
#     4  11  22  40  63  89 128 169 202 257 314 375
#
# _framework density 19.584931000000001
#
# number of rings (size 3 to 8) (size 9 to 14) (size 15 to 20)
#    0.000    1.333    2.667    2.400    5.600    4.267 
#    0.000    2.000    0.000    0.000    0.000    0.000 
#    0.000    0.000    0.000    0.000    0.000    0.000 
#
# Total GULP energy -744297.322697 kJ/mol
# GULP energy per Si atom -12404.955378 kJ/mol
# Density = 1.954035 g / cm^3
# Si number density = 19.584931 Si / 1000 Ang^3
#
#
#
# Elastic Constant Matrix: (Units=GPa)
#
#
# Indices 1 2 3 4 5 6 
#
# 1 83.5728 28.3348 33.8585 0.0000 0.0000 0.0000
# 2 28.3348 91.1110 38.7175 0.0000 0.0000 0.0000
# 3 33.8585 38.7175 119.0962 0.0000 0.0000 0.0000
# 4 0.0000 0.0000 0.0000 21.9174 0.0000 0.0000
# 5 0.0000 0.0000 0.0000 0.0000 27.6909 0.0000
# 6 0.0000 0.0000 0.0000 0.0000 0.0000 25.8213
#
#
#
# Elastic Compliance Matrix: (Units=1/GPa)
#
#
# Indices 1 2 3 4 5 6 
#
# 1 0.014261 -0.003147 -0.003031 0.000000 0.000000 0.000000
# 2 -0.003147 0.013429 -0.003471 0.000000 0.000000 0.000000
# 3 -0.003031 -0.003471 0.010387 0.000000 0.000000 0.000000
# 4 0.000000 0.000000 0.000000 0.045626 0.000000 0.000000
# 5 0.000000 0.000000 0.000000 0.000000 0.036113 0.000000
# 6 0.000000 0.000000 0.000000 0.000000 0.000000 0.038728
#
#
# Mechanical properties :
#
#
# Convention : Reuss Voigt Hill
#
# Bulk Modulus (GPa) = 53.25296 55.06685 54.15991
# Shear Modulus (GPa) = 27.15902 27.94388 27.55145
#
# Velocity S-wave (km/s) = 3.72792 3.78141 3.75476
# Velocity P-wave (km/s) = 6.76607 6.87338 6.81994
#
# Compressibility (1/GPa) = 0.01877830
#
# Stress axis : x y z
#
# Youngs Moduli (GPa) = 70.12341 74.46387 96.27615
#
# Poissons Ratio (x) = 0.23432 0.29183
# Poissons Ratio (y) = 0.22067 0.33419
# Poissons Ratio (z) = 0.21256 0.25848
#
# Static dielectric constant tensor:
#      x y z
#    x 3.655410 0.000000 0.000000 
#    y 0.000000 3.627110 0.000000 
#    z 0.000000 0.000000 3.575150 
# 
# 
# High freq. dielectric constant tensor:
#      x y z
#    x 1.772180 0.000000 0.000000 
#    y 0.000000 1.769570 0.000000 
#    z 0.000000 0.000000 1.759720 
# 
# From -- ./inp_files/24420.got.cif
#   From: 2010.03.12/outbox.cif.g09.slc.cpg/sg60_13_cif.got.tgz:24420.got - 2010.04.10 18:46:24.
