data_PCOD8247847
_publ_section_title
;
Structure prediction by ZEFSAII (Michael W. Deem and Ramdas Pophale) SiO2 
 PCOD8247847
Probable space group: P B C N
;
_chemical_formula_sum "Si O2"
_cell_formula_units_Z 52
_cell_length_a 10.573567
_cell_length_b 9.203123
_cell_length_c 25.999582
_cell_angle_alpha 90.000000
_cell_angle_beta 90.000000
_cell_angle_gamma 90.000000
_cell_volume 2530.015103
_symmetry_space_group_name_H-M "P B C N"
_symmetry_group_IT_number 60
_symmetry_cell_setting 'orthorhombic'
loop_
_space_group_symop_operation_xyz
x,y,z
1/2-x,1/2-y,1/2+z
1/2+x,1/2-y,-z
-x,y,1/2-z
-x,-y,-z
1/2+x,1/2+y,1/2-z
1/2-x,1/2+y,z
x,-y,1/2+z
loop_
_atom_site_type_symbol
_atom_site_label
_atom_site_fract_x
_atom_site_fract_y
_atom_site_fract_z
Si Si1 0.363461 0.201224 0.853413
Si Si2 0.842645 0.355974 0.030194
Si Si3 0.141092 0.371474 0.134257
Si Si4 0.000000 0.136081 0.750000
Si Si5 0.232707 0.041262 0.290195
Si Si6 0.656556 0.826460 0.810729
Si Si7 0.128938 0.662567 0.516659
O O1 0.311605 0.166772 0.910021
O O2 0.514120 0.215690 0.853768
O O3 0.309695 0.355961 0.836645
O O4 0.328243 0.076661 0.812882
O O5 0.980340 0.287621 0.014164
O O6 0.848231 0.528257 0.021332
O O7 0.725097 0.290736 0.998505
O O8 0.130287 0.534584 0.154955
O O9 0.250511 0.282516 0.160835
O O10 0.164925 0.386840 0.073873
O O11 0.028434 0.235206 0.699444
O O12 0.116279 0.034991 0.763095
O O13 0.297925 0.136225 0.246432
#
# Coordination Sequence:
#
# PCOD8247847 Si02
#       7
#     8   8   8   4   8   8   8
#     4  11  24  41  65  90 126 167 207 256 314 369
#     4  10  22  43  65  93 126 162 210 264 316 376
#     4  11  24  41  65  91 124 168 205 258 314 369
#     4  12  24  40  62  92 128 164 210 254 304 366
#     4  12  23  42  61  92 126 165 209 253 306 371
#     4  12  23  42  63  92 127 167 209 253 309 368
#     4  10  22  43  66  94 126 161 211 263 317 377
#
# _framework density 20.553238
#
# number of rings (size 3 to 8) (size 9 to 14) (size 15 to 20)
#    0.000    0.923    3.077    3.692    0.000    1.846 
#    2.769    0.000    0.000    0.000    0.000    0.000 
#    0.000    0.000    0.000    0.000    0.000    0.000 
#
# Total GULP energy -644925.388109 kJ/mol
# GULP energy per Si atom -12402.411310 kJ/mol
# Density = 2.050646 g / cm^3
# Si number density = 20.553238 Si / 1000 Ang^3
#
#
#
# Elastic Constant Matrix: (Units=GPa)
#
#
# Indices 1 2 3 4 5 6 
#
# 1 59.0247 2.0564 8.6669 0.0000 0.0000 0.0000
# 2 2.0564 60.7544 7.4080 0.0000 0.0000 0.0000
# 3 8.6669 7.4080 86.7322 0.0000 0.0000 0.0000
# 4 0.0000 0.0000 0.0000 174.8578 0.0000 0.0000
# 5 0.0000 0.0000 0.0000 0.0000 36.0400 0.0000
# 6 0.0000 0.0000 0.0000 0.0000 0.0000 45.2210
#
#
#
# Elastic Compliance Matrix: (Units=1/GPa)
#
#
# Indices 1 2 3 4 5 6 
#
# 1 0.017203 -0.000377 -0.001687 0.000000 0.000000 0.000000
# 2 -0.000377 0.016641 -0.001384 0.000000 0.000000 0.000000
# 3 -0.001687 -0.001384 0.011816 0.000000 0.000000 0.000000
# 4 0.000000 0.000000 0.000000 0.005719 0.000000 0.000000
# 5 0.000000 0.000000 0.000000 0.000000 0.027747 0.000000
# 6 0.000000 0.000000 0.000000 0.000000 0.000000 0.022114
#
#
# Mechanical properties :
#
#
# Convention : Reuss Voigt Hill
#
# Bulk Modulus (GPa) = 25.79570 26.97489 26.38529
# Shear Modulus (GPa) = 41.30302 63.78242 52.54272
#
# Velocity S-wave (km/s) = 4.48768 5.57675 5.06159
# Velocity P-wave (km/s) = 6.27935 7.39052 6.85748
#
# Compressibility (1/GPa) = 0.03876615
#
# Stress axis : x y z
#
# Youngs Moduli (GPa) = 58.12984 60.09185 84.62745
#
# Poissons Ratio (x) = 0.02263 0.14276
# Poissons Ratio (y) = 0.02189 0.11710
# Poissons Ratio (z) = 0.09806 0.08315
#
# Static dielectric constant tensor:
#      x y z
#    x 4.053650 0.000000 0.000000 
#    y 0.000000 3.761450 0.000000 
#    z 0.000000 0.000000 9.325950 
# 
# 
# High freq. dielectric constant tensor:
#      x y z
#    x 1.813040 0.000000 0.000000 
#    y 0.000000 1.808460 0.000000 
#    z 0.000000 0.000000 1.812970 
# 
# From -- ./inp_files/25305.got.cif
#   From: 2010.03.12/outbox.cif.g09.slc.cpg/sg60_13_cif.got.tgz:25305.got - 2010.04.10 18:46:24.
