data_PCOD8247196
_publ_section_title
;
Structure prediction by ZEFSAII (Michael W. Deem and Ramdas Pophale) SiO2 
 PCOD8247196
Probable space group: P B C N
;
_chemical_formula_sum "Si O2"
_cell_formula_units_Z 36
_cell_length_a 16.506002
_cell_length_b 8.220021
_cell_length_c 12.099751
_cell_angle_alpha 90.000000
_cell_angle_beta 90.000000
_cell_angle_gamma 90.000000
_cell_volume 1641.690381
_symmetry_space_group_name_H-M "P B C N"
_symmetry_group_IT_number 60
_symmetry_cell_setting 'orthorhombic'
loop_
_space_group_symop_operation_xyz
x,y,z
1/2-x,1/2-y,1/2+z
1/2+x,1/2-y,-z
-x,y,1/2-z
-x,-y,-z
1/2+x,1/2+y,1/2-z
1/2-x,1/2+y,z
x,-y,1/2+z
loop_
_atom_site_type_symbol
_atom_site_label
_atom_site_fract_x
_atom_site_fract_y
_atom_site_fract_z
Si Si1 0.151789 0.811542 0.704101
Si Si2 0.500000 0.117990 0.750000
Si Si3 0.930837 0.377713 0.924918
Si Si4 0.326070 0.314399 0.246508
Si Si5 0.600061 0.806374 0.525833
O O1 0.230909 0.713683 0.740925
O O2 0.140371 0.799138 0.571815
O O3 0.078005 0.731365 0.771302
O O4 0.156712 0.996070 0.741916
O O5 0.484516 0.003746 0.646388
O O6 0.867618 0.271193 0.858134
O O7 0.002470 0.267336 0.977690
O O8 0.882517 0.498937 0.007698
O O9 0.361339 0.242107 0.358541
#
# Coordination Sequence:
#
# PCOD8247196 Si02
#       5
#     8   4   8   8   8
#     4  11  27  43  67 106 138 178 237 271 347 410
#     4  10  20  44  68 100 138 176 220 290 328 416
#     4  10  21  44  76  98 136 175 232 276 351 411
#     4  12  25  47  69  99 144 180 227 295 333 410
#     4  10  23  45  70 102 131 184 223 283 350 403
#
# _framework density 21.928616999999999
#
# number of rings (size 3 to 8) (size 9 to 14) (size 15 to 20)
#    0.000    1.333    2.222    2.667    3.111    4.444 
#   16.000    0.000    0.000    0.000    0.000    0.000 
#    0.000    0.000    0.000    0.000    0.000    0.000 
#
# Total GULP energy -446288.213052 kJ/mol
# GULP energy per Si atom -12396.894807 kJ/mol
# Density = 2.187871 g / cm^3
# Si number density = 21.928617 Si / 1000 Ang^3
#
#
#
# Elastic Constant Matrix: (Units=GPa)
#
#
# Indices 1 2 3 4 5 6 
#
# 1 128.3501 39.5705 9.9145 0.0000 0.0000 0.0000
# 2 39.5705 99.7426 14.7010 0.0000 0.0000 0.0000
# 3 9.9145 14.7010 40.6200 0.0000 0.0000 0.0000
# 4 0.0000 0.0000 0.0000 40.7254 0.0000 0.0000
# 5 0.0000 0.0000 0.0000 0.0000 34.1391 0.0000
# 6 0.0000 0.0000 0.0000 0.0000 0.0000 38.7471
#
#
#
# Elastic Compliance Matrix: (Units=1/GPa)
#
#
# Indices 1 2 3 4 5 6 
#
# 1 0.008911 -0.003396 -0.000946 0.000000 0.000000 0.000000
# 2 -0.003396 0.011885 -0.003472 0.000000 0.000000 0.000000
# 3 -0.000946 -0.003472 0.026106 0.000000 0.000000 0.000000
# 4 0.000000 0.000000 0.000000 0.024555 0.000000 0.000000
# 5 0.000000 0.000000 0.000000 0.000000 0.029292 0.000000
# 6 0.000000 0.000000 0.000000 0.000000 0.000000 0.025808
#
#
# Mechanical properties :
#
#
# Convention : Reuss Voigt Hill
#
# Bulk Modulus (GPa) = 31.97604 44.12050 38.04827
# Shear Modulus (GPa) = 32.76321 36.35744 34.56032
#
# Velocity S-wave (km/s) = 3.86953 4.07626 3.97424
# Velocity P-wave (km/s) = 5.88030 6.50525 6.20065
#
# Compressibility (1/GPa) = 0.03127342
#
# Stress axis : x y z
#
# Youngs Moduli (GPa) = 112.21805 84.14077 38.30535
#
# Poissons Ratio (x) = 0.28573 0.03624
# Poissons Ratio (y) = 0.38108 0.13301
# Poissons Ratio (z) = 0.10616 0.29217
#
# Static dielectric constant tensor:
#      x y z
#    x 4.222690 0.000000 0.000000 
#    y 0.000000 4.055530 0.000000 
#    z 0.000000 0.000000 4.223090 
# 
# 
# High freq. dielectric constant tensor:
#      x y z
#    x 1.870300 0.000000 0.000000 
#    y 0.000000 1.857580 0.000000 
#    z 0.000000 0.000000 1.872450 
# 
# From -- ./inp_files/16550.got.cif
#   From: 2010.03.12/outbox.cif.g09.slc.cpg/sg60_9_cif.got.tgz:16550.got - 2010.04.10 18:46:24.
