data_PCOD8247749
_publ_section_title
;
Structure prediction by ZEFSAII (Michael W. Deem and Ramdas Pophale) SiO2 
 PCOD8247749
Probable space group: P B C N
;
_chemical_formula_sum "Si O2"
_cell_formula_units_Z 48
_cell_length_a 8.547325
_cell_length_b 29.038827
_cell_length_c 9.297650
_cell_angle_alpha 90.000000
_cell_angle_beta 90.000000
_cell_angle_gamma 90.000000
_cell_volume 2307.716635
_symmetry_space_group_name_H-M "P B C N"
_symmetry_group_IT_number 60
_symmetry_cell_setting 'orthorhombic'
loop_
_space_group_symop_operation_xyz
x,y,z
1/2-x,1/2-y,1/2+z
1/2+x,1/2-y,-z
-x,y,1/2-z
-x,-y,-z
1/2+x,1/2+y,1/2-z
1/2-x,1/2+y,z
x,-y,1/2+z
loop_
_atom_site_type_symbol
_atom_site_label
_atom_site_fract_x
_atom_site_fract_y
_atom_site_fract_z
Si Si1 0.179916 0.485795 0.497872
Si Si2 0.149312 0.721165 0.555115
Si Si3 0.602874 0.893242 0.108945
Si Si4 0.293461 0.795616 0.369487
Si Si5 0.681491 0.552945 0.216608
Si Si6 0.881257 0.636556 0.131256
O O1 0.201696 0.440173 0.398563
O O2 0.289570 0.525585 0.432045
O O3 0.232384 0.475753 0.659620
O O4 0.000000 0.500000 0.500000
O O5 0.177284 0.769654 0.476972
O O6 0.245977 0.717389 0.704193
O O7 0.200528 0.679239 0.450500
O O8 0.967782 0.718938 0.589942
O O9 0.500000 0.888458 0.250000
O O10 0.723671 0.850407 0.104654
O O11 0.482727 0.894541 0.976465
O O12 0.500000 0.557673 0.250000
O O13 0.750233 0.604506 0.204440
O O14 0.000000 0.656937 0.250000
#
# Coordination Sequence:
#
# PCOD8247749 Si02
#       6
#     8   8   8   8   8   8
#     4  12  23  42  71  97 124 178 226 265 322 408
#     4  10  23  40  64  92 129 164 217 268 326 390
#     4  11  20  40  68  94 121 163 231 271 303 389
#     4  10  22  41  62  95 126 165 210 275 325 383
#     4  12  26  43  62  99 138 166 212 279 342 381
#     4  11  21  42  66  91 124 174 225 264 318 401
#
# _framework density 20.799782
#
# number of rings (size 3 to 8) (size 9 to 14) (size 15 to 20)
#    0.000    1.000    6.667    2.000    4.667    0.000 
#    6.000    0.000    0.000    0.000    0.000    0.000 
#    0.000    0.000    0.000    0.000    0.000    0.000 
#
# Total GULP energy -595319.487454 kJ/mol
# GULP energy per Si atom -12402.489322 kJ/mol
# Density = 2.075244 g / cm^3
# Si number density = 20.799782 Si / 1000 Ang^3
#
#
#
# Elastic Constant Matrix: (Units=GPa)
#
#
# Indices 1 2 3 4 5 6 
#
# 1 58.8117 20.1534 33.6991 0.0000 0.0000 0.0000
# 2 20.1534 119.4838 40.7674 0.0000 0.0000 0.0000
# 3 33.6991 40.7674 116.2048 0.0000 0.0000 0.0000
# 4 0.0000 0.0000 0.0000 42.7401 0.0000 0.0000
# 5 0.0000 0.0000 0.0000 0.0000 31.4314 0.0000
# 6 0.0000 0.0000 0.0000 0.0000 0.0000 -87.3418
#
#
#
# Elastic Compliance Matrix: (Units=1/GPa)
#
#
# Indices 1 2 3 4 5 6 
#
# 1 0.020670 -0.001637 -0.005420 0.000000 0.000000 0.000000
# 2 -0.001637 0.009637 -0.002906 0.000000 0.000000 0.000000
# 3 -0.005420 -0.002906 0.011197 0.000000 0.000000 0.000000
# 4 0.000000 0.000000 0.000000 0.023397 0.000000 0.000000
# 5 0.000000 0.000000 0.000000 0.000000 0.031815 0.000000
# 6 0.000000 0.000000 0.000000 0.000000 0.000000 -0.011449
#
#
# Mechanical properties :
#
#
# Convention : Reuss Voigt Hill
#
# Bulk Modulus (GPa) = 46.34461 53.74888 50.04675
# Shear Modulus (GPa) = 44.48949 10.69129 27.59039
#
# Velocity S-wave (km/s) = 4.62989 2.26964 3.64603
# Velocity P-wave (km/s) = 7.13518 5.72412 6.46824
#
# Compressibility (1/GPa) = 0.02157748
#
# Stress axis : x y z
#
# Youngs Moduli (GPa) = 48.37913 103.76631 89.31122
#
# Poissons Ratio (x) = 0.16988 0.48406
# Poissons Ratio (y) = 0.07920 0.25955
# Poissons Ratio (z) = 0.26221 0.30156
#
# Static dielectric constant tensor:
#      x y z
#    x 3.376600 0.000000 0.000000 
#    y 0.000000 4.047580 0.000000 
#    z 0.000000 0.000000 2.210730 
# 
# 
# High freq. dielectric constant tensor:
#      x y z
#    x 1.772640 0.000000 0.000000 
#    y 0.000000 1.825220 0.000000 
#    z 0.000000 0.000000 1.835090 
# 
# From -- ./inp_files/4221.got.cif
#   From: 2010.03.12/outbox.cif.g09.slc.cpg/sg60_3_cif.got.tgz:4221.got - 2010.04.10 18:46:24.
