data_PCOD8247050
_publ_section_title
;
Structure prediction by ZEFSAII (Michael W. Deem and Ramdas Pophale) SiO2 
 PCOD8247050
Probable space group: P B C N
;
_chemical_formula_sum "Si O2"
_cell_formula_units_Z 64
_cell_length_a 17.314832
_cell_length_b 11.703516
_cell_length_c 15.429375
_cell_angle_alpha 90.000000
_cell_angle_beta 90.000000
_cell_angle_gamma 90.000000
_cell_volume 3126.676645
_symmetry_space_group_name_H-M "P B C N"
_symmetry_group_IT_number 60
_symmetry_cell_setting 'orthorhombic'
loop_
_space_group_symop_operation_xyz
x,y,z
1/2-x,1/2-y,1/2+z
1/2+x,1/2-y,-z
-x,y,1/2-z
-x,-y,-z
1/2+x,1/2+y,1/2-z
1/2-x,1/2+y,z
x,-y,1/2+z
loop_
_atom_site_type_symbol
_atom_site_label
_atom_site_fract_x
_atom_site_fract_y
_atom_site_fract_z
Si Si1 0.040370 0.779754 0.121501
Si Si2 0.453776 0.341140 0.935096
Si Si3 0.371172 0.356636 0.574217
Si Si4 0.467714 0.986237 0.595415
Si Si5 0.841526 0.062641 0.800179
Si Si6 0.673276 0.870871 0.348234
Si Si7 0.932532 0.338665 0.193996
Si Si8 0.107351 0.078705 0.886236
O O1 0.041791 0.643557 0.125176
O O2 0.099588 0.830947 0.191421
O O3 0.952088 0.819647 0.136892
O O4 0.075786 0.829311 0.032566
O O5 0.543161 0.304885 0.933014
O O6 0.405690 0.249318 0.879702
O O7 0.445746 0.468743 0.901911
O O8 0.373058 0.452050 0.649381
O O9 0.318103 0.251783 0.604881
O O10 0.345830 0.397524 0.476665
O O11 0.500000 0.000000 0.500000
O O12 0.383459 0.045459 0.598686
O O13 0.530283 0.044135 0.658636
O O14 0.758568 0.080129 0.842891
O O15 0.836055 0.049846 0.694846
O O16 0.642848 0.862349 0.250110
O O17 0.000000 0.276459 0.250000
#
# Coordination Sequence:
#
# PCOD8247050 Si02
#       8
#     8   8   8   8   8   8   8   8
#     4  11  22  39  67  98 130 161 212 273 322 371
#     4  11  18  40  71  97 114 163 225 268 312 377
#     4  11  21  45  67  91 128 166 217 268 317 383
#     4  11  21  42  69  94 122 169 222 270 318 383
#     4  12  26  42  60  99 136 168 208 266 332 384
#     4  11  26  43  61  93 133 173 212 261 326 395
#     4  10  20  38  66  89 120 166 218 257 311 387
#     4  11  23  40  69  98 124 167 221 266 322 382
#
# _framework density 20.469017000000001
#
# number of rings (size 3 to 8) (size 9 to 14) (size 15 to 20)
#    0.000    1.000    6.250    2.625    1.750    3.000 
#    4.500    0.000    0.000    0.000    0.000    0.000 
#    0.000    0.000    0.000    0.000    0.000    0.000 
#
# Total GULP energy -793414.236185 kJ/mol
# GULP energy per Si atom -12397.097440 kJ/mol
# Density = 2.042243 g / cm^3
# Si number density = 20.469017 Si / 1000 Ang^3
#
#
#
# Elastic Constant Matrix: (Units=GPa)
#
#
# Indices 1 2 3 4 5 6 
#
# 1 54.2252 20.0842 30.7737 0.0000 0.0000 0.0000
# 2 20.0842 125.3021 37.7669 0.0000 0.0000 0.0000
# 3 30.7737 37.7669 139.3088 0.0000 0.0000 0.0000
# 4 0.0000 0.0000 0.0000 31.8906 0.0000 0.0000
# 5 0.0000 0.0000 0.0000 0.0000 23.1350 0.0000
# 6 0.0000 0.0000 0.0000 0.0000 0.0000 12.5744
#
#
#
# Elastic Compliance Matrix: (Units=1/GPa)
#
#
# Indices 1 2 3 4 5 6 
#
# 1 0.021631 -0.002207 -0.004180 0.000000 0.000000 0.000000
# 2 -0.002207 0.008916 -0.001930 0.000000 0.000000 0.000000
# 3 -0.004180 -0.001930 0.008625 0.000000 0.000000 0.000000
# 4 0.000000 0.000000 0.000000 0.031357 0.000000 0.000000
# 5 0.000000 0.000000 0.000000 0.000000 0.043225 0.000000
# 6 0.000000 0.000000 0.000000 0.000000 0.000000 0.079527
#
#
# Mechanical properties :
#
#
# Convention : Reuss Voigt Hill
#
# Bulk Modulus (GPa) = 44.36864 55.12063 49.74463
# Shear Modulus (GPa) = 22.99620 28.86741 25.93180
#
# Velocity S-wave (km/s) = 3.35545 3.75947 3.56319
# Velocity P-wave (km/s) = 6.06095 6.76994 6.42523
#
# Compressibility (1/GPa) = 0.02253844
#
# Stress axis : x y z
#
# Youngs Moduli (GPa) = 46.22911 112.15663 115.94482
#
# Poissons Ratio (x) = 0.24757 0.48465
# Poissons Ratio (y) = 0.10204 0.22372
# Poissons Ratio (z) = 0.19324 0.21641
#
# Static dielectric constant tensor:
#      x y z
#    x 3.234980 0.000000 0.000000 
#    y 0.000000 3.713170 0.000000 
#    z 0.000000 0.000000 4.478390 
# 
# 
# High freq. dielectric constant tensor:
#      x y z
#    x 1.757550 0.000000 0.000000 
#    y 0.000000 1.807070 0.000000 
#    z 0.000000 0.000000 1.820870 
# 
# From -- ./inp_files/17489.got.cif
#   From: 2010.03.12/outbox.cif.g09.slc.cpg/sg60_9_cif.got.tgz:17489.got - 2010.04.10 18:46:24.
