data_PCOD8247848
_publ_section_title
;
Structure prediction by ZEFSAII (Michael W. Deem and Ramdas Pophale) SiO2 
 PCOD8247848
Probable space group: P B C N
;
_chemical_formula_sum "Si O2"
_cell_formula_units_Z 32
_cell_length_a 8.671971
_cell_length_b 15.440880
_cell_length_c 9.688427
_cell_angle_alpha 90.000000
_cell_angle_beta 90.000000
_cell_angle_gamma 90.000000
_cell_volume 1297.308119
_symmetry_space_group_name_H-M "P B C N"
_symmetry_group_IT_number 60
_symmetry_cell_setting 'orthorhombic'
loop_
_space_group_symop_operation_xyz
x,y,z
1/2-x,1/2-y,1/2+z
1/2+x,1/2-y,-z
-x,y,1/2-z
-x,-y,-z
1/2+x,1/2+y,1/2-z
1/2-x,1/2+y,z
x,-y,1/2+z
loop_
_atom_site_type_symbol
_atom_site_label
_atom_site_fract_x
_atom_site_fract_y
_atom_site_fract_z
Si Si1 0.626694 0.174544 0.907346
Si Si2 0.843744 0.051926 0.524463
Si Si3 0.280846 0.220545 0.876078
Si Si4 0.166341 0.513326 0.226490
O O1 0.445888 0.189148 0.935745
O O2 0.696303 0.237970 0.787301
O O3 0.649451 0.078662 0.850390
O O4 0.723383 0.192076 0.047661
O O5 0.852332 0.147173 0.594606
O O6 0.742365 0.991718 0.623865
O O7 0.767621 0.070843 0.375863
O O8 0.000000 0.000000 0.500000
O O9 0.000000 0.556731 0.250000
#
# Coordination Sequence:
#
# PCOD8247848 Si02
#       4
#     8   8   8   8
#     4  10  22  43  65  94 129 172 221 263 326 390
#     4  11  24  42  66 100 131 170 221 276 330 391
#     4  10  23  43  63  96 132 170 217 271 326 391
#     4  11  22  44  67  90 133 175 214 271 329 393
#
# _framework density 24.666460000000001
#
# number of rings (size 3 to 8) (size 9 to 14) (size 15 to 20)
#    0.000    1.500    5.000    1.500    3.500    3.000 
#    4.500    0.000    0.000    0.000    0.000    0.000 
#    0.000    0.000    0.000    0.000    0.000    0.000 
#
# Total GULP energy -396609.668455 kJ/mol
# GULP energy per Si atom -12394.052139 kJ/mol
# Density = 2.461032 g / cm^3
# Si number density = 24.666460 Si / 1000 Ang^3
#
#
#
# Elastic Constant Matrix: (Units=GPa)
#
#
# Indices 1 2 3 4 5 6 
#
# 1 124.4322 21.9133 21.6607 0.0000 0.0000 0.0000
# 2 21.9133 37.2548 -16.9581 0.0000 0.0000 0.0000
# 3 21.6607 -16.9581 74.9669 0.0000 0.0000 0.0000
# 4 0.0000 0.0000 0.0000 35.7490 0.0000 0.0000
# 5 0.0000 0.0000 0.0000 0.0000 53.1375 0.0000
# 6 0.0000 0.0000 0.0000 0.0000 0.0000 32.8348
#
#
#
# Elastic Compliance Matrix: (Units=1/GPa)
#
#
# Indices 1 2 3 4 5 6 
#
# 1 0.010345 -0.008301 -0.004867 0.000000 0.000000 0.000000
# 2 -0.008301 0.036583 0.010674 0.000000 0.000000 0.000000
# 3 -0.004867 0.010674 0.017160 0.000000 0.000000 0.000000
# 4 0.000000 0.000000 0.000000 0.027973 0.000000 0.000000
# 5 0.000000 0.000000 0.000000 0.000000 0.018819 0.000000
# 6 0.000000 0.000000 0.000000 0.000000 0.000000 0.030456
#
#
# Mechanical properties :
#
#
# Convention : Reuss Voigt Hill
#
# Bulk Modulus (GPa) = 16.92009 32.20951 24.56480
# Shear Modulus (GPa) = 30.11616 38.34679 34.23147
#
# Velocity S-wave (km/s) = 3.49798 3.94714 3.72933
# Velocity P-wave (km/s) = 4.81549 5.81889 5.34081
#
# Compressibility (1/GPa) = 0.05910134
#
# Stress axis : x y z
#
# Youngs Moduli (GPa) = 96.66048 27.33492 58.27530
#
# Poissons Ratio (x) = 0.22690 0.28362
# Poissons Ratio (y) = 0.80234 -0.62202
# Poissons Ratio (z) = 0.47043 -0.29177
#
# Static dielectric constant tensor:
#      x y z
#    x 4.473170 0.000000 0.000000 
#    y 0.000000 4.108950 0.000000 
#    z 0.000000 0.000000 5.581130 
# 
# 
# High freq. dielectric constant tensor:
#      x y z
#    x 1.973580 0.000000 0.000000 
#    y 0.000000 1.956360 0.000000 
#    z 0.000000 0.000000 1.997090 
# 
# From -- ./inp_files/9679.got.cif
#   From: 2010.03.12/outbox.cif.g09.slc.cpg/sg60_5_cif.got.tgz:9679.got - 2010.04.10 18:46:24.
