data_PCOD8247099
_publ_section_title
;
Structure prediction by ZEFSAII (Michael W. Deem and Ramdas Pophale) SiO2 
 PCOD8247099
Probable space group: P B C N
;
_chemical_formula_sum "Si O2"
_cell_formula_units_Z 48
_cell_length_a 9.487575
_cell_length_b 26.467173
_cell_length_c 8.886853
_cell_angle_alpha 90.000000
_cell_angle_beta 90.000000
_cell_angle_gamma 90.000000
_cell_volume 2231.571337
_symmetry_space_group_name_H-M "P B C N"
_symmetry_group_IT_number 60
_symmetry_cell_setting 'orthorhombic'
loop_
_space_group_symop_operation_xyz
x,y,z
1/2-x,1/2-y,1/2+z
1/2+x,1/2-y,-z
-x,y,1/2-z
-x,-y,-z
1/2+x,1/2+y,1/2-z
1/2-x,1/2+y,z
x,-y,1/2+z
loop_
_atom_site_type_symbol
_atom_site_label
_atom_site_fract_x
_atom_site_fract_y
_atom_site_fract_z
Si Si1 0.977119 0.616898 0.080861
Si Si2 0.912944 0.210711 0.900654
Si Si3 0.410035 0.211886 0.599472
Si Si4 0.255752 0.963833 0.851242
Si Si5 0.250071 0.565697 0.012418
Si Si6 0.471959 0.386209 0.921221
O O1 0.000000 0.638221 0.250000
O O2 0.893844 0.564137 0.087552
O O3 0.122859 0.605036 0.997246
O O4 0.895905 0.658402 0.984644
O O5 0.751889 0.230292 0.868972
O O6 0.000000 0.200227 0.750000
O O7 0.896122 0.159306 0.994412
O O8 0.004115 0.250268 0.994477
O O9 0.500000 0.205817 0.750000
O O10 0.248029 0.961627 0.672470
O O11 0.121474 0.936691 0.924348
O O12 0.259711 0.022913 0.886489
O O13 0.386825 0.600123 0.988978
O O14 0.500000 0.368476 0.750000
#
# Coordination Sequence:
#
# PCOD8247099 Si02
#       6
#     8   8   8   8   8   8
#     4  10  22  41  65  93 131 174 220 269 329 390
#     4  12  27  46  71 100 134 171 219 273 333 399
#     4  12  27  46  71 100 134 171 219 273 333 399
#     4  10  20  40  57  94 127 174 219 272 326 384
#     4  10  22  34  65  90 131 172 219 268 326 388
#     4  10  22  41  65  93 131 174 220 269 329 390
#
# _framework density 21.509506999999999
#
# number of rings (size 3 to 8) (size 9 to 14) (size 15 to 20)
#    0.000    1.333    1.667    3.000    4.667    2.667 
#    0.000    0.000    0.000    0.000    0.000    0.000 
#    0.000    0.000    0.000    0.000    0.000    0.000 
#
# Total GULP energy -595314.690984 kJ/mol
# GULP energy per Si atom -12402.389396 kJ/mol
# Density = 2.146055 g / cm^3
# Si number density = 21.509507 Si / 1000 Ang^3
#
#
#
# Elastic Constant Matrix: (Units=GPa)
#
#
# Indices 1 2 3 4 5 6 
#
# 1 137.3062 8.2035 15.6669 0.0000 0.0000 0.0000
# 2 8.2035 66.5700 23.5701 0.0000 0.0000 0.0000
# 3 15.6669 23.5701 68.9727 0.0000 0.0000 0.0000
# 4 0.0000 0.0000 0.0000 30.8825 0.0000 0.0000
# 5 0.0000 0.0000 0.0000 0.0000 30.2700 0.0000
# 6 0.0000 0.0000 0.0000 0.0000 0.0000 -10.7885
#
#
#
# Elastic Compliance Matrix: (Units=1/GPa)
#
#
# Indices 1 2 3 4 5 6 
#
# 1 0.007485 -0.000364 -0.001576 0.000000 0.000000 0.000000
# 2 -0.000364 0.017107 -0.005763 0.000000 0.000000 0.000000
# 3 -0.001576 -0.005763 0.016826 0.000000 0.000000 0.000000
# 4 0.000000 0.000000 0.000000 0.032381 0.000000 0.000000
# 5 0.000000 0.000000 0.000000 0.000000 0.033036 0.000000
# 6 0.000000 0.000000 0.000000 0.000000 0.000000 -0.092691
#
#
# Mechanical properties :
#
#
# Convention : Reuss Voigt Hill
#
# Bulk Modulus (GPa) = 38.44520 40.85889 39.65204
# Shear Modulus (GPa) = 130.82070 25.10003 77.96037
#
# Velocity S-wave (km/s) = 7.80717 3.41974 6.02688
# Velocity P-wave (km/s) = 9.95900 5.88471 8.17959
#
# Compressibility (1/GPa) = 0.02601105
#
# Stress axis : x y z
#
# Youngs Moduli (GPa) = 133.60876 58.45463 59.43232
#
# Poissons Ratio (x) = 0.02131 0.09364
# Poissons Ratio (y) = 0.04870 0.34253
# Poissons Ratio (z) = 0.21050 0.33689
#
# Static dielectric constant tensor:
#      x y z
#    x 4.155140 0.000000 0.000000 
#    y 0.000000 3.656370 0.000000 
#    z 0.000000 0.000000 3.886460 
# 
# 
# High freq. dielectric constant tensor:
#      x y z
#    x 1.866830 0.000000 0.000000 
#    y 0.000000 1.838230 0.000000 
#    z 0.000000 0.000000 1.837310 
# 
# From -- ./inp_files/4228.got.cif
#   From: 2010.03.12/outbox.cif.g09.slc.cpg/sg60_3_cif.got.tgz:4228.got - 2010.04.10 18:46:24.
