data_PCOD8247120
_publ_section_title
;
Structure prediction by ZEFSAII (Michael W. Deem and Ramdas Pophale) SiO2 
 PCOD8247120
Probable space group: P B C N
;
_chemical_formula_sum "Si O2"
_cell_formula_units_Z 44
_cell_length_a 5.658580
_cell_length_b 13.001115
_cell_length_c 26.108153
_cell_angle_alpha 90.000000
_cell_angle_beta 90.000000
_cell_angle_gamma 90.000000
_cell_volume 1920.720666
_symmetry_space_group_name_H-M "P B C N"
_symmetry_group_IT_number 60
_symmetry_cell_setting 'orthorhombic'
loop_
_space_group_symop_operation_xyz
x,y,z
1/2-x,1/2-y,1/2+z
1/2+x,1/2-y,-z
-x,y,1/2-z
-x,-y,-z
1/2+x,1/2+y,1/2-z
1/2-x,1/2+y,z
x,-y,1/2+z
loop_
_atom_site_type_symbol
_atom_site_label
_atom_site_fract_x
_atom_site_fract_y
_atom_site_fract_z
Si Si1 0.500081 0.779018 0.026217
Si Si2 0.000000 0.435024 0.250000
Si Si3 0.940469 0.471348 0.416149
Si Si4 0.688673 0.496867 0.163254
Si Si5 0.318786 0.339504 0.168475
Si Si6 0.648766 0.349275 0.883400
O O1 0.477551 0.903667 0.032360
O O2 0.517947 0.722205 0.081328
O O3 0.751567 0.755712 0.999614
O O4 0.129210 0.512987 0.289867
O O5 0.177595 0.358663 0.220794
O O6 0.795178 0.403032 0.377131
O O7 0.798081 0.578383 0.422703
O O8 0.194566 0.497479 0.392695
O O9 0.582577 0.383283 0.174584
O O10 0.494854 0.586838 0.159709
O O11 0.323868 0.220184 0.151552
#
# Coordination Sequence:
#
# PCOD8247120 Si02
#       6
#     8   4   8   8   8   8
#     4  11  27  44  69 102 142 182 237 293 349 417
#     4  10  20  40  64  96 130 174 218 288 338 404
#     4   9  22  40  66  95 132 179 219 281 347 402
#     4  10  21  41  69  92 134 174 227 281 341 418
#     4   9  20  40  63  91 133 173 214 275 343 408
#     4  10  23  42  68  98 131 184 225 278 356 411
#
# _framework density 22.908068
#
# number of rings (size 3 to 8) (size 9 to 14) (size 15 to 20)
#    0.000    2.182    0.000    0.545   10.182    4.364 
#    9.818    0.000    0.000    0.000    0.000    0.000 
#    0.000    0.000    0.000    0.000    0.000    0.000 
#
# Total GULP energy -545200.433024 kJ/mol
# GULP energy per Si atom -12390.918932 kJ/mol
# Density = 2.285593 g / cm^3
# Si number density = 22.908068 Si / 1000 Ang^3
#
#
#
# Elastic Constant Matrix: (Units=GPa)
#
#
# Indices 1 2 3 4 5 6 
#
# 1 101.1578 23.8440 16.0265 0.0000 0.0000 0.0000
# 2 23.8440 114.1666 15.6632 0.0000 0.0000 0.0000
# 3 16.0265 15.6632 51.1166 0.0000 0.0000 0.0000
# 4 0.0000 0.0000 0.0000 25.8286 0.0000 0.0000
# 5 0.0000 0.0000 0.0000 0.0000 40.2903 0.0000
# 6 0.0000 0.0000 0.0000 0.0000 0.0000 17.7714
#
#
#
# Elastic Compliance Matrix: (Units=1/GPa)
#
#
# Indices 1 2 3 4 5 6 
#
# 1 0.010769 -0.001864 -0.002805 0.000000 0.000000 0.000000
# 2 -0.001864 0.009466 -0.002316 0.000000 0.000000 0.000000
# 3 -0.002805 -0.002316 0.021152 0.000000 0.000000 0.000000
# 4 0.000000 0.000000 0.000000 0.038717 0.000000 0.000000
# 5 0.000000 0.000000 0.000000 0.000000 0.024820 0.000000
# 6 0.000000 0.000000 0.000000 0.000000 0.000000 0.056270
#
#
# Mechanical properties :
#
#
# Convention : Reuss Voigt Hill
#
# Bulk Modulus (GPa) = 36.47428 41.94539 39.20984
# Shear Modulus (GPa) = 27.12890 30.83854 28.98372
#
# Velocity S-wave (km/s) = 3.44503 3.67302 3.56085
# Velocity P-wave (km/s) = 5.63745 6.02812 5.83605
#
# Compressibility (1/GPa) = 0.02741658
#
# Stress axis : x y z
#
# Youngs Moduli (GPa) = 92.85537 105.63824 47.27600
#
# Poissons Ratio (x) = 0.19695 0.13262
# Poissons Ratio (y) = 0.17312 0.10950
# Poissons Ratio (z) = 0.26048 0.24467
#
# Static dielectric constant tensor:
#      x y z
#    x 4.282320 0.000000 0.000000 
#    y 0.000000 4.407320 0.000000 
#    z 0.000000 0.000000 4.028380 
# 
# 
# High freq. dielectric constant tensor:
#      x y z
#    x 1.904020 0.000000 0.000000 
#    y 0.000000 1.902530 0.000000 
#    z 0.000000 0.000000 1.893670 
# 
# From -- ./inp_files/24813.got.cif
#   From: 2010.03.12/outbox.cif.g09.slc.cpg/sg60_13_cif.got.tgz:24813.got - 2010.04.10 18:46:24.
