data_PCOD8247184
_publ_section_title
;
Structure prediction by ZEFSAII (Michael W. Deem and Ramdas Pophale) SiO2 
 PCOD8247184
Probable space group: P B C N
;
_chemical_formula_sum "Si O2"
_cell_formula_units_Z 56
_cell_length_a 8.930844
_cell_length_b 18.722962
_cell_length_c 15.206365
_cell_angle_alpha 90.000000
_cell_angle_beta 90.000000
_cell_angle_gamma 90.000000
_cell_volume 2542.684467
_symmetry_space_group_name_H-M "P B C N"
_symmetry_group_IT_number 60
_symmetry_cell_setting 'orthorhombic'
loop_
_space_group_symop_operation_xyz
x,y,z
1/2-x,1/2-y,1/2+z
1/2+x,1/2-y,-z
-x,y,1/2-z
-x,-y,-z
1/2+x,1/2+y,1/2-z
1/2-x,1/2+y,z
x,-y,1/2+z
loop_
_atom_site_type_symbol
_atom_site_label
_atom_site_fract_x
_atom_site_fract_y
_atom_site_fract_z
Si Si1 0.494868 0.617143 0.350735
Si Si2 0.380952 0.519433 0.924282
Si Si3 0.119213 0.420995 0.177990
Si Si4 0.201431 0.442325 0.577151
Si Si5 0.487343 0.844231 0.004531
Si Si6 0.209259 0.763283 0.926275
Si Si7 0.855204 0.152840 0.700229
O O1 0.500000 0.637983 0.250000
O O2 0.386623 0.547522 0.358375
O O3 0.659713 0.607003 0.392395
O O4 0.421411 0.683608 0.398594
O O5 0.407463 0.591942 0.869359
O O6 0.500000 0.500000 0.000000
O O7 0.225682 0.528010 0.977085
O O8 0.195398 0.492942 0.144334
O O9 0.038519 0.377845 0.100469
O O10 0.245210 0.374637 0.224550
O O11 0.000000 0.444544 0.250000
O O12 0.042575 0.401030 0.569608
O O13 0.628758 0.791160 0.007894
O O14 0.335567 0.807111 0.976375
O O15 0.280824 0.720914 0.845349
O O16 0.000000 0.182202 0.750000
#
# Coordination Sequence:
#
# PCOD8247184 Si02
#       7
#     8   8   8   8   8   8   8
#     4  11  25  42  72 103 147 185 239 303 367 421
#     4  10  20  42  70 105 133 181 238 295 348 427
#     4  12  25  46  77 106 150 185 243 306 373 420
#     4  11  23  45  75 106 143 186 246 299 360 441
#     4  12  27  47  71 104 144 198 243 298 357 446
#     4  12  28  46  72 101 147 197 244 293 364 443
#     4  12  26  46  72 109 144 192 242 302 368 433
#
# _framework density 22.023968
#
# number of rings (size 3 to 8) (size 9 to 14) (size 15 to 20)
#    0.000    0.571    2.857    5.143    6.000    3.429 
#    0.000    0.000    0.000    0.000    0.000    0.000 
#    0.000    0.000    0.000    0.000    0.000    0.000 
#
# Total GULP energy -694389.659756 kJ/mol
# GULP energy per Si atom -12399.815353 kJ/mol
# Density = 2.197384 g / cm^3
# Si number density = 22.023968 Si / 1000 Ang^3
#
#
#
# Elastic Constant Matrix: (Units=GPa)
#
#
# Indices 1 2 3 4 5 6 
#
# 1 99.5460 35.6776 42.6532 0.0000 0.0000 0.0000
# 2 35.6776 96.8538 34.4703 0.0000 0.0000 0.0000
# 3 42.6532 34.4703 98.6232 0.0000 0.0000 0.0000
# 4 0.0000 0.0000 0.0000 11.4142 0.0000 0.0000
# 5 0.0000 0.0000 0.0000 0.0000 44.7830 0.0000
# 6 0.0000 0.0000 0.0000 0.0000 0.0000 33.2233
#
#
#
# Elastic Compliance Matrix: (Units=1/GPa)
#
#
# Indices 1 2 3 4 5 6 
#
# 1 0.013156 -0.003222 -0.004564 0.000000 0.000000 0.000000
# 2 -0.003222 0.012581 -0.003004 0.000000 0.000000 0.000000
# 3 -0.004564 -0.003004 0.013163 0.000000 0.000000 0.000000
# 4 0.000000 0.000000 0.000000 0.087610 0.000000 0.000000
# 5 0.000000 0.000000 0.000000 0.000000 0.022330 0.000000
# 6 0.000000 0.000000 0.000000 0.000000 0.000000 0.030099
#
#
# Mechanical properties :
#
#
# Convention : Reuss Voigt Hill
#
# Bulk Modulus (GPa) = 57.73289 57.84727 57.79008
# Shear Modulus (GPa) = 24.23757 30.03222 27.13489
#
# Velocity S-wave (km/s) = 3.32099 3.69672 3.51388
# Velocity P-wave (km/s) = 6.40124 6.67410 6.53909
#
# Compressibility (1/GPa) = 0.01732115
#
# Stress axis : x y z
#
# Youngs Moduli (GPa) = 76.01243 79.48669 75.96985
#
# Poissons Ratio (x) = 0.25610 0.34669
# Poissons Ratio (y) = 0.24491 0.22819
# Poissons Ratio (z) = 0.34689 0.23875
#
# Static dielectric constant tensor:
#      x y z
#    x 5.783220 0.000000 0.000000 
#    y 0.000000 4.205730 0.000000 
#    z 0.000000 0.000000 4.110520 
# 
# 
# High freq. dielectric constant tensor:
#      x y z
#    x 1.878280 0.000000 0.000000 
#    y 0.000000 1.871660 0.000000 
#    z 0.000000 0.000000 1.871340 
# 
# From -- ./inp_files/15283.got.cif
#   From: 2010.03.12/outbox.cif.g09.slc.cpg/sg60_8_cif.got.tgz:15283.got - 2010.04.10 18:46:24.
