data_PCOD8247510
_publ_section_title
;
Structure prediction by ZEFSAII (Michael W. Deem and Ramdas Pophale) SiO2 
 PCOD8247510
Probable space group: P B C N
;
_chemical_formula_sum "Si O2"
_cell_formula_units_Z 52
_cell_length_a 20.324813
_cell_length_b 8.450026
_cell_length_c 15.471165
_cell_angle_alpha 90.000000
_cell_angle_beta 90.000000
_cell_angle_gamma 90.000000
_cell_volume 2657.098301
_symmetry_space_group_name_H-M "P B C N"
_symmetry_group_IT_number 60
_symmetry_cell_setting 'orthorhombic'
loop_
_space_group_symop_operation_xyz
x,y,z
1/2-x,1/2-y,1/2+z
1/2+x,1/2-y,-z
-x,y,1/2-z
-x,-y,-z
1/2+x,1/2+y,1/2-z
1/2-x,1/2+y,z
x,-y,1/2+z
loop_
_atom_site_type_symbol
_atom_site_label
_atom_site_fract_x
_atom_site_fract_y
_atom_site_fract_z
Si Si1 0.965082 0.702498 0.410024
Si Si2 0.160622 0.184278 0.498363
Si Si3 0.968522 0.661694 0.911800
Si Si4 0.409994 0.680649 0.321307
Si Si5 0.000000 0.917279 0.250000
Si Si6 0.337368 0.790152 0.162525
Si Si7 0.741241 0.941765 0.921152
O O1 0.899411 0.793316 0.436288
O O2 0.953500 0.519847 0.386270
O O3 0.993063 0.802935 0.331543
O O4 0.016726 0.697650 0.488770
O O5 0.134375 0.140127 0.403880
O O6 0.205657 0.042109 0.528187
O O7 0.203346 0.345193 0.503574
O O8 0.901222 0.756550 0.894718
O O9 0.026625 0.718580 0.849283
O O10 0.435542 0.524457 0.270495
O O11 0.362005 0.785729 0.261429
O O12 0.278349 0.668621 0.147429
O O13 0.310846 0.962586 0.136570
#
# Coordination Sequence:
#
# PCOD8247510 Si02
#       7
#     8   8   8   8   4   8   8
#     4  10  23  38  62  93 123 160 204 255 320 366
#     4  10  22  41  60  88 122 163 207 248 304 376
#     4  10  21  41  64  88 125 164 198 257 321 379
#     4  11  24  39  63  93 126 156 205 264 321 359
#     4  12  24  36  60 102 120 156 200 260 320 368
#     4  11  21  41  62  89 121 162 208 253 303 367
#     4  10  23  39  64  83 120 173 207 247 300 368
#
# _framework density 19.570219999999999
#
# number of rings (size 3 to 8) (size 9 to 14) (size 15 to 20)
#    0.000    1.538    3.077    0.923    4.308    2.462 
#    0.000    0.000    0.000    0.000    0.000    0.000 
#    0.000    0.000    0.000    0.000    0.000    0.000 
#
# Total GULP energy -644631.237520 kJ/mol
# GULP energy per Si atom -12396.754568 kJ/mol
# Density = 1.952568 g / cm^3
# Si number density = 19.570220 Si / 1000 Ang^3
#
#
#
# Elastic Constant Matrix: (Units=GPa)
#
#
# Indices 1 2 3 4 5 6 
#
# 1 96.9542 23.2172 48.1682 0.0000 0.0000 0.0000
# 2 23.2172 81.3871 54.2560 0.0000 0.0000 0.0000
# 3 48.1682 54.2560 109.1673 0.0000 0.0000 0.0000
# 4 0.0000 0.0000 0.0000 28.5859 0.0000 0.0000
# 5 0.0000 0.0000 0.0000 0.0000 32.6636 0.0000
# 6 0.0000 0.0000 0.0000 0.0000 0.0000 10.9925
#
#
#
# Elastic Compliance Matrix: (Units=1/GPa)
#
#
# Indices 1 2 3 4 5 6 
#
# 1 0.013212 0.000175 -0.005917 0.000000 0.000000 0.000000
# 2 0.000175 0.018377 -0.009211 0.000000 0.000000 0.000000
# 3 -0.005917 -0.009211 0.016349 0.000000 0.000000 0.000000
# 4 0.000000 0.000000 0.000000 0.034982 0.000000 0.000000
# 5 0.000000 0.000000 0.000000 0.000000 0.030615 0.000000
# 6 0.000000 0.000000 0.000000 0.000000 0.000000 0.090971
#
#
# Mechanical properties :
#
#
# Convention : Reuss Voigt Hill
#
# Bulk Modulus (GPa) = 55.45267 59.86569 57.65918
# Shear Modulus (GPa) = 20.79684 25.23956 23.01820
#
# Velocity S-wave (km/s) = 3.26341 3.59512 3.43328
# Velocity P-wave (km/s) = 6.52660 6.92025 6.72631
#
# Compressibility (1/GPa) = 0.01803340
#
# Stress axis : x y z
#
# Youngs Moduli (GPa) = 75.69124 54.41507 61.16737
#
# Poissons Ratio (x) = -0.00954 0.36190
# Poissons Ratio (y) = -0.01327 0.56340
# Poissons Ratio (z) = 0.44783 0.50121
#
# Static dielectric constant tensor:
#      x y z
#    x 3.755920 0.000000 0.000000 
#    y 0.000000 3.666080 0.000000 
#    z 0.000000 0.000000 3.487240 
# 
# 
# High freq. dielectric constant tensor:
#      x y z
#    x 1.776340 0.000000 0.000000 
#    y 0.000000 1.765210 0.000000 
#    z 0.000000 0.000000 1.755970 
# 
# From -- ./inp_files/17665.got.cif
#   From: 2010.03.12/outbox.cif.g09.slc.cpg/sg60_9_cif.got.tgz:17665.got - 2010.04.10 18:46:24.
