data_PCOD8247041
_publ_section_title
;
Structure prediction by ZEFSAII (Michael W. Deem and Ramdas Pophale) SiO2 
 PCOD8247041
Probable space group: P B C N
;
_chemical_formula_sum "Si O2"
_cell_formula_units_Z 36
_cell_length_a 7.795292
_cell_length_b 13.917740
_cell_length_c 14.416708
_cell_angle_alpha 90.000000
_cell_angle_beta 90.000000
_cell_angle_gamma 90.000000
_cell_volume 1564.109699
_symmetry_space_group_name_H-M "P B C N"
_symmetry_group_IT_number 60
_symmetry_cell_setting 'orthorhombic'
loop_
_space_group_symop_operation_xyz
x,y,z
1/2-x,1/2-y,1/2+z
1/2+x,1/2-y,-z
-x,y,1/2-z
-x,-y,-z
1/2+x,1/2+y,1/2-z
1/2-x,1/2+y,z
x,-y,1/2+z
loop_
_atom_site_type_symbol
_atom_site_label
_atom_site_fract_x
_atom_site_fract_y
_atom_site_fract_z
Si Si1 0.331864 0.709479 0.949343
Si Si2 0.131719 0.560050 0.059191
Si Si3 0.500000 0.979612 0.750000
Si Si4 0.194680 0.877498 0.258021
Si Si5 0.695488 0.630252 0.943886
O O1 0.296408 0.702111 0.839485
O O2 0.506436 0.657320 0.977302
O O3 0.182850 0.658748 0.010090
O O4 0.328524 0.821335 0.982031
O O5 0.291755 0.485180 0.064586
O O6 0.057231 0.584599 0.161860
O O7 0.000000 0.500000 0.000000
O O8 0.663756 0.042526 0.717341
O O9 0.238511 0.827694 0.159261
O O10 0.000000 0.920903 0.250000
#
# Coordination Sequence:
#
# PCOD8247041 Si02
#       5
#     8   8   4   8   8
#     4  11  21  41  62  89 125 159 214 252 308 380
#     4  11  21  39  64  90 120 161 202 252 314 365
#     4  10  20  38  64  86 124 156 206 248 318 360
#     4   9  20  38  61  88 122 161 201 257 309 362
#     4  10  23  39  62  91 120 166 203 259 313 364
#
# _framework density 23.016290000000001
#
# number of rings (size 3 to 8) (size 9 to 14) (size 15 to 20)
#    0.000    1.778    2.222    2.000    3.111    0.000 
#   10.000    0.000    0.000    0.000    0.000    0.000 
#    0.000    0.000    0.000    0.000    0.000    0.000 
#
# Total GULP energy -446196.043483 kJ/mol
# GULP energy per Si atom -12394.334541 kJ/mol
# Density = 2.296390 g / cm^3
# Si number density = 23.016290 Si / 1000 Ang^3
#
#
#
# Elastic Constant Matrix: (Units=GPa)
#
#
# Indices 1 2 3 4 5 6 
#
# 1 67.6634 -10.0300 5.6918 0.0000 0.0000 0.0000
# 2 -10.0300 48.0630 15.5321 0.0000 0.0000 0.0000
# 3 5.6918 15.5321 116.2133 0.0000 0.0000 0.0000
# 4 0.0000 0.0000 0.0000 30.8950 0.0000 0.0000
# 5 0.0000 0.0000 0.0000 0.0000 36.0670 0.0000
# 6 0.0000 0.0000 0.0000 0.0000 0.0000 21.6888
#
#
#
# Elastic Compliance Matrix: (Units=1/GPa)
#
#
# Indices 1 2 3 4 5 6 
#
# 1 0.015420 0.003618 -0.001239 0.000000 0.000000 0.000000
# 2 0.003618 0.022594 -0.003197 0.000000 0.000000 0.000000
# 3 -0.001239 -0.003197 0.009093 0.000000 0.000000 0.000000
# 4 0.000000 0.000000 0.000000 0.032368 0.000000 0.000000
# 5 0.000000 0.000000 0.000000 0.000000 0.027726 0.000000
# 6 0.000000 0.000000 0.000000 0.000000 0.000000 0.046107
#
#
# Mechanical properties :
#
#
# Convention : Reuss Voigt Hill
#
# Bulk Modulus (GPa) = 21.99182 28.25860 25.12521
# Shear Modulus (GPa) = 29.39455 32.44654 30.92054
#
# Velocity S-wave (km/s) = 3.57756 3.75870 3.66925
# Velocity P-wave (km/s) = 5.16148 5.58045 5.37505
#
# Compressibility (1/GPa) = 0.04547145
#
# Stress axis : x y z
#
# Youngs Moduli (GPa) = 64.85260 44.25912 109.97696
#
# Poissons Ratio (x) = -0.16014 0.13624
# Poissons Ratio (y) = -0.23465 0.35159
# Poissons Ratio (z) = 0.08034 0.14149
#
# Static dielectric constant tensor:
#      x y z
#    x 4.379750 0.000000 0.000000 
#    y 0.000000 4.478360 0.000000 
#    z 0.000000 0.000000 4.398120 
# 
# 
# High freq. dielectric constant tensor:
#      x y z
#    x 1.924210 0.000000 0.000000 
#    y 0.000000 1.869600 0.000000 
#    z 0.000000 0.000000 1.923650 
# 
# From -- ./inp_files/14554.got.cif
#   From: 2010.03.12/outbox.cif.g09.slc.cpg/sg60_8_cif.got.tgz:14554.got - 2010.04.10 18:46:24.
