data_PCOD8247932
_publ_section_title
;
Structure prediction by ZEFSAII (Michael W. Deem and Ramdas Pophale) SiO2 
 PCOD8247932
Probable space group: P B C N
;
_chemical_formula_sum "Si O2"
_cell_formula_units_Z 48
_cell_length_a 9.127727
_cell_length_b 13.162835
_cell_length_c 17.754375
_cell_angle_alpha 90.000000
_cell_angle_beta 90.000000
_cell_angle_gamma 90.000000
_cell_volume 2133.130711
_symmetry_space_group_name_H-M "P B C N"
_symmetry_group_IT_number 60
_symmetry_cell_setting 'orthorhombic'
loop_
_space_group_symop_operation_xyz
x,y,z
1/2-x,1/2-y,1/2+z
1/2+x,1/2-y,-z
-x,y,1/2-z
-x,-y,-z
1/2+x,1/2+y,1/2-z
1/2-x,1/2+y,z
x,-y,1/2+z
loop_
_atom_site_type_symbol
_atom_site_label
_atom_site_fract_x
_atom_site_fract_y
_atom_site_fract_z
Si Si1 0.584276 0.627784 0.009240
Si Si2 0.578095 0.654607 0.175285
Si Si3 0.261058 0.672719 0.987505
Si Si4 0.779664 0.493988 0.903946
Si Si5 0.061355 0.385729 0.361585
Si Si6 0.157468 0.438142 0.758132
O O1 0.546075 0.594859 0.096531
O O2 0.710401 0.711508 0.011431
O O3 0.435395 0.673536 0.976397
O O4 0.643753 0.538132 0.954867
O O5 0.500000 0.609018 0.250000
O O6 0.528560 0.771446 0.165903
O O7 0.751164 0.638238 0.189648
O O8 0.196940 0.611731 0.917532
O O9 0.194557 0.617046 0.060888
O O10 0.748956 0.466382 0.816796
O O11 0.919441 0.568891 0.905128
O O12 0.115924 0.452875 0.292845
O O13 0.000000 0.381392 0.750000
#
# Coordination Sequence:
#
# PCOD8247932 Si02
#       6
#     8   8   8   8   8   8
#     4  11  24  41  63  95 127 165 214 262 318 377
#     4  11  22  41  63  87 123 164 205 256 314 373
#     4  11  23  39  63  92 124 165 209 263 317 374
#     4  11  22  41  66  92 125 165 212 260 313 376
#     4  10  23  42  63  90 126 165 207 258 314 376
#     4  10  23  40  62  90 122 164 209 255 315 374
#
# _framework density 22.502137000000001
#
# number of rings (size 3 to 8) (size 9 to 14) (size 15 to 20)
#    0.000    1.333    0.000    6.500    0.000    9.333 
#    0.000    0.833    0.000    0.000    0.000    0.000 
#    0.000    0.000    0.000    0.000    0.000    0.000 
#
# Total GULP energy -594692.988872 kJ/mol
# GULP energy per Si atom -12389.437268 kJ/mol
# Density = 2.245092 g / cm^3
# Si number density = 22.502137 Si / 1000 Ang^3
#
#
#
# Elastic Constant Matrix: (Units=GPa)
#
#
# Indices 1 2 3 4 5 6 
#
# 1 85.8240 2.3560 37.5952 0.0000 0.0000 0.0000
# 2 2.3560 57.2090 16.1449 0.0000 0.0000 0.0000
# 3 37.5952 16.1449 129.4885 0.0000 0.0000 0.0000
# 4 0.0000 0.0000 0.0000 22.6004 0.0000 0.0000
# 5 0.0000 0.0000 0.0000 0.0000 44.0621 0.0000
# 6 0.0000 0.0000 0.0000 0.0000 0.0000 34.5038
#
#
#
# Elastic Compliance Matrix: (Units=1/GPa)
#
#
# Indices 1 2 3 4 5 6 
#
# 1 0.013367 0.000565 -0.003951 0.000000 0.000000 0.000000
# 2 0.000565 0.018141 -0.002426 0.000000 0.000000 0.000000
# 3 -0.003951 -0.002426 0.009172 0.000000 0.000000 0.000000
# 4 0.000000 0.000000 0.000000 0.044247 0.000000 0.000000
# 5 0.000000 0.000000 0.000000 0.000000 0.022695 0.000000
# 6 0.000000 0.000000 0.000000 0.000000 0.000000 0.028982
#
#
# Mechanical properties :
#
#
# Convention : Reuss Voigt Hill
#
# Bulk Modulus (GPa) = 34.41685 42.74596 38.58141
# Shear Modulus (GPa) = 31.66249 34.66161 33.16205
#
# Velocity S-wave (km/s) = 3.75519 3.92901 3.84308
# Velocity P-wave (km/s) = 5.84209 6.29448 6.07250
#
# Compressibility (1/GPa) = 0.02905553
#
# Stress axis : x y z
#
# Youngs Moduli (GPa) = 74.81024 55.12343 109.02311
#
# Poissons Ratio (x) = -0.03112 0.43079
# Poissons Ratio (y) = -0.04224 0.26447
# Poissons Ratio (z) = 0.29560 0.13372
#
# Static dielectric constant tensor:
#      x y z
#    x 4.257900 0.000000 0.000000 
#    y 0.000000 3.873100 0.000000 
#    z 0.000000 0.000000 4.428520 
# 
# 
# High freq. dielectric constant tensor:
#      x y z
#    x 1.895000 0.000000 0.000000 
#    y 0.000000 1.873950 0.000000 
#    z 0.000000 0.000000 1.903870 
# 
# From -- ./inp_files/19296.got.cif
#   From: 2010.03.12/outbox.cif.g09.slc.cpg/sg60_10_cif.got.tgz:19296.got - 2010.04.10 18:46:24.
