data_PCOD8247286
_publ_section_title
;
Structure prediction by ZEFSAII (Michael W. Deem and Ramdas Pophale) SiO2 
 PCOD8247286
Probable space group: P B C N
;
_chemical_formula_sum "Si O2"
_cell_formula_units_Z 60
_cell_length_a 20.624004
_cell_length_b 9.270264
_cell_length_c 13.493278
_cell_angle_alpha 90.000000
_cell_angle_beta 90.000000
_cell_angle_gamma 90.000000
_cell_volume 2579.779306
_symmetry_space_group_name_H-M "P B C N"
_symmetry_group_IT_number 60
_symmetry_cell_setting 'orthorhombic'
loop_
_space_group_symop_operation_xyz
x,y,z
1/2-x,1/2-y,1/2+z
1/2+x,1/2-y,-z
-x,y,1/2-z
-x,-y,-z
1/2+x,1/2+y,1/2-z
1/2-x,1/2+y,z
x,-y,1/2+z
loop_
_atom_site_type_symbol
_atom_site_label
_atom_site_fract_x
_atom_site_fract_y
_atom_site_fract_z
Si Si1 0.117591 0.008395 0.521105
Si Si2 0.199703 0.196844 0.893493
Si Si3 0.650114 0.222508 0.597212
Si Si4 0.446807 0.760171 0.063801
Si Si5 0.000000 0.577989 0.750000
Si Si6 0.594090 0.934274 0.609720
Si Si7 0.207516 0.970316 0.192775
Si Si8 0.176080 0.285634 0.183116
O O1 0.171762 0.896724 0.482771
O O2 0.050840 0.914550 0.540618
O O3 0.107819 0.142894 0.445837
O O4 0.145900 0.071305 0.624063
O O5 0.273091 0.243820 0.922012
O O6 0.156597 0.336045 0.866849
O O7 0.196114 0.090946 0.800982
O O8 0.636230 0.196470 0.714324
O O9 0.620455 0.076303 0.551029
O O10 0.490079 0.816906 0.154390
O O11 0.371964 0.783751 0.092077
O O12 0.457305 0.852247 0.963156
O O13 0.942062 0.472210 0.713947
O O14 0.275067 0.910942 0.152058
O O15 0.217513 0.140962 0.199119
#
# Coordination Sequence:
#
# PCOD8247286 Si02
#       8
#     8   8   8   8   4   8   8   8
#     4  10  22  38  61  95 135 173 219 268 336 415
#     4  10  22  39  60  98 142 174 217 268 340 408
#     4  11  21  37  63  96 135 175 213 267 345 409
#     4  10  24  44  66  94 129 175 227 286 337 397
#     4  12  24  48  72  94 132 180 240 298 336 388
#     4  11  25  41  71  99 132 179 228 285 334 410
#     4  10  22  34  58  94 137 176 211 259 326 413
#     4  10  21  37  58  91 135 176 215 264 334 393
#
# _framework density 23.257802999999999
#
# number of rings (size 3 to 8) (size 9 to 14) (size 15 to 20)
#    0.000    1.600    2.667    1.200   13.067    1.067 
#    0.000    0.667    0.000   13.600    0.000    0.000 
#    0.000    0.000    0.000    0.000    0.000    0.000 
#
# Total GULP energy -743491.522565 kJ/mol
# GULP energy per Si atom -12391.525376 kJ/mol
# Density = 2.320487 g / cm^3
# Si number density = 23.257803 Si / 1000 Ang^3
#
#
#
# Elastic Constant Matrix: (Units=GPa)
#
#
# Indices 1 2 3 4 5 6 
#
# 1 39.7429 27.7255 6.2420 0.0000 0.0000 0.0000
# 2 27.7255 106.1806 12.0361 0.0000 0.0000 0.0000
# 3 6.2420 12.0361 67.3285 0.0000 0.0000 0.0000
# 4 0.0000 0.0000 0.0000 40.4175 0.0000 0.0000
# 5 0.0000 0.0000 0.0000 0.0000 29.1266 0.0000
# 6 0.0000 0.0000 0.0000 0.0000 0.0000 21.6778
#
#
#
# Elastic Compliance Matrix: (Units=1/GPa)
#
#
# Indices 1 2 3 4 5 6 
#
# 1 0.030905 -0.007905 -0.001452 0.000000 0.000000 0.000000
# 2 -0.007905 0.011635 -0.001347 0.000000 0.000000 0.000000
# 3 -0.001452 -0.001347 0.015228 0.000000 0.000000 0.000000
# 4 0.000000 0.000000 0.000000 0.024742 0.000000 0.000000
# 5 0.000000 0.000000 0.000000 0.000000 0.034333 0.000000
# 6 0.000000 0.000000 0.000000 0.000000 0.000000 0.046130
#
#
# Mechanical properties :
#
#
# Convention : Reuss Voigt Hill
#
# Bulk Modulus (GPa) = 27.50350 33.91771 30.71060
# Shear Modulus (GPa) = 25.44532 29.39428 27.41980
#
# Velocity S-wave (km/s) = 3.31124 3.55892 3.43731
# Velocity P-wave (km/s) = 5.14492 5.61274 5.38392
#
# Compressibility (1/GPa) = 0.03635901
#
# Stress axis : x y z
#
# Youngs Moduli (GPa) = 32.35775 85.94940 65.66863
#
# Poissons Ratio (x) = 0.67944 0.09535
# Poissons Ratio (y) = 0.25579 0.08846
# Poissons Ratio (z) = 0.04698 0.11578
#
# Static dielectric constant tensor:
#      x y z
#    x 4.008310 0.000000 0.000000 
#    y 0.000000 4.500090 0.000000 
#    z 0.000000 0.000000 4.215250 
# 
# 
# High freq. dielectric constant tensor:
#      x y z
#    x 1.897310 0.000000 0.000000 
#    y 0.000000 1.931320 0.000000 
#    z 0.000000 0.000000 1.923200 
# 
# From -- ./inp_files/18095.got.cif
#   From: 2010.03.12/outbox.cif.g09.slc.cpg/sg60_10_cif.got.tgz:18095.got - 2010.04.10 18:46:24.
