data_PCOD8247887
_publ_section_title
;
Structure prediction by ZEFSAII (Michael W. Deem and Ramdas Pophale) SiO2 
 PCOD8247887
Probable space group: P B C N
;
_chemical_formula_sum "Si O2"
_cell_formula_units_Z 44
_cell_length_a 16.485077
_cell_length_b 10.500119
_cell_length_c 10.527324
_cell_angle_alpha 90.000000
_cell_angle_beta 90.000000
_cell_angle_gamma 90.000000
_cell_volume 1822.229993
_symmetry_space_group_name_H-M "P B C N"
_symmetry_group_IT_number 60
_symmetry_cell_setting 'orthorhombic'
loop_
_space_group_symop_operation_xyz
x,y,z
1/2-x,1/2-y,1/2+z
1/2+x,1/2-y,-z
-x,y,1/2-z
-x,-y,-z
1/2+x,1/2+y,1/2-z
1/2-x,1/2+y,z
x,-y,1/2+z
loop_
_atom_site_type_symbol
_atom_site_label
_atom_site_fract_x
_atom_site_fract_y
_atom_site_fract_z
Si Si1 0.352660 0.374117 0.254856
Si Si2 0.280457 0.990726 0.903018
Si Si3 0.805309 0.741614 0.495786
Si Si4 0.029143 0.710670 0.883613
Si Si5 0.562860 0.849245 0.633506
Si Si6 0.500000 0.550643 0.250000
O O1 0.272622 0.456214 0.285259
O O2 0.385974 0.282803 0.366713
O O3 0.422578 0.468697 0.214480
O O4 0.337510 0.275118 0.141737
O O5 0.264770 0.100261 0.010952
O O6 0.250870 0.854089 0.952263
O O7 0.375179 0.970119 0.862899
O O8 0.874269 0.711331 0.600005
O O9 0.984782 0.642786 0.000596
O O10 0.000000 0.644458 0.750000
O O11 0.008933 0.861742 0.875635
O O12 0.500000 0.855961 0.750000
#
# Coordination Sequence:
#
# PCOD8247887 Si02
#       6
#     8   8   8   8   8   4
#     4  12  25  46  76 116 154 207 274 327 402 478
#     4  12  29  48  76 115 162 208 264 340 401 479
#     4  12  27  47  76 112 155 209 264 332 404 477
#     4  10  24  46  75 114 150 211 263 328 393 480
#     4  12  26  51  79 116 162 212 269 334 405 481
#     4  10  22  44  82 108 160 204 272 330 390 480
#
# _framework density 24.146238
#
# number of rings (size 3 to 8) (size 9 to 14) (size 15 to 20)
#    0.545    0.000    6.364    0.000    5.091    4.364 
#    0.000    0.000    0.000    0.000    0.000    0.000 
#    0.000    0.000    0.000    0.000    0.000    0.000 
#
# Total GULP energy -545214.175933 kJ/mol
# GULP energy per Si atom -12391.231271 kJ/mol
# Density = 2.409128 g / cm^3
# Si number density = 24.146238 Si / 1000 Ang^3
#
#
#
# Elastic Constant Matrix: (Units=GPa)
#
#
# Indices 1 2 3 4 5 6 
#
# 1 127.0024 44.3139 52.3239 0.0000 0.0000 0.0000
# 2 44.3139 151.4405 18.9346 0.0000 0.0000 0.0000
# 3 52.3239 18.9346 121.9288 0.0000 0.0000 0.0000
# 4 0.0000 0.0000 0.0000 79.8604 0.0000 0.0000
# 5 0.0000 0.0000 0.0000 0.0000 30.4646 0.0000
# 6 0.0000 0.0000 0.0000 0.0000 0.0000 37.5414
#
#
#
# Elastic Compliance Matrix: (Units=1/GPa)
#
#
# Indices 1 2 3 4 5 6 
#
# 1 0.010446 -0.002546 -0.004087 0.000000 0.000000 0.000000
# 2 -0.002546 0.007354 -0.000050 0.000000 0.000000 0.000000
# 3 -0.004087 -0.000050 0.009963 0.000000 0.000000 0.000000
# 4 0.000000 0.000000 0.000000 0.012522 0.000000 0.000000
# 5 0.000000 0.000000 0.000000 0.000000 0.032825 0.000000
# 6 0.000000 0.000000 0.000000 0.000000 0.000000 0.026637
#
#
# Mechanical properties :
#
#
# Convention : Reuss Voigt Hill
#
# Bulk Modulus (GPa) = 69.45298 70.16851 69.81074
# Shear Modulus (GPa) = 42.40422 48.55989 45.48206
#
# Velocity S-wave (km/s) = 4.19518 4.48937 4.34476
# Velocity P-wave (km/s) = 7.23132 7.48301 7.35824
#
# Compressibility (1/GPa) = 0.01439823
#
# Stress axis : x y z
#
# Youngs Moduli (GPa) = 95.72953 135.97378 100.36846
#
# Poissons Ratio (x) = 0.34614 0.41025
# Poissons Ratio (y) = 0.24369 0.00498
# Poissons Ratio (z) = 0.39129 0.00675
#
# Static dielectric constant tensor:
#      x y z
#    x 4.435450 0.000000 0.000000 
#    y 0.000000 4.621830 0.000000 
#    z 0.000000 0.000000 3.802900 
# 
# 
# High freq. dielectric constant tensor:
#      x y z
#    x 1.970560 0.000000 0.000000 
#    y 0.000000 1.988790 0.000000 
#    z 0.000000 0.000000 1.930610 
# 
# From -- ./inp_files/17296.got.cif
#   From: 2010.03.12/outbox.cif.g09.slc.cpg/sg60_9_cif.got.tgz:17296.got - 2010.04.10 18:46:24.
