data_PCOD8247280
_publ_section_title
;
Structure prediction by ZEFSAII (Michael W. Deem and Ramdas Pophale) SiO2 
 PCOD8247280
Probable space group: P B C N
;
_chemical_formula_sum "Si O2"
_cell_formula_units_Z 48
_cell_length_a 24.722930
_cell_length_b 10.368933
_cell_length_c 8.859119
_cell_angle_alpha 90.000000
_cell_angle_beta 90.000000
_cell_angle_gamma 90.000000
_cell_volume 2271.038741
_symmetry_space_group_name_H-M "P B C N"
_symmetry_group_IT_number 60
_symmetry_cell_setting 'orthorhombic'
loop_
_space_group_symop_operation_xyz
x,y,z
1/2-x,1/2-y,1/2+z
1/2+x,1/2-y,-z
-x,y,1/2-z
-x,-y,-z
1/2+x,1/2+y,1/2-z
1/2-x,1/2+y,z
x,-y,1/2+z
loop_
_atom_site_type_symbol
_atom_site_label
_atom_site_fract_x
_atom_site_fract_y
_atom_site_fract_z
Si Si1 0.730855 0.107464 0.929295
Si Si2 0.729008 0.365471 0.091776
Si Si3 0.938218 0.907464 0.709254
Si Si4 0.942557 0.624678 0.667380
Si Si5 0.606539 0.916411 0.466662
Si Si6 0.106686 0.136943 0.974071
O O1 0.739449 0.120436 0.749579
O O2 0.670741 0.073472 0.988492
O O3 0.751914 0.239392 0.006197
O O4 0.766138 0.989748 0.986405
O O5 0.664686 0.354600 0.105645
O O6 0.933081 0.773122 0.615771
O O7 0.895965 0.902640 0.849080
O O8 0.000000 0.921679 0.750000
O O9 0.928496 0.032851 0.611001
O O10 0.897402 0.583700 0.786777
O O11 0.930866 0.532818 0.525814
O O12 0.000000 0.604981 0.750000
O O13 0.582485 0.782586 0.536403
#
# Coordination Sequence:
#
# PCOD8247280 Si02
#       6
#     8   8   8   8   8   8
#     4  11  23  39  60  86 117 157 200 252 306 362
#     4  11  23  40  61  87 120 158 204 254 307 364
#     4  10  21  38  60  87 119 154 193 240 295 356
#     4  10  21  37  58  84 116 153 192 239 293 350
#     4  10  22  38  56  84 116 147 195 241 288 354
#     4  10  22  38  57  86 116 149 195 242 291 356
#
# _framework density 21.135701999999998
#
# number of rings (size 3 to 8) (size 9 to 14) (size 15 to 20)
#    0.000    1.667    0.000    4.000    0.000    7.333 
#    0.000    0.000    0.000    0.000    0.000    0.000 
#    0.000    0.000    0.000    0.000    0.000    0.000 
#
# Total GULP energy -594792.420902 kJ/mol
# GULP energy per Si atom -12391.508769 kJ/mol
# Density = 2.108760 g / cm^3
# Si number density = 21.135702 Si / 1000 Ang^3
#
#
#
# Elastic Constant Matrix: (Units=GPa)
#
#
# Indices 1 2 3 4 5 6 
#
# 1 48.5290 21.1086 13.8898 0.0000 0.0000 0.0000
# 2 21.1086 129.3699 33.7574 0.0000 0.0000 0.0000
# 3 13.8898 33.7574 62.2065 0.0000 0.0000 0.0000
# 4 0.0000 0.0000 0.0000 36.6867 0.0000 0.0000
# 5 0.0000 0.0000 0.0000 0.0000 30.4025 0.0000
# 6 0.0000 0.0000 0.0000 0.0000 0.0000 33.5213
#
#
#
# Elastic Compliance Matrix: (Units=1/GPa)
#
#
# Indices 1 2 3 4 5 6 
#
# 1 0.022847 -0.002792 -0.003586 0.000000 0.000000 0.000000
# 2 -0.002792 0.009346 -0.004448 0.000000 0.000000 0.000000
# 3 -0.003586 -0.004448 0.019290 0.000000 0.000000 0.000000
# 4 0.000000 0.000000 0.000000 0.027258 0.000000 0.000000
# 5 0.000000 0.000000 0.000000 0.000000 0.032892 0.000000
# 6 0.000000 0.000000 0.000000 0.000000 0.000000 0.029832
#
#
# Mechanical properties :
#
#
# Convention : Reuss Voigt Hill
#
# Bulk Modulus (GPa) = 33.52328 41.95746 37.74037
# Shear Modulus (GPa) = 28.89139 31.54540 30.21839
#
# Velocity S-wave (km/s) = 3.70124 3.86750 3.78528
# Velocity P-wave (km/s) = 5.84474 6.31173 6.08272
#
# Compressibility (1/GPa) = 0.02983002
#
# Stress axis : x y z
#
# Youngs Moduli (GPa) = 43.76918 106.99671 51.83963
#
# Poissons Ratio (x) = 0.29874 0.18591
# Poissons Ratio (y) = 0.12221 0.23060
# Poissons Ratio (z) = 0.15697 0.47596
#
# Static dielectric constant tensor:
#      x y z
#    x 3.824390 0.000000 0.000000 
#    y 0.000000 4.296820 0.000000 
#    z 0.000000 0.000000 3.735190 
# 
# 
# High freq. dielectric constant tensor:
#      x y z
#    x 1.827800 0.000000 0.000000 
#    y 0.000000 1.850920 0.000000 
#    z 0.000000 0.000000 1.812390 
# 
# From -- ./inp_files/8393.got.cif
#   From: 2010.03.12/outbox.cif.g09.slc.cpg/sg60_5_cif.got.tgz:8393.got - 2010.04.10 18:46:24.
