data_PCOD8247859
_publ_section_title
;
Structure prediction by ZEFSAII (Michael W. Deem and Ramdas Pophale) SiO2 
 PCOD8247859
Probable space group: P B C N
;
_chemical_formula_sum "Si O2"
_cell_formula_units_Z 60
_cell_length_a 17.471454
_cell_length_b 14.730440
_cell_length_c 11.311645
_cell_angle_alpha 90.000000
_cell_angle_beta 90.000000
_cell_angle_gamma 90.000000
_cell_volume 2911.189898
_symmetry_space_group_name_H-M "P B C N"
_symmetry_group_IT_number 60
_symmetry_cell_setting 'orthorhombic'
loop_
_space_group_symop_operation_xyz
x,y,z
1/2-x,1/2-y,1/2+z
1/2+x,1/2-y,-z
-x,y,1/2-z
-x,-y,-z
1/2+x,1/2+y,1/2-z
1/2-x,1/2+y,z
x,-y,1/2+z
loop_
_atom_site_type_symbol
_atom_site_label
_atom_site_fract_x
_atom_site_fract_y
_atom_site_fract_z
Si Si1 0.000000 0.936873 0.750000
Si Si2 0.253703 0.573622 0.039824
Si Si3 0.884314 0.484302 0.577442
Si Si4 0.152084 0.177493 0.855061
Si Si5 0.378435 0.552722 0.654347
Si Si6 0.522512 0.861142 0.978668
Si Si7 0.999134 0.157508 0.002161
Si Si8 0.358017 0.138021 0.223459
O O1 0.012939 0.880116 0.631946
O O2 0.925154 0.999758 0.743669
O O3 0.324705 0.517033 0.086860
O O4 0.216428 0.637004 0.140353
O O5 0.192990 0.497953 0.997099
O O6 0.278457 0.645503 0.938760
O O7 0.930596 0.578538 0.572466
O O8 0.861293 0.459499 0.710892
O O9 0.937062 0.401758 0.529243
O O10 0.165516 0.129262 0.728449
O O11 0.151737 0.284277 0.823362
O O12 0.072775 0.151722 0.918317
O O13 0.432027 0.600085 0.557557
O O14 0.563202 0.855278 0.850180
O O15 0.522949 0.760563 0.028441
#
# Coordination Sequence:
#
# PCOD8247859 Si02
#       8
#     4   8   8   8   8   8   8   8
#     4  12  24  40  62 104 140 170 224 294 328 406
#     4  11  26  44  61 104 142 182 225 275 356 412
#     4  10  22  43  69  93 131 177 227 280 336 406
#     4  12  23  42  72  97 137 181 233 278 339 417
#     4  12  23  43  72  97 134 184 227 283 343 412
#     4  10  22  44  70 102 127 175 238 280 337 405
#     4  12  23  43  69 104 134 176 231 288 341 397
#     4  11  23  44  71  97 138 180 227 286 340 410
#
# _framework density 20.610130000000002
#
# number of rings (size 3 to 8) (size 9 to 14) (size 15 to 20)
#    0.000    0.800    5.333    2.400    0.000    1.067 
#   12.000    0.000    0.000    0.000    0.000    0.000 
#    0.000    0.000    0.000    0.000    0.000    0.000 
#
# Total GULP energy -743828.249196 kJ/mol
# GULP energy per Si atom -12397.137487 kJ/mol
# Density = 2.056322 g / cm^3
# Si number density = 20.610130 Si / 1000 Ang^3
#
#
#
# Elastic Constant Matrix: (Units=GPa)
#
#
# Indices 1 2 3 4 5 6 
#
# 1 111.4083 45.1461 38.8106 0.0000 0.0000 0.0000
# 2 45.1461 115.8885 52.2446 0.0000 0.0000 0.0000
# 3 38.8106 52.2446 111.9722 0.0000 0.0000 0.0000
# 4 0.0000 0.0000 0.0000 39.3403 0.0000 0.0000
# 5 0.0000 0.0000 0.0000 0.0000 37.6320 0.0000
# 6 0.0000 0.0000 0.0000 0.0000 0.0000 26.2593
#
#
#
# Elastic Compliance Matrix: (Units=1/GPa)
#
#
# Indices 1 2 3 4 5 6 
#
# 1 0.011115 -0.003284 -0.002320 0.000000 0.000000 0.000000
# 2 -0.003284 0.011898 -0.004413 0.000000 0.000000 0.000000
# 3 -0.002320 -0.004413 0.011794 0.000000 0.000000 0.000000
# 4 0.000000 0.000000 0.000000 0.025419 0.000000 0.000000
# 5 0.000000 0.000000 0.000000 0.000000 0.026573 0.000000
# 6 0.000000 0.000000 0.000000 0.000000 0.000000 0.038082
#
#
# Mechanical properties :
#
#
# Convention : Reuss Voigt Hill
#
# Bulk Modulus (GPa) = 67.69473 67.96350 67.82912
# Shear Modulus (GPa) = 33.36893 34.18417 33.77655
#
# Velocity S-wave (km/s) = 4.02811 4.07702 4.05264
# Velocity P-wave (km/s) = 7.38586 7.43035 7.40814
#
# Compressibility (1/GPa) = 0.01477220
#
# Stress axis : x y z
#
# Youngs Moduli (GPa) = 89.96786 84.04904 84.78808
#
# Poissons Ratio (x) = 0.27602 0.19674
# Poissons Ratio (y) = 0.29545 0.37418
# Poissons Ratio (z) = 0.20875 0.37092
#
# Static dielectric constant tensor:
#      x y z
#    x 3.833200 0.000000 0.000000 
#    y 0.000000 3.843500 0.000000 
#    z 0.000000 0.000000 3.707720 
# 
# 
# High freq. dielectric constant tensor:
#      x y z
#    x 1.806120 0.000000 0.000000 
#    y 0.000000 1.814640 0.000000 
#    z 0.000000 0.000000 1.805430 
# 
# From -- ./inp_files/12523.got.cif
#   From: 2010.03.12/outbox.cif.g09.slc.cpg/sg60_7_cif.got.tgz:12523.got - 2010.04.10 18:46:24.
