data_PCOD8247711
_publ_section_title
;
Structure prediction by ZEFSAII (Michael W. Deem and Ramdas Pophale) SiO2 
 PCOD8247711
Probable space group: P B C N
;
_chemical_formula_sum "Si O2"
_cell_formula_units_Z 48
_cell_length_a 8.679808
_cell_length_b 23.328754
_cell_length_c 10.963293
_cell_angle_alpha 90.000000
_cell_angle_beta 90.000000
_cell_angle_gamma 90.000000
_cell_volume 2219.947394
_symmetry_space_group_name_H-M "P B C N"
_symmetry_group_IT_number 60
_symmetry_cell_setting 'orthorhombic'
loop_
_space_group_symop_operation_xyz
x,y,z
1/2-x,1/2-y,1/2+z
1/2+x,1/2-y,-z
-x,y,1/2-z
-x,-y,-z
1/2+x,1/2+y,1/2-z
1/2-x,1/2+y,z
x,-y,1/2+z
loop_
_atom_site_type_symbol
_atom_site_label
_atom_site_fract_x
_atom_site_fract_y
_atom_site_fract_z
Si Si1 0.165967 0.370934 0.723267
Si Si2 0.726995 0.409793 0.183992
Si Si3 0.884680 0.677985 0.534474
Si Si4 0.860551 0.968682 0.666446
Si Si5 0.781450 0.295586 0.554364
Si Si6 0.093032 0.107427 0.563687
O O1 0.183613 0.351314 0.585809
O O2 0.289769 0.419126 0.750910
O O3 0.186728 0.315221 0.807822
O O4 0.000000 0.398836 0.750000
O O5 0.750856 0.476544 0.145392
O O6 0.576043 0.384003 0.117729
O O7 0.714714 0.407184 0.330066
O O8 0.869840 0.370266 0.140377
O O9 0.773965 0.730875 0.563879
O O10 0.061663 0.697747 0.523908
O O11 0.907807 0.944133 0.534713
O O12 0.000000 0.993184 0.750000
O O13 0.645119 0.333158 0.496701
#
# Coordination Sequence:
#
# PCOD8247711 Si02
#       6
#     8   8   8   8   8   8
#     4   9  22  43  62  86 122 163 205 256 319 374
#     4  11  23  37  61  95 127 166 202 261 310 366
#     4  11  23  41  66  90 124 162 211 258 321 377
#     4  11  21  39  65  92 124 168 212 253 304 376
#     4  10  23  43  64  92 121 163 208 265 313 382
#     4  10  22  40  60  93 131 160 212 256 315 365
#
# _framework density 21.622133999999999
#
# number of rings (size 3 to 8) (size 9 to 14) (size 15 to 20)
#    0.000    1.667    1.667    2.500    4.667    2.000 
#    3.000    2.500    0.000    0.000    0.000    0.000 
#    0.000    0.000    0.000    0.000    0.000    0.000 
#
# Total GULP energy -595268.952520 kJ/mol
# GULP energy per Si atom -12401.436511 kJ/mol
# Density = 2.157292 g / cm^3
# Si number density = 21.622134 Si / 1000 Ang^3
#
#
#
# Elastic Constant Matrix: (Units=GPa)
#
#
# Indices 1 2 3 4 5 6 
#
# 1 44.3033 22.1005 3.7250 0.0000 0.0000 0.0000
# 2 22.1005 122.3451 21.6248 0.0000 0.0000 0.0000
# 3 3.7250 21.6248 98.6241 0.0000 0.0000 0.0000
# 4 0.0000 0.0000 0.0000 11.6248 0.0000 0.0000
# 5 0.0000 0.0000 0.0000 0.0000 26.7601 0.0000
# 6 0.0000 0.0000 0.0000 0.0000 0.0000 22.9966
#
#
#
# Elastic Compliance Matrix: (Units=1/GPa)
#
#
# Indices 1 2 3 4 5 6 
#
# 1 0.024807 -0.004490 0.000047 0.000000 0.000000 0.000000
# 2 -0.004490 0.009316 -0.001873 0.000000 0.000000 0.000000
# 3 0.000047 -0.001873 0.010548 0.000000 0.000000 0.000000
# 4 0.000000 0.000000 0.000000 0.086023 0.000000 0.000000
# 5 0.000000 0.000000 0.000000 0.000000 0.037369 0.000000
# 6 0.000000 0.000000 0.000000 0.000000 0.000000 0.043485
#
#
# Mechanical properties :
#
#
# Convention : Reuss Voigt Hill
#
# Bulk Modulus (GPa) = 31.20999 40.01924 35.61461
# Shear Modulus (GPa) = 21.28940 26.79780 24.04360
#
# Velocity S-wave (km/s) = 3.14126 3.52429 3.33827
# Velocity P-wave (km/s) = 5.25569 5.92532 5.60052
#
# Compressibility (1/GPa) = 0.03204102
#
# Stress axis : x y z
#
# Youngs Moduli (GPa) = 40.31072 107.34607 94.80102
#
# Poissons Ratio (x) = 0.48194 -0.00450
# Poissons Ratio (y) = 0.18098 0.17757
# Poissons Ratio (z) = -0.00191 0.20106
#
# Static dielectric constant tensor:
#      x y z
#    x 3.826730 0.000000 0.000000 
#    y 0.000000 3.789360 0.000000 
#    z 0.000000 0.000000 4.079340 
# 
# 
# High freq. dielectric constant tensor:
#      x y z
#    x 1.835020 0.000000 0.000000 
#    y 0.000000 1.855340 0.000000 
#    z 0.000000 0.000000 1.859550 
# 
# From -- ./inp_files/10114.got.cif
#   From: 2010.03.12/outbox.cif.g09.slc.cpg/sg60_6_cif.got.tgz:10114.got - 2010.04.10 18:46:24.
