data_PCOD8247037
_publ_section_title
;
Structure prediction by ZEFSAII (Michael W. Deem and Ramdas Pophale) SiO2 
 PCOD8247037
Probable space group: P B C N
;
_chemical_formula_sum "Si O2"
_cell_formula_units_Z 64
_cell_length_a 12.052037
_cell_length_b 18.563970
_cell_length_c 14.045088
_cell_angle_alpha 90.000000
_cell_angle_beta 90.000000
_cell_angle_gamma 90.000000
_cell_volume 3142.358849
_symmetry_space_group_name_H-M "P B C N"
_symmetry_group_IT_number 60
_symmetry_cell_setting 'orthorhombic'
loop_
_space_group_symop_operation_xyz
x,y,z
1/2-x,1/2-y,1/2+z
1/2+x,1/2-y,-z
-x,y,1/2-z
-x,-y,-z
1/2+x,1/2+y,1/2-z
1/2-x,1/2+y,z
x,-y,1/2+z
loop_
_atom_site_type_symbol
_atom_site_label
_atom_site_fract_x
_atom_site_fract_y
_atom_site_fract_z
Si Si1 0.220276 0.082382 0.141337
Si Si2 0.214008 0.333202 0.476550
Si Si3 0.999354 0.316030 0.142534
Si Si4 0.778237 0.670085 0.974983
Si Si5 0.870240 0.926757 0.140104
Si Si6 0.777240 0.079427 0.137451
Si Si7 0.002559 0.147729 0.355582
Si Si8 0.875768 0.071801 0.859969
O O1 0.247856 0.098758 0.252038
O O2 0.113239 0.125013 0.099002
O O3 0.200908 0.998361 0.121912
O O4 0.311353 0.118937 0.072335
O O5 0.240132 0.250232 0.498496
O O6 0.321018 0.360515 0.418262
O O7 0.104368 0.347579 0.414575
O O8 0.114281 0.333508 0.091381
O O9 0.000000 0.348336 0.250000
O O10 0.980285 0.231748 0.147447
O O11 0.674398 0.637482 0.918261
O O12 0.809530 0.620805 0.068445
O O13 0.870792 0.906049 0.250276
O O14 0.997018 0.943347 0.108221
O O15 0.787440 0.994265 0.121524
O O16 0.891952 0.112072 0.095278
O O17 0.000000 0.112914 0.250000
#
# Coordination Sequence:
#
# PCOD8247037 Si02
#       8
#     8   8   8   8   8   8   8   8
#     4  10  20  38  63  94 127 159 204 264 327 376
#     4  12  25  37  63  92 127 168 216 252 310 378
#     4  11  24  44  61  85 133 180 215 248 305 391
#     4  12  25  37  63  92 127 168 216 252 310 378
#     4  10  22  40  65  97 128 158 205 272 332 372
#     4  10  20  38  63  94 127 159 204 264 327 376
#     4   9  16  32  60  88 118 161 198 244 313 379
#     4  10  22  40  65  97 128 158 205 272 332 372
#
# _framework density 20.366865000000001
#
# number of rings (size 3 to 8) (size 9 to 14) (size 15 to 20)
#    0.000    1.500    3.750    1.500    3.500    2.000 
#    0.000    3.125    0.000    3.000    0.000    0.000 
#    0.000    0.000    0.000    0.000    0.000    0.000 
#
# Total GULP energy -793244.274312 kJ/mol
# GULP energy per Si atom -12394.441786 kJ/mol
# Density = 2.032051 g / cm^3
# Si number density = 20.366865 Si / 1000 Ang^3
#
#
#
# Elastic Constant Matrix: (Units=GPa)
#
#
# Indices 1 2 3 4 5 6 
#
# 1 70.3948 24.4560 62.9217 0.0000 0.0000 0.0000
# 2 24.4560 100.6234 59.3290 0.0000 0.0000 0.0000
# 3 62.9217 59.3290 130.0283 0.0000 0.0000 0.0000
# 4 0.0000 0.0000 0.0000 35.8677 0.0000 0.0000
# 5 0.0000 0.0000 0.0000 0.0000 37.8312 0.0000
# 6 0.0000 0.0000 0.0000 0.0000 0.0000 34.8056
#
#
#
# Elastic Compliance Matrix: (Units=1/GPa)
#
#
# Indices 1 2 3 4 5 6 
#
# 1 0.025189 0.001457 -0.012854 0.000000 0.000000 0.000000
# 2 0.001457 0.013680 -0.006947 0.000000 0.000000 0.000000
# 3 -0.012854 -0.006947 0.017080 0.000000 0.000000 0.000000
# 4 0.000000 0.000000 0.000000 0.027880 0.000000 0.000000
# 5 0.000000 0.000000 0.000000 0.000000 0.026433 0.000000
# 6 0.000000 0.000000 0.000000 0.000000 0.000000 0.028731
#
#
# Mechanical properties :
#
#
# Convention : Reuss Voigt Hill
#
# Bulk Modulus (GPa) = 51.91721 66.05111 58.98416
# Shear Modulus (GPa) = 27.45729 31.99022 29.72375
#
# Velocity S-wave (km/s) = 3.67568 3.96750 3.82438
# Velocity P-wave (km/s) = 6.60004 7.31363 6.96598
#
# Compressibility (1/GPa) = 0.01926144
#
# Stress axis : x y z
#
# Youngs Moduli (GPa) = 39.70049 73.09993 58.54715
#
# Poissons Ratio (x) = -0.10649 0.75254
# Poissons Ratio (y) = -0.05783 0.40671
# Poissons Ratio (z) = 0.51030 0.50781
#
# Static dielectric constant tensor:
#      x y z
#    x 3.588370 0.000000 0.000000 
#    y 0.000000 3.602410 0.000000 
#    z 0.000000 0.000000 4.094100 
# 
# 
# High freq. dielectric constant tensor:
#      x y z
#    x 1.764190 0.000000 0.000000 
#    y 0.000000 1.791780 0.000000 
#    z 0.000000 0.000000 1.819090 
# 
# From -- ./inp_files/16371.got.cif
#   From: 2010.03.12/outbox.cif.g09.slc.cpg/sg60_9_cif.got.tgz:16371.got - 2010.04.10 18:46:24.
