data_PCOD8247927
_publ_section_title
;
Structure prediction by ZEFSAII (Michael W. Deem and Ramdas Pophale) SiO2 
 PCOD8247927
Probable space group: P B C N
;
_chemical_formula_sum "Si O2"
_cell_formula_units_Z 60
_cell_length_a 6.456802
_cell_length_b 21.486569
_cell_length_c 19.106239
_cell_angle_alpha 90.000000
_cell_angle_beta 90.000000
_cell_angle_gamma 90.000000
_cell_volume 2650.694929
_symmetry_space_group_name_H-M "P B C N"
_symmetry_group_IT_number 60
_symmetry_cell_setting 'orthorhombic'
loop_
_space_group_symop_operation_xyz
x,y,z
1/2-x,1/2-y,1/2+z
1/2+x,1/2-y,-z
-x,y,1/2-z
-x,-y,-z
1/2+x,1/2+y,1/2-z
1/2-x,1/2+y,z
x,-y,1/2+z
loop_
_atom_site_type_symbol
_atom_site_label
_atom_site_fract_x
_atom_site_fract_y
_atom_site_fract_z
Si Si1 0.675621 0.221050 0.088297
Si Si2 0.169353 0.809371 0.063615
Si Si3 0.681516 0.432723 0.198646
Si Si4 0.038030 0.314297 0.330839
Si Si5 0.500000 0.967714 0.750000
Si Si6 0.969854 0.400319 0.884478
Si Si7 0.104395 0.096475 0.019409
Si Si8 0.207037 0.989635 0.926656
O O1 0.458797 0.255576 0.101533
O O2 0.859793 0.256169 0.128930
O O3 0.647279 0.152364 0.119501
O O4 0.716855 0.216664 0.005043
O O5 0.333223 0.833311 0.122963
O O6 0.990976 0.859495 0.041087
O O7 0.500000 0.408815 0.250000
O O8 0.817821 0.374844 0.172217
O O9 0.811597 0.486980 0.234112
O O10 0.592738 0.466700 0.130460
O O11 0.000000 0.294393 0.250000
O O12 0.405699 0.919955 0.693068
O O13 0.060602 0.466461 0.912539
O O14 0.782295 0.372474 0.932190
O O15 0.211706 0.032509 0.994660
O O16 0.915225 0.075181 0.067292
#
# Coordination Sequence:
#
# PCOD8247927 Si02
#       8
#     8   8   8   8   4   8   8   8
#     4  12  26  47  73 100 146 196 246 305 358 448
#     4  12  26  47  73 106 143 197 249 304 372 429
#     4  11  24  45  72 102 143 189 237 301 374 447
#     4  12  30  48  74 109 146 189 249 313 375 447
#     4  10  24  46  70 106 148 190 234 310 376 448
#     4  11  24  43  67 101 142 190 240 294 371 437
#     4  11  23  40  70 103 139 184 239 300 356 446
#     4  10  23  39  66 104 141 178 233 296 365 436
#
# _framework density 22.635573999999998
#
# number of rings (size 3 to 8) (size 9 to 14) (size 15 to 20)
#    0.000    0.800    3.333    2.800    5.600    5.333 
#    0.000    0.667    0.000    0.000    0.000    0.000 
#    0.000    0.000    0.000    0.000    0.000    0.000 
#
# Total GULP energy -743286.249495 kJ/mol
# GULP energy per Si atom -12388.104158 kJ/mol
# Density = 2.258405 g / cm^3
# Si number density = 22.635574 Si / 1000 Ang^3
#
#
#
# Elastic Constant Matrix: (Units=GPa)
#
#
# Indices 1 2 3 4 5 6 
#
# 1 87.2431 42.1694 49.3530 0.0000 0.0000 0.0000
# 2 42.1694 106.6634 42.5096 0.0000 0.0000 0.0000
# 3 49.3530 42.5096 116.4339 0.0000 0.0000 0.0000
# 4 0.0000 0.0000 0.0000 16.2178 0.0000 0.0000
# 5 0.0000 0.0000 0.0000 0.0000 50.7543 0.0000
# 6 0.0000 0.0000 0.0000 0.0000 0.0000 50.5423
#
#
#
# Elastic Compliance Matrix: (Units=1/GPa)
#
#
# Indices 1 2 3 4 5 6 
#
# 1 0.016688 -0.004422 -0.005459 0.000000 0.000000 0.000000
# 2 -0.004422 0.012143 -0.002559 0.000000 0.000000 0.000000
# 3 -0.005459 -0.002559 0.011837 0.000000 0.000000 0.000000
# 4 0.000000 0.000000 0.000000 0.061661 0.000000 0.000000
# 5 0.000000 0.000000 0.000000 0.000000 0.019703 0.000000
# 6 0.000000 0.000000 0.000000 0.000000 0.000000 0.019785
#
#
# Mechanical properties :
#
#
# Convention : Reuss Voigt Hill
#
# Bulk Modulus (GPa) = 63.34022 64.26716 63.80369
# Shear Modulus (GPa) = 29.07661 35.25679 32.16670
#
# Velocity S-wave (km/s) = 3.58796 3.95090 3.77380
# Velocity P-wave (km/s) = 6.72368 7.01902 6.87294
#
# Compressibility (1/GPa) = 0.01578776
#
# Stress axis : x y z
#
# Youngs Moduli (GPa) = 59.92434 82.34918 84.48182
#
# Poissons Ratio (x) = 0.36414 0.46119
# Poissons Ratio (y) = 0.26498 0.21621
# Poissons Ratio (z) = 0.32713 0.21075
#
# Static dielectric constant tensor:
#      x y z
#    x 3.989620 0.000000 0.000000 
#    y 0.000000 4.064210 0.000000 
#    z 0.000000 0.000000 2.123000 
# 
# 
# High freq. dielectric constant tensor:
#      x y z
#    x 1.891070 0.000000 0.000000 
#    y 0.000000 1.902150 0.000000 
#    z 0.000000 0.000000 1.890330 
# 
# From -- ./inp_files/21770.got.cif
#   From: 2010.03.12/outbox.cif.g09.slc.cpg/sg60_11_cif.got.tgz:21770.got - 2010.04.10 18:46:24.
