data_PCOD8247548
_publ_section_title
;
Structure prediction by ZEFSAII (Michael W. Deem and Ramdas Pophale) SiO2 
 PCOD8247548
Probable space group: P B C N
;
_chemical_formula_sum "Si O2"
_cell_formula_units_Z 44
_cell_length_a 8.431079
_cell_length_b 18.336391
_cell_length_c 14.004724
_cell_angle_alpha 90.000000
_cell_angle_beta 90.000000
_cell_angle_gamma 90.000000
_cell_volume 2165.068165
_symmetry_space_group_name_H-M "P B C N"
_symmetry_group_IT_number 60
_symmetry_cell_setting 'orthorhombic'
loop_
_space_group_symop_operation_xyz
x,y,z
1/2-x,1/2-y,1/2+z
1/2+x,1/2-y,-z
-x,y,1/2-z
-x,-y,-z
1/2+x,1/2+y,1/2-z
1/2-x,1/2+y,z
x,-y,1/2+z
loop_
_atom_site_type_symbol
_atom_site_label
_atom_site_fract_x
_atom_site_fract_y
_atom_site_fract_z
Si Si1 0.984928 0.456504 0.403605
Si Si2 0.677527 0.303951 0.232406
Si Si3 0.145910 0.207646 0.115857
Si Si4 0.621238 0.197313 0.551051
Si Si5 0.000000 0.088430 0.250000
Si Si6 0.750725 0.469499 0.246747
O O1 0.014492 0.371769 0.422409
O O2 0.110683 0.483196 0.327415
O O3 0.000000 0.500000 0.500000
O O4 0.812950 0.472251 0.356463
O O5 0.500000 0.272767 0.250000
O O6 0.799928 0.268213 0.307301
O O7 0.742513 0.283266 0.127972
O O8 0.669052 0.391078 0.237379
O O9 0.074892 0.136402 0.166018
O O10 0.004828 0.237044 0.048564
O O11 0.296557 0.186054 0.051333
O O12 0.136276 0.034367 0.285412
#
# Coordination Sequence:
#
# PCOD8247548 Si02
#       6
#     8   8   8   8   4   8
#     4  10  21  42  65  91 129 177 223 264 334 400
#     4  11  21  44  67  91 129 185 221 266 342 407
#     4  12  24  43  67  98 142 171 227 284 335 398
#     4  11  23  41  66  99 131 180 225 274 335 409
#     4  12  24  44  64 104 138 166 228 294 326 376
#     4  10  22  41  68  90 131 175 219 273 332 397
#
# _framework density 20.322686000000001
#
# number of rings (size 3 to 8) (size 9 to 14) (size 15 to 20)
#    0.000    1.091    4.545    2.182    0.000    1.455 
#    9.818    2.727    0.000    0.000    0.000    0.000 
#    0.000    0.000    0.000    0.000    0.000    0.000 
#
# Total GULP energy -545462.854638 kJ/mol
# GULP energy per Si atom -12396.883060 kJ/mol
# Density = 2.027643 g / cm^3
# Si number density = 20.322686 Si / 1000 Ang^3
#
#
#
# Elastic Constant Matrix: (Units=GPa)
#
#
# Indices 1 2 3 4 5 6 
#
# 1 86.4215 47.8520 21.8573 0.0000 0.0000 0.0000
# 2 47.8520 95.4896 29.9014 0.0000 0.0000 0.0000
# 3 21.8573 29.9014 101.0589 0.0000 0.0000 0.0000
# 4 0.0000 0.0000 0.0000 29.1509 0.0000 0.0000
# 5 0.0000 0.0000 0.0000 0.0000 40.5649 0.0000
# 6 0.0000 0.0000 0.0000 0.0000 0.0000 11.3513
#
#
#
# Elastic Compliance Matrix: (Units=1/GPa)
#
#
# Indices 1 2 3 4 5 6 
#
# 1 0.016148 -0.007713 -0.001210 0.000000 0.000000 0.000000
# 2 -0.007713 0.015226 -0.002837 0.000000 0.000000 0.000000
# 3 -0.001210 -0.002837 0.010996 0.000000 0.000000 0.000000
# 4 0.000000 0.000000 0.000000 0.034304 0.000000 0.000000
# 5 0.000000 0.000000 0.000000 0.000000 0.024652 0.000000
# 6 0.000000 0.000000 0.000000 0.000000 0.000000 0.088096
#
#
# Mechanical properties :
#
#
# Convention : Reuss Voigt Hill
#
# Bulk Modulus (GPa) = 53.05143 53.57683 53.31413
# Shear Modulus (GPa) = 22.80750 28.43737 25.62243
#
# Velocity S-wave (km/s) = 3.35366 3.74477 3.55460
# Velocity P-wave (km/s) = 6.41539 6.71699 6.56793
#
# Compressibility (1/GPa) = 0.01884963
#
# Stress axis : x y z
#
# Youngs Moduli (GPa) = 61.92665 65.67754 90.93913
#
# Poissons Ratio (x) = 0.50658 0.11007
# Poissons Ratio (y) = 0.47765 0.25798
# Poissons Ratio (z) = 0.07496 0.18632
#
# Static dielectric constant tensor:
#      x y z
#    x 3.798110 0.000000 0.000000 
#    y 0.000000 3.578190 0.000000 
#    z 0.000000 0.000000 3.727450 
# 
# 
# High freq. dielectric constant tensor:
#      x y z
#    x 1.804920 0.000000 0.000000 
#    y 0.000000 1.791540 0.000000 
#    z 0.000000 0.000000 1.791320 
# 
# From -- ./inp_files/14912.got.cif
#   From: 2010.03.12/outbox.cif.g09.slc.cpg/sg60_8_cif.got.tgz:14912.got - 2010.04.10 18:46:24.
