data_PCOD8247268
_publ_section_title
;
Structure prediction by ZEFSAII (Michael W. Deem and Ramdas Pophale) SiO2 
 PCOD8247268
Probable space group: P B C N
;
_chemical_formula_sum "Si O2"
_cell_formula_units_Z 32
_cell_length_a 16.395252
_cell_length_b 4.867186
_cell_length_c 18.783109
_cell_angle_alpha 90.000000
_cell_angle_beta 90.000000
_cell_angle_gamma 90.000000
_cell_volume 1498.868450
_symmetry_space_group_name_H-M "P B C N"
_symmetry_group_IT_number 60
_symmetry_cell_setting 'orthorhombic'
loop_
_space_group_symop_operation_xyz
x,y,z
1/2-x,1/2-y,1/2+z
1/2+x,1/2-y,-z
-x,y,1/2-z
-x,-y,-z
1/2+x,1/2+y,1/2-z
1/2-x,1/2+y,z
x,-y,1/2+z
loop_
_atom_site_type_symbol
_atom_site_label
_atom_site_fract_x
_atom_site_fract_y
_atom_site_fract_z
Si Si1 0.800410 0.995868 0.842662
Si Si2 0.948311 0.779837 0.581774
Si Si3 0.800396 0.056113 0.175378
Si Si4 0.555857 0.215609 0.425763
O O1 0.776930 0.687588 0.866625
O O2 0.815483 0.969554 0.759151
O O3 0.879624 0.130340 0.876548
O O4 0.879991 0.807322 0.641692
O O5 0.910994 0.669105 0.506502
O O6 0.022095 0.573853 0.606363
O O7 0.978011 0.088126 0.569572
O O8 0.724021 0.249610 0.151893
#
# Coordination Sequence:
#
# PCOD8247268 Si02
#       4
#     8   8   8   8
#     4  10  21  37  56  81 113 147 187 233 280 338
#     4  10  21  37  57  83 114 147 188 237 287 344
#     4  10  21  37  56  81 113 147 187 233 280 338
#     4  10  21  37  57  83 114 147 188 237 287 344
#
# _framework density 21.349440000000001
#
# number of rings (size 3 to 8) (size 9 to 14) (size 15 to 20)
#    0.000    2.000    0.000    3.000    0.000    3.000 
#    0.000    2.500    0.000    0.000    0.000    0.000 
#    0.000    0.000    0.000    0.000    0.000    0.000 
#
# Total GULP energy -396423.237139 kJ/mol
# GULP energy per Si atom -12388.226161 kJ/mol
# Density = 2.130085 g / cm^3
# Si number density = 21.349440 Si / 1000 Ang^3
#
#
#
# Elastic Constant Matrix: (Units=GPa)
#
#
# Indices 1 2 3 4 5 6 
#
# 1 75.5132 17.2568 49.6339 0.0000 0.0000 0.0000
# 2 17.2568 99.9000 40.8874 0.0000 0.0000 0.0000
# 3 49.6339 40.8874 67.7298 0.0000 0.0000 0.0000
# 4 0.0000 0.0000 0.0000 31.1053 0.0000 0.0000
# 5 0.0000 0.0000 0.0000 0.0000 60.0720 0.0000
# 6 0.0000 0.0000 0.0000 0.0000 0.0000 49.5882
#
#
#
# Elastic Compliance Matrix: (Units=1/GPa)
#
#
# Indices 1 2 3 4 5 6 
#
# 1 0.027032 0.004566 -0.022566 0.000000 0.000000 0.000000
# 2 0.004566 0.014066 -0.011838 0.000000 0.000000 0.000000
# 3 -0.022566 -0.011838 0.038448 0.000000 0.000000 0.000000
# 4 0.000000 0.000000 0.000000 0.032149 0.000000 0.000000
# 5 0.000000 0.000000 0.000000 0.000000 0.016647 0.000000
# 6 0.000000 0.000000 0.000000 0.000000 0.000000 0.020166
#
#
# Mechanical properties :
#
#
# Convention : Reuss Voigt Hill
#
# Bulk Modulus (GPa) = 50.32570 50.96656 50.64613
# Shear Modulus (GPa) = 23.27681 37.17744 30.22712
#
# Velocity S-wave (km/s) = 3.30552 4.17751 3.76683
# Velocity P-wave (km/s) = 6.17998 6.86973 6.53396
#
# Compressibility (1/GPa) = 0.01987056
#
# Stress axis : x y z
#
# Youngs Moduli (GPa) = 36.99378 71.09197 26.00923
#
# Poissons Ratio (x) = -0.32464 0.58693
# Poissons Ratio (y) = -0.16893 0.30790
# Poissons Ratio (z) = 0.83480 0.84159
#
# Static dielectric constant tensor:
#      x y z
#    x 3.501530 0.000000 0.000000 
#    y 0.000000 4.369260 0.000000 
#    z 0.000000 0.000000 3.722590 
# 
# 
# High freq. dielectric constant tensor:
#      x y z
#    x 1.816950 0.000000 0.000000 
#    y 0.000000 1.868560 0.000000 
#    z 0.000000 0.000000 1.819470 
# 
# From -- ./inp_files/20333.got.cif
#   From: 2010.03.12/outbox.cif.g09.slc.cpg/sg60_11_cif.got.tgz:20333.got - 2010.04.10 18:46:24.
