data_PCOD8247651
_publ_section_title
;
Structure prediction by ZEFSAII (Michael W. Deem and Ramdas Pophale) SiO2 
 PCOD8247651
Probable space group: P B C N
;
_chemical_formula_sum "Si O2"
_cell_formula_units_Z 52
_cell_length_a 13.916479
_cell_length_b 8.960480
_cell_length_c 20.273219
_cell_angle_alpha 90.000000
_cell_angle_beta 90.000000
_cell_angle_gamma 90.000000
_cell_volume 2528.036589
_symmetry_space_group_name_H-M "P B C N"
_symmetry_group_IT_number 60
_symmetry_cell_setting 'orthorhombic'
loop_
_space_group_symop_operation_xyz
x,y,z
1/2-x,1/2-y,1/2+z
1/2+x,1/2-y,-z
-x,y,1/2-z
-x,-y,-z
1/2+x,1/2+y,1/2-z
1/2-x,1/2+y,z
x,-y,1/2+z
loop_
_atom_site_type_symbol
_atom_site_label
_atom_site_fract_x
_atom_site_fract_y
_atom_site_fract_z
Si Si1 0.867181 0.103959 0.355490
Si Si2 0.475968 0.138051 0.089097
Si Si3 0.502955 0.797995 0.441201
Si Si4 0.153236 0.670799 0.838657
Si Si5 0.500000 0.317857 0.750000
Si Si6 0.848953 0.673900 0.183756
Si Si7 0.318465 0.274439 0.170793
O O1 0.917849 0.172543 0.420908
O O2 0.955020 0.077871 0.305339
O O3 0.791710 0.223377 0.327462
O O4 0.818384 0.942778 0.357755
O O5 0.556826 0.200853 0.139127
O O6 0.372423 0.181426 0.115409
O O7 0.465282 0.961437 0.082443
O O8 0.494770 0.216621 0.019317
O O9 0.398590 0.783030 0.407125
O O10 0.085414 0.717432 0.778439
O O11 0.256037 0.746652 0.845823
O O12 0.174465 0.500040 0.821241
O O13 0.865553 0.740311 0.257451
#
# Coordination Sequence:
#
# PCOD8247651 Si02
#       7
#     8   8   8   8   4   8   8
#     4  11  24  39  64  90 129 161 211 256 315 370
#     4  10  23  41  66  90 129 163 218 252 310 374
#     4   9  22  45  63  91 122 176 205 258 311 367
#     4  10  22  38  64  86 126 159 205 250 314 363
#     4  10  22  38  60  88 122 162 190 262 308 370
#     4  11  23  37  62  95 123 162 201 261 308 376
#     4  12  24  38  63  95 125 165 204 264 312 378
#
# _framework density 20.569323000000001
#
# number of rings (size 3 to 8) (size 9 to 14) (size 15 to 20)
#    0.000    1.538    1.538    2.308    8.615    3.077 
#    0.000    3.077    0.000    0.000    0.000    0.000 
#    0.000    0.000    0.000    0.000    0.000    0.000 
#
# Total GULP energy -644333.352490 kJ/mol
# GULP energy per Si atom -12391.026009 kJ/mol
# Density = 2.052251 g / cm^3
# Si number density = 20.569323 Si / 1000 Ang^3
#
#
#
# Elastic Constant Matrix: (Units=GPa)
#
#
# Indices 1 2 3 4 5 6 
#
# 1 82.8677 36.4399 38.6754 0.0000 0.0000 0.0000
# 2 36.4399 75.9377 33.7635 0.0000 0.0000 0.0000
# 3 38.6754 33.7635 120.7752 0.0000 0.0000 0.0000
# 4 0.0000 0.0000 0.0000 24.5234 0.0000 0.0000
# 5 0.0000 0.0000 0.0000 0.0000 25.6300 0.0000
# 6 0.0000 0.0000 0.0000 0.0000 0.0000 32.5466
#
#
#
# Elastic Compliance Matrix: (Units=1/GPa)
#
#
# Indices 1 2 3 4 5 6 
#
# 1 0.016500 -0.006359 -0.003506 0.000000 0.000000 0.000000
# 2 -0.006359 0.017488 -0.002853 0.000000 0.000000 0.000000
# 3 -0.003506 -0.002853 0.010200 0.000000 0.000000 0.000000
# 4 0.000000 0.000000 0.000000 0.040777 0.000000 0.000000
# 5 0.000000 0.000000 0.000000 0.000000 0.039017 0.000000
# 6 0.000000 0.000000 0.000000 0.000000 0.000000 0.030725
#
#
# Mechanical properties :
#
#
# Convention : Reuss Voigt Hill
#
# Bulk Modulus (GPa) = 53.32432 55.25978 54.29205
# Shear Modulus (GPa) = 26.82485 27.92013 27.37249
#
# Velocity S-wave (km/s) = 3.61518 3.68824 3.65189
# Velocity P-wave (km/s) = 6.58836 6.71275 6.65084
#
# Compressibility (1/GPa) = 0.01875317
#
# Stress axis : x y z
#
# Youngs Moduli (GPa) = 60.60614 57.18045 98.03846
#
# Poissons Ratio (x) = 0.36360 0.34373
# Poissons Ratio (y) = 0.38539 0.27968
# Poissons Ratio (z) = 0.21249 0.16312
#
# Static dielectric constant tensor:
#      x y z
#    x 3.798180 0.000000 0.000000 
#    y 0.000000 3.678080 0.000000 
#    z 0.000000 0.000000 3.786400 
# 
# 
# High freq. dielectric constant tensor:
#      x y z
#    x 1.816490 0.000000 0.000000 
#    y 0.000000 1.803530 0.000000 
#    z 0.000000 0.000000 1.799090 
# 
# From -- ./inp_files/22846.got.cif
#   From: 2010.03.12/outbox.cif.g09.slc.cpg/sg60_12_cif.got.tgz:22846.got - 2010.04.10 18:46:24.
