data_PCOD8247590
_publ_section_title
;
Structure prediction by ZEFSAII (Michael W. Deem and Ramdas Pophale) SiO2 
 PCOD8247590
Probable space group: P B C N
;
_chemical_formula_sum "Si O2"
_cell_formula_units_Z 48
_cell_length_a 11.592579
_cell_length_b 8.911505
_cell_length_c 22.766844
_cell_angle_alpha 90.000000
_cell_angle_beta 90.000000
_cell_angle_gamma 90.000000
_cell_volume 2351.981769
_symmetry_space_group_name_H-M "P B C N"
_symmetry_group_IT_number 60
_symmetry_cell_setting 'orthorhombic'
loop_
_space_group_symop_operation_xyz
x,y,z
1/2-x,1/2-y,1/2+z
1/2+x,1/2-y,-z
-x,y,1/2-z
-x,-y,-z
1/2+x,1/2+y,1/2-z
1/2-x,1/2+y,z
x,-y,1/2+z
loop_
_atom_site_type_symbol
_atom_site_label
_atom_site_fract_x
_atom_site_fract_y
_atom_site_fract_z
Si Si1 0.894895 0.964665 0.790355
Si Si2 0.659860 0.366118 0.517455
Si Si3 0.891732 0.527240 0.541348
Si Si4 0.543486 0.135762 0.153342
Si Si5 0.665966 0.804337 0.769526
Si Si6 0.489446 0.565455 0.591607
O O1 0.851175 0.126197 0.768848
O O2 0.931890 0.965676 0.857948
O O3 0.000000 0.911152 0.750000
O O4 0.796791 0.840148 0.784633
O O5 0.792826 0.413730 0.519849
O O6 0.653908 0.195193 0.537598
O O7 0.586058 0.467690 0.560736
O O8 0.612551 0.382791 0.451602
O O9 0.929081 0.499075 0.608842
O O10 0.000000 0.500000 0.500000
O O11 0.416121 0.119605 0.181413
O O12 0.637470 0.132679 0.205084
O O13 0.553824 0.290808 0.117882
#
# Coordination Sequence:
#
# PCOD8247590 Si02
#       6
#     8   8   8   8   8   8
#     4  11  23  43  68  98 129 173 218 275 332 393
#     4  11  26  42  66  99 132 178 224 274 332 398
#     4  12  26  42  69  99 133 175 225 272 336 394
#     4  10  21  46  66  93 134 176 217 277 332 396
#     4  10  23  43  69  94 133 173 218 275 336 391
#     4  10  22  45  69  91 136 175 221 274 334 392
#
# _framework density 20.408321999999998
#
# number of rings (size 3 to 8) (size 9 to 14) (size 15 to 20)
#    0.000    1.333    5.000    1.000    7.000    2.667 
#    3.000    0.000    0.000    0.000    0.000    0.000 
#    0.000    0.000    0.000    0.000    0.000    0.000 
#
# Total GULP energy -595465.096913 kJ/mol
# GULP energy per Si atom -12405.522852 kJ/mol
# Density = 2.036187 g / cm^3
# Si number density = 20.408322 Si / 1000 Ang^3
#
#
#
# Elastic Constant Matrix: (Units=GPa)
#
#
# Indices 1 2 3 4 5 6 
#
# 1 124.0407 44.7455 35.9706 0.0000 0.0000 0.0000
# 2 44.7455 78.4651 35.3191 0.0000 0.0000 0.0000
# 3 35.9706 35.3191 129.3760 0.0000 0.0000 0.0000
# 4 0.0000 0.0000 0.0000 26.7568 0.0000 0.0000
# 5 0.0000 0.0000 0.0000 0.0000 24.0537 0.0000
# 6 0.0000 0.0000 0.0000 0.0000 0.0000 41.8730
#
#
#
# Elastic Compliance Matrix: (Units=1/GPa)
#
#
# Indices 1 2 3 4 5 6 
#
# 1 0.010382 -0.005269 -0.001448 0.000000 0.000000 0.000000
# 2 -0.005269 0.017204 -0.003232 0.000000 0.000000 0.000000
# 3 -0.001448 -0.003232 0.009014 0.000000 0.000000 0.000000
# 4 0.000000 0.000000 0.000000 0.037374 0.000000 0.000000
# 5 0.000000 0.000000 0.000000 0.000000 0.041574 0.000000
# 6 0.000000 0.000000 0.000000 0.000000 0.000000 0.023882
#
#
# Mechanical properties :
#
#
# Convention : Reuss Voigt Hill
#
# Bulk Modulus (GPa) = 59.86937 62.66136 61.26536
# Shear Modulus (GPa) = 30.32237 32.92648 31.62442
#
# Velocity S-wave (km/s) = 3.85877 4.02105 3.94075
# Velocity P-wave (km/s) = 7.01804 7.23388 7.12678
#
# Compressibility (1/GPa) = 0.01670303
#
# Stress axis : x y z
#
# Youngs Moduli (GPa) = 96.31600 58.12684 110.93468
#
# Poissons Ratio (x) = 0.30626 0.16067
# Poissons Ratio (y) = 0.50747 0.35850
# Poissons Ratio (z) = 0.13949 0.18785
#
# Static dielectric constant tensor:
#      x y z
#    x 3.755700 0.000000 0.000000 
#    y 0.000000 3.633230 0.000000 
#    z 0.000000 0.000000 4.071470 
# 
# 
# High freq. dielectric constant tensor:
#      x y z
#    x 1.802970 0.000000 0.000000 
#    y 0.000000 1.790050 0.000000 
#    z 0.000000 0.000000 1.815600 
# 
# From -- ./inp_files/24208.got.cif
#   From: 2010.03.12/outbox.cif.g09.slc.cpg/sg60_13_cif.got.tgz:24208.got - 2010.04.10 18:46:24.
