data_PCOD8247246
_publ_section_title
;
Structure prediction by ZEFSAII (Michael W. Deem and Ramdas Pophale) SiO2 
 PCOD8247246
Probable space group: P B C N
;
_chemical_formula_sum "Si O2"
_cell_formula_units_Z 56
_cell_length_a 14.833302
_cell_length_b 13.366619
_cell_length_c 14.866205
_cell_angle_alpha 90.000000
_cell_angle_beta 90.000000
_cell_angle_gamma 90.000000
_cell_volume 2947.538764
_symmetry_space_group_name_H-M "P B C N"
_symmetry_group_IT_number 60
_symmetry_cell_setting 'orthorhombic'
loop_
_space_group_symop_operation_xyz
x,y,z
1/2-x,1/2-y,1/2+z
1/2+x,1/2-y,-z
-x,y,1/2-z
-x,-y,-z
1/2+x,1/2+y,1/2-z
1/2-x,1/2+y,z
x,-y,1/2+z
loop_
_atom_site_type_symbol
_atom_site_label
_atom_site_fract_x
_atom_site_fract_y
_atom_site_fract_z
Si Si1 0.350849 0.682297 0.954339
Si Si2 0.401351 0.489210 0.037795
Si Si3 0.057120 0.774395 0.010956
Si Si4 0.262652 0.645482 0.772206
Si Si5 0.086050 0.751302 0.806886
Si Si6 0.282589 0.216058 0.107616
Si Si7 0.825937 0.937290 0.784987
O O1 0.315774 0.700101 0.853578
O O2 0.339690 0.564400 0.979310
O O3 0.454971 0.717874 0.954173
O O4 0.290501 0.741341 0.028298
O O5 0.398471 0.521251 0.142765
O O6 0.500000 0.500000 0.000000
O O7 0.379029 0.372848 0.025260
O O8 0.052110 0.747392 0.907787
O O9 0.117628 0.694025 0.065937
O O10 0.157272 0.663420 0.789330
O O11 0.289701 0.691062 0.676222
O O12 0.284114 0.527630 0.772415
O O13 0.124760 0.860642 0.781882
O O14 0.000000 0.722985 0.750000
O O15 0.254840 0.117322 0.162342
#
# Coordination Sequence:
#
# PCOD8247246 Si02
#       7
#     8   8   8   8   8   8   8
#     4  10  21  36  58  89 120 153 201 246 310 361
#     4   9  17  32  54  87 119 147 187 248 302 358
#     4  11  19  36  59  85 121 156 193 248 305 366
#     4  11  21  38  62  87 122 162 196 253 304 361
#     4  11  22  38  63  88 119 161 207 248 307 370
#     4  10  21  38  56  87 120 157 197 247 302 362
#     4  10  21  36  58  87 123 154 203 251 295 367
#
# _framework density 18.998902000000001
#
# number of rings (size 3 to 8) (size 9 to 14) (size 15 to 20)
#    0.000    1.714    2.857    4.286    0.000    1.714 
#    0.000    0.000    6.286    1.714    0.000    0.000 
#    0.000    0.000    0.000    0.000    0.000    0.000 
#
# Total GULP energy -694105.067946 kJ/mol
# GULP energy per Si atom -12394.733356 kJ/mol
# Density = 1.895566 g / cm^3
# Si number density = 18.998902 Si / 1000 Ang^3
#
#
#
# Elastic Constant Matrix: (Units=GPa)
#
#
# Indices 1 2 3 4 5 6 
#
# 1 135.5462 28.3619 62.7205 0.0000 0.0000 0.0000
# 2 28.3619 32.4970 17.5688 0.0000 0.0000 0.0000
# 3 62.7205 17.5688 114.8960 0.0000 0.0000 0.0000
# 4 0.0000 0.0000 0.0000 23.1224 0.0000 0.0000
# 5 0.0000 0.0000 0.0000 0.0000 35.8137 0.0000
# 6 0.0000 0.0000 0.0000 0.0000 0.0000 19.4985
#
#
#
# Elastic Compliance Matrix: (Units=1/GPa)
#
#
# Indices 1 2 3 4 5 6 
#
# 1 0.011175 -0.007037 -0.005024 0.000000 0.000000 0.000000
# 2 -0.007037 0.037976 -0.001966 0.000000 0.000000 0.000000
# 3 -0.005024 -0.001966 0.011747 0.000000 0.000000 0.000000
# 4 0.000000 0.000000 0.000000 0.043248 0.000000 0.000000
# 5 0.000000 0.000000 0.000000 0.000000 0.027922 0.000000
# 6 0.000000 0.000000 0.000000 0.000000 0.000000 0.051286
#
#
# Mechanical properties :
#
#
# Convention : Reuss Voigt Hill
#
# Bulk Modulus (GPa) = 30.44653 55.58240 43.01447
# Shear Modulus (GPa) = 22.48657 27.30612 24.89635
#
# Velocity S-wave (km/s) = 3.44404 3.79522 3.62389
# Velocity P-wave (km/s) = 5.64583 6.96592 6.34032
#
# Compressibility (1/GPa) = 0.03284446
#
# Stress axis : x y z
#
# Youngs Moduli (GPa) = 89.48777 26.33244 85.12990
#
# Poissons Ratio (x) = 0.18529 0.42771
# Poissons Ratio (y) = 0.62969 0.16734
# Poissons Ratio (z) = 0.44960 0.05176
#
# Static dielectric constant tensor:
#      x y z
#    x 3.463070 0.000000 0.000000 
#    y 0.000000 4.571190 0.000000 
#    z 0.000000 0.000000 3.607130 
# 
# 
# High freq. dielectric constant tensor:
#      x y z
#    x 1.733470 0.000000 0.000000 
#    y 0.000000 1.710690 0.000000 
#    z 0.000000 0.000000 1.757210 
# 
# From -- ./inp_files/16181.got.cif
#   From: 2010.03.12/outbox.cif.g09.slc.cpg/sg60_9_cif.got.tgz:16181.got - 2010.04.10 18:46:24.
