data_PCOD8247846
_publ_section_title
;
Structure prediction by ZEFSAII (Michael W. Deem and Ramdas Pophale) SiO2 
 PCOD8247846
Probable space group: P B C N
;
_chemical_formula_sum "Si O2"
_cell_formula_units_Z 40
_cell_length_a 13.728096
_cell_length_b 13.896024
_cell_length_c 9.063924
_cell_angle_alpha 90.000000
_cell_angle_beta 90.000000
_cell_angle_gamma 90.000000
_cell_volume 1729.088086
_symmetry_space_group_name_H-M "P B C N"
_symmetry_group_IT_number 60
_symmetry_cell_setting 'orthorhombic'
loop_
_space_group_symop_operation_xyz
x,y,z
1/2-x,1/2-y,1/2+z
1/2+x,1/2-y,-z
-x,y,1/2-z
-x,-y,-z
1/2+x,1/2+y,1/2-z
1/2-x,1/2+y,z
x,-y,1/2+z
loop_
_atom_site_type_symbol
_atom_site_label
_atom_site_fract_x
_atom_site_fract_y
_atom_site_fract_z
Si Si1 0.816443 0.744170 0.908146
Si Si2 0.295536 0.057639 0.415774
Si Si3 0.595253 0.629408 0.168764
Si Si4 0.360886 0.881337 0.606203
Si Si5 0.495896 0.724549 0.913480
O O1 0.870301 0.772032 0.754012
O O2 0.711918 0.792054 0.909736
O O3 0.803762 0.631471 0.945819
O O4 0.884267 0.785548 0.037941
O O5 0.185028 0.054599 0.347951
O O6 0.363226 0.080708 0.274723
O O7 0.330089 0.957219 0.482324
O O8 0.500000 0.583576 0.250000
O O9 0.565713 0.655801 0.005008
O O10 0.467375 0.836321 0.573368
O O11 0.500000 0.684271 0.750000
#
# Coordination Sequence:
#
# PCOD8247846 Si02
#       5
#     8   8   8   8   8
#     4  10  22  43  65  91 131 177 216 271 324 386
#     4  11  23  41  66  96 138 173 216 275 325 390
#     4   9  21  41  67  92 130 177 223 270 330 382
#     4  11  25  40  65 100 132 171 224 261 334 391
#     4  11  21  40  66  96 129 169 217 265 322 393
#
# _framework density 23.133581
#
# number of rings (size 3 to 8) (size 9 to 14) (size 15 to 20)
#    0.000    1.600    4.000    0.000    2.800    2.400 
#    0.000   10.000    0.000    0.000    0.000    0.000 
#    0.000    0.000    0.000    0.000    0.000    0.000 
#
# Total GULP energy -495652.658675 kJ/mol
# GULP energy per Si atom -12391.316467 kJ/mol
# Density = 2.308093 g / cm^3
# Si number density = 23.133581 Si / 1000 Ang^3
#
#
#
# Elastic Constant Matrix: (Units=GPa)
#
#
# Indices 1 2 3 4 5 6 
#
# 1 44.2508 -12.7306 20.9716 0.0000 0.0000 0.0000
# 2 -12.7306 37.0661 21.1432 0.0000 0.0000 0.0000
# 3 20.9716 21.1432 134.6037 0.0000 0.0000 0.0000
# 4 0.0000 0.0000 0.0000 28.7703 0.0000 0.0000
# 5 0.0000 0.0000 0.0000 0.0000 30.3100 0.0000
# 6 0.0000 0.0000 0.0000 0.0000 0.0000 15.7469
#
#
#
# Elastic Compliance Matrix: (Units=1/GPa)
#
#
# Indices 1 2 3 4 5 6 
#
# 1 0.029964 0.014229 -0.006904 0.000000 0.000000 0.000000
# 2 0.014229 0.036391 -0.007933 0.000000 0.000000 0.000000
# 3 -0.006904 -0.007933 0.009751 0.000000 0.000000 0.000000
# 4 0.000000 0.000000 0.000000 0.034758 0.000000 0.000000
# 5 0.000000 0.000000 0.000000 0.000000 0.032992 0.000000
# 6 0.000000 0.000000 0.000000 0.000000 0.000000 0.063505
#
#
# Mechanical properties :
#
#
# Convention : Reuss Voigt Hill
#
# Bulk Modulus (GPa) = 13.35277 30.52101 21.93689
# Shear Modulus (GPa) = 21.40963 27.40119 24.40541
#
# Velocity S-wave (km/s) = 3.04547 3.44536 3.25157
# Velocity P-wave (km/s) = 4.26041 5.38974 4.85800
#
# Compressibility (1/GPa) = 0.07489085
#
# Stress axis : x y z
#
# Youngs Moduli (GPa) = 33.37356 27.47922 102.55431
#
# Poissons Ratio (x) = -0.39101 0.70799
# Poissons Ratio (y) = -0.47488 0.81358
# Poissons Ratio (z) = 0.23040 0.21800
#
# Static dielectric constant tensor:
#      x y z
#    x 4.478460 0.000000 0.000000 
#    y 0.000000 3.687020 0.000000 
#    z 0.000000 0.000000 4.355210 
# 
# 
# High freq. dielectric constant tensor:
#      x y z
#    x 1.933620 0.000000 0.000000 
#    y 0.000000 1.865630 0.000000 
#    z 0.000000 0.000000 1.927120 
# 
# From -- ./inp_files/5664.got.cif
#   From: 2010.03.12/outbox.cif.g09.slc.cpg/sg60_3_cif.got.tgz:5664.got - 2010.04.10 18:46:24.
