data_PCOD8247043
_publ_section_title
;
Structure prediction by ZEFSAII (Michael W. Deem and Ramdas Pophale) SiO2 
 PCOD8247043
Probable space group: P B C N
;
_chemical_formula_sum "Si O2"
_cell_formula_units_Z 64
_cell_length_a 8.942908
_cell_length_b 17.700506
_cell_length_c 20.556932
_cell_angle_alpha 90.000000
_cell_angle_beta 90.000000
_cell_angle_gamma 90.000000
_cell_volume 3254.038926
_symmetry_space_group_name_H-M "P B C N"
_symmetry_group_IT_number 60
_symmetry_cell_setting 'orthorhombic'
loop_
_space_group_symop_operation_xyz
x,y,z
1/2-x,1/2-y,1/2+z
1/2+x,1/2-y,-z
-x,y,1/2-z
-x,-y,-z
1/2+x,1/2+y,1/2-z
1/2-x,1/2+y,z
x,-y,1/2+z
loop_
_atom_site_type_symbol
_atom_site_label
_atom_site_fract_x
_atom_site_fract_y
_atom_site_fract_z
Si Si1 0.858596 0.981295 0.292277
Si Si2 0.904176 0.288739 0.936403
Si Si3 0.531714 0.413596 0.504329
Si Si4 0.850470 0.129556 0.373142
Si Si5 0.592548 0.205241 0.839452
Si Si6 0.011276 0.148802 0.870738
Si Si7 0.792855 0.638776 0.719030
Si Si8 0.808475 0.675277 0.983923
O O1 0.727414 0.948877 0.244062
O O2 0.000000 0.003315 0.250000
O O3 0.901276 0.916026 0.344001
O O4 0.813760 0.059043 0.326794
O O5 0.809557 0.357063 0.906968
O O6 0.805109 0.246639 0.992220
O O7 0.929353 0.229836 0.876735
O O8 0.056976 0.320503 0.965521
O O9 0.500000 0.500000 0.500000
O O10 0.476081 0.385858 0.573624
O O11 0.444170 0.372189 0.445255
O O12 0.710953 0.399366 0.498854
O O13 0.918676 0.203619 0.337535
O O14 0.444382 0.158173 0.818998
O O15 0.717727 0.187597 0.785163
O O16 0.633090 0.173718 0.910146
O O17 0.155028 0.160454 0.826424
#
# Coordination Sequence:
#
# PCOD8247043 Si02
#       8
#     8   8   8   8   8   8   8   8
#     4  10  21  39  62  87 122 170 208 257 316 388
#     4  10  21  37  65  96 123 164 205 272 314 373
#     4  11  22  39  65  93 128 167 203 261 326 388
#     4  11  23  39  64  94 130 160 215 269 321 372
#     4  10  22  38  62  92 120 165 211 268 310 370
#     4  10  20  38  64  88 123 162 219 248 319 390
#     4  10  22  38  65  89 119 169 214 253 312 384
#     4  10  21  38  62  93 129 158 211 259 321 371
#
# _framework density 19.667864999999999
#
# number of rings (size 3 to 8) (size 9 to 14) (size 15 to 20)
#    0.000    1.750    1.250    5.250    7.000    0.000 
#    0.000    3.125    5.500    0.000    0.000    0.000 
#    0.000    0.000    0.000    0.000    0.000    0.000 
#
# Total GULP energy -792950.267745 kJ/mol
# GULP energy per Si atom -12389.847934 kJ/mol
# Density = 1.962310 g / cm^3
# Si number density = 19.667865 Si / 1000 Ang^3
#
#
#
# Elastic Constant Matrix: (Units=GPa)
#
#
# Indices 1 2 3 4 5 6 
#
# 1 121.7085 71.8100 48.3172 0.0000 0.0000 0.0000
# 2 71.8100 119.8262 50.2910 0.0000 0.0000 0.0000
# 3 48.3172 50.2910 78.2845 0.0000 0.0000 0.0000
# 4 0.0000 0.0000 0.0000 35.9118 0.0000 0.0000
# 5 0.0000 0.0000 0.0000 0.0000 44.8231 0.0000
# 6 0.0000 0.0000 0.0000 0.0000 0.0000 27.8118
#
#
#
# Elastic Compliance Matrix: (Units=1/GPa)
#
#
# Indices 1 2 3 4 5 6 
#
# 1 0.013718 -0.006391 -0.004362 0.000000 0.000000 0.000000
# 2 -0.006391 0.014403 -0.005308 0.000000 0.000000 0.000000
# 3 -0.004362 -0.005308 0.018876 0.000000 0.000000 0.000000
# 4 0.000000 0.000000 0.000000 0.027846 0.000000 0.000000
# 5 0.000000 0.000000 0.000000 0.000000 0.022310 0.000000
# 6 0.000000 0.000000 0.000000 0.000000 0.000000 0.035956
#
#
# Mechanical properties :
#
#
# Convention : Reuss Voigt Hill
#
# Bulk Modulus (GPa) = 67.22098 73.40620 70.31359
# Shear Modulus (GPa) = 29.37893 31.66942 30.52418
#
# Velocity S-wave (km/s) = 3.86910 4.01710 3.94379
# Velocity P-wave (km/s) = 7.36289 7.67594 7.52105
#
# Compressibility (1/GPa) = 0.01487631
#
# Stress axis : x y z
#
# Youngs Moduli (GPa) = 72.89428 69.42873 52.97701
#
# Poissons Ratio (x) = 0.44370 0.23106
# Poissons Ratio (y) = 0.46585 0.28123
# Poissons Ratio (z) = 0.31793 0.36856
#
# Static dielectric constant tensor:
#      x y z
#    x 3.719530 0.000000 0.000000 
#    y 0.000000 3.640120 0.000000 
#    z 0.000000 0.000000 3.767520 
# 
# 
# High freq. dielectric constant tensor:
#      x y z
#    x 1.763110 0.000000 0.000000 
#    y 0.000000 1.755240 0.000000 
#    z 0.000000 0.000000 1.775080 
# 
# From -- ./inp_files/22373.got.cif
#   From: 2010.03.12/outbox.cif.g09.slc.cpg/sg60_12_cif.got.tgz:22373.got - 2010.04.10 18:46:24.
