data_PCOD8247915
_publ_section_title
;
Structure prediction by ZEFSAII (Michael W. Deem and Ramdas Pophale) SiO2 
 PCOD8247915
Probable space group: P B C N
;
_chemical_formula_sum "Si O2"
_cell_formula_units_Z 36
_cell_length_a 6.328758
_cell_length_b 11.972408
_cell_length_c 20.317845
_cell_angle_alpha 90.000000
_cell_angle_beta 90.000000
_cell_angle_gamma 90.000000
_cell_volume 1539.492724
_symmetry_space_group_name_H-M "P B C N"
_symmetry_group_IT_number 60
_symmetry_cell_setting 'orthorhombic'
loop_
_space_group_symop_operation_xyz
x,y,z
1/2-x,1/2-y,1/2+z
1/2+x,1/2-y,-z
-x,y,1/2-z
-x,-y,-z
1/2+x,1/2+y,1/2-z
1/2-x,1/2+y,z
x,-y,1/2+z
loop_
_atom_site_type_symbol
_atom_site_label
_atom_site_fract_x
_atom_site_fract_y
_atom_site_fract_z
Si Si1 0.651313 0.907555 0.972893
Si Si2 0.160119 0.022483 0.649953
Si Si3 0.112015 0.208000 0.910334
Si Si4 0.366501 0.326833 0.807560
Si Si5 0.000000 0.459574 0.750000
O O1 0.789595 0.969010 0.919475
O O2 0.517627 0.809062 0.940834
O O3 0.806416 0.867341 0.030226
O O4 0.500000 0.000000 0.000000
O O5 0.362195 0.035700 0.699169
O O6 0.996918 0.938547 0.681424
O O7 0.046589 0.141473 0.638418
O O8 0.323028 0.246545 0.870091
O O9 0.500000 0.261733 0.750000
O O10 0.136355 0.371304 0.790394
#
# Coordination Sequence:
#
# PCOD8247915 Si02
#       5
#     8   8   8   8   4
#     4  12  25  46  73 103 151 186 246 307 361 444
#     4  11  24  46  72 107 146 190 243 306 366 435
#     4  12  24  44  73 111 139 202 242 296 382 440
#     4  10  23  48  70 103 146 184 248 305 355 439
#     4  10  22  50  70 100 150 188 236 318 354 430
#
# _framework density 23.384325
#
# number of rings (size 3 to 8) (size 9 to 14) (size 15 to 20)
#    0.000    0.889    2.222    4.667    0.000    0.000 
#    8.000    0.000    0.000    0.000    0.000    0.000 
#    0.000    0.000    0.000    0.000    0.000    0.000 
#
# Total GULP energy -446303.180676 kJ/mol
# GULP energy per Si atom -12397.310574 kJ/mol
# Density = 2.333110 g / cm^3
# Si number density = 23.384325 Si / 1000 Ang^3
#
#
#
# Elastic Constant Matrix: (Units=GPa)
#
#
# Indices 1 2 3 4 5 6 
#
# 1 119.5592 40.1215 56.7650 0.0000 0.0000 0.0000
# 2 40.1215 96.7483 43.7366 0.0000 0.0000 0.0000
# 3 56.7650 43.7366 134.6877 0.0000 0.0000 0.0000
# 4 0.0000 0.0000 0.0000 17.0625 0.0000 0.0000
# 5 0.0000 0.0000 0.0000 0.0000 62.8340 0.0000
# 6 0.0000 0.0000 0.0000 0.0000 0.0000 -28.1753
#
#
#
# Elastic Compliance Matrix: (Units=1/GPa)
#
#
# Indices 1 2 3 4 5 6 
#
# 1 0.011119 -0.002921 -0.003737 0.000000 0.000000 0.000000
# 2 -0.002921 0.012882 -0.002952 0.000000 0.000000 0.000000
# 3 -0.003737 -0.002952 0.009958 0.000000 0.000000 0.000000
# 4 0.000000 0.000000 0.000000 0.058608 0.000000 0.000000
# 5 0.000000 0.000000 0.000000 0.000000 0.015915 0.000000
# 6 0.000000 0.000000 0.000000 0.000000 0.000000 -0.035492
#
#
# Mechanical properties :
#
#
# Convention : Reuss Voigt Hill
#
# Bulk Modulus (GPa) = 67.85309 70.24905 69.05107
# Shear Modulus (GPa) = 51.48037 24.36905 37.92471
#
# Velocity S-wave (km/s) = 4.69709 3.23168 4.03153
# Velocity P-wave (km/s) = 7.64829 6.63561 7.15988
#
# Compressibility (1/GPa) = 0.01473772
#
# Stress axis : x y z
#
# Youngs Moduli (GPa) = 89.93666 77.62728 100.41851
#
# Poissons Ratio (x) = 0.22678 0.37531
# Poissons Ratio (y) = 0.26274 0.29642
# Poissons Ratio (z) = 0.33614 0.22915
#
# Static dielectric constant tensor:
#      x y z
#    x 4.868950 0.000000 0.000000 
#    y 0.000000 4.072680 0.000000 
#    z 0.000000 0.000000 4.643580 
# 
# 
# High freq. dielectric constant tensor:
#      x y z
#    x 1.940020 0.000000 0.000000 
#    y 0.000000 1.922300 0.000000 
#    z 0.000000 0.000000 1.948650 
# 
# From -- ./inp_files/23459.got.cif
#   From: 2010.03.12/outbox.cif.g09.slc.cpg/sg60_12_cif.got.tgz:23459.got - 2010.04.10 18:46:24.
