data_PCOD8247419
_publ_section_title
;
Structure prediction by ZEFSAII (Michael W. Deem and Ramdas Pophale) SiO2 
 PCOD8247419
Probable space group: P B C N
;
_chemical_formula_sum "Si O2"
_cell_formula_units_Z 32
_cell_length_a 5.027596
_cell_length_b 20.603500
_cell_length_c 13.496641
_cell_angle_alpha 90.000000
_cell_angle_beta 90.000000
_cell_angle_gamma 90.000000
_cell_volume 1398.064056
_symmetry_space_group_name_H-M "P B C N"
_symmetry_group_IT_number 60
_symmetry_cell_setting 'orthorhombic'
loop_
_space_group_symop_operation_xyz
x,y,z
1/2-x,1/2-y,1/2+z
1/2+x,1/2-y,-z
-x,y,1/2-z
-x,-y,-z
1/2+x,1/2+y,1/2-z
1/2-x,1/2+y,z
x,-y,1/2+z
loop_
_atom_site_type_symbol
_atom_site_label
_atom_site_fract_x
_atom_site_fract_y
_atom_site_fract_z
Si Si1 0.680521 0.707282 0.504239
Si Si2 0.466816 0.593514 0.131755
Si Si3 0.758085 0.384991 0.184407
Si Si4 0.964032 0.477790 0.637234
O O1 0.477050 0.766857 0.513301
O O2 0.601115 0.664201 0.409732
O O3 0.663388 0.667483 0.605843
O O4 0.500000 0.597436 0.250000
O O5 0.256112 0.568073 0.414014
O O6 0.249582 0.540713 0.091235
O O7 0.500000 0.405310 0.250000
O O8 0.878965 0.447398 0.127457
O O9 0.000000 0.355768 0.250000
O O10 0.000000 0.457406 0.750000
#
# Coordination Sequence:
#
# PCOD8247419 Si02
#       4
#     8   8   8   8
#     4  12  27  43  61  92 128 172 226 256 296 381
#     4  10  21  39  64  92 124 158 199 261 319 368
#     4  11  23  42  67  93 127 165 205 265 325 375
#     4   9  18  36  64  95 121 152 200 254 323 386
#
# _framework density 22.888793
#
# number of rings (size 3 to 8) (size 9 to 14) (size 15 to 20)
#    0.000    1.500    0.000    6.750    0.000    5.000 
#    0.000    0.000    0.000    4.500    0.000    0.000 
#    0.000    0.000    0.000    0.000    0.000    0.000 
#
# Total GULP energy -396665.808992 kJ/mol
# GULP energy per Si atom -12395.806531 kJ/mol
# Density = 2.283670 g / cm^3
# Si number density = 22.888793 Si / 1000 Ang^3
#
#
#
# Elastic Constant Matrix: (Units=GPa)
#
#
# Indices 1 2 3 4 5 6 
#
# 1 124.2882 34.0505 34.2417 0.0000 0.0000 0.0000
# 2 34.0505 110.1603 37.5429 0.0000 0.0000 0.0000
# 3 34.2417 37.5429 71.4829 0.0000 0.0000 0.0000
# 4 0.0000 0.0000 0.0000 79.0064 0.0000 0.0000
# 5 0.0000 0.0000 0.0000 0.0000 16.8464 0.0000
# 6 0.0000 0.0000 0.0000 0.0000 0.0000 21.5031
#
#
#
# Elastic Compliance Matrix: (Units=1/GPa)
#
#
# Indices 1 2 3 4 5 6 
#
# 1 0.009521 -0.001691 -0.003672 0.000000 0.000000 0.000000
# 2 -0.001691 0.011357 -0.005155 0.000000 0.000000 0.000000
# 3 -0.003672 -0.005155 0.018456 0.000000 0.000000 0.000000
# 4 0.000000 0.000000 0.000000 0.012657 0.000000 0.000000
# 5 0.000000 0.000000 0.000000 0.000000 0.059360 0.000000
# 6 0.000000 0.000000 0.000000 0.000000 0.000000 0.046505
#
#
# Mechanical properties :
#
#
# Convention : Reuss Voigt Hill
#
# Bulk Modulus (GPa) = 54.65353 57.51131 56.08242
# Shear Modulus (GPa) = 27.02825 36.81093 31.91959
#
# Velocity S-wave (km/s) = 3.44008 4.01465 3.73842
# Velocity P-wave (km/s) = 6.30147 6.83161 6.57189
#
# Compressibility (1/GPa) = 0.01829708
#
# Stress axis : x y z
#
# Youngs Moduli (GPa) = 105.03160 88.04994 54.18368
#
# Poissons Ratio (x) = 0.14892 0.19899
# Poissons Ratio (y) = 0.17765 0.27930
# Poissons Ratio (z) = 0.38572 0.45386
#
# Static dielectric constant tensor:
#      x y z
#    x 4.796050 0.000000 0.000000 
#    y 0.000000 3.857030 0.000000 
#    z 0.000000 0.000000 3.911580 
# 
# 
# High freq. dielectric constant tensor:
#      x y z
#    x 1.934300 0.000000 0.000000 
#    y 0.000000 1.891130 0.000000 
#    z 0.000000 0.000000 1.891070 
# 
# From -- ./inp_files/13642.got.cif
#   From: 2010.03.12/outbox.cif.g09.slc.cpg/sg60_7_cif.got.tgz:13642.got - 2010.04.10 18:46:24.
