data_PCOD8247094
_publ_section_title
;
Structure prediction by ZEFSAII (Michael W. Deem and Ramdas Pophale) SiO2 
 PCOD8247094
Probable space group: P B C N
;
_chemical_formula_sum "Si O2"
_cell_formula_units_Z 48
_cell_length_a 11.671376
_cell_length_b 16.508071
_cell_length_c 12.206151
_cell_angle_alpha 90.000000
_cell_angle_beta 90.000000
_cell_angle_gamma 90.000000
_cell_volume 2351.782350
_symmetry_space_group_name_H-M "P B C N"
_symmetry_group_IT_number 60
_symmetry_cell_setting 'orthorhombic'
loop_
_space_group_symop_operation_xyz
x,y,z
1/2-x,1/2-y,1/2+z
1/2+x,1/2-y,-z
-x,y,1/2-z
-x,-y,-z
1/2+x,1/2+y,1/2-z
1/2-x,1/2+y,z
x,-y,1/2+z
loop_
_atom_site_type_symbol
_atom_site_label
_atom_site_fract_x
_atom_site_fract_y
_atom_site_fract_z
Si Si1 0.630844 0.559572 0.654966
Si Si2 0.259810 0.866753 0.530454
Si Si3 0.129139 0.880079 0.753594
Si Si4 0.903068 0.142205 0.874178
Si Si5 0.763027 0.313126 0.553917
Si Si6 0.011367 0.326091 0.626121
O O1 0.730434 0.569683 0.565274
O O2 0.632709 0.468491 0.694676
O O3 0.506727 0.579768 0.601494
O O4 0.651878 0.621483 0.756161
O O5 0.177627 0.882695 0.632269
O O6 0.235580 0.778506 0.484068
O O7 0.391687 0.878541 0.564838
O O8 0.203779 0.818822 0.827059
O O9 0.000000 0.846536 0.750000
O O10 0.952770 0.232415 0.873821
O O11 0.806137 0.131453 0.966947
O O12 0.893917 0.342507 0.561425
O O13 0.000000 0.357799 0.750000
#
# Coordination Sequence:
#
# PCOD8247094 Si02
#       6
#     8   8   8   8   8   8
#     4  11  22  43  66  98 133 173 212 281 347 382
#     4  11  25  41  67  98 134 174 226 270 332 400
#     4  12  26  40  68 105 128 165 227 283 330 396
#     4  10  20  39  68  93 134 170 216 275 343 378
#     4  11  24  40  66  98 133 174 226 273 328 396
#     4  11  19  42  65  93 131 181 219 264 331 399
#
# _framework density 20.410052
#
# number of rings (size 3 to 8) (size 9 to 14) (size 15 to 20)
#    0.000    1.000    6.667    1.000    7.000    1.333 
#    0.000    1.667    3.667    0.000    0.000    0.000 
#    0.000    0.000    0.000    0.000    0.000    0.000 
#
# Total GULP energy -595335.382161 kJ/mol
# GULP energy per Si atom -12402.820462 kJ/mol
# Density = 2.036360 g / cm^3
# Si number density = 20.410052 Si / 1000 Ang^3
#
#
#
# Elastic Constant Matrix: (Units=GPa)
#
#
# Indices 1 2 3 4 5 6 
#
# 1 146.6957 26.7699 65.3218 0.0000 0.0000 0.0000
# 2 26.7699 52.6401 21.7119 0.0000 0.0000 0.0000
# 3 65.3218 21.7119 113.7980 0.0000 0.0000 0.0000
# 4 0.0000 0.0000 0.0000 69.2416 0.0000 0.0000
# 5 0.0000 0.0000 0.0000 0.0000 55.5015 0.0000
# 6 0.0000 0.0000 0.0000 0.0000 0.0000 15.0120
#
#
#
# Elastic Compliance Matrix: (Units=1/GPa)
#
#
# Indices 1 2 3 4 5 6 
#
# 1 0.009526 -0.002810 -0.004932 0.000000 0.000000 0.000000
# 2 -0.002810 0.021449 -0.002479 0.000000 0.000000 0.000000
# 3 -0.004932 -0.002479 0.012091 0.000000 0.000000 0.000000
# 4 0.000000 0.000000 0.000000 0.014442 0.000000 0.000000
# 5 0.000000 0.000000 0.000000 0.000000 0.018018 0.000000
# 6 0.000000 0.000000 0.000000 0.000000 0.000000 0.066613
#
#
# Mechanical properties :
#
#
# Convention : Reuss Voigt Hill
#
# Bulk Modulus (GPa) = 44.20170 60.08235 52.14202
# Shear Modulus (GPa) = 29.39067 41.23970 35.31519
#
# Velocity S-wave (km/s) = 3.79886 4.49994 4.16418
# Velocity P-wave (km/s) = 6.39888 7.51670 6.98020
#
# Compressibility (1/GPa) = 0.02262356
#
# Stress axis : x y z
#
# Youngs Moduli (GPa) = 104.97941 46.62318 82.70335
#
# Poissons Ratio (x) = 0.13102 0.40787
# Poissons Ratio (y) = 0.29500 0.20504
# Poissons Ratio (z) = 0.51773 0.11559
#
# Static dielectric constant tensor:
#      x y z
#    x 4.098580 0.000000 0.000000 
#    y 0.000000 3.473790 0.000000 
#    z 0.000000 0.000000 4.389520 
# 
# 
# High freq. dielectric constant tensor:
#      x y z
#    x 1.800410 0.000000 0.000000 
#    y 0.000000 1.773270 0.000000 
#    z 0.000000 0.000000 1.813790 
# 
# From -- ./inp_files/11018.got.cif
#   From: 2010.03.12/outbox.cif.g09.slc.cpg/sg60_6_cif.got.tgz:11018.got - 2010.04.10 18:46:24.
