data_PCOD8247569
_publ_section_title
;
Structure prediction by ZEFSAII (Michael W. Deem and Ramdas Pophale) SiO2 
 PCOD8247569
Probable space group: P B C N
;
_chemical_formula_sum "Si O2"
_cell_formula_units_Z 40
_cell_length_a 15.273819
_cell_length_b 8.816560
_cell_length_c 14.565741
_cell_angle_alpha 90.000000
_cell_angle_beta 90.000000
_cell_angle_gamma 90.000000
_cell_volume 1961.459704
_symmetry_space_group_name_H-M "P B C N"
_symmetry_group_IT_number 60
_symmetry_cell_setting 'orthorhombic'
loop_
_space_group_symop_operation_xyz
x,y,z
1/2-x,1/2-y,1/2+z
1/2+x,1/2-y,-z
-x,y,1/2-z
-x,-y,-z
1/2+x,1/2+y,1/2-z
1/2-x,1/2+y,z
x,-y,1/2+z
loop_
_atom_site_type_symbol
_atom_site_label
_atom_site_fract_x
_atom_site_fract_y
_atom_site_fract_z
Si Si1 0.717075 0.847655 0.261769
Si Si2 0.649652 0.842929 0.677508
Si Si3 0.443492 0.319193 0.665713
Si Si4 0.513974 0.172358 0.023366
Si Si5 0.899980 0.843017 0.336158
O O1 0.757629 0.747417 0.177875
O O2 0.653519 0.743374 0.321471
O O3 0.795477 0.885894 0.334445
O O4 0.667235 0.988333 0.215735
O O5 0.605944 0.828351 0.578291
O O6 0.581179 0.759075 0.745942
O O7 0.500000 0.253114 0.750000
O O8 0.480836 0.267051 0.569095
O O9 0.452214 0.500481 0.665887
O O10 0.431091 0.242749 0.077313
O O11 0.500000 0.000000 0.000000
#
# Coordination Sequence:
#
# PCOD8247569 Si02
#       5
#     8   8   8   8   8
#     4  10  21  44  67  94 129 174 216 277 337 396
#     4  10  21  43  69  92 133 168 226 272 345 386
#     4  12  24  43  68  98 136 181 226 273 342 399
#     4  12  25  41  66 104 134 179 224 282 332 411
#     4  10  22  44  69  97 135 175 226 283 337 395
#
# _framework density 20.392973999999999
#
# number of rings (size 3 to 8) (size 9 to 14) (size 15 to 20)
#    1.200    0.000    2.000    4.800    0.000    0.000 
#   10.800    0.000    0.000    0.000    0.000    0.000 
#    0.000    0.000    0.000    0.000    0.000    0.000 
#
# Total GULP energy -495617.052892 kJ/mol
# GULP energy per Si atom -12390.426322 kJ/mol
# Density = 2.034656 g / cm^3
# Si number density = 20.392974 Si / 1000 Ang^3
#
#
#
# Elastic Constant Matrix: (Units=GPa)
#
#
# Indices 1 2 3 4 5 6 
#
# 1 69.6526 24.2456 47.9525 0.0000 0.0000 0.0000
# 2 24.2456 145.0697 55.4396 0.0000 0.0000 0.0000
# 3 47.9525 55.4396 145.1522 0.0000 0.0000 0.0000
# 4 0.0000 0.0000 0.0000 32.2023 0.0000 0.0000
# 5 0.0000 0.0000 0.0000 0.0000 33.8293 0.0000
# 6 0.0000 0.0000 0.0000 0.0000 0.0000 31.5489
#
#
#
# Elastic Compliance Matrix: (Units=1/GPa)
#
#
# Indices 1 2 3 4 5 6 
#
# 1 0.018682 -0.000894 -0.005830 0.000000 0.000000 0.000000
# 2 -0.000894 0.008114 -0.002804 0.000000 0.000000 0.000000
# 3 -0.005830 -0.002804 0.009886 0.000000 0.000000 0.000000
# 4 0.000000 0.000000 0.000000 0.031054 0.000000 0.000000
# 5 0.000000 0.000000 0.000000 0.000000 0.029560 0.000000
# 6 0.000000 0.000000 0.000000 0.000000 0.000000 0.031697
#
#
# Mechanical properties :
#
#
# Convention : Reuss Voigt Hill
#
# Bulk Modulus (GPa) = 56.73418 68.34999 62.54208
# Shear Modulus (GPa) = 32.48333 34.99854 33.74093
#
# Velocity S-wave (km/s) = 3.99541 4.14721 4.07201
# Velocity P-wave (km/s) = 7.01179 7.51809 7.26935
#
# Compressibility (1/GPa) = 0.01762606
#
# Stress axis : x y z
#
# Youngs Moduli (GPa) = 53.52707 123.24142 101.15054
#
# Poissons Ratio (x) = 0.11021 0.58974
# Poissons Ratio (y) = 0.04787 0.28360
# Poissons Ratio (z) = 0.31208 0.34553
#
# Static dielectric constant tensor:
#      x y z
#    x 3.615360 0.000000 0.000000 
#    y 0.000000 5.158700 0.000000 
#    z 0.000000 0.000000 3.401880 
# 
# 
# High freq. dielectric constant tensor:
#      x y z
#    x 1.800920 0.000000 0.000000 
#    y 0.000000 1.815260 0.000000 
#    z 0.000000 0.000000 1.777040 
# 
# From -- ./inp_files/17216.got.cif
#   From: 2010.03.12/outbox.cif.g09.slc.cpg/sg60_9_cif.got.tgz:17216.got - 2010.04.10 18:46:24.
