data_PCOD8247481
_publ_section_title
;
Structure prediction by ZEFSAII (Michael W. Deem and Ramdas Pophale) SiO2 
 PCOD8247481
Probable space group: P B C N
;
_chemical_formula_sum "Si O2"
_cell_formula_units_Z 48
_cell_length_a 8.433845
_cell_length_b 14.632165
_cell_length_c 16.287097
_cell_angle_alpha 90.000000
_cell_angle_beta 90.000000
_cell_angle_gamma 90.000000
_cell_volume 2009.915909
_symmetry_space_group_name_H-M "P B C N"
_symmetry_group_IT_number 60
_symmetry_cell_setting 'orthorhombic'
loop_
_space_group_symop_operation_xyz
x,y,z
1/2-x,1/2-y,1/2+z
1/2+x,1/2-y,-z
-x,y,1/2-z
-x,-y,-z
1/2+x,1/2+y,1/2-z
1/2-x,1/2+y,z
x,-y,1/2+z
loop_
_atom_site_type_symbol
_atom_site_label
_atom_site_fract_x
_atom_site_fract_y
_atom_site_fract_z
Si Si1 0.172338 0.653141 0.166745
Si Si2 0.178151 0.709302 0.777905
Si Si3 0.856588 0.297747 0.587469
Si Si4 0.693761 0.438809 0.482259
Si Si5 0.173651 0.034840 0.710349
Si Si6 0.872726 0.869844 0.983597
O O1 0.190920 0.739000 0.224902
O O2 0.228730 0.560012 0.210758
O O3 0.285523 0.679464 0.090791
O O4 0.986198 0.651274 0.143990
O O5 0.199053 0.758646 0.866564
O O6 0.227382 0.603045 0.769882
O O7 0.000000 0.726089 0.750000
O O8 0.824501 0.367677 0.513207
O O9 0.924201 0.203374 0.551360
O O10 0.666107 0.428938 0.383801
O O11 0.742805 0.543391 0.506661
O O12 0.538765 0.418083 0.538406
O O13 0.000000 0.020093 0.750000
#
# Coordination Sequence:
#
# PCOD8247481 Si02
#       6
#     8   8   8   8   8   8
#     4  11  25  43  67  99 137 181 231 291 355 426
#     4  12  26  42  65  96 133 182 234 288 351 420
#     4  12  24  41  68  99 138 180 232 293 353 420
#     4  10  23  41  66  98 133 177 232 287 357 434
#     4  11  24  46  71  99 138 182 231 291 358 426
#     4  10  21  40  65  93 130 175 220 281 353 420
#
# _framework density 23.881595999999998
#
# number of rings (size 3 to 8) (size 9 to 14) (size 15 to 20)
#    0.000    1.000    0.000    7.000    0.000   10.667 
#    0.000    0.000    0.000    0.000    0.000    0.000 
#    0.000    0.000    0.000    0.000    0.000    0.000 
#
# Total GULP energy -594655.749455 kJ/mol
# GULP energy per Si atom -12388.661447 kJ/mol
# Density = 2.382724 g / cm^3
# Si number density = 23.881596 Si / 1000 Ang^3
#
#
#
# Elastic Constant Matrix: (Units=GPa)
#
#
# Indices 1 2 3 4 5 6 
#
# 1 77.9030 24.1061 26.3287 0.0000 0.0000 0.0000
# 2 24.1061 139.1331 45.4227 0.0000 0.0000 0.0000
# 3 26.3287 45.4227 59.4866 0.0000 0.0000 0.0000
# 4 0.0000 0.0000 0.0000 27.4777 0.0000 0.0000
# 5 0.0000 0.0000 0.0000 0.0000 42.2418 0.0000
# 6 0.0000 0.0000 0.0000 0.0000 0.0000 33.7980
#
#
#
# Elastic Compliance Matrix: (Units=1/GPa)
#
#
# Indices 1 2 3 4 5 6 
#
# 1 0.015129 -0.000580 -0.006254 0.000000 0.000000 0.000000
# 2 -0.000580 0.009596 -0.007071 0.000000 0.000000 0.000000
# 3 -0.006254 -0.007071 0.024978 0.000000 0.000000 0.000000
# 4 0.000000 0.000000 0.000000 0.036393 0.000000 0.000000
# 5 0.000000 0.000000 0.000000 0.000000 0.023673 0.000000
# 6 0.000000 0.000000 0.000000 0.000000 0.000000 0.029588
#
#
# Mechanical properties :
#
#
# Convention : Reuss Voigt Hill
#
# Bulk Modulus (GPa) = 45.67310 52.02644 48.84977
# Shear Modulus (GPa) = 28.65925 32.74785 30.70355
#
# Velocity S-wave (km/s) = 3.46794 3.70707 3.58950
# Velocity P-wave (km/s) = 5.93311 6.33684 6.13830
#
# Compressibility (1/GPa) = 0.02189473
#
# Stress axis : x y z
#
# Youngs Moduli (GPa) = 66.09661 104.20748 40.03592
#
# Poissons Ratio (x) = 0.06041 0.25037
# Poissons Ratio (y) = 0.03832 0.28309
# Poissons Ratio (z) = 0.41334 0.73684
#
# Static dielectric constant tensor:
#      x y z
#    x 3.994340 0.000000 0.000000 
#    y 0.000000 4.593170 0.000000 
#    z 0.000000 0.000000 4.364450 
# 
# 
# High freq. dielectric constant tensor:
#      x y z
#    x 1.934140 0.000000 0.000000 
#    y 0.000000 1.970220 0.000000 
#    z 0.000000 0.000000 1.938220 
# 
# From -- ./inp_files/19318.got.cif
#   From: 2010.03.12/outbox.cif.g09.slc.cpg/sg60_10_cif.got.tgz:19318.got - 2010.04.10 18:46:24.
