data_PCOD8247692
_publ_section_title
;
Structure prediction by ZEFSAII (Michael W. Deem and Ramdas Pophale) SiO2 
 PCOD8247692
Probable space group: P B C N
;
_chemical_formula_sum "Si O2"
_cell_formula_units_Z 32
_cell_length_a 5.143191
_cell_length_b 14.954857
_cell_length_c 20.986350
_cell_angle_alpha 90.000000
_cell_angle_beta 90.000000
_cell_angle_gamma 90.000000
_cell_volume 1614.179505
_symmetry_space_group_name_H-M "P B C N"
_symmetry_group_IT_number 60
_symmetry_cell_setting 'orthorhombic'
loop_
_space_group_symop_operation_xyz
x,y,z
1/2-x,1/2-y,1/2+z
1/2+x,1/2-y,-z
-x,y,1/2-z
-x,-y,-z
1/2+x,1/2+y,1/2-z
1/2-x,1/2+y,z
x,-y,1/2+z
loop_
_atom_site_type_symbol
_atom_site_label
_atom_site_fract_x
_atom_site_fract_y
_atom_site_fract_z
Si Si1 0.647788 0.769399 0.537231
Si Si2 0.917501 0.116974 0.629631
Si Si3 0.430245 0.048658 0.681388
Si Si4 0.643385 0.969488 0.563423
O O1 0.408587 0.779302 0.487841
O O2 0.531491 0.710806 0.594906
O O3 0.738524 0.867763 0.558229
O O4 0.650873 0.124822 0.669828
O O5 0.888021 0.036189 0.577021
O O6 0.150186 0.095315 0.678308
O O7 0.500000 0.004862 0.750000
O O8 0.450855 0.974837 0.625078
O O9 0.500000 0.000000 0.500000
#
# Coordination Sequence:
#
# PCOD8247692 Si02
#       4
#     8   8   8   8
#     4  12  23  36  61  94 127 157 203 253 318 374
#     4  10  22  39  63  88 123 160 205 254 312 366
#     4  10  22  42  63  85 122 169 207 254 316 370
#     4  10  22  39  63  90 124 159 204 258 314 370
#
# _framework density 19.824314999999999
#
# number of rings (size 3 to 8) (size 9 to 14) (size 15 to 20)
#    1.500    0.000    2.500    3.750    3.500    2.000 
#    0.000    2.500    0.000    0.000    0.000    0.000 
#    0.000    0.000    0.000    0.000    0.000    0.000 
#
# Total GULP energy -396486.015123 kJ/mol
# GULP energy per Si atom -12390.187973 kJ/mol
# Density = 1.977919 g / cm^3
# Si number density = 19.824315 Si / 1000 Ang^3
#
#
#
# Elastic Constant Matrix: (Units=GPa)
#
#
# Indices 1 2 3 4 5 6 
#
# 1 115.7204 14.6946 24.9633 0.0000 0.0000 0.0000
# 2 14.6946 110.8527 29.6372 0.0000 0.0000 0.0000
# 3 24.9633 29.6372 126.1128 0.0000 0.0000 0.0000
# 4 0.0000 0.0000 0.0000 20.0169 0.0000 0.0000
# 5 0.0000 0.0000 0.0000 0.0000 33.7428 0.0000
# 6 0.0000 0.0000 0.0000 0.0000 0.0000 20.9478
#
#
#
# Elastic Compliance Matrix: (Units=1/GPa)
#
#
# Indices 1 2 3 4 5 6 
#
# 1 0.009089 -0.000772 -0.001618 0.000000 0.000000 0.000000
# 2 -0.000772 0.009691 -0.002125 0.000000 0.000000 0.000000
# 3 -0.001618 -0.002125 0.008749 0.000000 0.000000 0.000000
# 4 0.000000 0.000000 0.000000 0.049958 0.000000 0.000000
# 5 0.000000 0.000000 0.000000 0.000000 0.029636 0.000000
# 6 0.000000 0.000000 0.000000 0.000000 0.000000 0.047738
#
#
# Mechanical properties :
#
#
# Convention : Reuss Voigt Hill
#
# Bulk Modulus (GPa) = 54.05456 54.58623 54.32040
# Shear Modulus (GPa) = 29.40208 33.83421 31.61814
#
# Velocity S-wave (km/s) = 3.85532 4.13571 3.99797
# Velocity P-wave (km/s) = 6.86615 7.09931 6.98370
#
# Compressibility (1/GPa) = 0.01849983
#
# Stress axis : x y z
#
# Youngs Moduli (GPa) = 110.02887 103.18427 114.30016
#
# Poissons Ratio (x) = 0.07969 0.18488
# Poissons Ratio (y) = 0.08498 0.24285
# Poissons Ratio (z) = 0.17797 0.21923
#
# Static dielectric constant tensor:
#      x y z
#    x 3.512330 0.000000 0.000000 
#    y 0.000000 3.345250 0.000000 
#    z 0.000000 0.000000 3.541150 
# 
# 
# High freq. dielectric constant tensor:
#      x y z
#    x 1.779370 0.000000 0.000000 
#    y 0.000000 1.742800 0.000000 
#    z 0.000000 0.000000 1.764890 
# 
# From -- ./inp_files/18375.got.cif
#   From: 2010.03.12/outbox.cif.g09.slc.cpg/sg60_10_cif.got.tgz:18375.got - 2010.04.10 18:46:24.
