data_PCOD8247757
_publ_section_title
;
Structure prediction by ZEFSAII (Michael W. Deem and Ramdas Pophale) SiO2 
 PCOD8247757
Probable space group: P B C N
;
_chemical_formula_sum "Si O2"
_cell_formula_units_Z 32
_cell_length_a 5.176150
_cell_length_b 31.889120
_cell_length_c 8.827844
_cell_angle_alpha 90.000000
_cell_angle_beta 90.000000
_cell_angle_gamma 90.000000
_cell_volume 1457.149253
_symmetry_space_group_name_H-M "P B C N"
_symmetry_group_IT_number 60
_symmetry_cell_setting 'orthorhombic'
loop_
_space_group_symop_operation_xyz
x,y,z
1/2-x,1/2-y,1/2+z
1/2+x,1/2-y,-z
-x,y,1/2-z
-x,-y,-z
1/2+x,1/2+y,1/2-z
1/2-x,1/2+y,z
x,-y,1/2+z
loop_
_atom_site_type_symbol
_atom_site_label
_atom_site_fract_x
_atom_site_fract_y
_atom_site_fract_z
Si Si1 0.250348 0.265854 0.352948
Si Si2 0.499650 0.454500 0.429578
Si Si3 0.975644 0.682415 0.076108
Si Si4 0.507571 0.905239 0.428665
O O1 0.500000 0.275121 0.250000
O O2 0.259169 0.219359 0.428476
O O3 0.232407 0.298061 0.495271
O O4 0.000000 0.271791 0.250000
O O5 0.500000 0.458695 0.250000
O O6 0.500000 0.500000 0.500000
O O7 0.261865 0.425273 0.487235
O O8 0.764845 0.434714 0.487686
O O9 0.000000 0.669502 0.250000
O O10 0.912020 0.640224 0.988772
O O11 0.500000 0.901434 0.250000
#
# Coordination Sequence:
#
# PCOD8247757 Si02
#       4
#     8   8   8   8
#     4  11  25  44  65  91 132 178 217 269 332 383
#     4  10  22  41  64  89 119 157 200 249 312 379
#     4  11  24  41  65  96 127 167 223 269 311 373
#     4  10  23  40  61  90 125 162 200 251 316 379
#
# _framework density 21.960685000000002
#
# number of rings (size 3 to 8) (size 9 to 14) (size 15 to 20)
#    0.000    1.500    0.000    4.500    0.000   13.000 
#    0.000    1.250    0.000    0.000    0.000    0.000 
#    0.000    0.000    0.000    0.000    0.000    0.000 
#
# Total GULP energy -396532.341764 kJ/mol
# GULP energy per Si atom -12391.635680 kJ/mol
# Density = 2.191070 g / cm^3
# Si number density = 21.960685 Si / 1000 Ang^3
#
#
#
# Elastic Constant Matrix: (Units=GPa)
#
#
# Indices 1 2 3 4 5 6 
#
# 1 152.5692 52.6759 61.4030 0.0000 0.0000 0.0000
# 2 52.6759 161.7963 41.7205 0.0000 0.0000 0.0000
# 3 61.4030 41.7205 44.9426 0.0000 0.0000 0.0000
# 4 0.0000 0.0000 0.0000 -125.7478 0.0000 0.0000
# 5 0.0000 0.0000 0.0000 0.0000 23.1576 0.0000
# 6 0.0000 0.0000 0.0000 0.0000 0.0000 39.8845
#
#
#
# Elastic Compliance Matrix: (Units=1/GPa)
#
#
# Indices 1 2 3 4 5 6 
#
# 1 0.014593 0.000513 -0.020414 0.000000 0.000000 0.000000
# 2 0.000513 0.008144 -0.008260 0.000000 0.000000 0.000000
# 3 -0.020414 -0.008260 0.057809 0.000000 0.000000 0.000000
# 4 0.000000 0.000000 0.000000 -0.007952 0.000000 0.000000
# 5 0.000000 0.000000 0.000000 0.000000 0.043182 0.000000
# 6 0.000000 0.000000 0.000000 0.000000 0.000000 0.025072
#
#
# Mechanical properties :
#
#
# Convention : Reuss Voigt Hill
#
# Bulk Modulus (GPa) = 41.28301 74.54521 57.91411
# Shear Modulus (GPa) = 24.36097 1.02610 12.69354
#
# Velocity S-wave (km/s) = 3.33423 0.68429 2.40680
# Velocity P-wave (km/s) = 5.80191 5.88582 5.84402
#
# Compressibility (1/GPa) = 0.02422304
#
# Stress axis : x y z
#
# Youngs Moduli (GPa) = 68.52533 122.79459 17.29821
#
# Poissons Ratio (x) = -0.06297 0.35313
# Poissons Ratio (y) = -0.03514 0.14289
# Poissons Ratio (z) = 1.39887 1.01434
#
# Static dielectric constant tensor:
#      x y z
#    x 4.109620 0.000000 0.000000 
#    y 0.000000 3.959050 0.000000 
#    z 0.000000 0.000000 4.217030 
# 
# 
# High freq. dielectric constant tensor:
#      x y z
#    x 1.865540 0.000000 0.000000 
#    y 0.000000 1.866740 0.000000 
#    z 0.000000 0.000000 1.870380 
# 
# From -- ./inp_files/3121.got.cif
#   From: 2010.03.12/outbox.cif.g09.slc.cpg/sg60_2_cif.got.tgz:3121.got - 2010.04.10 18:46:24.
