data_PCOD8247248
_publ_section_title
;
Structure prediction by ZEFSAII (Michael W. Deem and Ramdas Pophale) SiO2 
 PCOD8247248
Probable space group: P B C N
;
_chemical_formula_sum "Si O2"
_cell_formula_units_Z 56
_cell_length_a 16.364254
_cell_length_b 5.259926
_cell_length_c 28.045189
_cell_angle_alpha 90.000000
_cell_angle_beta 90.000000
_cell_angle_gamma 90.000000
_cell_volume 2413.983055
_symmetry_space_group_name_H-M "P B C N"
_symmetry_group_IT_number 60
_symmetry_cell_setting 'orthorhombic'
loop_
_space_group_symop_operation_xyz
x,y,z
1/2-x,1/2-y,1/2+z
1/2+x,1/2-y,-z
-x,y,1/2-z
-x,-y,-z
1/2+x,1/2+y,1/2-z
1/2-x,1/2+y,z
x,-y,1/2+z
loop_
_atom_site_type_symbol
_atom_site_label
_atom_site_fract_x
_atom_site_fract_y
_atom_site_fract_z
Si Si1 0.719039 0.470685 0.454269
Si Si2 0.285323 0.579986 0.651396
Si Si3 0.477428 0.368213 0.147669
Si Si4 0.194174 0.448831 0.351240
Si Si5 0.555070 0.697936 0.474398
Si Si6 0.562155 0.935755 0.570969
Si Si7 0.535241 0.129956 0.698195
O O1 0.767641 0.700669 0.481221
O O2 0.755995 0.421338 0.401457
O O3 0.625264 0.542096 0.448525
O O4 0.250955 0.328542 0.678406
O O5 0.382003 0.575777 0.647148
O O6 0.519365 0.309096 0.096283
O O7 0.522787 0.614573 0.167843
O O8 0.487745 0.115110 0.179135
O O9 0.246489 0.706853 0.350366
O O10 0.138306 0.455345 0.399035
O O11 0.132801 0.432095 0.305538
O O12 0.500000 0.500000 0.500000
O O13 0.591273 0.876003 0.516936
O O14 0.508798 0.851161 0.432965
O O15 0.500000 0.188867 0.750000
#
# Coordination Sequence:
#
# PCOD8247248 Si02
#       7
#     8   8   8   8   8   8   8
#     4  10  24  39  59  86 127 175 219 280 348 394
#     4  10  21  36  59  93 130 169 216 271 334 404
#     4  11  23  42  72  96 134 180 228 279 346 431
#     4  11  25  46  73 105 142 185 233 294 362 429
#     4  11  25  41  64  94 138 186 251 304 344 407
#     4  10  26  41  65  98 133 190 243 294 349 417
#     4  11  25  47  75 106 136 177 227 284 360 437
#
# _framework density 23.198177000000001
#
# number of rings (size 3 to 8) (size 9 to 14) (size 15 to 20)
#    0.000    1.429    0.000    3.857   20.000    1.143 
#    0.000    4.286    0.000    0.000    0.000    0.000 
#    0.000    0.000    0.000    0.000    0.000    0.000 
#
# Total GULP energy -693962.801983 kJ/mol
# GULP energy per Si atom -12392.192893 kJ/mol
# Density = 2.314538 g / cm^3
# Si number density = 23.198177 Si / 1000 Ang^3
#
#
#
# Elastic Constant Matrix: (Units=GPa)
#
#
# Indices 1 2 3 4 5 6 
#
# 1 123.9897 58.9827 33.1338 0.0000 0.0000 0.0000
# 2 58.9827 180.8735 22.3225 0.0000 0.0000 0.0000
# 3 33.1338 22.3225 75.6124 0.0000 0.0000 0.0000
# 4 0.0000 0.0000 0.0000 21.7963 0.0000 0.0000
# 5 0.0000 0.0000 0.0000 0.0000 28.9433 0.0000
# 6 0.0000 0.0000 0.0000 0.0000 0.0000 50.5184
#
#
#
# Elastic Compliance Matrix: (Units=1/GPa)
#
#
# Indices 1 2 3 4 5 6 
#
# 1 0.010462 -0.002954 -0.003713 0.000000 0.000000 0.000000
# 2 -0.002954 0.006572 -0.000646 0.000000 0.000000 0.000000
# 3 -0.003713 -0.000646 0.015043 0.000000 0.000000 0.000000
# 4 0.000000 0.000000 0.000000 0.045879 0.000000 0.000000
# 5 0.000000 0.000000 0.000000 0.000000 0.034550 0.000000
# 6 0.000000 0.000000 0.000000 0.000000 0.000000 0.019795
#
#
# Mechanical properties :
#
#
# Convention : Reuss Voigt Hill
#
# Bulk Modulus (GPa) = 57.29773 67.70599 62.50186
# Shear Modulus (GPa) = 32.73471 37.98738 35.36104
#
# Velocity S-wave (km/s) = 3.76052 4.05101 3.90847
# Velocity P-wave (km/s) = 6.60365 7.15054 6.88253
#
# Compressibility (1/GPa) = 0.01745270
#
# Stress axis : x y z
#
# Youngs Moduli (GPa) = 95.58062 152.17031 66.47639
#
# Poissons Ratio (x) = 0.44945 0.24681
# Poissons Ratio (y) = 0.28230 0.04293
# Poissons Ratio (z) = 0.35486 0.09827
#
# Static dielectric constant tensor:
#      x y z
#    x 4.107920 0.000000 0.000000 
#    y 0.000000 4.777580 0.000000 
#    z 0.000000 0.000000 4.311190 
# 
# 
# High freq. dielectric constant tensor:
#      x y z
#    x 1.920950 0.000000 0.000000 
#    y 0.000000 1.952460 0.000000 
#    z 0.000000 0.000000 1.878150 
# 
# From -- ./inp_files/26140.got.cif
#   From: 2010.03.12/outbox.cif.g09.slc.cpg/sg60_14_cif.got.tgz:26140.got - 2010.04.10 18:46:24.
