data_PCOD8247614
_publ_section_title
;
Structure prediction by ZEFSAII (Michael W. Deem and Ramdas Pophale) SiO2 
 PCOD8247614
Probable space group: P B C N
;
_chemical_formula_sum "Si O2"
_cell_formula_units_Z 60
_cell_length_a 5.065723
_cell_length_b 29.594115
_cell_length_c 18.980479
_cell_angle_alpha 90.000000
_cell_angle_beta 90.000000
_cell_angle_gamma 90.000000
_cell_volume 2845.469689
_symmetry_space_group_name_H-M "P B C N"
_symmetry_group_IT_number 60
_symmetry_cell_setting 'orthorhombic'
loop_
_space_group_symop_operation_xyz
x,y,z
1/2-x,1/2-y,1/2+z
1/2+x,1/2-y,-z
-x,y,1/2-z
-x,-y,-z
1/2+x,1/2+y,1/2-z
1/2-x,1/2+y,z
x,-y,1/2+z
loop_
_atom_site_type_symbol
_atom_site_label
_atom_site_fract_x
_atom_site_fract_y
_atom_site_fract_z
Si Si1 0.109876 0.627592 0.517946
Si Si2 0.083030 0.071038 0.965009
Si Si3 0.875987 0.274603 0.821070
Si Si4 0.203128 0.269248 0.038278
Si Si5 0.114738 0.361942 0.859962
Si Si6 0.106299 0.020666 0.396415
Si Si7 0.500000 0.656235 0.250000
Si Si8 0.882858 0.446751 0.824000
O O1 0.331354 0.600293 0.561153
O O2 0.098805 0.679776 0.539708
O O3 0.206139 0.624370 0.437230
O O4 0.825669 0.605502 0.528676
O O5 0.025212 0.045522 0.037440
O O6 0.138485 0.033099 0.906659
O O7 0.767378 0.240157 0.879174
O O8 0.658616 0.310283 0.800049
O O9 0.000000 0.250808 0.750000
O O10 0.090047 0.307449 0.858442
O O11 0.467004 0.262478 0.991195
O O12 0.331095 0.376274 0.801229
O O13 0.858361 0.391767 0.834956
O O14 0.899340 0.029468 0.333158
O O15 0.399145 0.039056 0.382649
O O16 0.000000 0.462425 0.750000
#
# Coordination Sequence:
#
# PCOD8247614 Si02
#       8
#     8   8   8   8   8   8   4   8
#     4  12  23  39  65  94 128 164 211 275 315 378
#     4  11  23  42  64  89 121 167 209 262 322 367
#     4  10  23  41  59  91 130 181 217 261 324 400
#     4  12  25  41  66  97 135 171 222 274 331 380
#     4  11  22  36  56  91 133 166 207 252 325 396
#     4  11  23  41  62  88 127 164 209 257 309 391
#     4  10  22  36  60  80 134 178 204 254 314 404
#     4  12  24  36  61  95 129 166 206 253 318 394
#
# _framework density 21.086151000000001
#
# number of rings (size 3 to 8) (size 9 to 14) (size 15 to 20)
#    0.000    0.800    4.000    4.000    7.467    2.133 
#    0.000    0.000    0.000    3.200    1.733    0.000 
#    0.000    0.000    0.000    0.000    0.000    0.000 
#
# Total GULP energy -743668.871613 kJ/mol
# GULP energy per Si atom -12394.481194 kJ/mol
# Density = 2.103816 g / cm^3
# Si number density = 21.086151 Si / 1000 Ang^3
#
#
#
# Elastic Constant Matrix: (Units=GPa)
#
#
# Indices 1 2 3 4 5 6 
#
# 1 97.0235 31.1126 11.5783 0.0000 0.0000 0.0000
# 2 31.1126 118.3337 35.3123 0.0000 0.0000 0.0000
# 3 11.5783 35.3123 75.8940 0.0000 0.0000 0.0000
# 4 0.0000 0.0000 0.0000 18.5051 0.0000 0.0000
# 5 0.0000 0.0000 0.0000 0.0000 25.5623 0.0000
# 6 0.0000 0.0000 0.0000 0.0000 0.0000 32.3967
#
#
#
# Elastic Compliance Matrix: (Units=1/GPa)
#
#
# Indices 1 2 3 4 5 6 
#
# 1 0.011266 -0.002844 -0.000395 0.000000 0.000000 0.000000
# 2 -0.002844 0.010531 -0.004466 0.000000 0.000000 0.000000
# 3 -0.000395 -0.004466 0.015315 0.000000 0.000000 0.000000
# 4 0.000000 0.000000 0.000000 0.054039 0.000000 0.000000
# 5 0.000000 0.000000 0.000000 0.000000 0.039120 0.000000
# 6 0.000000 0.000000 0.000000 0.000000 0.000000 0.030867
#
#
# Mechanical properties :
#
#
# Convention : Reuss Voigt Hill
#
# Bulk Modulus (GPa) = 46.08174 49.69528 47.88851
# Shear Modulus (GPa) = 27.20600 29.50937 28.35768
#
# Velocity S-wave (km/s) = 3.59587 3.74500 3.67120
# Velocity P-wave (km/s) = 6.25635 6.50530 6.38204
#
# Compressibility (1/GPa) = 0.02170057
#
# Stress axis : x y z
#
# Youngs Moduli (GPa) = 88.76279 94.95597 65.29708
#
# Poissons Ratio (x) = 0.27006 0.02582
# Poissons Ratio (y) = 0.25245 0.29162
# Poissons Ratio (z) = 0.03510 0.42408
#
# Static dielectric constant tensor:
#      x y z
#    x 3.717130 0.000000 0.000000 
#    y 0.000000 3.771550 0.000000 
#    z 0.000000 0.000000 3.795740 
# 
# 
# High freq. dielectric constant tensor:
#      x y z
#    x 1.841780 0.000000 0.000000 
#    y 0.000000 1.812580 0.000000 
#    z 0.000000 0.000000 1.808590 
# 
# From -- ./inp_files/21779.got.cif
#   From: 2010.03.12/outbox.cif.g09.slc.cpg/sg60_11_cif.got.tgz:21779.got - 2010.04.10 18:46:24.
