data_PCOD8247085
_publ_section_title
;
Structure prediction by ZEFSAII (Michael W. Deem and Ramdas Pophale) SiO2 
 PCOD8247085
Probable space group: P B C N
;
_chemical_formula_sum "Si O2"
_cell_formula_units_Z 64
_cell_length_a 8.613541
_cell_length_b 23.977091
_cell_length_c 14.915514
_cell_angle_alpha 90.000000
_cell_angle_beta 90.000000
_cell_angle_gamma 90.000000
_cell_volume 3080.466150
_symmetry_space_group_name_H-M "P B C N"
_symmetry_group_IT_number 60
_symmetry_cell_setting 'orthorhombic'
loop_
_space_group_symop_operation_xyz
x,y,z
1/2-x,1/2-y,1/2+z
1/2+x,1/2-y,-z
-x,y,1/2-z
-x,-y,-z
1/2+x,1/2+y,1/2-z
1/2-x,1/2+y,z
x,-y,1/2+z
loop_
_atom_site_type_symbol
_atom_site_label
_atom_site_fract_x
_atom_site_fract_y
_atom_site_fract_z
Si Si1 0.298069 0.112944 0.669763
Si Si2 0.751454 0.731444 0.885345
Si Si3 0.180959 0.426523 0.764433
Si Si4 0.363229 0.884910 0.371961
Si Si5 0.107147 0.266748 0.438270
Si Si6 0.178792 0.194927 0.276299
Si Si7 0.842139 0.002324 0.880616
Si Si8 0.699624 0.503761 0.584810
O O1 0.212517 0.166373 0.628477
O O2 0.456585 0.096487 0.616806
O O3 0.337689 0.131110 0.769595
O O4 0.183356 0.060556 0.670100
O O5 0.726732 0.768780 0.796719
O O6 0.926447 0.737274 0.918416
O O7 0.630460 0.751436 0.958931
O O8 0.254729 0.366898 0.783644
O O9 0.260774 0.453424 0.676332
O O10 0.194951 0.465158 0.852442
O O11 0.000000 0.418992 0.750000
O O12 0.328593 0.829404 0.428020
O O13 0.244342 0.931932 0.403332
O O14 0.199019 0.224691 0.372550
O O15 0.000000 0.191493 0.250000
O O16 0.024448 0.990597 0.885343
O O17 0.772049 0.008919 0.980251
#
# Coordination Sequence:
#
# PCOD8247085 Si02
#       8
#     8   8   8   8   8   8   8   8
#     4  10  20  39  65  91 120 159 205 255 310 362
#     4  10  22  40  63  91 124 163 205 250 305 364
#     4  12  26  43  64  91 125 164 208 258 309 364
#     4  10  20  39  65  91 120 159 205 255 310 362
#     4  10  22  40  63  91 124 163 205 250 305 364
#     4  10  22  43  64  85 125 170 204 246 307 370
#     4  11  25  43  64  92 125 163 206 253 311 371
#     4  11  25  43  64  92 125 163 206 253 311 371
#
# _framework density 20.776077000000001
#
# number of rings (size 3 to 8) (size 9 to 14) (size 15 to 20)
#    0.000    1.500    2.500    1.875    3.500    4.000 
#    0.000    0.000    0.000    0.000    0.000    0.000 
#    0.000    0.000    0.000    0.000    0.000    0.000 
#
# Total GULP energy -793753.505875 kJ/mol
# GULP energy per Si atom -12402.398529 kJ/mol
# Density = 2.072879 g / cm^3
# Si number density = 20.776077 Si / 1000 Ang^3
#
#
#
# Elastic Constant Matrix: (Units=GPa)
#
#
# Indices 1 2 3 4 5 6 
#
# 1 20.1742 7.4099 -3.6663 0.0000 0.0000 0.0000
# 2 7.4099 94.6450 -4.9810 0.0000 0.0000 0.0000
# 3 -3.6663 -4.9810 35.4488 0.0000 0.0000 0.0000
# 4 0.0000 0.0000 0.0000 28.5647 0.0000 0.0000
# 5 0.0000 0.0000 0.0000 0.0000 29.3392 0.0000
# 6 0.0000 0.0000 0.0000 0.0000 0.0000 22.8552
#
#
#
# Elastic Compliance Matrix: (Units=1/GPa)
#
#
# Indices 1 2 3 4 5 6 
#
# 1 0.051843 -0.003805 0.004827 0.000000 0.000000 0.000000
# 2 -0.003805 0.010924 0.001141 0.000000 0.000000 0.000000
# 3 0.004827 0.001141 0.028869 0.000000 0.000000 0.000000
# 4 0.000000 0.000000 0.000000 0.035008 0.000000 0.000000
# 5 0.000000 0.000000 0.000000 0.000000 0.034084 0.000000
# 6 0.000000 0.000000 0.000000 0.000000 0.000000 0.043754
#
#
# Mechanical properties :
#
#
# Convention : Reuss Voigt Hill
#
# Bulk Modulus (GPa) = 10.42060 16.42146 13.42103
# Shear Modulus (GPa) = 21.53852 26.25218 23.89535
#
# Velocity S-wave (km/s) = 3.22327 3.55854 3.39505
# Velocity P-wave (km/s) = 4.34502 4.98051 4.67358
#
# Compressibility (1/GPa) = 0.09596376
#
# Stress axis : x y z
#
# Youngs Moduli (GPa) = 19.28905 91.54369 34.63885
#
# Poissons Ratio (x) = 0.34830 -0.16721
# Poissons Ratio (y) = 0.07339 -0.03954
# Poissons Ratio (z) = -0.09311 -0.10449
#
# Static dielectric constant tensor:
#      x y z
#    x 3.580400 0.000000 0.000000 
#    y 0.000000 3.760700 0.000000 
#    z 0.000000 0.000000 3.929130 
# 
# 
# High freq. dielectric constant tensor:
#      x y z
#    x 1.802810 0.000000 0.000000 
#    y 0.000000 1.823800 0.000000 
#    z 0.000000 0.000000 1.819030 
# 
# From -- ./inp_files/15424.got.cif
#   From: 2010.03.12/outbox.cif.g09.slc.cpg/sg60_8_cif.got.tgz:15424.got - 2010.04.10 18:46:24.
