data_PCOD8247200
_publ_section_title
;
Structure prediction by ZEFSAII (Michael W. Deem and Ramdas Pophale) SiO2 
 PCOD8247200
Probable space group: P B C N
;
_chemical_formula_sum "Si O2"
_cell_formula_units_Z 48
_cell_length_a 17.566854
_cell_length_b 7.234706
_cell_length_c 13.590995
_cell_angle_alpha 90.000000
_cell_angle_beta 90.000000
_cell_angle_gamma 90.000000
_cell_volume 1727.293472
_symmetry_space_group_name_H-M "P B C N"
_symmetry_group_IT_number 60
_symmetry_cell_setting 'orthorhombic'
loop_
_space_group_symop_operation_xyz
x,y,z
1/2-x,1/2-y,1/2+z
1/2+x,1/2-y,-z
-x,y,1/2-z
-x,-y,-z
1/2+x,1/2+y,1/2-z
1/2-x,1/2+y,z
x,-y,1/2+z
loop_
_atom_site_type_symbol
_atom_site_label
_atom_site_fract_x
_atom_site_fract_y
_atom_site_fract_z
Si Si1 0.666159 0.090907 0.643578
Si Si2 0.911667 0.909242 0.768417
Si Si3 0.157015 0.124371 0.887191
Si Si4 0.917824 0.367716 0.796602
Si Si5 0.916544 0.703398 0.950911
Si Si6 0.414541 0.705351 0.510854
O O1 0.640624 0.269738 0.705554
O O2 0.755876 0.083217 0.630032
O O3 0.625842 0.111616 0.536856
O O4 0.644112 0.907972 0.708818
O O5 0.892382 0.880563 0.882859
O O6 0.000000 0.862882 0.750000
O O7 0.889186 0.111862 0.719072
O O8 0.143455 0.309306 0.954910
O O9 0.116251 0.974188 0.956744
O O10 0.919244 0.531751 0.877764
O O11 0.899356 0.193894 0.870047
O O12 0.000000 0.354471 0.750000
O O13 0.996518 0.758236 0.997806
#
# Coordination Sequence:
#
# PCOD8247200 Si02
#       6
#     8   8   8   8   8   8
#     4  10  22  44  69 102 146 190 238 300 371 428
#     4  10  20  44  75 100 143 198 241 296 373 446
#     4  11  25  42  73 111 148 183 245 322 371 422
#     4  11  23  45  77 105 141 200 248 294 359 453
#     4  11  21  45  77 104 139 195 252 294 362 447
#     4  11  23  45  74 105 139 196 248 294 371 442
#
# _framework density 27.789138000000001
#
# number of rings (size 3 to 8) (size 9 to 14) (size 15 to 20)
#    0.000    1.333    5.000    2.000    0.000    4.000 
#    3.000    6.667    0.000    0.000    0.000    0.000 
#    0.000    0.000    0.000    0.000    0.000    0.000 
#
# Total GULP energy -595088.331675 kJ/mol
# GULP energy per Si atom -12397.673577 kJ/mol
# Density = 2.772589 g / cm^3
# Si number density = 27.789138 Si / 1000 Ang^3
#
#
#
# Elastic Constant Matrix: (Units=GPa)
#
#
# Indices 1 2 3 4 5 6 
#
# 1 179.7280 -8.8742 79.7029 0.0000 0.0000 0.0000
# 2 -8.8742 90.2571 30.0722 0.0000 0.0000 0.0000
# 3 79.7029 30.0722 275.5571 0.0000 0.0000 0.0000
# 4 0.0000 0.0000 0.0000 40.3342 0.0000 0.0000
# 5 0.0000 0.0000 0.0000 0.0000 46.4249 0.0000
# 6 0.0000 0.0000 0.0000 0.0000 0.0000 21.3301
#
#
#
# Elastic Compliance Matrix: (Units=1/GPa)
#
#
# Indices 1 2 3 4 5 6 
#
# 1 0.006531 0.001319 -0.002033 0.000000 0.000000 0.000000
# 2 0.001319 0.011764 -0.001665 0.000000 0.000000 0.000000
# 3 -0.002033 -0.001665 0.004399 0.000000 0.000000 0.000000
# 4 0.000000 0.000000 0.000000 0.024793 0.000000 0.000000
# 5 0.000000 0.000000 0.000000 0.000000 0.021540 0.000000
# 6 0.000000 0.000000 0.000000 0.000000 0.000000 0.046882
#
#
# Mechanical properties :
#
#
# Convention : Reuss Voigt Hill
#
# Bulk Modulus (GPa) = 55.75509 83.03822 69.39665
# Shear Modulus (GPa) = 39.48038 51.26060 45.37049
#
# Velocity S-wave (km/s) = 3.77332 4.29957 4.04501
# Velocity P-wave (km/s) = 6.25229 7.38883 6.84419
#
# Compressibility (1/GPa) = 0.01793558
#
# Stress axis : x y z
#
# Youngs Moduli (GPa) = 153.12418 85.00434 227.33566
#
# Poissons Ratio (x) = -0.11216 0.46216
# Poissons Ratio (y) = -0.20204 0.37862
# Poissons Ratio (z) = 0.31129 0.14157
#
# Static dielectric constant tensor:
#      x y z
#    x 4.457880 0.000000 0.000000 
#    y 0.000000 6.821460 0.000000 
#    z 0.000000 0.000000 7.255360 
# 
# 
# High freq. dielectric constant tensor:
#      x y z
#    x 2.070470 0.000000 0.000000 
#    y 0.000000 2.209000 0.000000 
#    z 0.000000 0.000000 2.196230 
# 
# From -- ./inp_files/17358.got.cif
#   From: 2010.03.12/outbox.cif.g09.slc.cpg/sg60_9_cif.got.tgz:17358.got - 2010.04.10 18:46:24.
