data_PCOD8247328
_publ_section_title
;
Structure prediction by ZEFSAII (Michael W. Deem and Ramdas Pophale) SiO2 
 PCOD8247328
Probable space group: P B C N
;
_chemical_formula_sum "Si O2"
_cell_formula_units_Z 64
_cell_length_a 19.321266
_cell_length_b 17.622815
_cell_length_c 9.134327
_cell_angle_alpha 90.000000
_cell_angle_beta 90.000000
_cell_angle_gamma 90.000000
_cell_volume 3110.193551
_symmetry_space_group_name_H-M "P B C N"
_symmetry_group_IT_number 60
_symmetry_cell_setting 'orthorhombic'
loop_
_space_group_symop_operation_xyz
x,y,z
1/2-x,1/2-y,1/2+z
1/2+x,1/2-y,-z
-x,y,1/2-z
-x,-y,-z
1/2+x,1/2+y,1/2-z
1/2-x,1/2+y,z
x,-y,1/2+z
loop_
_atom_site_type_symbol
_atom_site_label
_atom_site_fract_x
_atom_site_fract_y
_atom_site_fract_z
Si Si1 0.219251 0.162426 0.103680
Si Si2 0.255714 0.114948 0.783544
Si Si3 0.661391 0.258613 0.324650
Si Si4 0.065456 0.783556 0.922267
Si Si5 0.877982 0.301350 0.348426
Si Si6 0.160667 0.992230 0.692294
Si Si7 0.931358 0.960021 0.559538
Si Si8 0.544636 0.206059 0.120231
O O1 0.286045 0.188016 0.198803
O O2 0.170413 0.235605 0.083299
O O3 0.176137 0.097394 0.183491
O O4 0.250076 0.131517 0.953733
O O5 0.200218 0.163086 0.695129
O O6 0.333664 0.132164 0.728465
O O7 0.232697 0.028828 0.749840
O O8 0.635497 0.260853 0.492502
O O9 0.600417 0.255296 0.207169
O O10 0.068831 0.737877 0.767676
O O11 0.055829 0.872859 0.898043
O O12 0.002340 0.762742 0.027686
O O13 0.917988 0.341185 0.488168
O O14 0.135415 0.031468 0.544277
O O15 0.093915 0.003864 0.795990
O O16 0.000000 0.000000 0.500000
O O17 0.500000 0.161724 0.250000
#
# Coordination Sequence:
#
# PCOD8247328 Si02
#       8
#     8   8   8   8   8   8   8   8
#     4  11  22  38  62  87 123 158 210 264 309 361
#     4  11  22  38  62  88 124 160 204 270 310 357
#     4  10  21  38  60  87 117 161 205 262 308 350
#     4  11  22  38  60  90 119 170 213 247 292 372
#     4  11  22  38  64  90 120 161 210 261 310 356
#     4  12  25  40  59  87 125 168 213 247 314 367
#     4  12  27  37  54  84 132 180 210 240 290 368
#     4  10  23  37  59  88 122 153 202 252 302 364
#
# _framework density 20.577497000000001
#
# number of rings (size 3 to 8) (size 9 to 14) (size 15 to 20)
#    0.000    1.000    6.250    0.750    3.500    3.000 
#    0.000    0.000    0.000    0.000    0.000    9.625 
#    0.000    0.000    0.000    0.000    0.000    0.000 
#
# Total GULP energy -792983.910812 kJ/mol
# GULP energy per Si atom -12390.373606 kJ/mol
# Density = 2.053066 g / cm^3
# Si number density = 20.577497 Si / 1000 Ang^3
#
#
#
# Elastic Constant Matrix: (Units=GPa)
#
#
# Indices 1 2 3 4 5 6 
#
# 1 98.5208 28.8209 41.7296 0.0000 0.0000 0.0000
# 2 28.8209 50.0783 11.9984 0.0000 0.0000 0.0000
# 3 41.7296 11.9984 112.2748 0.0000 0.0000 0.0000
# 4 0.0000 0.0000 0.0000 18.5105 0.0000 0.0000
# 5 0.0000 0.0000 0.0000 0.0000 45.7764 0.0000
# 6 0.0000 0.0000 0.0000 0.0000 0.0000 27.9801
#
#
#
# Elastic Compliance Matrix: (Units=1/GPa)
#
#
# Indices 1 2 3 4 5 6 
#
# 1 0.014115 -0.007047 -0.004493 0.000000 0.000000 0.000000
# 2 -0.007047 0.024012 0.000053 0.000000 0.000000 0.000000
# 3 -0.004493 0.000053 0.010571 0.000000 0.000000 0.000000
# 4 0.000000 0.000000 0.000000 0.054023 0.000000 0.000000
# 5 0.000000 0.000000 0.000000 0.000000 0.021845 0.000000
# 6 0.000000 0.000000 0.000000 0.000000 0.000000 0.035740
#
#
# Mechanical properties :
#
#
# Convention : Reuss Voigt Hill
#
# Bulk Modulus (GPa) = 38.87445 47.33019 43.10232
# Shear Modulus (GPa) = 26.06157 30.34173 28.20165
#
# Velocity S-wave (km/s) = 3.56266 3.84410 3.70606
# Velocity P-wave (km/s) = 5.98800 6.53863 6.26936
#
# Compressibility (1/GPa) = 0.02572384
#
# Stress axis : x y z
#
# Youngs Moduli (GPa) = 70.84856 41.64668 94.59874
#
# Poissons Ratio (x) = 0.29347 0.42503
# Poissons Ratio (y) = 0.49925 -0.00502
# Poissons Ratio (z) = 0.31832 -0.00221
#
# Static dielectric constant tensor:
#      x y z
#    x 4.012620 0.000000 0.000000 
#    y 0.000000 3.310690 0.000000 
#    z 0.000000 0.000000 4.099520 
# 
# 
# High freq. dielectric constant tensor:
#      x y z
#    x 1.814560 0.000000 0.000000 
#    y 0.000000 1.748050 0.000000 
#    z 0.000000 0.000000 1.829510 
# 
# From -- ./inp_files/7574.got.cif
#   From: 2010.03.12/outbox.cif.g09.slc.cpg/sg60_4_cif.got.tgz:7574.got - 2010.04.10 18:46:24.
