data_PCOD8247736
_publ_section_title
;
Structure prediction by ZEFSAII (Michael W. Deem and Ramdas Pophale) SiO2 
 PCOD8247736
Probable space group: P B C N
;
_chemical_formula_sum "Si O2"
_cell_formula_units_Z 48
_cell_length_a 17.679903
_cell_length_b 9.280071
_cell_length_c 14.210402
_cell_angle_alpha 90.000000
_cell_angle_beta 90.000000
_cell_angle_gamma 90.000000
_cell_volume 2331.511387
_symmetry_space_group_name_H-M "P B C N"
_symmetry_group_IT_number 60
_symmetry_cell_setting 'orthorhombic'
loop_
_space_group_symop_operation_xyz
x,y,z
1/2-x,1/2-y,1/2+z
1/2+x,1/2-y,-z
-x,y,1/2-z
-x,-y,-z
1/2+x,1/2+y,1/2-z
1/2-x,1/2+y,z
x,-y,1/2+z
loop_
_atom_site_type_symbol
_atom_site_label
_atom_site_fract_x
_atom_site_fract_y
_atom_site_fract_z
Si Si1 0.587581 0.967376 0.268211
Si Si2 0.670787 0.690618 0.352761
Si Si3 0.345384 0.803311 0.598663
Si Si4 0.680329 0.085411 0.597698
Si Si5 0.911976 0.979888 0.487428
Si Si6 0.318430 0.596266 0.346207
O O1 0.500000 0.940771 0.250000
O O2 0.625309 0.834320 0.324139
O O3 0.616772 0.985221 0.162310
O O4 0.608483 0.116422 0.319571
O O5 0.757783 0.729991 0.376093
O O6 0.628640 0.620207 0.442335
O O7 0.670466 0.574912 0.265960
O O8 0.348752 0.908747 0.508831
O O9 0.388887 0.655461 0.577248
O O10 0.703292 0.239215 0.638205
O O11 0.753831 0.990981 0.603139
O O12 0.891958 0.951596 0.596514
O O13 0.000000 0.000000 0.500000
#
# Coordination Sequence:
#
# PCOD8247736 Si02
#       6
#     8   8   8   8   8   8
#     4  11  26  44  64  99 134 170 216 280 338 385
#     4  11  23  42  73  91 134 177 222 271 332 399
#     4  11  23  45  68  97 129 179 225 269 328 412
#     4  10  22  40  66  95 128 167 222 264 330 391
#     4  11  26  44  64 102 137 172 222 278 341 395
#     4  10  22  40  67  94 128 171 219 272 324 396
#
# _framework density 20.587505
#
# number of rings (size 3 to 8) (size 9 to 14) (size 15 to 20)
#    0.000    1.333    3.333    1.000   11.667    0.667 
#    6.000    0.000    0.000    0.000    0.000    0.000 
#    0.000    0.000    0.000    0.000    0.000    0.000 
#
# Total GULP energy -595028.165813 kJ/mol
# GULP energy per Si atom -12396.420121 kJ/mol
# Density = 2.054065 g / cm^3
# Si number density = 20.587505 Si / 1000 Ang^3
#
#
#
# Elastic Constant Matrix: (Units=GPa)
#
#
# Indices 1 2 3 4 5 6 
#
# 1 146.7120 73.1224 64.6753 0.0000 0.0000 0.0000
# 2 73.1224 48.6439 20.5804 0.0000 0.0000 0.0000
# 3 64.6753 20.5804 94.7796 0.0000 0.0000 0.0000
# 4 0.0000 0.0000 0.0000 29.5624 0.0000 0.0000
# 5 0.0000 0.0000 0.0000 0.0000 45.0701 0.0000
# 6 0.0000 0.0000 0.0000 0.0000 0.0000 28.2108
#
#
#
# Elastic Compliance Matrix: (Units=1/GPa)
#
#
# Indices 1 2 3 4 5 6 
#
# 1 0.042430 -0.056745 -0.016631 0.000000 0.000000 0.000000
# 2 -0.056745 0.098526 0.017327 0.000000 0.000000 0.000000
# 3 -0.016631 0.017327 0.018137 0.000000 0.000000 0.000000
# 4 0.000000 0.000000 0.000000 0.033827 0.000000 0.000000
# 5 0.000000 0.000000 0.000000 0.000000 0.022188 0.000000
# 6 0.000000 0.000000 0.000000 0.000000 0.000000 0.035447
#
#
# Mechanical properties :
#
#
# Convention : Reuss Voigt Hill
#
# Bulk Modulus (GPa) = 21.27867 67.43240 44.35553
# Shear Modulus (GPa) = 13.21640 29.35249 21.28444
#
# Velocity S-wave (km/s) = 2.53645 3.78000 3.21885
# Velocity P-wave (km/s) = 4.35158 7.20252 5.95032
#
# Compressibility (1/GPa) = 0.04699541
#
# Stress axis : x y z
#
# Youngs Moduli (GPa) = 23.56843 10.14958 55.13509
#
# Poissons Ratio (x) = 0.57593 0.91698
# Poissons Ratio (y) = 1.33738 -0.95533
# Poissons Ratio (z) = 0.39198 -0.17586
#
# Static dielectric constant tensor:
#      x y z
#    x 3.563850 0.000000 0.000000 
#    y 0.000000 3.717500 0.000000 
#    z 0.000000 0.000000 4.070060 
# 
# 
# High freq. dielectric constant tensor:
#      x y z
#    x 1.801890 0.000000 0.000000 
#    y 0.000000 1.803630 0.000000 
#    z 0.000000 0.000000 1.823540 
# 
# From -- ./inp_files/17312.got.cif
#   From: 2010.03.12/outbox.cif.g09.slc.cpg/sg60_9_cif.got.tgz:17312.got - 2010.04.10 18:46:24.
