data_PCOD8247117
_publ_section_title
;
Structure prediction by ZEFSAII (Michael W. Deem and Ramdas Pophale) SiO2 
 PCOD8247117
Probable space group: P B C N
;
_chemical_formula_sum "Si O2"
_cell_formula_units_Z 48
_cell_length_a 8.302866
_cell_length_b 18.632605
_cell_length_c 14.413880
_cell_angle_alpha 90.000000
_cell_angle_beta 90.000000
_cell_angle_gamma 90.000000
_cell_volume 2229.885216
_symmetry_space_group_name_H-M "P B C N"
_symmetry_group_IT_number 60
_symmetry_cell_setting 'orthorhombic'
loop_
_space_group_symop_operation_xyz
x,y,z
1/2-x,1/2-y,1/2+z
1/2+x,1/2-y,-z
-x,y,1/2-z
-x,-y,-z
1/2+x,1/2+y,1/2-z
1/2-x,1/2+y,z
x,-y,1/2+z
loop_
_atom_site_type_symbol
_atom_site_label
_atom_site_fract_x
_atom_site_fract_y
_atom_site_fract_z
Si Si1 0.625412 0.837192 0.176348
Si Si2 0.800981 0.071451 0.537767
Si Si3 0.154718 0.672389 0.093221
Si Si4 0.118867 0.296151 0.024253
Si Si5 0.318612 0.683723 0.279298
Si Si6 0.155597 0.905614 0.965634
O O1 0.500000 0.872503 0.250000
O O2 0.752867 0.895449 0.138318
O O3 0.527443 0.799107 0.094752
O O4 0.719605 0.769078 0.218665
O O5 0.671398 0.096086 0.460597
O O6 0.974689 0.098284 0.502764
O O7 0.790875 0.986664 0.550168
O O8 0.284546 0.723515 0.041421
O O9 0.192948 0.656930 0.200728
O O10 0.972169 0.702533 0.077537
O O11 0.232872 0.365628 0.041310
O O12 0.500000 0.668498 0.250000
O O13 0.302062 0.640325 0.374244
#
# Coordination Sequence:
#
# PCOD8247117 Si02
#       6
#     8   8   8   8   8   8
#     4  10  20  40  64  90 123 162 211 271 319 373
#     4  10  22  41  63  86 126 171 211 253 325 392
#     4  11  21  39  66  90 121 167 207 266 321 385
#     4  11  22  38  66  90 119 163 212 259 322 386
#     4  11  20  39  64  89 125 162 208 266 322 373
#     4  11  23  41  60  91 126 167 213 256 318 402
#
# _framework density 21.525770999999999
#
# number of rings (size 3 to 8) (size 9 to 14) (size 15 to 20)
#    0.000    1.333    5.000    3.000    0.000    3.333 
#    6.000    0.833    0.000    0.000    0.000    0.000 
#    0.000    0.000    0.000    0.000    0.000    0.000 
#
# Total GULP energy -594849.636909 kJ/mol
# GULP energy per Si atom -12392.700769 kJ/mol
# Density = 2.147678 g / cm^3
# Si number density = 21.525771 Si / 1000 Ang^3
#
#
#
# Elastic Constant Matrix: (Units=GPa)
#
#
# Indices 1 2 3 4 5 6 
#
# 1 56.6901 43.4657 26.1090 0.0000 0.0000 0.0000
# 2 43.4657 98.2049 22.2603 0.0000 0.0000 0.0000
# 3 26.1090 22.2603 82.6377 0.0000 0.0000 0.0000
# 4 0.0000 0.0000 0.0000 20.4820 0.0000 0.0000
# 5 0.0000 0.0000 0.0000 0.0000 40.2649 0.0000
# 6 0.0000 0.0000 0.0000 0.0000 0.0000 32.1647
#
#
#
# Elastic Compliance Matrix: (Units=1/GPa)
#
#
# Indices 1 2 3 4 5 6 
#
# 1 0.029372 -0.011605 -0.006154 0.000000 0.000000 0.000000
# 2 -0.011605 0.015430 -0.000490 0.000000 0.000000 0.000000
# 3 -0.006154 -0.000490 0.014177 0.000000 0.000000 0.000000
# 4 0.000000 0.000000 0.000000 0.048823 0.000000 0.000000
# 5 0.000000 0.000000 0.000000 0.000000 0.024836 0.000000
# 6 0.000000 0.000000 0.000000 0.000000 0.000000 0.031090
#
#
# Mechanical properties :
#
#
# Convention : Reuss Voigt Hill
#
# Bulk Modulus (GPa) = 44.48061 46.80030 45.64045
# Shear Modulus (GPa) = 24.07085 28.29548 26.18317
#
# Velocity S-wave (km/s) = 3.34763 3.62953 3.49142
# Velocity P-wave (km/s) = 5.97084 6.27322 6.12390
#
# Compressibility (1/GPa) = 0.02248171
#
# Stress axis : x y z
#
# Youngs Moduli (GPa) = 34.04612 64.80745 70.53554
#
# Poissons Ratio (x) = 0.75210 0.43406
# Poissons Ratio (y) = 0.39511 0.03455
# Poissons Ratio (z) = 0.20951 0.03175
#
# Static dielectric constant tensor:
#      x y z
#    x 4.152140 0.000000 0.000000 
#    y 0.000000 3.767870 0.000000 
#    z 0.000000 0.000000 4.187180 
# 
# 
# High freq. dielectric constant tensor:
#      x y z
#    x 1.853210 0.000000 0.000000 
#    y 0.000000 1.829510 0.000000 
#    z 0.000000 0.000000 1.841550 
# 
# From -- ./inp_files/15014.got.cif
#   From: 2010.03.12/outbox.cif.g09.slc.cpg/sg60_8_cif.got.tgz:15014.got - 2010.04.10 18:46:24.
