data_PCOD8247076
_publ_section_title
;
Structure prediction by ZEFSAII (Michael W. Deem and Ramdas Pophale) SiO2 
 PCOD8247076
Probable space group: P B C N
;
_chemical_formula_sum "Si O2"
_cell_formula_units_Z 36
_cell_length_a 9.476411
_cell_length_b 9.654456
_cell_length_c 17.012769
_cell_angle_alpha 90.000000
_cell_angle_beta 90.000000
_cell_angle_gamma 90.000000
_cell_volume 1556.491312
_symmetry_space_group_name_H-M "P B C N"
_symmetry_group_IT_number 60
_symmetry_cell_setting 'orthorhombic'
loop_
_space_group_symop_operation_xyz
x,y,z
1/2-x,1/2-y,1/2+z
1/2+x,1/2-y,-z
-x,y,1/2-z
-x,-y,-z
1/2+x,1/2+y,1/2-z
1/2-x,1/2+y,z
x,-y,1/2+z
loop_
_atom_site_type_symbol
_atom_site_label
_atom_site_fract_x
_atom_site_fract_y
_atom_site_fract_z
Si Si1 0.731848 0.076256 0.655709
Si Si2 0.866908 0.675820 0.063518
Si Si3 0.130989 0.847832 0.038904
Si Si4 0.000000 0.297033 0.250000
Si Si5 0.995887 0.071414 0.128280
O O1 0.640959 0.980591 0.595771
O O2 0.772749 0.222219 0.617015
O O3 0.634016 0.107205 0.730639
O O4 0.875637 0.000478 0.683698
O O5 0.796149 0.690339 0.975418
O O6 0.031066 0.718158 0.061009
O O7 0.082066 0.904889 0.954295
O O8 0.122080 0.964456 0.107422
O O9 0.048422 0.206300 0.174273
#
# Coordination Sequence:
#
# PCOD8247076 Si02
#       5
#     8   8   8   4   8
#     4  10  20  39  63  86 128 170 209 261 335 380
#     4  10  20  39  65  94 128 164 210 278 327 378
#     4   9  18  39  64  92 127 166 216 265 327 376
#     4  12  20  40  64  88 126 184 212 260 328 408
#     4   9  20  39  62  89 128 174 204 269 328 382
#
# _framework density 23.128941999999999
#
# number of rings (size 3 to 8) (size 9 to 14) (size 15 to 20)
#    0.000    2.222    4.444    1.333    0.000    0.889 
#    4.000    6.667    0.000    0.000    0.000    0.000 
#    0.000    0.000    0.000    0.000    0.000    0.000 
#
# Total GULP energy -446075.674866 kJ/mol
# GULP energy per Si atom -12390.990969 kJ/mol
# Density = 2.307630 g / cm^3
# Si number density = 23.128942 Si / 1000 Ang^3
#
#
#
# Elastic Constant Matrix: (Units=GPa)
#
#
# Indices 1 2 3 4 5 6 
#
# 1 53.0392 25.2604 29.5714 0.0000 0.0000 0.0000
# 2 25.2604 80.6728 30.9070 0.0000 0.0000 0.0000
# 3 29.5714 30.9070 64.1684 0.0000 0.0000 0.0000
# 4 0.0000 0.0000 0.0000 46.0364 0.0000 0.0000
# 5 0.0000 0.0000 0.0000 0.0000 38.5196 0.0000
# 6 0.0000 0.0000 0.0000 0.0000 0.0000 20.5397
#
#
#
# Elastic Compliance Matrix: (Units=1/GPa)
#
#
# Indices 1 2 3 4 5 6 
#
# 1 0.026619 -0.004458 -0.010120 0.000000 0.000000 0.000000
# 2 -0.004458 0.015947 -0.005627 0.000000 0.000000 0.000000
# 3 -0.010120 -0.005627 0.022958 0.000000 0.000000 0.000000
# 4 0.000000 0.000000 0.000000 0.021722 0.000000 0.000000
# 5 0.000000 0.000000 0.000000 0.000000 0.025961 0.000000
# 6 0.000000 0.000000 0.000000 0.000000 0.000000 0.048686
#
#
# Mechanical properties :
#
#
# Convention : Reuss Voigt Hill
#
# Bulk Modulus (GPa) = 39.81667 41.03978 40.42822
# Shear Modulus (GPa) = 23.73327 28.49526 26.11426
#
# Velocity S-wave (km/s) = 3.20680 3.51382 3.36381
# Velocity P-wave (km/s) = 5.56452 5.85192 5.71003
#
# Compressibility (1/GPa) = 0.02511511
#
# Stress axis : x y z
#
# Youngs Moduli (GPa) = 37.56650 62.70649 43.55804
#
# Poissons Ratio (x) = 0.27954 0.44081
# Poissons Ratio (y) = 0.16747 0.24509
# Poissons Ratio (z) = 0.38018 0.35283
#
# Static dielectric constant tensor:
#      x y z
#    x 4.429870 0.000000 0.000000 
#    y 0.000000 4.300320 0.000000 
#    z 0.000000 0.000000 3.870840 
# 
# 
# High freq. dielectric constant tensor:
#      x y z
#    x 1.901380 0.000000 0.000000 
#    y 0.000000 1.920060 0.000000 
#    z 0.000000 0.000000 1.881880 
# 
# From -- ./inp_files/19107.got.cif
#   From: 2010.03.12/outbox.cif.g09.slc.cpg/sg60_10_cif.got.tgz:19107.got - 2010.04.10 18:46:24.
