data_PCOD8247820
_publ_section_title
;
Structure prediction by ZEFSAII (Michael W. Deem and Ramdas Pophale) SiO2 
 PCOD8247820
Probable space group: P B C N
;
_chemical_formula_sum "Si O2"
_cell_formula_units_Z 48
_cell_length_a 13.646179
_cell_length_b 17.090728
_cell_length_c 9.045094
_cell_angle_alpha 90.000000
_cell_angle_beta 90.000000
_cell_angle_gamma 90.000000
_cell_volume 2109.525166
_symmetry_space_group_name_H-M "P B C N"
_symmetry_group_IT_number 60
_symmetry_cell_setting 'orthorhombic'
loop_
_space_group_symop_operation_xyz
x,y,z
1/2-x,1/2-y,1/2+z
1/2+x,1/2-y,-z
-x,y,1/2-z
-x,-y,-z
1/2+x,1/2+y,1/2-z
1/2-x,1/2+y,z
x,-y,1/2+z
loop_
_atom_site_type_symbol
_atom_site_label
_atom_site_fract_x
_atom_site_fract_y
_atom_site_fract_z
Si Si1 0.359762 0.655603 0.087730
Si Si2 0.741322 0.907052 0.680724
Si Si3 0.762508 0.321321 0.394596
Si Si4 0.569751 0.122474 0.372607
Si Si5 0.206767 0.579560 0.884140
Si Si6 0.965467 0.204653 0.908370
O O1 0.348105 0.622724 0.257377
O O2 0.315819 0.741662 0.065777
O O3 0.301357 0.593819 0.985859
O O4 0.473122 0.660203 0.036972
O O5 0.711461 0.887565 0.514174
O O6 0.670138 0.856699 0.787606
O O7 0.723920 0.999159 0.703806
O O8 0.798372 0.350247 0.234745
O O9 0.647561 0.313604 0.419528
O O10 0.500000 0.077453 0.250000
O O11 0.604274 0.075679 0.520756
O O12 0.515753 0.202019 0.421935
O O13 0.000000 0.172861 0.750000
#
# Coordination Sequence:
#
# PCOD8247820 Si02
#       6
#     8   8   8   8   8   8
#     4  11  23  42  66  98 132 180 240 289 352 428
#     4  11  24  42  64  99 140 181 227 290 363 424
#     4  12  21  41  70  95 131 182 236 289 348 420
#     4  10  22  42  67  97 137 177 226 292 353 416
#     4  11  23  43  66  96 142 188 222 283 368 428
#     4  11  21  39  68  99 130 172 235 297 345 411
#
# _framework density 22.753934999999998
#
# number of rings (size 3 to 8) (size 9 to 14) (size 15 to 20)
#    0.000    1.000    5.000    5.000    0.000    1.333 
#    0.000    9.167    0.000    0.000    0.000    0.000 
#    0.000    0.000    0.000    0.000    0.000    0.000 
#
# Total GULP energy -594810.962748 kJ/mol
# GULP energy per Si atom -12391.895057 kJ/mol
# Density = 2.270215 g / cm^3
# Si number density = 22.753935 Si / 1000 Ang^3
#
#
#
# Elastic Constant Matrix: (Units=GPa)
#
#
# Indices 1 2 3 4 5 6 
#
# 1 95.1276 23.6675 37.5151 0.0000 0.0000 0.0000
# 2 23.6675 76.1685 23.5580 0.0000 0.0000 0.0000
# 3 37.5151 23.5580 111.5345 0.0000 0.0000 0.0000
# 4 0.0000 0.0000 0.0000 33.3121 0.0000 0.0000
# 5 0.0000 0.0000 0.0000 0.0000 53.8061 0.0000
# 6 0.0000 0.0000 0.0000 0.0000 0.0000 18.5111
#
#
#
# Elastic Compliance Matrix: (Units=1/GPa)
#
#
# Indices 1 2 3 4 5 6 
#
# 1 0.012654 -0.002798 -0.003665 0.000000 0.000000 0.000000
# 2 -0.002798 0.014665 -0.002156 0.000000 0.000000 0.000000
# 3 -0.003665 -0.002156 0.010654 0.000000 0.000000 0.000000
# 4 0.000000 0.000000 0.000000 0.030019 0.000000 0.000000
# 5 0.000000 0.000000 0.000000 0.000000 0.018585 0.000000
# 6 0.000000 0.000000 0.000000 0.000000 0.000000 0.054022
#
#
# Mechanical properties :
#
#
# Convention : Reuss Voigt Hill
#
# Bulk Modulus (GPa) = 48.23084 50.25686 49.24385
# Shear Modulus (GPa) = 30.34904 34.33185 32.34044
#
# Velocity S-wave (km/s) = 3.65608 3.88858 3.77412
# Velocity P-wave (km/s) = 6.25022 6.50357 6.37815
#
# Compressibility (1/GPa) = 0.02073362
#
# Stress axis : x y z
#
# Youngs Moduli (GPa) = 79.02761 68.18863 93.86088
#
# Poissons Ratio (x) = 0.19081 0.34401
# Poissons Ratio (y) = 0.22114 0.20239
# Poissons Ratio (z) = 0.28965 0.14704
#
# Static dielectric constant tensor:
#      x y z
#    x 4.256240 0.000000 0.000000 
#    y 0.000000 3.721500 0.000000 
#    z 0.000000 0.000000 4.520760 
# 
# 
# High freq. dielectric constant tensor:
#      x y z
#    x 1.888350 0.000000 0.000000 
#    y 0.000000 1.873560 0.000000 
#    z 0.000000 0.000000 1.909240 
# 
# From -- ./inp_files/6031.got.cif
#   From: 2010.03.12/outbox.cif.g09.slc.cpg/sg60_4_cif.got.tgz:6031.got - 2010.04.10 18:46:24.
