data_PCOD8247712
_publ_section_title
;
Structure prediction by ZEFSAII (Michael W. Deem and Ramdas Pophale) SiO2 
 PCOD8247712
Probable space group: P B C N
;
_chemical_formula_sum "Si O2"
_cell_formula_units_Z 40
_cell_length_a 9.010053
_cell_length_b 10.100156
_cell_length_c 21.817801
_cell_angle_alpha 90.000000
_cell_angle_beta 90.000000
_cell_angle_gamma 90.000000
_cell_volume 1985.484054
_symmetry_space_group_name_H-M "P B C N"
_symmetry_group_IT_number 60
_symmetry_cell_setting 'orthorhombic'
loop_
_space_group_symop_operation_xyz
x,y,z
1/2-x,1/2-y,1/2+z
1/2+x,1/2-y,-z
-x,y,1/2-z
-x,-y,-z
1/2+x,1/2+y,1/2-z
1/2-x,1/2+y,z
x,-y,1/2+z
loop_
_atom_site_type_symbol
_atom_site_label
_atom_site_fract_x
_atom_site_fract_y
_atom_site_fract_z
Si Si1 0.531730 0.546616 0.569191
Si Si2 0.932600 0.331770 0.952358
Si Si3 0.373306 0.069825 0.921974
Si Si4 0.201942 0.907778 0.644524
Si Si5 0.589367 0.133675 0.812421
O O1 0.500000 0.500000 0.500000
O O2 0.463658 0.691125 0.576561
O O3 0.700795 0.552110 0.590640
O O4 0.457172 0.458906 0.622077
O O5 0.790120 0.390042 0.918615
O O6 0.074139 0.425624 0.943761
O O7 0.896359 0.321642 0.024458
O O8 0.465119 0.122011 0.864602
O O9 0.178926 0.771895 0.681967
O O10 0.291697 0.013457 0.686182
O O11 0.500000 0.128057 0.750000
#
# Coordination Sequence:
#
# PCOD8247712 Si02
#       5
#     8   8   8   8   8
#     4  12  23  35  68 100 135 174 217 269 347 407
#     4  10  22  40  61 100 136 167 223 276 340 405
#     4  10  24  39  65  97 137 177 216 280 339 399
#     4  11  23  46  70  96 133 179 219 283 335 392
#     4  11  26  49  69  95 137 179 233 273 329 403
#
# _framework density 20.146221000000001
#
# number of rings (size 3 to 8) (size 9 to 14) (size 15 to 20)
#    0.000    1.200    4.000    1.200    5.600    1.600 
#    3.600    1.000    0.000    0.000    0.000    0.000 
#    0.000    0.000    0.000    0.000    0.000    0.000 
#
# Total GULP energy -496068.099407 kJ/mol
# GULP energy per Si atom -12401.702485 kJ/mol
# Density = 2.010037 g / cm^3
# Si number density = 20.146221 Si / 1000 Ang^3
#
#
#
# Elastic Constant Matrix: (Units=GPa)
#
#
# Indices 1 2 3 4 5 6 
#
# 1 133.1522 51.9685 39.7871 0.0000 0.0000 0.0000
# 2 51.9685 122.1904 40.4795 0.0000 0.0000 0.0000
# 3 39.7871 40.4795 110.9237 0.0000 0.0000 0.0000
# 4 0.0000 0.0000 0.0000 20.5922 0.0000 0.0000
# 5 0.0000 0.0000 0.0000 0.0000 30.3978 0.0000
# 6 0.0000 0.0000 0.0000 0.0000 0.0000 30.0254
#
#
#
# Elastic Compliance Matrix: (Units=1/GPa)
#
#
# Indices 1 2 3 4 5 6 
#
# 1 0.009450 -0.003294 -0.002187 0.000000 0.000000 0.000000
# 2 -0.003294 0.010458 -0.002635 0.000000 0.000000 0.000000
# 3 -0.002187 -0.002635 0.010761 0.000000 0.000000 0.000000
# 4 0.000000 0.000000 0.000000 0.048562 0.000000 0.000000
# 5 0.000000 0.000000 0.000000 0.000000 0.032897 0.000000
# 6 0.000000 0.000000 0.000000 0.000000 0.000000 0.033305
#
#
# Mechanical properties :
#
#
# Convention : Reuss Voigt Hill
#
# Bulk Modulus (GPa) = 69.27137 70.08185 69.67661
# Shear Modulus (GPa) = 30.03401 31.80514 30.91958
#
# Velocity S-wave (km/s) = 3.86528 3.97762 3.92185
# Velocity P-wave (km/s) = 7.37424 7.48046 7.42754
#
# Compressibility (1/GPa) = 0.01443598
#
# Stress axis : x y z
#
# Youngs Moduli (GPa) = 105.82530 95.62131 92.92595
#
# Poissons Ratio (x) = 0.31501 0.20325
# Poissons Ratio (y) = 0.34863 0.24484
# Poissons Ratio (z) = 0.23146 0.25194
#
# Static dielectric constant tensor:
#      x y z
#    x 3.736290 0.000000 0.000000 
#    y 0.000000 3.854950 0.000000 
#    z 0.000000 0.000000 3.367880 
# 
# 
# High freq. dielectric constant tensor:
#      x y z
#    x 1.801200 0.000000 0.000000 
#    y 0.000000 1.800070 0.000000 
#    z 0.000000 0.000000 1.762700 
# 
# From -- ./inp_files/22003.got.cif
#   From: 2010.03.12/outbox.cif.g09.slc.cpg/sg60_12_cif.got.tgz:22003.got - 2010.04.10 18:46:24.
