data_PCOD8247046
_publ_section_title
;
Structure prediction by ZEFSAII (Michael W. Deem and Ramdas Pophale) SiO2 
 PCOD8247046
Probable space group: P B C N
;
_chemical_formula_sum "Si O2"
_cell_formula_units_Z 40
_cell_length_a 8.523475
_cell_length_b 11.913534
_cell_length_c 18.241917
_cell_angle_alpha 90.000000
_cell_angle_beta 90.000000
_cell_angle_gamma 90.000000
_cell_volume 1852.370157
_symmetry_space_group_name_H-M "P B C N"
_symmetry_group_IT_number 60
_symmetry_cell_setting 'orthorhombic'
loop_
_space_group_symop_operation_xyz
x,y,z
1/2-x,1/2-y,1/2+z
1/2+x,1/2-y,-z
-x,y,1/2-z
-x,-y,-z
1/2+x,1/2+y,1/2-z
1/2-x,1/2+y,z
x,-y,1/2+z
loop_
_atom_site_type_symbol
_atom_site_label
_atom_site_fract_x
_atom_site_fract_y
_atom_site_fract_z
Si Si1 0.474688 0.262167 0.332566
Si Si2 0.351151 0.060685 0.097418
Si Si3 0.473345 0.148045 0.534223
Si Si4 0.012890 0.989519 0.086481
Si Si5 0.797133 0.174590 0.086059
O O1 0.500000 0.303684 0.250000
O O2 0.575333 0.149571 0.346193
O O3 0.522913 0.360843 0.388073
O O4 0.292286 0.234104 0.346882
O O5 0.430859 0.936447 0.101256
O O6 0.168055 0.052693 0.114865
O O7 0.383220 0.098520 0.013659
O O8 0.539789 0.262793 0.567391
O O9 0.318599 0.167467 0.484227
O O10 0.855933 0.052718 0.115417
O O11 0.000000 0.000000 0.000000
#
# Coordination Sequence:
#
# PCOD8247046 Si02
#       5
#     8   8   8   8   8
#     4  11  28  47  63  94 141 185 232 278 343 418
#     4  10  22  39  65  94 134 170 218 275 329 409
#     4  10  20  38  65 106 133 165 216 275 350 395
#     4  12  23  41  73 104 133 173 228 292 348 394
#     4  11  23  38  71  97 142 170 217 283 344 408
#
# _framework density 21.593955999999999
#
# number of rings (size 3 to 8) (size 9 to 14) (size 15 to 20)
#    0.000    1.200    2.000    4.800    8.400    1.600 
#    0.000    0.000    0.000    0.000    0.000    0.000 
#    0.000    0.000    0.000    0.000    0.000    0.000 
#
# Total GULP energy -495799.107412 kJ/mol
# GULP energy per Si atom -12394.977685 kJ/mol
# Density = 2.154481 g / cm^3
# Si number density = 21.593956 Si / 1000 Ang^3
#
#
#
# Elastic Constant Matrix: (Units=GPa)
#
#
# Indices 1 2 3 4 5 6 
#
# 1 128.7413 56.6029 21.7718 0.0000 0.0000 0.0000
# 2 56.6029 120.6815 38.6067 0.0000 0.0000 0.0000
# 3 21.7718 38.6067 86.1235 0.0000 0.0000 0.0000
# 4 0.0000 0.0000 0.0000 23.4928 0.0000 0.0000
# 5 0.0000 0.0000 0.0000 0.0000 15.3728 0.0000
# 6 0.0000 0.0000 0.0000 0.0000 0.0000 48.1220
#
#
#
# Elastic Compliance Matrix: (Units=1/GPa)
#
#
# Indices 1 2 3 4 5 6 
#
# 1 0.009803 -0.004442 -0.000487 0.000000 0.000000 0.000000
# 2 -0.004442 0.011686 -0.004116 0.000000 0.000000 0.000000
# 3 -0.000487 -0.004116 0.013579 0.000000 0.000000 0.000000
# 4 0.000000 0.000000 0.000000 0.042566 0.000000 0.000000
# 5 0.000000 0.000000 0.000000 0.000000 0.065050 0.000000
# 6 0.000000 0.000000 0.000000 0.000000 0.000000 0.020781
#
#
# Mechanical properties :
#
#
# Convention : Reuss Voigt Hill
#
# Bulk Modulus (GPa) = 58.89569 63.27878 61.08723
# Shear Modulus (GPa) = 26.70740 31.96854 29.33797
#
# Velocity S-wave (km/s) = 3.52063 3.85182 3.68994
# Velocity P-wave (km/s) = 6.62268 7.01068 6.81944
#
# Compressibility (1/GPa) = 0.01697917
#
# Stress axis : x y z
#
# Youngs Moduli (GPa) = 102.01103 85.56986 73.64165
#
# Poissons Ratio (x) = 0.38011 0.03586
# Poissons Ratio (y) = 0.45314 0.30309
# Poissons Ratio (z) = 0.04967 0.35218
#
# Static dielectric constant tensor:
#      x y z
#    x 4.233940 0.000000 0.000000 
#    y 0.000000 4.413780 0.000000 
#    z 0.000000 0.000000 3.311940 
# 
# 
# High freq. dielectric constant tensor:
#      x y z
#    x 1.862900 0.000000 0.000000 
#    y 0.000000 1.872300 0.000000 
#    z 0.000000 0.000000 1.778580 
# 
# From -- ./inp_files/18987.got.cif
#   From: 2010.03.12/outbox.cif.g09.slc.cpg/sg60_10_cif.got.tgz:18987.got - 2010.04.10 18:46:24.
