data_PCOD8247501
_publ_section_title
;
Structure prediction by ZEFSAII (Michael W. Deem and Ramdas Pophale) SiO2 
 PCOD8247501
Probable space group: P B C N
;
_chemical_formula_sum "Si O2"
_cell_formula_units_Z 40
_cell_length_a 4.976222
_cell_length_b 30.334601
_cell_length_c 12.697889
_cell_angle_alpha 90.000000
_cell_angle_beta 90.000000
_cell_angle_gamma 90.000000
_cell_volume 1916.768043
_symmetry_space_group_name_H-M "P B C N"
_symmetry_group_IT_number 60
_symmetry_cell_setting 'orthorhombic'
loop_
_space_group_symop_operation_xyz
x,y,z
1/2-x,1/2-y,1/2+z
1/2+x,1/2-y,-z
-x,y,1/2-z
-x,-y,-z
1/2+x,1/2+y,1/2-z
1/2-x,1/2+y,z
x,-y,1/2+z
loop_
_atom_site_type_symbol
_atom_site_label
_atom_site_fract_x
_atom_site_fract_y
_atom_site_fract_z
Si Si1 0.889608 0.938508 0.135998
Si Si2 0.974992 0.308876 0.472215
Si Si3 0.383794 0.091615 0.512456
Si Si4 0.254526 0.534088 0.317834
Si Si5 0.478263 0.730079 0.870191
O O1 0.587276 0.924557 0.103983
O O2 0.000000 0.922725 0.250000
O O3 0.081751 0.915420 0.051957
O O4 0.894794 0.991600 0.128372
O O5 0.957059 0.358238 0.515326
O O6 0.975991 0.276747 0.571663
O O7 0.725487 0.300369 0.398081
O O8 0.227746 0.300524 0.397761
O O9 0.388045 0.065999 0.401972
O O10 0.500000 0.556720 0.250000
O O11 0.000000 0.517503 0.250000
O O12 0.500000 0.743141 0.750000
#
# Coordination Sequence:
#
# PCOD8247501 Si02
#       5
#     8   8   8   8   8
#     4  11  23  39  59  87 121 160 201 242 297 356
#     4  10  23  38  59  92 115 147 202 236 285 364
#     4  12  23  39  62  89 122 155 197 256 298 340
#     4  11  23  41  61  86 120 161 204 241 293 357
#     4  10  21  41  62  82 119 157 185 237 298 349
#
# _framework density 20.868462000000001
#
# number of rings (size 3 to 8) (size 9 to 14) (size 15 to 20)
#    0.000    1.200    0.000    7.200    0.000    5.600 
#    0.000    4.000    0.000    0.000    0.000    0.000 
#    0.000    0.000    0.000    0.000    0.000    0.000 
#
# Total GULP energy -495901.336889 kJ/mol
# GULP energy per Si atom -12397.533422 kJ/mol
# Density = 2.082096 g / cm^3
# Si number density = 20.868462 Si / 1000 Ang^3
#
#
#
# Elastic Constant Matrix: (Units=GPa)
#
#
# Indices 1 2 3 4 5 6 
#
# 1 140.4095 30.3445 39.3577 0.0000 0.0000 0.0000
# 2 30.3445 124.5598 38.1867 0.0000 0.0000 0.0000
# 3 39.3577 38.1867 97.3917 0.0000 0.0000 0.0000
# 4 0.0000 0.0000 0.0000 10.4535 0.0000 0.0000
# 5 0.0000 0.0000 0.0000 0.0000 49.9592 0.0000
# 6 0.0000 0.0000 0.0000 0.0000 0.0000 39.1816
#
#
#
# Elastic Compliance Matrix: (Units=1/GPa)
#
#
# Indices 1 2 3 4 5 6 
#
# 1 0.008165 -0.001111 -0.002864 0.000000 0.000000 0.000000
# 2 -0.001111 0.009276 -0.003188 0.000000 0.000000 0.000000
# 3 -0.002864 -0.003188 0.012675 0.000000 0.000000 0.000000
# 4 0.000000 0.000000 0.000000 0.095662 0.000000 0.000000
# 5 0.000000 0.000000 0.000000 0.000000 0.020016 0.000000
# 6 0.000000 0.000000 0.000000 0.000000 0.000000 0.025522
#
#
# Mechanical properties :
#
#
# Convention : Reuss Voigt Hill
#
# Bulk Modulus (GPa) = 63.33080 64.23764 63.78422
# Shear Modulus (GPa) = 26.19082 36.88365 31.53724
#
# Velocity S-wave (km/s) = 3.54650 4.20865 3.89168
# Velocity P-wave (km/s) = 6.86904 7.38011 7.12915
#
# Compressibility (1/GPa) = 0.01579011
#
# Stress axis : x y z
#
# Youngs Moduli (GPa) = 122.47507 107.80086 78.89382
#
# Poissons Ratio (x) = 0.11978 0.22595
# Poissons Ratio (y) = 0.13608 0.25153
# Poissons Ratio (z) = 0.35076 0.34369
#
# Static dielectric constant tensor:
#      x y z
#    x 4.032000 0.000000 0.000000 
#    y 0.000000 3.545860 0.000000 
#    z 0.000000 0.000000 3.739670 
# 
# 
# High freq. dielectric constant tensor:
#      x y z
#    x 1.842070 0.000000 0.000000 
#    y 0.000000 1.805730 0.000000 
#    z 0.000000 0.000000 1.815270 
# 
# From -- ./inp_files/9096.got.cif
#   From: 2010.03.12/outbox.cif.g09.slc.cpg/sg60_5_cif.got.tgz:9096.got - 2010.04.10 18:46:24.
