data_PCOD8247833
_publ_section_title
;
Structure prediction by ZEFSAII (Michael W. Deem and Ramdas Pophale) SiO2 
 PCOD8247833
Probable space group: P B C N
;
_chemical_formula_sum "Si O2"
_cell_formula_units_Z 60
_cell_length_a 9.584823
_cell_length_b 16.124573
_cell_length_c 18.062745
_cell_angle_alpha 90.000000
_cell_angle_beta 90.000000
_cell_angle_gamma 90.000000
_cell_volume 2791.618520
_symmetry_space_group_name_H-M "P B C N"
_symmetry_group_IT_number 60
_symmetry_cell_setting 'orthorhombic'
loop_
_space_group_symop_operation_xyz
x,y,z
1/2-x,1/2-y,1/2+z
1/2+x,1/2-y,-z
-x,y,1/2-z
-x,-y,-z
1/2+x,1/2+y,1/2-z
1/2-x,1/2+y,z
x,-y,1/2+z
loop_
_atom_site_type_symbol
_atom_site_label
_atom_site_fract_x
_atom_site_fract_y
_atom_site_fract_z
Si Si1 0.629447 0.771933 0.051170
Si Si2 0.150722 0.894625 0.390517
Si Si3 0.129919 0.180262 0.300420
Si Si4 0.262316 0.339356 0.236676
Si Si5 0.148862 0.859680 0.075930
Si Si6 0.919477 0.413225 0.492930
Si Si7 0.500000 0.048537 0.750000
Si Si8 0.678525 0.951537 0.639717
O O1 0.774610 0.816492 0.070753
O O2 0.581707 0.712027 0.118441
O O3 0.651764 0.720884 0.976359
O O4 0.511076 0.841373 0.042926
O O5 0.144550 0.880897 0.301352
O O6 0.999890 0.906247 0.428703
O O7 0.236674 0.978224 0.405263
O O8 0.222831 0.247482 0.259794
O O9 0.220995 0.096858 0.304665
O O10 0.000000 0.156089 0.250000
O O11 0.345265 0.330460 0.160804
O O12 0.124287 0.393565 0.222055
O O13 0.276460 0.920863 0.054977
O O14 0.878345 0.388014 0.577231
O O15 0.000000 0.500000 0.500000
O O16 0.547814 0.991536 0.682016
#
# Coordination Sequence:
#
# PCOD8247833 Si02
#       8
#     8   8   8   8   8   8   4   8
#     4  11  24  45  68  98 139 181 225 289 344 415
#     4  10  24  45  66  95 143 178 225 290 345 405
#     4  11  23  43  67  97 139 181 229 284 345 411
#     4  10  22  42  70  96 130 188 228 279 342 424
#     4  12  24  41  70 105 134 176 231 283 356 404
#     4  12  24  44  70  96 137 183 229 275 347 416
#     4  10  22  46  72  94 136 184 234 270 354 410
#     4  11  24  44  67 101 134 178 231 293 331 417
#
# _framework density 21.492908
#
# number of rings (size 3 to 8) (size 9 to 14) (size 15 to 20)
#    0.000    1.067    3.333    2.800    3.733    3.733 
#    0.000    0.000    0.000    0.000    0.000    0.000 
#    0.000    0.000    0.000    0.000    0.000    0.000 
#
# Total GULP energy -744086.157431 kJ/mol
# GULP energy per Si atom -12401.435957 kJ/mol
# Density = 2.144399 g / cm^3
# Si number density = 21.492908 Si / 1000 Ang^3
#
#
#
# Elastic Constant Matrix: (Units=GPa)
#
#
# Indices 1 2 3 4 5 6 
#
# 1 135.8550 42.1380 45.1585 0.0000 0.0000 0.0000
# 2 42.1380 86.5666 29.8911 0.0000 0.0000 0.0000
# 3 45.1585 29.8911 109.9279 0.0000 0.0000 0.0000
# 4 0.0000 0.0000 0.0000 34.2137 0.0000 0.0000
# 5 0.0000 0.0000 0.0000 0.0000 38.4664 0.0000
# 6 0.0000 0.0000 0.0000 0.0000 0.0000 13.0505
#
#
#
# Elastic Compliance Matrix: (Units=1/GPa)
#
#
# Indices 1 2 3 4 5 6 
#
# 1 0.009440 -0.003593 -0.002901 0.000000 0.000000 0.000000
# 2 -0.003593 0.014117 -0.002362 0.000000 0.000000 0.000000
# 3 -0.002901 -0.002362 0.010931 0.000000 0.000000 0.000000
# 4 0.000000 0.000000 0.000000 0.029228 0.000000 0.000000
# 5 0.000000 0.000000 0.000000 0.000000 0.025997 0.000000
# 6 0.000000 0.000000 0.000000 0.000000 0.000000 0.076625
#
#
# Mechanical properties :
#
#
# Convention : Reuss Voigt Hill
#
# Bulk Modulus (GPa) = 59.61521 62.96941 61.29231
# Shear Modulus (GPa) = 26.36559 31.49024 28.92792
#
# Velocity S-wave (km/s) = 3.50624 3.83187 3.67267
# Velocity P-wave (km/s) = 6.64748 6.99565 6.82378
#
# Compressibility (1/GPa) = 0.01677424
#
# Stress axis : x y z
#
# Youngs Moduli (GPa) = 105.93777 70.83845 91.48417
#
# Poissons Ratio (x) = 0.25454 0.26537
# Poissons Ratio (y) = 0.38066 0.21612
# Poissons Ratio (z) = 0.30729 0.16735
#
# Static dielectric constant tensor:
#      x y z
#    x 3.958900 0.000000 0.000000 
#    y 0.000000 3.758300 0.000000 
#    z 0.000000 0.000000 4.092880 
# 
# 
# High freq. dielectric constant tensor:
#      x y z
#    x 1.847520 0.000000 0.000000 
#    y 0.000000 1.833740 0.000000 
#    z 0.000000 0.000000 1.855130 
# 
# From -- ./inp_files/19574.got.cif
#   From: 2010.03.12/outbox.cif.g09.slc.cpg/sg60_10_cif.got.tgz:19574.got - 2010.04.10 18:46:24.
