data_PCOD8247899
_publ_section_title
;
Structure prediction by ZEFSAII (Michael W. Deem and Ramdas Pophale) SiO2 
 PCOD8247899
Probable space group: P B C N
;
_chemical_formula_sum "Si O2"
_cell_formula_units_Z 60
_cell_length_a 8.587139
_cell_length_b 14.058315
_cell_length_c 22.577236
_cell_angle_alpha 90.000000
_cell_angle_beta 90.000000
_cell_angle_gamma 90.000000
_cell_volume 2725.539847
_symmetry_space_group_name_H-M "P B C N"
_symmetry_group_IT_number 60
_symmetry_cell_setting 'orthorhombic'
loop_
_space_group_symop_operation_xyz
x,y,z
1/2-x,1/2-y,1/2+z
1/2+x,1/2-y,-z
-x,y,1/2-z
-x,-y,-z
1/2+x,1/2+y,1/2-z
1/2-x,1/2+y,z
x,-y,1/2+z
loop_
_atom_site_type_symbol
_atom_site_label
_atom_site_fract_x
_atom_site_fract_y
_atom_site_fract_z
Si Si1 0.337233 0.573266 0.766857
Si Si2 0.500000 0.744043 0.250000
Si Si3 0.683141 0.704799 0.549584
Si Si4 0.709623 0.228421 0.180451
Si Si5 0.874996 0.464993 0.644908
Si Si6 0.178047 0.496623 0.480428
Si Si7 0.818599 0.156257 0.953279
Si Si8 0.636428 0.888146 0.339683
O O1 0.500000 0.525329 0.750000
O O2 0.364679 0.684463 0.783487
O O3 0.257440 0.522474 0.821310
O O4 0.239564 0.558228 0.708118
O O5 0.355132 0.687286 0.278977
O O6 0.536401 0.809329 0.306603
O O7 0.750289 0.736719 0.613593
O O8 0.772693 0.611273 0.529254
O O9 0.497419 0.687232 0.552198
O O10 0.719831 0.781621 0.499355
O O11 0.593015 0.137597 0.175804
O O12 0.805280 0.443874 0.580365
O O13 0.028456 0.527854 0.635007
O O14 0.296733 0.546204 0.526761
O O15 0.000000 0.500000 0.500000
O O16 0.739532 0.164703 0.888913
#
# Coordination Sequence:
#
# PCOD8247899 Si02
#       8
#     8   4   8   8   8   8   8   8
#     4  11  24  45  68  99 142 183 234 297 352 419
#     4  10  22  46  72 100 140 198 226 298 356 426
#     4  12  26  46  70 108 146 193 238 302 368 438
#     4  11  24  43  73 103 141 183 242 288 362 425
#     4  12  23  42  74 101 136 188 234 291 358 432
#     4  12  24  45  71 101 145 188 239 293 361 436
#     4  12  27  43  72 107 145 187 246 294 370 435
#     4  11  22  44  71  98 139 187 232 290 362 422
#
# _framework density 22.013988000000001
#
# number of rings (size 3 to 8) (size 9 to 14) (size 15 to 20)
#    0.000    0.533    6.667    2.000    2.800    1.067 
#    0.000    2.667    0.000    0.000    0.000    0.000 
#    0.000    0.000    0.000    0.000    0.000    0.000 
#
# Total GULP energy -743650.897032 kJ/mol
# GULP energy per Si atom -12394.181617 kJ/mol
# Density = 2.196388 g / cm^3
# Si number density = 22.013988 Si / 1000 Ang^3
#
#
#
# Elastic Constant Matrix: (Units=GPa)
#
#
# Indices 1 2 3 4 5 6 
#
# 1 105.3203 27.6137 38.9610 0.0000 0.0000 0.0000
# 2 27.6137 86.4489 21.8307 0.0000 0.0000 0.0000
# 3 38.9610 21.8307 126.9316 0.0000 0.0000 0.0000
# 4 0.0000 0.0000 0.0000 28.5049 0.0000 0.0000
# 5 0.0000 0.0000 0.0000 0.0000 32.3830 0.0000
# 6 0.0000 0.0000 0.0000 0.0000 0.0000 37.8333
#
#
#
# Elastic Compliance Matrix: (Units=1/GPa)
#
#
# Indices 1 2 3 4 5 6 
#
# 1 0.011354 -0.002871 -0.002991 0.000000 0.000000 0.000000
# 2 -0.002871 0.012819 -0.001323 0.000000 0.000000 0.000000
# 3 -0.002991 -0.001323 0.009024 0.000000 0.000000 0.000000
# 4 0.000000 0.000000 0.000000 0.035082 0.000000 0.000000
# 5 0.000000 0.000000 0.000000 0.000000 0.030880 0.000000
# 6 0.000000 0.000000 0.000000 0.000000 0.000000 0.026432
#
#
# Mechanical properties :
#
#
# Convention : Reuss Voigt Hill
#
# Bulk Modulus (GPa) = 53.12055 55.05685 54.08870
# Shear Modulus (GPa) = 34.19080 35.09725 34.64402
#
# Velocity S-wave (km/s) = 3.94526 3.99722 3.97133
# Velocity P-wave (km/s) = 6.70345 6.80940 6.75663
#
# Compressibility (1/GPa) = 0.01882511
#
# Stress axis : x y z
#
# Youngs Moduli (GPa) = 88.07272 78.00982 110.81546
#
# Poissons Ratio (x) = 0.22400 0.33148
# Poissons Ratio (y) = 0.25289 0.14665
# Poissons Ratio (z) = 0.26345 0.10323
#
# Static dielectric constant tensor:
#      x y z
#    x 3.898810 0.000000 0.000000 
#    y 0.000000 3.980750 0.000000 
#    z 0.000000 0.000000 4.277400 
# 
# 
# High freq. dielectric constant tensor:
#      x y z
#    x 1.859350 0.000000 0.000000 
#    y 0.000000 1.863320 0.000000 
#    z 0.000000 0.000000 1.887380 
# 
# From -- ./inp_files/24052.got.cif
#   From: 2010.03.12/outbox.cif.g09.slc.cpg/sg60_13_cif.got.tgz:24052.got - 2010.04.10 18:46:24.
