data_PCOD8247910
_publ_section_title
;
Structure prediction by ZEFSAII (Michael W. Deem and Ramdas Pophale) SiO2 
 PCOD8247910
Probable space group: P B C N
;
_chemical_formula_sum "Si O2"
_cell_formula_units_Z 32
_cell_length_a 7.911023
_cell_length_b 15.631302
_cell_length_c 10.176691
_cell_angle_alpha 90.000000
_cell_angle_beta 90.000000
_cell_angle_gamma 90.000000
_cell_volume 1258.445433
_symmetry_space_group_name_H-M "P B C N"
_symmetry_group_IT_number 60
_symmetry_cell_setting 'orthorhombic'
loop_
_space_group_symop_operation_xyz
x,y,z
1/2-x,1/2-y,1/2+z
1/2+x,1/2-y,-z
-x,y,1/2-z
-x,-y,-z
1/2+x,1/2+y,1/2-z
1/2-x,1/2+y,z
x,-y,1/2+z
loop_
_atom_site_type_symbol
_atom_site_label
_atom_site_fract_x
_atom_site_fract_y
_atom_site_fract_z
Si Si1 0.482491 0.651375 0.105990
Si Si2 0.655360 0.185607 0.518628
Si Si3 0.879611 0.045788 0.624326
Si Si4 0.575590 0.062135 0.108110
O O1 0.500000 0.611783 0.250000
O O2 0.625708 0.722218 0.082491
O O3 0.488233 0.568051 0.008865
O O4 0.298776 0.696186 0.093257
O O5 0.729068 0.118345 0.628666
O O6 0.482200 0.155525 0.444666
O O7 0.000000 0.055488 0.750000
O O8 0.779379 0.953188 0.618127
O O9 0.500000 0.041878 0.250000
O O10 0.500000 0.000000 0.000000
#
# Coordination Sequence:
#
# PCOD8247910 Si02
#       4
#     8   8   8   8
#     4  10  23  42  71 108 142 184 233 294 356 436
#     4   9  23  41  71 101 142 186 236 289 363 420
#     4   9  22  44  70 106 140 183 238 292 354 430
#     4  10  22  48  70  99 139 191 231 293 359 422
#
# _framework density 25.428197000000001
#
# number of rings (size 3 to 8) (size 9 to 14) (size 15 to 20)
#    1.500    1.000    0.000    0.000    3.500    7.000 
#    4.500    8.750    0.000    0.000    0.000    0.000 
#    0.000    0.000    0.000    0.000    0.000    0.000 
#
# Total GULP energy -396470.214152 kJ/mol
# GULP energy per Si atom -12389.694192 kJ/mol
# Density = 2.537032 g / cm^3
# Si number density = 25.428197 Si / 1000 Ang^3
#
#
#
# Elastic Constant Matrix: (Units=GPa)
#
#
# Indices 1 2 3 4 5 6 
#
# 1 165.2586 53.1325 73.9215 0.0000 0.0000 0.0000
# 2 53.1325 143.9281 51.4140 0.0000 0.0000 0.0000
# 3 73.9215 51.4140 215.4989 0.0000 0.0000 0.0000
# 4 0.0000 0.0000 0.0000 -14.9140 0.0000 0.0000
# 5 0.0000 0.0000 0.0000 0.0000 50.8919 0.0000
# 6 0.0000 0.0000 0.0000 0.0000 0.0000 55.8811
#
#
#
# Elastic Compliance Matrix: (Units=1/GPa)
#
#
# Indices 1 2 3 4 5 6 
#
# 1 0.007673 -0.002069 -0.002138 0.000000 0.000000 0.000000
# 2 -0.002069 0.008153 -0.001236 0.000000 0.000000 0.000000
# 3 -0.002138 -0.001236 0.005669 0.000000 0.000000 0.000000
# 4 0.000000 0.000000 0.000000 -0.067051 0.000000 0.000000
# 5 0.000000 0.000000 0.000000 0.000000 0.019649 0.000000
# 6 0.000000 0.000000 0.000000 0.000000 0.000000 0.017895
#
#
# Mechanical properties :
#
#
# Convention : Reuss Voigt Hill
#
# Bulk Modulus (GPa) = 94.25738 97.95793 96.10765
# Shear Modulus (GPa) = 780.11161 41.45298 410.78229
#
# Velocity S-wave (km/s) = 17.53442 4.04195 12.72386
# Velocity P-wave (km/s) = 21.14450 7.77111 15.92922
#
# Compressibility (1/GPa) = 0.01060925
#
# Stress axis : x y z
#
# Youngs Moduli (GPa) = 130.33193 122.65548 176.40725
#
# Poissons Ratio (x) = 0.25372 0.37723
# Poissons Ratio (y) = 0.26960 0.21796
# Poissons Ratio (z) = 0.27870 0.15155
#
# Static dielectric constant tensor:
#      x y z
#    x 5.126920 0.000000 0.000000 
#    y 0.000000 4.516280 0.000000 
#    z 0.000000 0.000000 4.127500 
# 
# 
# High freq. dielectric constant tensor:
#      x y z
#    x 2.049890 0.000000 0.000000 
#    y 0.000000 2.029580 0.000000 
#    z 0.000000 0.000000 2.000490 
# 
# From -- ./inp_files/9517.got.cif
#   From: 2010.03.12/outbox.cif.g09.slc.cpg/sg60_5_cif.got.tgz:9517.got - 2010.04.10 18:46:24.
