data_PCOD8247691
_publ_section_title
;
Structure prediction by ZEFSAII (Michael W. Deem and Ramdas Pophale) SiO2 
 PCOD8247691
Probable space group: P B C N
;
_chemical_formula_sum "Si O2"
_cell_formula_units_Z 40
_cell_length_a 18.698062
_cell_length_b 18.131118
_cell_length_c 5.340055
_cell_angle_alpha 90.000000
_cell_angle_beta 90.000000
_cell_angle_gamma 90.000000
_cell_volume 1810.368190
_symmetry_space_group_name_H-M "P B C N"
_symmetry_group_IT_number 60
_symmetry_cell_setting 'orthorhombic'
loop_
_space_group_symop_operation_xyz
x,y,z
1/2-x,1/2-y,1/2+z
1/2+x,1/2-y,-z
-x,y,1/2-z
-x,-y,-z
1/2+x,1/2+y,1/2-z
1/2-x,1/2+y,z
x,-y,1/2+z
loop_
_atom_site_type_symbol
_atom_site_label
_atom_site_fract_x
_atom_site_fract_y
_atom_site_fract_z
Si Si1 0.610306 0.338623 0.083524
Si Si2 0.257064 0.205015 0.905155
Si Si3 0.096993 0.691545 0.118354
Si Si4 0.000000 0.770188 0.750000
Si Si5 0.500000 0.548561 0.750000
Si Si6 0.580783 0.968380 0.736495
O O1 0.694498 0.357635 0.042532
O O2 0.618052 0.258616 0.206401
O O3 0.570811 0.399817 0.253716
O O4 0.564072 0.325595 0.831665
O O5 0.253966 0.232727 0.618876
O O6 0.336255 0.171111 0.937461
O O7 0.080270 0.619968 0.282089
O O8 0.025927 0.716497 0.970107
O O9 0.500000 0.500000 0.500000
O O10 0.500000 0.999650 0.750000
O O11 0.619449 0.001838 0.489905
#
# Coordination Sequence:
#
# PCOD8247691 Si02
#       6
#     8   8   8   4   4   8
#     4  11  23  41  65  97 127 172 220 277 332 391
#     4  10  22  39  62  96 132 163 213 277 332 382
#     4  11  23  38  66  97 126 171 221 269 320 391
#     4  12  19  36  68  99 122 160 226 268 315 378
#     4  12  27  44  66  99 134 170 222 284 339 396
#     4  10  23  38  56  89 130 167 201 255 312 373
#
# _framework density 22.094953
#
# number of rings (size 3 to 8) (size 9 to 14) (size 15 to 20)
#    0.000    1.200    4.000    1.800    7.000    0.000 
#    0.000    2.000    0.000    0.000    0.000    0.000 
#    0.000    0.000    0.000    0.000    0.000    0.000 
#
# Total GULP energy -495666.679613 kJ/mol
# GULP energy per Si atom -12391.666990 kJ/mol
# Density = 2.204466 g / cm^3
# Si number density = 22.094953 Si / 1000 Ang^3
#
#
#
# Elastic Constant Matrix: (Units=GPa)
#
#
# Indices 1 2 3 4 5 6 
#
# 1 96.9130 3.6627 -4.7003 0.0000 0.0000 0.0000
# 2 3.6627 99.1837 38.5613 0.0000 0.0000 0.0000
# 3 -4.7003 38.5613 114.4726 0.0000 0.0000 0.0000
# 4 0.0000 0.0000 0.0000 35.6216 0.0000 0.0000
# 5 0.0000 0.0000 0.0000 0.0000 31.4135 0.0000
# 6 0.0000 0.0000 0.0000 0.0000 0.0000 7.1963
#
#
#
# Elastic Compliance Matrix: (Units=1/GPa)
#
#
# Indices 1 2 3 4 5 6 
#
# 1 0.010373 -0.000631 0.000639 0.000000 0.000000 0.000000
# 2 -0.000631 0.011640 -0.003947 0.000000 0.000000 0.000000
# 3 0.000639 -0.003947 0.010092 0.000000 0.000000 0.000000
# 4 0.000000 0.000000 0.000000 0.028073 0.000000 0.000000
# 5 0.000000 0.000000 0.000000 0.000000 0.031833 0.000000
# 6 0.000000 0.000000 0.000000 0.000000 0.000000 0.138961
#
#
# Mechanical properties :
#
#
# Convention : Reuss Voigt Hill
#
# Bulk Modulus (GPa) = 41.27878 42.84629 42.06254
# Shear Modulus (GPa) = 20.24892 33.04931 26.64911
#
# Velocity S-wave (km/s) = 3.03058 3.87173 3.47669
# Velocity P-wave (km/s) = 5.56497 6.27862 5.93254
#
# Compressibility (1/GPa) = 0.02422552
#
# Stress axis : x y z
#
# Youngs Moduli (GPa) = 96.40067 85.90934 99.09287
#
# Poissons Ratio (x) = 0.05424 -0.06328
# Poissons Ratio (y) = 0.06086 0.39112
# Poissons Ratio (z) = -0.06156 0.33909
#
# Static dielectric constant tensor:
#      x y z
#    x 4.790470 0.000000 0.000000 
#    y 0.000000 3.649680 0.000000 
#    z 0.000000 0.000000 4.187390 
# 
# 
# High freq. dielectric constant tensor:
#      x y z
#    x 1.869560 0.000000 0.000000 
#    y 0.000000 1.830380 0.000000 
#    z 0.000000 0.000000 1.879360 
# 
# From -- ./inp_files/1654.got.cif
#   From: 2010.03.12/outbox.cif.g09.slc.cpg/sg60_1_cif.got.tgz:1654.got - 2010.04.10 18:46:24.
