data_PCOD8247424
_publ_section_title
;
Structure prediction by ZEFSAII (Michael W. Deem and Ramdas Pophale) SiO2 
 PCOD8247424
Probable space group: P B C N
;
_chemical_formula_sum "Si O2"
_cell_formula_units_Z 48
_cell_length_a 12.138412
_cell_length_b 13.761638
_cell_length_c 13.876103
_cell_angle_alpha 90.000000
_cell_angle_beta 90.000000
_cell_angle_gamma 90.000000
_cell_volume 2317.925742
_symmetry_space_group_name_H-M "P B C N"
_symmetry_group_IT_number 60
_symmetry_cell_setting 'orthorhombic'
loop_
_space_group_symop_operation_xyz
x,y,z
1/2-x,1/2-y,1/2+z
1/2+x,1/2-y,-z
-x,y,1/2-z
-x,-y,-z
1/2+x,1/2+y,1/2-z
1/2-x,1/2+y,z
x,-y,1/2+z
loop_
_atom_site_type_symbol
_atom_site_label
_atom_site_fract_x
_atom_site_fract_y
_atom_site_fract_z
Si Si1 0.142897 0.288757 0.084962
Si Si2 0.703346 0.442848 0.316855
Si Si3 0.500000 0.817613 0.250000
Si Si4 0.471672 0.839886 0.892159
Si Si5 0.000000 0.175066 0.750000
Si Si6 0.850126 0.534579 0.641774
Si Si7 0.214168 0.391245 0.563234
O O1 0.213591 0.380193 0.118819
O O2 0.077810 0.251616 0.181456
O O3 0.222058 0.207884 0.040665
O O4 0.057421 0.321636 0.003302
O O5 0.584673 0.392730 0.308647
O O6 0.743296 0.459400 0.208357
O O7 0.702310 0.546298 0.370623
O O8 0.563025 0.884786 0.173630
O O9 0.442107 0.744561 0.829181
O O10 0.600690 0.866231 0.881880
O O11 0.402671 0.928366 0.848712
O O12 0.811440 0.551561 0.533665
#
# Coordination Sequence:
#
# PCOD8247424 Si02
#       7
#     8   8   4   8   4   8   8
#     4  11  23  42  68 100 135 176 226 282 331 401
#     4  11  25  44  64  98 139 172 225 278 336 405
#     4  10  21  39  64  96 136 172 224 278 336 388
#     4  12  22  43  72  99 129 179 230 277 335 397
#     4  12  25  45  66 100 138 180 216 278 354 404
#     4  11  22  40  68  99 125 174 230 283 322 392
#     4  12  23  43  68 102 135 176 224 279 335 397
#
# _framework density 20.708171
#
# number of rings (size 3 to 8) (size 9 to 14) (size 15 to 20)
#    0.000    0.667    5.000    5.000    0.000    0.667 
#    0.000    6.667    0.000    0.000    0.000    0.000 
#    0.000    0.000    0.000    0.000    0.000    0.000 
#
# Total GULP energy -595267.787082 kJ/mol
# GULP energy per Si atom -12401.412231 kJ/mol
# Density = 2.066104 g / cm^3
# Si number density = 20.708171 Si / 1000 Ang^3
#
#
#
# Elastic Constant Matrix: (Units=GPa)
#
#
# Indices 1 2 3 4 5 6 
#
# 1 74.2951 37.8057 29.9545 0.0000 0.0000 0.0000
# 2 37.8057 81.8114 26.2859 0.0000 0.0000 0.0000
# 3 29.9545 26.2859 86.4868 0.0000 0.0000 0.0000
# 4 0.0000 0.0000 0.0000 97.2746 0.0000 0.0000
# 5 0.0000 0.0000 0.0000 0.0000 26.3211 0.0000
# 6 0.0000 0.0000 0.0000 0.0000 0.0000 39.1092
#
#
#
# Elastic Compliance Matrix: (Units=1/GPa)
#
#
# Indices 1 2 3 4 5 6 
#
# 1 0.018953 -0.007369 -0.004325 0.000000 0.000000 0.000000
# 2 -0.007369 0.016411 -0.002436 0.000000 0.000000 0.000000
# 3 -0.004325 -0.002436 0.013801 0.000000 0.000000 0.000000
# 4 0.000000 0.000000 0.000000 0.010280 0.000000 0.000000
# 5 0.000000 0.000000 0.000000 0.000000 0.037992 0.000000
# 6 0.000000 0.000000 0.000000 0.000000 0.000000 0.025569
#
#
# Mechanical properties :
#
#
# Convention : Reuss Voigt Hill
#
# Bulk Modulus (GPa) = 47.83251 47.85396 47.84323
# Shear Modulus (GPa) = 31.59877 42.44414 37.02146
#
# Velocity S-wave (km/s) = 3.91053 4.53220 4.23279
# Velocity P-wave (km/s) = 6.59834 7.10962 6.85875
#
# Compressibility (1/GPa) = 0.02090629
#
# Stress axis : x y z
#
# Youngs Moduli (GPa) = 52.76148 60.93471 72.46069
#
# Poissons Ratio (x) = 0.44902 0.31338
# Poissons Ratio (y) = 0.38879 0.17649
# Poissons Ratio (z) = 0.22818 0.14841
#
# Static dielectric constant tensor:
#      x y z
#    x 3.669020 0.000000 0.000000 
#    y 0.000000 3.637230 0.000000 
#    z 0.000000 0.000000 3.798950 
# 
# 
# High freq. dielectric constant tensor:
#      x y z
#    x 1.798580 0.000000 0.000000 
#    y 0.000000 1.803730 0.000000 
#    z 0.000000 0.000000 1.828660 
# 
# From -- ./inp_files/16123.got.cif
#   From: 2010.03.12/outbox.cif.g09.slc.cpg/sg60_9_cif.got.tgz:16123.got - 2010.04.10 18:46:24.
