data_PCOD8247944
_publ_section_title
;
Structure prediction by ZEFSAII (Michael W. Deem and Ramdas Pophale) SiO2 
 PCOD8247944
Probable space group: P B C N
;
_chemical_formula_sum "Si O2"
_cell_formula_units_Z 40
_cell_length_a 15.150625
_cell_length_b 14.513396
_cell_length_c 8.082431
_cell_angle_alpha 90.000000
_cell_angle_beta 90.000000
_cell_angle_gamma 90.000000
_cell_volume 1777.221669
_symmetry_space_group_name_H-M "P B C N"
_symmetry_group_IT_number 60
_symmetry_cell_setting 'orthorhombic'
loop_
_space_group_symop_operation_xyz
x,y,z
1/2-x,1/2-y,1/2+z
1/2+x,1/2-y,-z
-x,y,1/2-z
-x,-y,-z
1/2+x,1/2+y,1/2-z
1/2-x,1/2+y,z
x,-y,1/2+z
loop_
_atom_site_type_symbol
_atom_site_label
_atom_site_fract_x
_atom_site_fract_y
_atom_site_fract_z
Si Si1 0.000000 0.487702 0.250000
Si Si2 0.686037 0.223198 0.193598
Si Si3 0.500000 0.716728 0.750000
Si Si4 0.036548 0.092937 0.067000
Si Si5 0.266265 0.387189 0.520251
Si Si6 0.367671 0.940430 0.002371
O O1 0.951260 0.552629 0.119522
O O2 0.918354 0.427487 0.323336
O O3 0.588122 0.224444 0.270590
O O4 0.745732 0.183733 0.335832
O O5 0.687905 0.151199 0.038803
O O6 0.722784 0.324555 0.144916
O O7 0.511277 0.665670 0.573913
O O8 0.140481 0.072236 0.075936
O O9 0.000000 0.120171 0.250000
O O10 0.000000 0.000000 0.000000
O O11 0.195698 0.469257 0.498828
#
# Coordination Sequence:
#
# PCOD8247944 Si02
#       6
#     4   8   4   8   8   8
#     4  10  23  40  72 103 132 190 225 278 356 433
#     4  11  26  46  69 104 141 182 233 299 355 426
#     4  10  25  48  68 105 148 184 241 302 354 433
#     4  11  25  46  75 101 139 196 244 296 362 424
#     4  11  28  43  71 105 135 187 233 299 353 429
#     4  11  23  46  70 100 144 179 233 286 359 423
#
# _framework density 22.507041000000001
#
# number of rings (size 3 to 8) (size 9 to 14) (size 15 to 20)
#    0.000    1.200    3.000    0.600   11.200    0.000 
#    7.200    0.000    0.000    0.000    0.000    0.000 
#    0.000    0.000    0.000    0.000    0.000    0.000 
#
# Total GULP energy -495530.134110 kJ/mol
# GULP energy per Si atom -12388.253353 kJ/mol
# Density = 2.245581 g / cm^3
# Si number density = 22.507041 Si / 1000 Ang^3
#
#
#
# Elastic Constant Matrix: (Units=GPa)
#
#
# Indices 1 2 3 4 5 6 
#
# 1 151.1019 58.9027 45.6849 0.0000 0.0000 0.0000
# 2 58.9027 77.8498 15.0068 0.0000 0.0000 0.0000
# 3 45.6849 15.0068 102.8852 0.0000 0.0000 0.0000
# 4 0.0000 0.0000 0.0000 21.1657 0.0000 0.0000
# 5 0.0000 0.0000 0.0000 0.0000 44.1247 0.0000
# 6 0.0000 0.0000 0.0000 0.0000 0.0000 20.0624
#
#
#
# Elastic Compliance Matrix: (Units=1/GPa)
#
#
# Indices 1 2 3 4 5 6 
#
# 1 0.010554 -0.007287 -0.003624 0.000000 0.000000 0.000000
# 2 -0.007287 0.018248 0.000574 0.000000 0.000000 0.000000
# 3 -0.003624 0.000574 0.011245 0.000000 0.000000 0.000000
# 4 0.000000 0.000000 0.000000 0.047246 0.000000 0.000000
# 5 0.000000 0.000000 0.000000 0.000000 0.022663 0.000000
# 6 0.000000 0.000000 0.000000 0.000000 0.000000 0.049845
#
#
# Mechanical properties :
#
#
# Convention : Reuss Voigt Hill
#
# Bulk Modulus (GPa) = 51.61546 63.44728 57.53137
# Shear Modulus (GPa) = 26.74766 31.22007 28.98386
#
# Velocity S-wave (km/s) = 3.45108 3.72845 3.59244
# Velocity P-wave (km/s) = 6.23400 6.84005 6.54404
#
# Compressibility (1/GPa) = 0.01937404
#
# Stress axis : x y z
#
# Youngs Moduli (GPa) = 94.74832 54.80013 88.92958
#
# Poissons Ratio (x) = 0.39933 0.32225
# Poissons Ratio (y) = 0.69044 -0.05105
# Poissons Ratio (z) = 0.34333 -0.03146
#
# Static dielectric constant tensor:
#      x y z
#    x 4.197050 0.000000 0.000000 
#    y 0.000000 3.653460 0.000000 
#    z 0.000000 0.000000 4.292010 
# 
# 
# High freq. dielectric constant tensor:
#      x y z
#    x 1.906150 0.000000 0.000000 
#    y 0.000000 1.878030 0.000000 
#    z 0.000000 0.000000 1.895650 
# 
# From -- ./inp_files/5710.got.cif
#   From: 2010.03.12/outbox.cif.g09.slc.cpg/sg60_3_cif.got.tgz:5710.got - 2010.04.10 18:46:24.
