data_PCOD8247316
_publ_section_title
;
Structure prediction by ZEFSAII (Michael W. Deem and Ramdas Pophale) SiO2 
 PCOD8247316
Probable space group: P B C N
;
_chemical_formula_sum "Si O2"
_cell_formula_units_Z 44
_cell_length_a 18.647484
_cell_length_b 13.644004
_cell_length_c 9.098455
_cell_angle_alpha 90.000000
_cell_angle_beta 90.000000
_cell_angle_gamma 90.000000
_cell_volume 2314.886662
_symmetry_space_group_name_H-M "P B C N"
_symmetry_group_IT_number 60
_symmetry_cell_setting 'orthorhombic'
loop_
_space_group_symop_operation_xyz
x,y,z
1/2-x,1/2-y,1/2+z
1/2+x,1/2-y,-z
-x,y,1/2-z
-x,-y,-z
1/2+x,1/2+y,1/2-z
1/2-x,1/2+y,z
x,-y,1/2+z
loop_
_atom_site_type_symbol
_atom_site_label
_atom_site_fract_x
_atom_site_fract_y
_atom_site_fract_z
Si Si1 0.653049 0.278399 0.874776
Si Si2 0.236649 0.411957 0.131869
Si Si3 0.273455 0.892176 0.472480
Si Si4 0.978181 0.865509 0.984336
Si Si5 0.500000 0.479241 0.250000
Si Si6 0.357240 0.698017 0.462251
O O1 0.677418 0.168724 0.903409
O O2 0.697923 0.352885 0.971954
O O3 0.661118 0.316090 0.708394
O O4 0.571698 0.276314 0.934817
O O5 0.206068 0.511818 0.064167
O O6 0.241478 0.423291 0.305996
O O7 0.312365 0.378578 0.060724
O O8 0.336184 0.811028 0.499846
O O9 0.958790 0.950742 0.864880
O O10 0.953660 0.907486 0.143989
O O11 0.059466 0.826371 0.989244
#
# Coordination Sequence:
#
# PCOD8247316 Si02
#       6
#     8   8   8   8   4   8
#     4  10  21  38  58  82 112 146 182 230 273 326
#     4  10  22  37  57  81 112 148 186 225 273 324
#     4  10  22  37  57  81 112 148 186 225 273 324
#     4  11  22  38  55  86 111 142 182 225 277 331
#     4  10  24  34  56  86 114 144 172 220 290 330
#     4  10  21  38  58  82 112 146 182 230 273 326
#
# _framework density 19.007411999999999
#
# number of rings (size 3 to 8) (size 9 to 14) (size 15 to 20)
#    0.000    1.818    1.818    1.091    7.636    1.455 
#    0.000    0.909    0.000    0.000    0.000    0.000 
#    0.000    0.000    0.000    0.000    0.000    0.000 
#
# Total GULP energy -545240.201742 kJ/mol
# GULP energy per Si atom -12391.822767 kJ/mol
# Density = 1.896415 g / cm^3
# Si number density = 19.007412 Si / 1000 Ang^3
#
#
#
# Elastic Constant Matrix: (Units=GPa)
#
#
# Indices 1 2 3 4 5 6 
#
# 1 98.6743 45.0285 35.7446 0.0000 0.0000 0.0000
# 2 45.0285 114.8310 64.2091 0.0000 0.0000 0.0000
# 3 35.7446 64.2091 127.0457 0.0000 0.0000 0.0000
# 4 0.0000 0.0000 0.0000 36.2376 0.0000 0.0000
# 5 0.0000 0.0000 0.0000 0.0000 19.1918 0.0000
# 6 0.0000 0.0000 0.0000 0.0000 0.0000 12.7758
#
#
#
# Elastic Compliance Matrix: (Units=1/GPa)
#
#
# Indices 1 2 3 4 5 6 
#
# 1 0.012533 -0.004102 -0.001453 0.000000 0.000000 0.000000
# 2 -0.004102 0.013482 -0.005659 0.000000 0.000000 0.000000
# 3 -0.001453 -0.005659 0.011140 0.000000 0.000000 0.000000
# 4 0.000000 0.000000 0.000000 0.027596 0.000000 0.000000
# 5 0.000000 0.000000 0.000000 0.000000 0.052106 0.000000
# 6 0.000000 0.000000 0.000000 0.000000 0.000000 0.078273
#
#
# Mechanical properties :
#
#
# Convention : Reuss Voigt Hill
#
# Bulk Modulus (GPa) = 67.90890 70.05727 68.98308
# Shear Modulus (GPa) = 22.47534 26.67894 24.57714
#
# Velocity S-wave (km/s) = 3.44241 3.75054 3.59977
# Velocity P-wave (km/s) = 7.18369 7.46279 7.32457
#
# Compressibility (1/GPa) = 0.01472561
#
# Stress axis : x y z
#
# Youngs Moduli (GPa) = 79.79233 74.17566 89.76435
#
# Poissons Ratio (x) = 0.30426 0.13042
# Poissons Ratio (y) = 0.32730 0.50802
# Poissons Ratio (z) = 0.11593 0.41980
#
# Static dielectric constant tensor:
#      x y z
#    x 3.265890 0.000000 0.000000 
#    y 0.000000 3.645370 0.000000 
#    z 0.000000 0.000000 3.823520 
# 
# 
# High freq. dielectric constant tensor:
#      x y z
#    x 1.714460 0.000000 0.000000 
#    y 0.000000 1.737150 0.000000 
#    z 0.000000 0.000000 1.763210 
# 
# From -- ./inp_files/6660.got.cif
#   From: 2010.03.12/outbox.cif.g09.slc.cpg/sg60_4_cif.got.tgz:6660.got - 2010.04.10 18:46:24.
