data_PCOD8247663
_publ_section_title
;
Structure prediction by ZEFSAII (Michael W. Deem and Ramdas Pophale) SiO2 
 PCOD8247663
Probable space group: P B C N
;
_chemical_formula_sum "Si O2"
_cell_formula_units_Z 48
_cell_length_a 9.028668
_cell_length_b 27.835290
_cell_length_c 9.295446
_cell_angle_alpha 90.000000
_cell_angle_beta 90.000000
_cell_angle_gamma 90.000000
_cell_volume 2336.090515
_symmetry_space_group_name_H-M "P B C N"
_symmetry_group_IT_number 60
_symmetry_cell_setting 'orthorhombic'
loop_
_space_group_symop_operation_xyz
x,y,z
1/2-x,1/2-y,1/2+z
1/2+x,1/2-y,-z
-x,y,1/2-z
-x,-y,-z
1/2+x,1/2+y,1/2-z
1/2-x,1/2+y,z
x,-y,1/2+z
loop_
_atom_site_type_symbol
_atom_site_label
_atom_site_fract_x
_atom_site_fract_y
_atom_site_fract_z
Si Si1 0.176018 0.148654 0.246205
Si Si2 0.844655 0.953608 0.667006
Si Si3 0.352234 0.205812 0.464878
Si Si4 0.307139 0.802835 0.499607
Si Si5 0.663989 0.862049 0.276995
Si Si6 0.158423 0.956748 0.176353
O O1 0.233445 0.097932 0.310842
O O2 0.260528 0.192990 0.322177
O O3 0.232909 0.152448 0.083159
O O4 0.000000 0.156048 0.250000
O O5 0.855481 0.963451 0.495769
O O6 0.000000 0.948073 0.750000
O O7 0.758061 0.997118 0.749431
O O8 0.528486 0.209018 0.442464
O O9 0.295517 0.256584 0.522907
O O10 0.313991 0.162416 0.570531
O O11 0.301729 0.819918 0.335703
O O12 0.500000 0.882017 0.250000
O O13 0.768165 0.907922 0.271994
O O14 0.000000 0.956516 0.250000
#
# Coordination Sequence:
#
# PCOD8247663 Si02
#       6
#     8   8   8   8   8   8
#     4  11  23  39  62  93 128 162 210 258 308 372
#     4  10  22  38  63  96 127 156 207 260 309 368
#     4  11  22  44  60  95 123 166 213 257 319 367
#     4  11  24  38  68  87 128 166 208 263 310 378
#     4  10  24  42  60  89 128 162 202 258 314 370
#     4  11  22  39  67  92 124 161 210 256 310 372
#
# _framework density 20.547149000000001
#
# number of rings (size 3 to 8) (size 9 to 14) (size 15 to 20)
#    0.000    1.333    1.667    4.500    7.000    2.667 
#    0.000    2.500    0.000    0.000    0.000    0.000 
#    0.000    0.000    0.000    0.000    0.000    0.000 
#
# Total GULP energy -594951.774086 kJ/mol
# GULP energy per Si atom -12394.828627 kJ/mol
# Density = 2.050038 g / cm^3
# Si number density = 20.547149 Si / 1000 Ang^3
#
#
#
# Elastic Constant Matrix: (Units=GPa)
#
#
# Indices 1 2 3 4 5 6 
#
# 1 90.5842 45.7508 29.4864 0.0000 0.0000 0.0000
# 2 45.7508 129.8773 35.1655 0.0000 0.0000 0.0000
# 3 29.4864 35.1655 85.6008 0.0000 0.0000 0.0000
# 4 0.0000 0.0000 0.0000 -2.4610 0.0000 0.0000
# 5 0.0000 0.0000 0.0000 0.0000 30.6333 0.0000
# 6 0.0000 0.0000 0.0000 0.0000 0.0000 28.2307
#
#
#
# Elastic Compliance Matrix: (Units=1/GPa)
#
#
# Indices 1 2 3 4 5 6 
#
# 1 0.014159 -0.004126 -0.003182 0.000000 0.000000 0.000000
# 2 -0.004126 0.009866 -0.002632 0.000000 0.000000 0.000000
# 3 -0.003182 -0.002632 0.013859 0.000000 0.000000 0.000000
# 4 0.000000 0.000000 0.000000 -0.406345 0.000000 0.000000
# 5 0.000000 0.000000 0.000000 0.000000 0.032644 0.000000
# 6 0.000000 0.000000 0.000000 0.000000 0.000000 0.035422
#
#
# Mechanical properties :
#
#
# Convention : Reuss Voigt Hill
#
# Bulk Modulus (GPa) = 55.54244 58.54085 57.04165
# Shear Modulus (GPa) = -18.21407 24.32457 3.05525
#
# Velocity S-wave (km/s) = -2.98057 3.44443 1.22073
# Velocity P-wave (km/s) = 3.90453 6.66121 5.45972
#
# Compressibility (1/GPa) = 0.01800425
#
# Stress axis : x y z
#
# Youngs Moduli (GPa) = 70.62495 101.36259 72.15320
#
# Poissons Ratio (x) = 0.41824 0.22962
# Poissons Ratio (y) = 0.29141 0.18987
# Poissons Ratio (z) = 0.22475 0.26674
#
# Static dielectric constant tensor:
#      x y z
#    x 3.242230 0.000000 0.000000 
#    y 0.000000 4.229290 0.000000 
#    z 0.000000 0.000000 3.747240 
# 
# 
# High freq. dielectric constant tensor:
#      x y z
#    x 1.780240 0.000000 0.000000 
#    y 0.000000 1.821590 0.000000 
#    z 0.000000 0.000000 1.819760 
# 
# From -- ./inp_files/4246.got.cif
#   From: 2010.03.12/outbox.cif.g09.slc.cpg/sg60_3_cif.got.tgz:4246.got - 2010.04.10 18:46:24.
