data_PCOD8247156
_publ_section_title
;
Structure prediction by ZEFSAII (Michael W. Deem and Ramdas Pophale) SiO2 
 PCOD8247156
Probable space group: P B C N
;
_chemical_formula_sum "Si O2"
_cell_formula_units_Z 60
_cell_length_a 10.964793
_cell_length_b 13.337946
_cell_length_c 20.050791
_cell_angle_alpha 90.000000
_cell_angle_beta 90.000000
_cell_angle_gamma 90.000000
_cell_volume 2932.384412
_symmetry_space_group_name_H-M "P B C N"
_symmetry_group_IT_number 60
_symmetry_cell_setting 'orthorhombic'
loop_
_space_group_symop_operation_xyz
x,y,z
1/2-x,1/2-y,1/2+z
1/2+x,1/2-y,-z
-x,y,1/2-z
-x,-y,-z
1/2+x,1/2+y,1/2-z
1/2-x,1/2+y,z
x,-y,1/2+z
loop_
_atom_site_type_symbol
_atom_site_label
_atom_site_fract_x
_atom_site_fract_y
_atom_site_fract_z
Si Si1 0.516058 0.922003 0.058975
Si Si2 0.500000 0.423896 0.750000
Si Si3 0.102243 0.928953 0.882324
Si Si4 0.109292 0.781222 0.570182
Si Si5 0.795910 0.121528 0.560032
Si Si6 0.040799 0.444461 0.678698
Si Si7 0.233861 0.183340 0.200028
Si Si8 0.827447 0.707187 0.161918
O O1 0.441557 0.822329 0.040959
O O2 0.654874 0.896129 0.072394
O O3 0.463147 0.965488 0.127052
O O4 0.500000 0.000000 0.000000
O O5 0.549607 0.483942 0.685242
O O6 0.394007 0.351389 0.727293
O O7 0.131829 0.016420 0.934658
O O8 0.223416 0.866255 0.866175
O O9 0.002274 0.853961 0.911693
O O10 0.187935 0.833879 0.513128
O O11 0.200975 0.756388 0.632135
O O12 0.844602 0.195606 0.616867
O O13 0.180748 0.409882 0.680511
O O14 0.000000 0.488685 0.750000
O O15 0.955053 0.351417 0.658517
O O16 0.299146 0.242938 0.261340
#
# Coordination Sequence:
#
# PCOD8247156 Si02
#       8
#     8   4   8   8   8   8   8   8
#     4  12  25  41  64  93 130 168 220 272 328 386
#     4   8  18  38  66  88 126 164 208 264 318 386
#     4  10  20  42  64  90 126 167 211 261 324 397
#     4  11  24  41  62  95 126 172 214 267 325 393
#     4  12  24  40  67  92 129 171 221 263 334 391
#     4  10  21  41  66  97 129 165 216 271 323 389
#     4   9  20  41  64  92 132 165 213 266 323 384
#     4  10  20  41  66  93 128 168 208 269 324 383
#
# _framework density 20.461162999999999
#
# number of rings (size 3 to 8) (size 9 to 14) (size 15 to 20)
#    0.000    1.600    2.667    2.000    0.000    1.067 
#    4.800    4.000    0.000    0.000    0.000    0.000 
#    0.000    0.000    0.000    0.000    0.000    0.000 
#
# Total GULP energy -743753.635808 kJ/mol
# GULP energy per Si atom -12395.893930 kJ/mol
# Density = 2.041459 g / cm^3
# Si number density = 20.461163 Si / 1000 Ang^3
#
#
#
# Elastic Constant Matrix: (Units=GPa)
#
#
# Indices 1 2 3 4 5 6 
#
# 1 72.9533 16.2340 15.4334 0.0000 0.0000 0.0000
# 2 16.2340 87.3194 44.3204 0.0000 0.0000 0.0000
# 3 15.4334 44.3204 116.9185 0.0000 0.0000 0.0000
# 4 0.0000 0.0000 0.0000 28.6425 0.0000 0.0000
# 5 0.0000 0.0000 0.0000 0.0000 21.0322 0.0000
# 6 0.0000 0.0000 0.0000 0.0000 0.0000 18.8386
#
#
#
# Elastic Compliance Matrix: (Units=1/GPa)
#
#
# Indices 1 2 3 4 5 6 
#
# 1 0.014412 -0.002122 -0.001098 0.000000 0.000000 0.000000
# 2 -0.002122 0.014493 -0.005214 0.000000 0.000000 0.000000
# 3 -0.001098 -0.005214 0.010674 0.000000 0.000000 0.000000
# 4 0.000000 0.000000 0.000000 0.034913 0.000000 0.000000
# 5 0.000000 0.000000 0.000000 0.000000 0.047546 0.000000
# 6 0.000000 0.000000 0.000000 0.000000 0.000000 0.053082
#
#
# Mechanical properties :
#
#
# Convention : Reuss Voigt Hill
#
# Bulk Modulus (GPa) = 44.03041 47.68521 45.85781
# Shear Modulus (GPa) = 25.05523 27.11623 26.08573
#
# Velocity S-wave (km/s) = 3.50312 3.64435 3.57443
# Velocity P-wave (km/s) = 6.15859 6.40814 6.28460
#
# Compressibility (1/GPa) = 0.02271157
#
# Stress axis : x y z
#
# Youngs Moduli (GPa) = 69.38710 68.99843 93.68301
#
# Poissons Ratio (x) = 0.14642 0.10286
# Poissons Ratio (y) = 0.14725 0.48844
# Poissons Ratio (z) = 0.07618 0.35974
#
# Static dielectric constant tensor:
#      x y z
#    x 3.919050 0.000000 0.000000 
#    y 0.000000 3.473150 0.000000 
#    z 0.000000 0.000000 4.250740 
# 
# 
# High freq. dielectric constant tensor:
#      x y z
#    x 1.814270 0.000000 0.000000 
#    y 0.000000 1.768630 0.000000 
#    z 0.000000 0.000000 1.819790 
# 
# From -- ./inp_files/22674.got.cif
#   From: 2010.03.12/outbox.cif.g09.slc.cpg/sg60_12_cif.got.tgz:22674.got - 2010.04.10 18:46:24.
