data_PCOD8247727
_publ_section_title
;
Structure prediction by ZEFSAII (Michael W. Deem and Ramdas Pophale) SiO2 
 PCOD8247727
Probable space group: P B C N
;
_chemical_formula_sum "Si O2"
_cell_formula_units_Z 56
_cell_length_a 21.045653
_cell_length_b 14.382678
_cell_length_c 8.624196
_cell_angle_alpha 90.000000
_cell_angle_beta 90.000000
_cell_angle_gamma 90.000000
_cell_volume 2610.482470
_symmetry_space_group_name_H-M "P B C N"
_symmetry_group_IT_number 60
_symmetry_cell_setting 'orthorhombic'
loop_
_space_group_symop_operation_xyz
x,y,z
1/2-x,1/2-y,1/2+z
1/2+x,1/2-y,-z
-x,y,1/2-z
-x,-y,-z
1/2+x,1/2+y,1/2-z
1/2-x,1/2+y,z
x,-y,1/2+z
loop_
_atom_site_type_symbol
_atom_site_label
_atom_site_fract_x
_atom_site_fract_y
_atom_site_fract_z
Si Si1 0.200055 0.193957 0.719848
Si Si2 0.315710 0.918059 0.320109
Si Si3 0.574444 0.208438 0.741341
Si Si4 0.274841 0.896488 0.658478
Si Si5 0.387252 0.372388 0.975819
Si Si6 0.861585 0.154410 0.463625
Si Si7 0.070683 0.989732 0.704428
O O1 0.271947 0.162197 0.746135
O O2 0.194920 0.304382 0.731073
O O3 0.181514 0.155329 0.547723
O O4 0.153572 0.158384 0.855106
O O5 0.388522 0.889425 0.282826
O O6 0.310872 0.919831 0.502614
O O7 0.290832 0.018483 0.270011
O O8 0.500000 0.184887 0.750000
O O9 0.581703 0.280518 0.597542
O O10 0.605585 0.252495 0.896360
O O11 0.200141 0.877245 0.634982
O O12 0.383219 0.454694 0.845910
O O13 0.423257 0.406259 0.134785
O O14 0.913679 0.073546 0.445735
O O15 0.000000 0.965447 0.750000
#
# Coordination Sequence:
#
# PCOD8247727 Si02
#       7
#     8   8   8   8   8   8   8
#     4  11  23  42  69 102 137 168 228 287 342 415
#     4  11  25  44  70 100 138 174 226 285 350 405
#     4  11  24  45  68  91 139 189 228 280 337 408
#     4  11  24  41  70 101 130 175 221 293 345 403
#     4  11  22  39  64  94 135 174 227 273 341 400
#     4  10  22  40  65 103 131 177 218 273 353 401
#     4  11  23  39  63  97 142 184 219 269 335 422
#
# _framework density 21.451972999999999
#
# number of rings (size 3 to 8) (size 9 to 14) (size 15 to 20)
#    0.000    1.143    2.857    3.857    2.000    8.000 
#    0.000    0.714    0.000    0.000    0.000    0.000 
#    0.000    0.000    0.000    0.000    0.000    0.000 
#
# Total GULP energy -693845.758808 kJ/mol
# GULP energy per Si atom -12390.102836 kJ/mol
# Density = 2.140315 g / cm^3
# Si number density = 21.451973 Si / 1000 Ang^3
#
#
#
# Elastic Constant Matrix: (Units=GPa)
#
#
# Indices 1 2 3 4 5 6 
#
# 1 81.6168 19.1816 37.6676 0.0000 0.0000 0.0000
# 2 19.1816 105.8993 43.3468 0.0000 0.0000 0.0000
# 3 37.6676 43.3468 88.1968 0.0000 0.0000 0.0000
# 4 0.0000 0.0000 0.0000 19.9080 0.0000 0.0000
# 5 0.0000 0.0000 0.0000 0.0000 25.4771 0.0000
# 6 0.0000 0.0000 0.0000 0.0000 0.0000 -8.7266
#
#
#
# Elastic Compliance Matrix: (Units=1/GPa)
#
#
# Indices 1 2 3 4 5 6 
#
# 1 0.015262 -0.000121 -0.006459 0.000000 0.000000 0.000000
# 2 -0.000121 0.011822 -0.005759 0.000000 0.000000 0.000000
# 3 -0.006459 -0.005759 0.016927 0.000000 0.000000 0.000000
# 4 0.000000 0.000000 0.000000 0.050231 0.000000 0.000000
# 5 0.000000 0.000000 0.000000 0.000000 0.039251 0.000000
# 6 0.000000 0.000000 0.000000 0.000000 0.000000 -0.114592
#
#
# Mechanical properties :
#
#
# Convention : Reuss Voigt Hill
#
# Bulk Modulus (GPa) = 51.72136 52.90055 52.31095
# Shear Modulus (GPa) = 99.95737 19.03282 59.49510
#
# Velocity S-wave (km/s) = 6.83352 2.98187 5.27203
# Velocity P-wave (km/s) = 9.29652 6.04723 7.84201
#
# Compressibility (1/GPa) = 0.01933437
#
# Stress axis : x y z
#
# Youngs Moduli (GPa) = 65.52423 84.58842 59.07733
#
# Poissons Ratio (x) = 0.01021 0.38156
# Poissons Ratio (y) = 0.00791 0.34021
# Poissons Ratio (z) = 0.42320 0.48712
#
# Static dielectric constant tensor:
#      x y z
#    x 3.746000 0.000000 0.000000 
#    y 0.000000 3.997840 0.000000 
#    z 0.000000 0.000000 4.157120 
# 
# 
# High freq. dielectric constant tensor:
#      x y z
#    x 1.822670 0.000000 0.000000 
#    y 0.000000 1.833650 0.000000 
#    z 0.000000 0.000000 1.856940 
# 
# From -- ./inp_files/7401.got.cif
#   From: 2010.03.12/outbox.cif.g09.slc.cpg/sg60_4_cif.got.tgz:7401.got - 2010.04.10 18:46:24.
