data_PCOD8247735
_publ_section_title
;
Structure prediction by ZEFSAII (Michael W. Deem and Ramdas Pophale) SiO2 
 PCOD8247735
Probable space group: P B C N
;
_chemical_formula_sum "Si O2"
_cell_formula_units_Z 60
_cell_length_a 6.525682
_cell_length_b 17.016298
_cell_length_c 26.380003
_cell_angle_alpha 90.000000
_cell_angle_beta 90.000000
_cell_angle_gamma 90.000000
_cell_volume 2929.313343
_symmetry_space_group_name_H-M "P B C N"
_symmetry_group_IT_number 60
_symmetry_cell_setting 'orthorhombic'
loop_
_space_group_symop_operation_xyz
x,y,z
1/2-x,1/2-y,1/2+z
1/2+x,1/2-y,-z
-x,y,1/2-z
-x,-y,-z
1/2+x,1/2+y,1/2-z
1/2-x,1/2+y,z
x,-y,1/2+z
loop_
_atom_site_type_symbol
_atom_site_label
_atom_site_fract_x
_atom_site_fract_y
_atom_site_fract_z
Si Si1 0.118369 0.142329 0.296978
Si Si2 0.682054 0.609182 0.897649
Si Si3 0.162944 0.193799 0.956399
Si Si4 0.402644 0.540972 0.395715
Si Si5 0.525990 0.300236 0.934222
Si Si6 0.807780 0.261230 0.333567
Si Si7 0.569900 0.952217 0.047601
Si Si8 0.500000 0.202953 0.250000
O O1 0.108781 0.083192 0.342549
O O2 0.353801 0.149177 0.283230
O O3 0.000000 0.103053 0.250000
O O4 0.018500 0.229084 0.308422
O O5 0.535728 0.675944 0.922035
O O6 0.563756 0.528786 0.887893
O O7 0.783409 0.646022 0.846201
O O8 0.873093 0.593152 0.933017
O O9 0.311377 0.252873 0.925094
O O10 0.265962 0.111158 0.969806
O O11 0.106007 0.229982 0.011241
O O12 0.480838 0.605828 0.436349
O O13 0.178491 0.509303 0.411342
O O14 0.691200 0.282205 0.889379
O O15 0.625183 0.249240 0.293263
O O16 0.500000 0.000000 0.000000
#
# Coordination Sequence:
#
# PCOD8247735 Si02
#       8
#     8   8   8   8   8   8   8   4
#     4   9  21  42  66  98 120 155 214 268 320 387
#     4  11  23  43  60  90 133 172 209 260 317 386
#     4  11  24  38  60  94 130 168 215 263 308 382
#     4  10  24  39  63  89 128 167 213 262 315 380
#     4  11  22  40  62  95 127 166 221 266 310 379
#     4  10  22  40  66  93 123 162 212 261 321 384
#     4  11  23  39  60  89 130 176 209 253 325 380
#     4  10  22  40  72  94 124 158 206 274 332 364
#
# _framework density 20.482617000000001
#
# number of rings (size 3 to 8) (size 9 to 14) (size 15 to 20)
#    0.000    1.600    1.333    2.400    5.600    6.400 
#    1.200    0.000    0.000    0.000    0.000    0.000 
#    0.000    0.000    0.000    0.000    0.000    0.000 
#
# Total GULP energy -743357.746791 kJ/mol
# GULP energy per Si atom -12389.295780 kJ/mol
# Density = 2.043600 g / cm^3
# Si number density = 20.482617 Si / 1000 Ang^3
#
#
#
# Elastic Constant Matrix: (Units=GPa)
#
#
# Indices 1 2 3 4 5 6 
#
# 1 117.8249 41.9110 46.6087 0.0000 0.0000 0.0000
# 2 41.9110 92.8375 29.0216 0.0000 0.0000 0.0000
# 3 46.6087 29.0216 105.7105 0.0000 0.0000 0.0000
# 4 0.0000 0.0000 0.0000 31.4345 0.0000 0.0000
# 5 0.0000 0.0000 0.0000 0.0000 35.4351 0.0000
# 6 0.0000 0.0000 0.0000 0.0000 0.0000 25.3799
#
#
#
# Elastic Compliance Matrix: (Units=1/GPa)
#
#
# Indices 1 2 3 4 5 6 
#
# 1 0.011457 -0.003930 -0.003972 0.000000 0.000000 0.000000
# 2 -0.003930 0.013131 -0.001872 0.000000 0.000000 0.000000
# 3 -0.003972 -0.001872 0.011725 0.000000 0.000000 0.000000
# 4 0.000000 0.000000 0.000000 0.031812 0.000000 0.000000
# 5 0.000000 0.000000 0.000000 0.000000 0.028221 0.000000
# 6 0.000000 0.000000 0.000000 0.000000 0.000000 0.039401
#
#
# Mechanical properties :
#
#
# Convention : Reuss Voigt Hill
#
# Bulk Modulus (GPa) = 59.65341 61.27283 60.46312
# Shear Modulus (GPa) = 31.07834 31.70535 31.39185
#
# Velocity S-wave (km/s) = 3.89948 3.93862 3.91910
# Velocity P-wave (km/s) = 7.03291 7.11781 7.07548
#
# Compressibility (1/GPa) = 0.01676350
#
# Stress axis : x y z
#
# Youngs Moduli (GPa) = 87.28659 76.15558 85.28659
#
# Poissons Ratio (x) = 0.29931 0.33878
# Poissons Ratio (y) = 0.34306 0.15966
# Poissons Ratio (z) = 0.34673 0.14257
#
# Static dielectric constant tensor:
#      x y z
#    x 4.164160 0.000000 0.000000 
#    y 0.000000 3.637410 0.000000 
#    z 0.000000 0.000000 3.985040 
# 
# 
# High freq. dielectric constant tensor:
#      x y z
#    x 1.811610 0.000000 0.000000 
#    y 0.000000 1.791520 0.000000 
#    z 0.000000 0.000000 1.803640 
# 
# From -- ./inp_files/25004.got.cif
#   From: 2010.03.12/outbox.cif.g09.slc.cpg/sg60_13_cif.got.tgz:25004.got - 2010.04.10 18:46:24.
