data_PCOD8247788
_publ_section_title
;
Structure prediction by ZEFSAII (Michael W. Deem and Ramdas Pophale) SiO2 
 PCOD8247788
Probable space group: P B C N
;
_chemical_formula_sum "Si O2"
_cell_formula_units_Z 40
_cell_length_a 5.288832
_cell_length_b 14.530639
_cell_length_c 22.040806
_cell_angle_alpha 90.000000
_cell_angle_beta 90.000000
_cell_angle_gamma 90.000000
_cell_volume 1693.838333
_symmetry_space_group_name_H-M "P B C N"
_symmetry_group_IT_number 60
_symmetry_cell_setting 'orthorhombic'
loop_
_space_group_symop_operation_xyz
x,y,z
1/2-x,1/2-y,1/2+z
1/2+x,1/2-y,-z
-x,y,1/2-z
-x,-y,-z
1/2+x,1/2+y,1/2-z
1/2-x,1/2+y,z
x,-y,1/2+z
loop_
_atom_site_type_symbol
_atom_site_label
_atom_site_fract_x
_atom_site_fract_y
_atom_site_fract_z
Si Si1 0.254112 0.606310 0.693979
Si Si2 0.500000 0.046426 0.250000
Si Si3 0.500000 0.266008 0.750000
Si Si4 0.241020 0.633485 0.354739
Si Si5 0.240768 0.929293 0.379352
Si Si6 0.207519 0.229825 0.963076
O O1 0.515274 0.614349 0.659508
O O2 0.245895 0.521020 0.742607
O O3 0.234726 0.700210 0.732526
O O4 0.013918 0.591691 0.649560
O O5 0.509113 0.109556 0.190312
O O6 0.543585 0.328597 0.690457
O O7 0.315968 0.537990 0.388636
O O8 0.158646 0.707946 0.403845
O O9 0.234773 0.877110 0.444092
O O10 0.468063 0.261788 0.993358
#
# Coordination Sequence:
#
# PCOD8247788 Si02
#       6
#     8   4   4   8   8   8
#     4  10  22  41  70 105 151 178 221 286 360 429
#     4   9  22  40  67 112 142 186 229 286 371 446
#     4  11  22  38  71 116 144 194 217 290 371 452
#     4  11  25  43  74 110 145 191 235 295 366 439
#     4  11  24  48  70 103 141 184 236 297 347 417
#     4  12  29  50  74 101 139 197 254 299 346 413
#
# _framework density 23.615005
#
# number of rings (size 3 to 8) (size 9 to 14) (size 15 to 20)
#    0.000    1.200    2.000    2.400    2.800   11.200 
#    0.000    0.000    0.000    0.000    0.000    0.000 
#    0.000    0.000    0.000    0.000    0.000    0.000 
#
# Total GULP energy -495644.278406 kJ/mol
# GULP energy per Si atom -12391.106960 kJ/mol
# Density = 2.356126 g / cm^3
# Si number density = 23.615005 Si / 1000 Ang^3
#
#
#
# Elastic Constant Matrix: (Units=GPa)
#
#
# Indices 1 2 3 4 5 6 
#
# 1 104.0529 10.1427 17.3945 0.0000 0.0000 0.0000
# 2 10.1427 144.4076 46.3713 0.0000 0.0000 0.0000
# 3 17.3945 46.3713 91.4814 0.0000 0.0000 0.0000
# 4 0.0000 0.0000 0.0000 19.4405 0.0000 0.0000
# 5 0.0000 0.0000 0.0000 0.0000 44.7012 0.0000
# 6 0.0000 0.0000 0.0000 0.0000 0.0000 17.3270
#
#
#
# Elastic Compliance Matrix: (Units=1/GPa)
#
#
# Indices 1 2 3 4 5 6 
#
# 1 0.009927 -0.000109 -0.001832 0.000000 0.000000 0.000000
# 2 -0.000109 0.008272 -0.004172 0.000000 0.000000 0.000000
# 3 -0.001832 -0.004172 0.013395 0.000000 0.000000 0.000000
# 4 0.000000 0.000000 0.000000 0.051439 0.000000 0.000000
# 5 0.000000 0.000000 0.000000 0.000000 0.022371 0.000000
# 6 0.000000 0.000000 0.000000 0.000000 0.000000 0.057713
#
#
# Mechanical properties :
#
#
# Convention : Reuss Voigt Hill
#
# Bulk Modulus (GPa) = 51.63473 54.19543 52.91508
# Shear Modulus (GPa) = 27.50262 34.02929 30.76595
#
# Velocity S-wave (km/s) = 3.41636 3.80017 3.61337
# Velocity P-wave (km/s) = 6.12166 6.50034 6.31384
#
# Compressibility (1/GPa) = 0.01936681
#
# Stress axis : x y z
#
# Youngs Moduli (GPa) = 100.73095 120.88485 74.65685
#
# Poissons Ratio (x) = 0.01316 0.13680
# Poissons Ratio (y) = 0.01096 0.31151
# Poissons Ratio (z) = 0.18458 0.50439
#
# Static dielectric constant tensor:
#      x y z
#    x 4.001580 0.000000 0.000000 
#    y 0.000000 4.798340 0.000000 
#    z 0.000000 0.000000 4.387760 
# 
# 
# High freq. dielectric constant tensor:
#      x y z
#    x 1.929990 0.000000 0.000000 
#    y 0.000000 1.959150 0.000000 
#    z 0.000000 0.000000 1.919690 
# 
# From -- ./inp_files/23563.got.cif
#   From: 2010.03.12/outbox.cif.g09.slc.cpg/sg60_12_cif.got.tgz:23563.got - 2010.04.10 18:46:24.
