data_PCOD8247242
_publ_section_title
;
Structure prediction by ZEFSAII (Michael W. Deem and Ramdas Pophale) SiO2 
 PCOD8247242
Probable space group: P B C N
;
_chemical_formula_sum "Si O2"
_cell_formula_units_Z 32
_cell_length_a 7.080828
_cell_length_b 13.164815
_cell_length_c 13.987742
_cell_angle_alpha 90.000000
_cell_angle_beta 90.000000
_cell_angle_gamma 90.000000
_cell_volume 1303.906406
_symmetry_space_group_name_H-M "P B C N"
_symmetry_group_IT_number 60
_symmetry_cell_setting 'orthorhombic'
loop_
_space_group_symop_operation_xyz
x,y,z
1/2-x,1/2-y,1/2+z
1/2+x,1/2-y,-z
-x,y,1/2-z
-x,-y,-z
1/2+x,1/2+y,1/2-z
1/2-x,1/2+y,z
x,-y,1/2+z
loop_
_atom_site_type_symbol
_atom_site_label
_atom_site_fract_x
_atom_site_fract_y
_atom_site_fract_z
Si Si1 0.000000 0.400906 0.750000
Si Si2 0.000000 0.936931 0.250000
Si Si3 0.977759 0.334202 0.012761
Si Si4 0.716369 0.997658 0.904494
Si Si5 0.801693 0.762279 0.150648
O O1 0.035772 0.473714 0.661324
O O2 0.183777 0.329972 0.772900
O O3 0.905567 0.001068 0.338219
O O4 0.835940 0.868343 0.204658
O O5 0.903945 0.266899 0.101882
O O6 0.166899 0.396042 0.043668
O O7 0.796391 0.406082 0.982627
O O8 0.033134 0.258727 0.927365
#
# Coordination Sequence:
#
# PCOD8247242 Si02
#       5
#     4   4   8   8   8
#     4   9  20  38  54  81 114 144 186 243 288 344
#     4  11  22  36  56  85 114 150 194 239 290 350
#     4  10  21  38  59  83 114 154 192 240 294 348
#     4  10  21  37  58  83 115 151 192 238 293 348
#     4  10  21  36  56  81 113 146 190 238 290 348
#
# _framework density 24.541640000000001
#
# number of rings (size 3 to 8) (size 9 to 14) (size 15 to 20)
#    0.000    2.000    0.000    3.000    0.000    3.000 
#    0.000    0.000    0.000    0.000    0.000    0.000 
#    0.000    0.000    0.000    0.000    0.000    0.000 
#
# Total GULP energy -396455.813280 kJ/mol
# GULP energy per Si atom -12389.244165 kJ/mol
# Density = 2.448578 g / cm^3
# Si number density = 24.541640 Si / 1000 Ang^3
#
#
#
# Elastic Constant Matrix: (Units=GPa)
#
#
# Indices 1 2 3 4 5 6 
#
# 1 50.7062 5.7528 10.7572 0.0000 0.0000 0.0000
# 2 5.7528 34.4924 5.7850 0.0000 0.0000 0.0000
# 3 10.7572 5.7850 81.2695 0.0000 0.0000 0.0000
# 4 0.0000 0.0000 0.0000 20.9174 0.0000 0.0000
# 5 0.0000 0.0000 0.0000 0.0000 60.7786 0.0000
# 6 0.0000 0.0000 0.0000 0.0000 0.0000 8.7463
#
#
#
# Elastic Compliance Matrix: (Units=1/GPa)
#
#
# Indices 1 2 3 4 5 6 
#
# 1 0.020596 -0.003014 -0.002512 0.000000 0.000000 0.000000
# 2 -0.003014 0.029783 -0.001721 0.000000 0.000000 0.000000
# 3 -0.002512 -0.001721 0.012760 0.000000 0.000000 0.000000
# 4 0.000000 0.000000 0.000000 0.047807 0.000000 0.000000
# 5 0.000000 0.000000 0.000000 0.000000 0.016453 0.000000
# 6 0.000000 0.000000 0.000000 0.000000 0.000000 0.114334
#
#
# Mechanical properties :
#
#
# Convention : Reuss Voigt Hill
#
# Bulk Modulus (GPa) = 20.55678 23.45093 22.00385
# Shear Modulus (GPa) = 18.35250 27.69999 23.02625
#
# Velocity S-wave (km/s) = 2.73758 3.36325 3.06641
# Velocity P-wave (km/s) = 4.28800 4.96571 4.63924
#
# Compressibility (1/GPa) = 0.04864575
#
# Stress axis : x y z
#
# Youngs Moduli (GPa) = 48.55255 33.57594 78.37167
#
# Poissons Ratio (x) = 0.10119 0.19684
# Poissons Ratio (y) = 0.14633 0.13489
# Poissons Ratio (z) = 0.12195 0.05779
#
# Static dielectric constant tensor:
#      x y z
#    x 3.667130 0.000000 0.000000 
#    y 0.000000 4.384950 0.000000 
#    z 0.000000 0.000000 4.722340 
# 
# 
# High freq. dielectric constant tensor:
#      x y z
#    x 1.922490 0.000000 0.000000 
#    y 0.000000 1.969420 0.000000 
#    z 0.000000 0.000000 1.998150 
# 
# From -- ./inp_files/9548.got.cif
#   From: 2010.03.12/outbox.cif.g09.slc.cpg/sg60_5_cif.got.tgz:9548.got - 2010.04.10 18:46:24.
