data_PCOD8247779
_publ_section_title
;
Structure prediction by ZEFSAII (Michael W. Deem and Ramdas Pophale) SiO2 
 PCOD8247779
Probable space group: P B C N
;
_chemical_formula_sum "Si O2"
_cell_formula_units_Z 36
_cell_length_a 9.094890
_cell_length_b 11.241129
_cell_length_c 18.208474
_cell_angle_alpha 90.000000
_cell_angle_beta 90.000000
_cell_angle_gamma 90.000000
_cell_volume 1861.576692
_symmetry_space_group_name_H-M "P B C N"
_symmetry_group_IT_number 60
_symmetry_cell_setting 'orthorhombic'
loop_
_space_group_symop_operation_xyz
x,y,z
1/2-x,1/2-y,1/2+z
1/2+x,1/2-y,-z
-x,y,1/2-z
-x,-y,-z
1/2+x,1/2+y,1/2-z
1/2-x,1/2+y,z
x,-y,1/2+z
loop_
_atom_site_type_symbol
_atom_site_label
_atom_site_fract_x
_atom_site_fract_y
_atom_site_fract_z
Si Si1 0.668397 0.338198 0.684050
Si Si2 0.500000 0.128655 0.750000
Si Si3 0.982433 0.247205 0.666836
Si Si4 0.714264 0.944127 0.825234
Si Si5 0.519195 0.508549 0.914055
O O1 0.594284 0.209230 0.694253
O O2 0.836108 0.325066 0.658029
O O3 0.668993 0.407984 0.761737
O O4 0.584498 0.410332 0.622093
O O5 0.608422 0.048651 0.798091
O O6 0.000000 0.198357 0.750000
O O7 0.120587 0.331004 0.648341
O O8 0.972384 0.139407 0.610875
O O9 0.809999 0.988321 0.893801
O O10 0.500000 0.500000 0.000000
#
# Coordination Sequence:
#
# PCOD8247779 Si02
#       5
#     8   4   8   8   8
#     4  11  21  40  66  94 123 163 216 269 318 364
#     4  12  20  36  74  98 120 156 228 278 316 358
#     4  10  22  41  67  92 123 157 221 273 311 364
#     4  11  21  42  69  98 117 166 217 276 316 364
#     4  12  26  41  60  92 138 173 203 250 328 402
#
# _framework density 19.338446000000001
#
# number of rings (size 3 to 8) (size 9 to 14) (size 15 to 20)
#    0.000    0.889    5.556    5.333    0.000    1.778 
#    0.000    1.111    0.000    0.000    0.000    0.000 
#    0.000    0.000    0.000    0.000    0.000    0.000 
#
# Total GULP energy -446596.873320 kJ/mol
# GULP energy per Si atom -12405.468703 kJ/mol
# Density = 1.929443 g / cm^3
# Si number density = 19.338446 Si / 1000 Ang^3
#
#
#
# Elastic Constant Matrix: (Units=GPa)
#
#
# Indices 1 2 3 4 5 6 
#
# 1 104.6231 36.1582 66.1162 0.0000 0.0000 0.0000
# 2 36.1582 102.6142 55.4302 0.0000 0.0000 0.0000
# 3 66.1162 55.4302 126.9224 0.0000 0.0000 0.0000
# 4 0.0000 0.0000 0.0000 21.7987 0.0000 0.0000
# 5 0.0000 0.0000 0.0000 0.0000 24.8930 0.0000
# 6 0.0000 0.0000 0.0000 0.0000 0.0000 36.7076
#
#
#
# Elastic Compliance Matrix: (Units=1/GPa)
#
#
# Indices 1 2 3 4 5 6 
#
# 1 0.014387 -0.001337 -0.006911 0.000000 0.000000 0.000000
# 2 -0.001337 0.012878 -0.004928 0.000000 0.000000 0.000000
# 3 -0.006911 -0.004928 0.013631 0.000000 0.000000 0.000000
# 4 0.000000 0.000000 0.000000 0.045874 0.000000 0.000000
# 5 0.000000 0.000000 0.000000 0.000000 0.040172 0.000000
# 6 0.000000 0.000000 0.000000 0.000000 0.000000 0.027242
#
#
# Mechanical properties :
#
#
# Convention : Reuss Voigt Hill
#
# Bulk Modulus (GPa) = 68.74903 72.17432 70.46168
# Shear Modulus (GPa) = 26.97093 28.44353 27.70723
#
# Velocity S-wave (km/s) = 3.73859 3.83930 3.78928
# Velocity P-wave (km/s) = 7.36639 7.55356 7.46056
#
# Compressibility (1/GPa) = 0.01454566
#
# Stress axis : x y z
#
# Youngs Moduli (GPa) = 69.50539 77.65051 73.36180
#
# Poissons Ratio (x) = 0.10378 0.50700
# Poissons Ratio (y) = 0.09290 0.36153
# Poissons Ratio (z) = 0.48035 0.38266
#
# Static dielectric constant tensor:
#      x y z
#    x 3.821720 0.000000 0.000000 
#    y 0.000000 3.684120 0.000000 
#    z 0.000000 0.000000 3.195290 
# 
# 
# High freq. dielectric constant tensor:
#      x y z
#    x 1.778720 0.000000 0.000000 
#    y 0.000000 1.769280 0.000000 
#    z 0.000000 0.000000 1.708470 
# 
# From -- ./inp_files/19001.got.cif
#   From: 2010.03.12/outbox.cif.g09.slc.cpg/sg60_10_cif.got.tgz:19001.got - 2010.04.10 18:46:24.
