data_PCOD8247312
_publ_section_title
;
Structure prediction by ZEFSAII (Michael W. Deem and Ramdas Pophale) SiO2 
 PCOD8247312
Probable space group: P B C N
;
_chemical_formula_sum "Si O2"
_cell_formula_units_Z 64
_cell_length_a 9.030661
_cell_length_b 21.210905
_cell_length_c 16.394342
_cell_angle_alpha 90.000000
_cell_angle_beta 90.000000
_cell_angle_gamma 90.000000
_cell_volume 3140.311497
_symmetry_space_group_name_H-M "P B C N"
_symmetry_group_IT_number 60
_symmetry_cell_setting 'orthorhombic'
loop_
_space_group_symop_operation_xyz
x,y,z
1/2-x,1/2-y,1/2+z
1/2+x,1/2-y,-z
-x,y,1/2-z
-x,-y,-z
1/2+x,1/2+y,1/2-z
1/2-x,1/2+y,z
x,-y,1/2+z
loop_
_atom_site_type_symbol
_atom_site_label
_atom_site_fract_x
_atom_site_fract_y
_atom_site_fract_z
Si Si1 0.203693 0.551303 0.504185
Si Si2 0.903582 0.925270 0.349390
Si Si3 0.834206 0.357864 0.886218
Si Si4 0.639423 0.560694 0.289774
Si Si5 0.788467 0.132543 0.697786
Si Si6 0.382096 0.082266 0.950984
Si Si7 0.652540 0.108366 0.164498
Si Si8 0.331117 0.233875 0.247216
O O1 0.340620 0.573739 0.559294
O O2 0.216685 0.477926 0.478155
O O3 0.209935 0.596151 0.426142
O O4 0.051933 0.560414 0.554659
O O5 0.780352 0.899398 0.286475
O O6 0.051311 0.882213 0.344284
O O7 0.933258 0.996010 0.320443
O O8 0.693903 0.402217 0.869343
O O9 0.801503 0.288121 0.847931
O O10 0.973128 0.388898 0.835729
O O11 0.862965 0.360234 0.983233
O O12 0.500000 0.597760 0.250000
O O13 0.776162 0.555442 0.224579
O O14 0.662755 0.106650 0.637757
O O15 0.747567 0.205470 0.716971
O O16 0.713318 0.175859 0.194632
O O17 0.500000 0.254594 0.250000
#
# Coordination Sequence:
#
# PCOD8247312 Si02
#       8
#     8   8   8   8   8   8   8   8
#     4  10  21  38  56  88 121 144 193 242 295 351
#     4  11  22  36  55  86 120 154 186 234 299 353
#     4   9  19  38  63  84 106 156 194 241 284 342
#     4  11  19  33  55  88 117 142 188 239 294 343
#     4  11  22  38  57  84 116 161 194 234 292 353
#     4  10  21  38  60  87 117 150 193 245 294 348
#     4   9  20  37  62  84 108 157 196 240 283 340
#     4   9  17  38  63  78 108 153 211 229 268 363
#
# _framework density 20.380143
#
# number of rings (size 3 to 8) (size 9 to 14) (size 15 to 20)
#    0.000    2.000    3.750    1.875    0.000    2.000 
#    4.500    0.000   11.000    0.000    0.000    0.000 
#    0.000    0.000    0.000    0.000    0.000    0.000 
#
# Total GULP energy -792886.347819 kJ/mol
# GULP energy per Si atom -12388.849185 kJ/mol
# Density = 2.033376 g / cm^3
# Si number density = 20.380143 Si / 1000 Ang^3
#
#
#
# Elastic Constant Matrix: (Units=GPa)
#
#
# Indices 1 2 3 4 5 6 
#
# 1 36.4917 9.4234 6.4912 0.0000 0.0000 0.0000
# 2 9.4234 93.6075 21.5955 0.0000 0.0000 0.0000
# 3 6.4912 21.5955 63.6787 0.0000 0.0000 0.0000
# 4 0.0000 0.0000 0.0000 20.7771 0.0000 0.0000
# 5 0.0000 0.0000 0.0000 0.0000 36.9058 0.0000
# 6 0.0000 0.0000 0.0000 0.0000 0.0000 16.5161
#
#
#
# Elastic Compliance Matrix: (Units=1/GPa)
#
#
# Indices 1 2 3 4 5 6 
#
# 1 0.028389 -0.002376 -0.002088 0.000000 0.000000 0.000000
# 2 -0.002376 0.011789 -0.003756 0.000000 0.000000 0.000000
# 3 -0.002088 -0.003756 0.017190 0.000000 0.000000 0.000000
# 4 0.000000 0.000000 0.000000 0.048130 0.000000 0.000000
# 5 0.000000 0.000000 0.000000 0.000000 0.027096 0.000000
# 6 0.000000 0.000000 0.000000 0.000000 0.000000 0.060547
#
#
# Mechanical properties :
#
#
# Convention : Reuss Voigt Hill
#
# Bulk Modulus (GPa) = 24.43327 29.86645 27.14986
# Shear Modulus (GPa) = 22.39918 25.25765 23.82841
#
# Velocity S-wave (km/s) = 3.31882 3.52423 3.42306
# Velocity P-wave (km/s) = 5.16729 5.58988 5.38273
#
# Compressibility (1/GPa) = 0.04092780
#
# Stress axis : x y z
#
# Youngs Moduli (GPa) = 35.22551 84.82806 58.17216
#
# Poissons Ratio (x) = 0.20156 0.12146
# Poissons Ratio (y) = 0.08370 0.21848
# Poissons Ratio (z) = 0.07355 0.31859
#
# Static dielectric constant tensor:
#      x y z
#    x 3.486110 0.000000 0.000000 
#    y 0.000000 3.578000 0.000000 
#    z 0.000000 0.000000 3.786560 
# 
# 
# High freq. dielectric constant tensor:
#      x y z
#    x 1.775210 0.000000 0.000000 
#    y 0.000000 1.774000 0.000000 
#    z 0.000000 0.000000 1.799040 
# 
# From -- ./inp_files/19716.got.cif
#   From: 2010.03.12/outbox.cif.g09.slc.cpg/sg60_10_cif.got.tgz:19716.got - 2010.04.10 18:46:24.
