data_PCOD8247110
_publ_section_title
;
Structure prediction by ZEFSAII (Michael W. Deem and Ramdas Pophale) SiO2 
 PCOD8247110
Probable space group: P B C N
;
_chemical_formula_sum "Si O2"
_cell_formula_units_Z 64
_cell_length_a 7.366705
_cell_length_b 30.471332
_cell_length_c 12.202755
_cell_angle_alpha 90.000000
_cell_angle_beta 90.000000
_cell_angle_gamma 90.000000
_cell_volume 2739.192852
_symmetry_space_group_name_H-M "P B C N"
_symmetry_group_IT_number 60
_symmetry_cell_setting 'orthorhombic'
loop_
_space_group_symop_operation_xyz
x,y,z
1/2-x,1/2-y,1/2+z
1/2+x,1/2-y,-z
-x,y,1/2-z
-x,-y,-z
1/2+x,1/2+y,1/2-z
1/2-x,1/2+y,z
x,-y,1/2+z
loop_
_atom_site_type_symbol
_atom_site_label
_atom_site_fract_x
_atom_site_fract_y
_atom_site_fract_z
Si Si1 0.851635 0.201242 0.527015
Si Si2 0.824976 0.057726 0.016107
Si Si3 0.701066 0.342194 0.237811
Si Si4 0.685300 0.934640 0.191255
Si Si5 0.274898 0.536097 0.023828
Si Si6 0.263836 0.344022 0.024144
Si Si7 0.506091 0.791511 0.882844
Si Si8 0.713278 0.968691 0.741856
O O1 0.727624 0.181103 0.626692
O O2 0.716035 0.203717 0.422369
O O3 0.030008 0.172107 0.496838
O O4 0.919151 0.248701 0.563375
O O5 0.799577 0.060913 0.147362
O O6 0.025770 0.045316 0.975935
O O7 0.762933 0.103222 0.964788
O O8 0.709406 0.015216 0.975702
O O9 0.500000 0.323009 0.250000
O O10 0.685485 0.394251 0.219537
O O11 0.800731 0.328831 0.352472
O O12 0.500000 0.923677 0.250000
O O13 0.777787 0.980561 0.228869
O O14 0.644885 0.937414 0.059674
O O15 0.278218 0.554180 0.146549
O O16 0.120862 0.330408 0.930832
O O17 0.500000 0.791620 0.750000
O O18 0.500000 0.967835 0.750000
#
# Coordination Sequence:
#
# PCOD8247110 Si02
#       8
#     8   8   8   8   8   8   8   8
#     4  11  25  49  77 105 136 179 228 280 350 422
#     4  10  22  40  65  92 129 178 230 284 340 407
#     4  10  22  42  70 100 135 171 228 293 339 406
#     4  10  22  36  59  95 127 173 230 286 341 394
#     4  10  20  40  63  87 129 182 233 279 343 404
#     4  11  24  46  70 107 142 180 232 290 348 414
#     4  12  27  50  75 108 143 183 224 281 351 426
#     4  10  22  38  57  89 130 179 226 280 340 407
#
# _framework density 23.364547000000002
#
# number of rings (size 3 to 8) (size 9 to 14) (size 15 to 20)
#    0.000    1.500    1.250    3.750    1.750    8.500 
#    9.000    0.000    0.000    0.000    0.000    0.000 
#    0.000    0.000    0.000    0.000    0.000    0.000 
#
# Total GULP energy -792932.895931 kJ/mol
# GULP energy per Si atom -12389.576499 kJ/mol
# Density = 2.331137 g / cm^3
# Si number density = 23.364547 Si / 1000 Ang^3
#
#
#
# Elastic Constant Matrix: (Units=GPa)
#
#
# Indices 1 2 3 4 5 6 
#
# 1 65.3389 22.1293 24.5470 0.0000 0.0000 0.0000
# 2 22.1293 77.6976 5.4839 0.0000 0.0000 0.0000
# 3 24.5470 5.4839 160.2784 0.0000 0.0000 0.0000
# 4 0.0000 0.0000 0.0000 21.6776 0.0000 0.0000
# 5 0.0000 0.0000 0.0000 0.0000 37.6463 0.0000
# 6 0.0000 0.0000 0.0000 0.0000 0.0000 25.1194
#
#
#
# Elastic Compliance Matrix: (Units=1/GPa)
#
#
# Indices 1 2 3 4 5 6 
#
# 1 0.017943 -0.004928 -0.002579 0.000000 0.000000 0.000000
# 2 -0.004928 0.014255 0.000267 0.000000 0.000000 0.000000
# 3 -0.002579 0.000267 0.006625 0.000000 0.000000 0.000000
# 4 0.000000 0.000000 0.000000 0.046131 0.000000 0.000000
# 5 0.000000 0.000000 0.000000 0.000000 0.026563 0.000000
# 6 0.000000 0.000000 0.000000 0.000000 0.000000 0.039810
#
#
# Mechanical properties :
#
#
# Convention : Reuss Voigt Hill
#
# Bulk Modulus (GPa) = 41.08143 45.29282 43.18712
# Shear Modulus (GPa) = 28.74848 33.63229 31.19038
#
# Velocity S-wave (km/s) = 3.51156 3.79814 3.65765
# Velocity P-wave (km/s) = 5.83630 6.21786 6.03010
#
# Compressibility (1/GPa) = 0.02434190
#
# Stress axis : x y z
#
# Youngs Moduli (GPa) = 55.73201 70.14971 150.94232
#
# Poissons Ratio (x) = 0.34572 0.38934
# Poissons Ratio (y) = 0.27467 -0.04031
# Poissons Ratio (z) = 0.14375 -0.01873
#
# Static dielectric constant tensor:
#      x y z
#    x 3.226270 0.000000 0.000000 
#    y 0.000000 4.101480 0.000000 
#    z 0.000000 0.000000 3.465580 
# 
# 
# High freq. dielectric constant tensor:
#      x y z
#    x 1.913010 0.000000 0.000000 
#    y 0.000000 1.906470 0.000000 
#    z 0.000000 0.000000 1.940000 
# 
# From -- ./inp_files/10366.got.cif
#   From: 2010.03.12/outbox.cif.g09.slc.cpg/sg60_6_cif.got.tgz:10366.got - 2010.04.10 18:46:24.
