data_PCOD8247437
_publ_section_title
;
Structure prediction by ZEFSAII (Michael W. Deem and Ramdas Pophale) SiO2 
 PCOD8247437
Probable space group: P B C N
;
_chemical_formula_sum "Si O2"
_cell_formula_units_Z 56
_cell_length_a 14.144760
_cell_length_b 13.614011
_cell_length_c 9.155865
_cell_angle_alpha 90.000000
_cell_angle_beta 90.000000
_cell_angle_gamma 90.000000
_cell_volume 1763.116707
_symmetry_space_group_name_H-M "P B C N"
_symmetry_group_IT_number 60
_symmetry_cell_setting 'orthorhombic'
loop_
_space_group_symop_operation_xyz
x,y,z
1/2-x,1/2-y,1/2+z
1/2+x,1/2-y,-z
-x,y,1/2-z
-x,-y,-z
1/2+x,1/2+y,1/2-z
1/2-x,1/2+y,z
x,-y,1/2+z
loop_
_atom_site_type_symbol
_atom_site_label
_atom_site_fract_x
_atom_site_fract_y
_atom_site_fract_z
Si Si1 0.444847 0.593290 0.415260
Si Si2 0.702733 0.633270 0.670403
Si Si3 0.360500 0.078317 0.311789
Si Si4 0.000000 0.907857 0.250000
Si Si5 0.689289 0.691685 0.298375
Si Si6 0.050355 0.278477 0.999183
Si Si7 0.000000 0.416768 0.250000
Si Si8 0.264608 0.483621 0.056707
O O1 0.503709 0.489345 0.385076
O O2 0.410156 0.640405 0.257596
O O3 0.496693 0.673756 0.519928
O O4 0.345729 0.586437 0.496778
O O5 0.595676 0.657083 0.725242
O O6 0.771660 0.725879 0.686722
O O7 0.704690 0.595062 0.499694
O O8 0.739283 0.538696 0.766448
O O9 0.278076 0.112668 0.195417
O O10 0.435055 0.166525 0.344277
O O11 0.408916 0.986030 0.233141
O O12 0.330763 0.048293 0.476012
O O13 0.657359 0.750724 0.444597
O O14 0.991374 0.347148 0.109037
#
# Coordination Sequence:
#
# PCOD8247437 Si02
#       8
#     8   8   8   4   8   8   4   8
#     4  10  21  42  68  94 128 186 230 277 342 434
#     4  11  24  43  70 103 144 182 232 296 351 428
#     4  11  27  43  67 106 137 188 236 299 353 427
#     4  10  21  39  68 100 134 174 226 283 353 406
#     4  11  22  45  66  98 139 182 235 280 350 421
#     4  12  22  46  74  95 136 190 236 285 362 428
#     4  12  25  47  70 102 146 180 240 301 363 428
#     4  10  24  44  68 105 142 179 235 291 358 421
#
# _framework density 31.761938000000001
#
# number of rings (size 3 to 8) (size 9 to 14) (size 15 to 20)
#    0.000    1.143    4.286    1.286    0.000    6.286 
#    0.000    0.000    0.000    0.000    0.000    0.000 
#    0.000    0.000    0.000    0.000    0.000    0.000 
#
# Total GULP energy -694225.625662 kJ/mol
# GULP energy per Si atom -12396.886173 kJ/mol
# Density = 3.168965 g / cm^3
# Si number density = 31.761938 Si / 1000 Ang^3
#
#
#
# Elastic Constant Matrix: (Units=GPa)
#
#
# Indices 1 2 3 4 5 6 
#
# 1 127.5809 64.5288 10.5511 0.0000 0.0000 0.0000
# 2 64.5288 221.8867 17.6955 0.0000 0.0000 0.0000
# 3 10.5511 17.6955 92.2897 0.0000 0.0000 0.0000
# 4 0.0000 0.0000 0.0000 28.7988 0.0000 0.0000
# 5 0.0000 0.0000 0.0000 0.0000 57.7399 0.0000
# 6 0.0000 0.0000 0.0000 0.0000 0.0000 74.9652
#
#
#
# Elastic Compliance Matrix: (Units=1/GPa)
#
#
# Indices 1 2 3 4 5 6 
#
# 1 0.009217 -0.002637 -0.000548 0.000000 0.000000 0.000000
# 2 -0.002637 0.005331 -0.000721 0.000000 0.000000 0.000000
# 3 -0.000548 -0.000721 0.011036 0.000000 0.000000 0.000000
# 4 0.000000 0.000000 0.000000 0.034724 0.000000 0.000000
# 5 0.000000 0.000000 0.000000 0.000000 0.017319 0.000000
# 6 0.000000 0.000000 0.000000 0.000000 0.000000 0.013340
#
#
# Mechanical properties :
#
#
# Convention : Reuss Voigt Hill
#
# Bulk Modulus (GPa) = 56.26461 69.70090 62.98275
# Shear Modulus (GPa) = 47.75428 55.56624 51.66026
#
# Velocity S-wave (km/s) = 3.88171 4.18719 4.03734
# Velocity P-wave (km/s) = 6.15168 6.73567 6.45029
#
# Compressibility (1/GPa) = 0.01777316
#
# Stress axis : x y z
#
# Youngs Moduli (GPa) = 108.49328 187.57805 90.61001
#
# Poissons Ratio (x) = 0.49461 0.04967
# Poissons Ratio (y) = 0.28608 0.06530
# Poissons Ratio (z) = 0.05947 0.13519
#
# Static dielectric constant tensor:
#      x y z
#    x 5.871050 0.000000 0.000000 
#    y 0.000000 6.502260 0.000000 
#    z 0.000000 0.000000 6.904180 
# 
# 
# High freq. dielectric constant tensor:
#      x y z
#    x 2.312680 0.000000 0.000000 
#    y 0.000000 2.358180 0.000000 
#    z 0.000000 0.000000 2.355520 
# 
# From -- ./inp_files/11998.got.cif
#   From: 2010.03.12/outbox.cif.g09.slc.cpg/sg60_6_cif.got.tgz:11998.got - 2010.04.10 18:46:24.
