data_PCOD8247439
_publ_section_title
;
Structure prediction by ZEFSAII (Michael W. Deem and Ramdas Pophale) SiO2 
 PCOD8247439
Probable space group: P B C N
;
_chemical_formula_sum "Si O2"
_cell_formula_units_Z 40
_cell_length_a 14.858562
_cell_length_b 8.509457
_cell_length_c 15.497295
_cell_angle_alpha 90.000000
_cell_angle_beta 90.000000
_cell_angle_gamma 90.000000
_cell_volume 1959.451548
_symmetry_space_group_name_H-M "P B C N"
_symmetry_group_IT_number 60
_symmetry_cell_setting 'orthorhombic'
loop_
_space_group_symop_operation_xyz
x,y,z
1/2-x,1/2-y,1/2+z
1/2+x,1/2-y,-z
-x,y,1/2-z
-x,-y,-z
1/2+x,1/2+y,1/2-z
1/2-x,1/2+y,z
x,-y,1/2+z
loop_
_atom_site_type_symbol
_atom_site_label
_atom_site_fract_x
_atom_site_fract_y
_atom_site_fract_z
Si Si1 0.358544 0.210056 0.711629
Si Si2 0.970787 0.333239 0.961294
Si Si3 0.571905 0.686903 0.681278
Si Si4 0.177681 0.649365 0.184026
Si Si5 0.545653 0.325148 0.635591
O O1 0.282195 0.314826 0.664239
O O2 0.450255 0.253210 0.663028
O O3 0.372509 0.243448 0.813292
O O4 0.334353 0.029202 0.709153
O O5 0.883260 0.324327 0.900314
O O6 0.059183 0.281096 0.907883
O O7 0.944813 0.207152 0.034433
O O8 0.000000 0.500000 0.000000
O O9 0.500000 0.751112 0.750000
O O10 0.662467 0.734050 0.732494
O O11 0.555413 0.506505 0.659821
#
# Coordination Sequence:
#
# PCOD8247439 Si02
#       5
#     8   8   8   8   8
#     4  11  23  41  67  92 132 173 218 269 329 399
#     4  11  22  40  66  96 129 172 221 275 329 393
#     4  10  21  39  68  91 128 172 215 266 332 397
#     4  11  24  42  66  96 134 173 225 274 335 395
#     4  11  22  43  67  95 129 171 224 268 337 396
#
# _framework density 20.413875000000001
#
# number of rings (size 3 to 8) (size 9 to 14) (size 15 to 20)
#    0.000    1.200    4.000    3.000    8.400    0.000 
#    3.600    0.000    0.000    0.000    0.000    0.000 
#    0.000    0.000    0.000    0.000    0.000    0.000 
#
# Total GULP energy -495647.153578 kJ/mol
# GULP energy per Si atom -12391.178839 kJ/mol
# Density = 2.036741 g / cm^3
# Si number density = 20.413875 Si / 1000 Ang^3
#
#
#
# Elastic Constant Matrix: (Units=GPa)
#
#
# Indices 1 2 3 4 5 6 
#
# 1 93.8054 22.5161 36.9155 0.0000 0.0000 0.0000
# 2 22.5161 109.1608 43.2404 0.0000 0.0000 0.0000
# 3 36.9155 43.2404 146.4347 0.0000 0.0000 0.0000
# 4 0.0000 0.0000 0.0000 42.9629 0.0000 0.0000
# 5 0.0000 0.0000 0.0000 0.0000 22.0818 0.0000
# 6 0.0000 0.0000 0.0000 0.0000 0.0000 32.4041
#
#
#
# Elastic Compliance Matrix: (Units=1/GPa)
#
#
# Indices 1 2 3 4 5 6 
#
# 1 0.012034 -0.001450 -0.002605 0.000000 0.000000 0.000000
# 2 -0.001450 0.010549 -0.002749 0.000000 0.000000 0.000000
# 3 -0.002605 -0.002749 0.008298 0.000000 0.000000 0.000000
# 4 0.000000 0.000000 0.000000 0.023276 0.000000 0.000000
# 5 0.000000 0.000000 0.000000 0.000000 0.045286 0.000000
# 6 0.000000 0.000000 0.000000 0.000000 0.000000 0.030860
#
#
# Mechanical properties :
#
#
# Convention : Reuss Voigt Hill
#
# Bulk Modulus (GPa) = 57.90225 61.63832 59.77028
# Shear Modulus (GPa) = 33.40694 35.93836 34.67265
#
# Velocity S-wave (km/s) = 4.04973 4.20037 4.12574
# Velocity P-wave (km/s) = 7.09175 7.33376 7.21377
#
# Compressibility (1/GPa) = 0.01727049
#
# Stress axis : x y z
#
# Youngs Moduli (GPa) = 83.09953 94.79570 120.51557
#
# Poissons Ratio (x) = 0.13746 0.31400
# Poissons Ratio (y) = 0.12050 0.33135
# Poissons Ratio (z) = 0.21651 0.26063
#
# Static dielectric constant tensor:
#      x y z
#    x 4.204470 0.000000 0.000000 
#    y 0.000000 3.721570 0.000000 
#    z 0.000000 0.000000 4.168760 
# 
# 
# High freq. dielectric constant tensor:
#      x y z
#    x 1.786280 0.000000 0.000000 
#    y 0.000000 1.813710 0.000000 
#    z 0.000000 0.000000 1.802380 
# 
# From -- ./inp_files/16610.got.cif
#   From: 2010.03.12/outbox.cif.g09.slc.cpg/sg60_9_cif.got.tgz:16610.got - 2010.04.10 18:46:24.
