data_PCOD8247141
_publ_section_title
;
Structure prediction by ZEFSAII (Michael W. Deem and Ramdas Pophale) SiO2 
 PCOD8247141
Probable space group: P B C N
;
_chemical_formula_sum "Si O2"
_cell_formula_units_Z 44
_cell_length_a 15.180162
_cell_length_b 8.983665
_cell_length_c 15.556349
_cell_angle_alpha 90.000000
_cell_angle_beta 90.000000
_cell_angle_gamma 90.000000
_cell_volume 2121.473606
_symmetry_space_group_name_H-M "P B C N"
_symmetry_group_IT_number 60
_symmetry_cell_setting 'orthorhombic'
loop_
_space_group_symop_operation_xyz
x,y,z
1/2-x,1/2-y,1/2+z
1/2+x,1/2-y,-z
-x,y,1/2-z
-x,-y,-z
1/2+x,1/2+y,1/2-z
1/2-x,1/2+y,z
x,-y,1/2+z
loop_
_atom_site_type_symbol
_atom_site_label
_atom_site_fract_x
_atom_site_fract_y
_atom_site_fract_z
Si Si1 0.060119 0.651361 0.332361
Si Si2 0.748576 0.740809 0.732179
Si Si3 0.334568 0.486102 0.679103
Si Si4 0.950103 0.865045 0.454402
Si Si5 0.088474 0.677581 0.885355
Si Si6 0.000000 0.137630 0.250000
O O1 0.157434 0.696046 0.303292
O O2 0.070862 0.499130 0.387005
O O3 0.000000 0.617891 0.250000
O O4 0.015601 0.782436 0.388333
O O5 0.736818 0.578514 0.769064
O O6 0.818793 0.727587 0.655619
O O7 0.786753 0.825975 0.817502
O O8 0.363418 0.559214 0.589103
O O9 0.420889 0.476192 0.737912
O O10 0.913430 0.739628 0.518164
O O11 0.000000 0.000000 0.500000
O O12 0.009757 0.757584 0.833292
#
# Coordination Sequence:
#
# PCOD8247141 Si02
#       6
#     8   8   8   8   8   4
#     4  12  24  45  74  99 137 187 239 279 346 423
#     4  11  24  44  71  98 134 184 233 282 340 420
#     4  11  22  44  67 100 131 179 232 275 348 409
#     4  12  26  44  70 103 140 181 226 293 349 410
#     4  11  24  44  67 106 137 179 234 293 345 400
#     4  10  20  40  76  86 138 186 234 272 338 430
#
# _framework density 20.740300000000001
#
# number of rings (size 3 to 8) (size 9 to 14) (size 15 to 20)
#    0.000    0.727    6.364    1.636    2.545    0.000 
#    6.545    0.000    0.000    0.000    0.000    0.000 
#    0.000    0.000    0.000    0.000    0.000    0.000 
#
# Total GULP energy -545269.735333 kJ/mol
# GULP energy per Si atom -12392.493985 kJ/mol
# Density = 2.069309 g / cm^3
# Si number density = 20.740300 Si / 1000 Ang^3
#
#
#
# Elastic Constant Matrix: (Units=GPa)
#
#
# Indices 1 2 3 4 5 6 
#
# 1 112.2558 37.9071 36.6696 0.0000 0.0000 0.0000
# 2 37.9071 99.8472 30.3419 0.0000 0.0000 0.0000
# 3 36.6696 30.3419 80.5495 0.0000 0.0000 0.0000
# 4 0.0000 0.0000 0.0000 40.7121 0.0000 0.0000
# 5 0.0000 0.0000 0.0000 0.0000 36.5615 0.0000
# 6 0.0000 0.0000 0.0000 0.0000 0.0000 28.4093
#
#
#
# Elastic Compliance Matrix: (Units=1/GPa)
#
#
# Indices 1 2 3 4 5 6 
#
# 1 0.011236 -0.003062 -0.003962 0.000000 0.000000 0.000000
# 2 -0.003062 0.012144 -0.003181 0.000000 0.000000 0.000000
# 3 -0.003962 -0.003181 0.015416 0.000000 0.000000 0.000000
# 4 0.000000 0.000000 0.000000 0.024563 0.000000 0.000000
# 5 0.000000 0.000000 0.000000 0.000000 0.027351 0.000000
# 6 0.000000 0.000000 0.000000 0.000000 0.000000 0.035200
#
#
# Mechanical properties :
#
#
# Convention : Reuss Voigt Hill
#
# Bulk Modulus (GPa) = 54.38285 55.83219 55.10752
# Shear Modulus (GPa) = 32.79780 33.65217 33.22498
#
# Velocity S-wave (km/s) = 3.98094 4.03246 4.00678
# Velocity P-wave (km/s) = 6.88537 6.97561 6.93063
#
# Compressibility (1/GPa) = 0.01838815
#
# Stress axis : x y z
#
# Youngs Moduli (GPa) = 88.99654 82.34289 64.86571
#
# Poissons Ratio (x) = 0.25213 0.25699
# Poissons Ratio (y) = 0.27250 0.20632
# Poissons Ratio (z) = 0.35259 0.26191
#
# Static dielectric constant tensor:
#      x y z
#    x 3.884160 0.000000 0.000000 
#    y 0.000000 4.083010 0.000000 
#    z 0.000000 0.000000 3.711240 
# 
# 
# High freq. dielectric constant tensor:
#      x y z
#    x 1.820560 0.000000 0.000000 
#    y 0.000000 1.837710 0.000000 
#    z 0.000000 0.000000 1.792260 
# 
# From -- ./inp_files/17288.got.cif
#   From: 2010.03.12/outbox.cif.g09.slc.cpg/sg60_9_cif.got.tgz:17288.got - 2010.04.10 18:46:24.
