data_PCOD8247679
_publ_section_title
;
Structure prediction by ZEFSAII (Michael W. Deem and Ramdas Pophale) SiO2 
 PCOD8247679
Probable space group: P B C N
;
_chemical_formula_sum "Si O2"
_cell_formula_units_Z 24
_cell_length_a 8.446690
_cell_length_b 26.478342
_cell_length_c 4.952227
_cell_angle_alpha 90.000000
_cell_angle_beta 90.000000
_cell_angle_gamma 90.000000
_cell_volume 1107.587094
_symmetry_space_group_name_H-M "P B C N"
_symmetry_group_IT_number 60
_symmetry_cell_setting 'orthorhombic'
loop_
_space_group_symop_operation_xyz
x,y,z
1/2-x,1/2-y,1/2+z
1/2+x,1/2-y,-z
-x,y,1/2-z
-x,-y,-z
1/2+x,1/2+y,1/2-z
1/2-x,1/2+y,z
x,-y,1/2+z
loop_
_atom_site_type_symbol
_atom_site_label
_atom_site_fract_x
_atom_site_fract_y
_atom_site_fract_z
Si Si1 0.186327 0.529059 0.200533
Si Si2 0.389097 0.616982 0.003885
Si Si3 0.669630 0.270447 0.871694
O O1 0.249699 0.515725 0.499643
O O2 0.000000 0.531483 0.250000
O O3 0.239679 0.580714 0.055478
O O4 0.500000 0.605155 0.750000
O O5 0.500000 0.606510 0.250000
O O6 0.324063 0.673919 0.999767
O O7 0.792206 0.266791 0.621433
O O8 0.500000 0.255585 0.750000
#
# Coordination Sequence:
#
# PCOD8247679 Si02
#       3
#     8   8   8
#     4  10  22  39  59  87 122 157 198 247 298 357
#     4  11  23  40  61  88 120 155 201 250 298 359
#     4  11  23  41  62  89 122 158 202 252 305 364
#
# _framework density 21.668725999999999
#
# number of rings (size 3 to 8) (size 9 to 14) (size 15 to 20)
#    0.000    1.333    0.000    7.000    0.000    6.667 
#    0.000    3.333    0.000    0.000    0.000    0.000 
#    0.000    0.000    0.000    0.000    0.000    0.000 
#
# Total GULP energy -297321.365751 kJ/mol
# GULP energy per Si atom -12388.390240 kJ/mol
# Density = 2.161941 g / cm^3
# Si number density = 21.668726 Si / 1000 Ang^3
#
#
#
# Elastic Constant Matrix: (Units=GPa)
#
#
# Indices 1 2 3 4 5 6 
#
# 1 53.2841 53.9096 40.9466 0.0000 0.0000 0.0000
# 2 53.9096 83.0386 44.6376 0.0000 0.0000 0.0000
# 3 40.9466 44.6376 150.6159 0.0000 0.0000 0.0000
# 4 0.0000 0.0000 0.0000 37.1123 0.0000 0.0000
# 5 0.0000 0.0000 0.0000 0.0000 43.2438 0.0000
# 6 0.0000 0.0000 0.0000 0.0000 0.0000 36.1831
#
#
#
# Elastic Compliance Matrix: (Units=1/GPa)
#
#
# Indices 1 2 3 4 5 6 
#
# 1 0.058295 -0.034884 -0.005510 0.000000 0.000000 0.000000
# 2 -0.034884 0.035199 -0.000948 0.000000 0.000000 0.000000
# 3 -0.005510 -0.000948 0.008418 0.000000 0.000000 0.000000
# 4 0.000000 0.000000 0.000000 0.026945 0.000000 0.000000
# 5 0.000000 0.000000 0.000000 0.000000 0.023125 0.000000
# 6 0.000000 0.000000 0.000000 0.000000 0.000000 0.027637
#
#
# Mechanical properties :
#
#
# Convention : Reuss Voigt Hill
#
# Bulk Modulus (GPa) = 52.00570 62.88070 57.44320
# Shear Modulus (GPa) = 18.60721 33.13750 25.87236
#
# Velocity S-wave (km/s) = 2.93356 3.91484 3.45917
# Velocity P-wave (km/s) = 5.96044 7.03681 6.52087
#
# Compressibility (1/GPa) = 0.01922866
#
# Stress axis : x y z
#
# Youngs Moduli (GPa) = 17.15421 28.40955 118.78848
#
# Poissons Ratio (x) = 0.99104 0.65448
# Poissons Ratio (y) = 0.59841 0.11266
# Poissons Ratio (z) = 0.09451 0.02694
#
# Static dielectric constant tensor:
#      x y z
#    x 3.818530 0.000000 0.000000 
#    y 0.000000 4.242870 0.000000 
#    z 0.000000 0.000000 4.350730 
# 
# 
# High freq. dielectric constant tensor:
#      x y z
#    x 1.842810 0.000000 0.000000 
#    y 0.000000 1.838630 0.000000 
#    z 0.000000 0.000000 1.883770 
# 
# From -- ./inp_files/225.got.cif
#   From: 2010.03.12/outbox.cif.g09.slc.cpg/sg60_1_cif.got.tgz:225.got - 2010.04.10 18:46:24.
