data_PCOD8247793
_publ_section_title
;
Structure prediction by ZEFSAII (Michael W. Deem and Ramdas Pophale) SiO2 
 PCOD8247793
Probable space group: P B C N
;
_chemical_formula_sum "Si O2"
_cell_formula_units_Z 52
_cell_length_a 6.347449
_cell_length_b 17.397241
_cell_length_c 23.610223
_cell_angle_alpha 90.000000
_cell_angle_beta 90.000000
_cell_angle_gamma 90.000000
_cell_volume 2607.232066
_symmetry_space_group_name_H-M "P B C N"
_symmetry_group_IT_number 60
_symmetry_cell_setting 'orthorhombic'
loop_
_space_group_symop_operation_xyz
x,y,z
1/2-x,1/2-y,1/2+z
1/2+x,1/2-y,-z
-x,y,1/2-z
-x,-y,-z
1/2+x,1/2+y,1/2-z
1/2-x,1/2+y,z
x,-y,1/2+z
loop_
_atom_site_type_symbol
_atom_site_label
_atom_site_fract_x
_atom_site_fract_y
_atom_site_fract_z
Si Si1 0.000000 0.034910 0.750000
Si Si2 0.911401 0.032960 0.442424
Si Si3 0.712475 0.926515 0.349947
Si Si4 0.055890 0.282902 0.085058
Si Si5 0.879031 0.544438 0.194790
Si Si6 0.382138 0.829804 0.528854
Si Si7 0.265422 0.349486 0.895094
O O1 0.145709 0.084279 0.706953
O O2 0.144279 0.982192 0.789890
O O3 0.840142 0.964666 0.401296
O O4 0.715569 0.088164 0.455629
O O5 0.000000 0.000000 0.500000
O O6 0.100013 0.077258 0.413051
O O7 0.644949 0.841915 0.369071
O O8 0.505276 0.976403 0.336557
O O9 0.243513 0.240319 0.052031
O O10 0.917096 0.221594 0.120265
O O11 0.907446 0.324911 0.038964
O O12 0.870557 0.622483 0.158286
O O13 0.000000 0.571680 0.250000
O O14 0.613736 0.823052 0.554768
#
# Coordination Sequence:
#
# PCOD8247793 Si02
#       7
#     4   8   8   8   8   8   8
#     4  10  22  44  70  90 126 162 222 280 330 366
#     4  11  24  36  65 100 128 170 221 260 330 395
#     4  11  23  41  68  98 127 173 221 274 325 390
#     4  11  25  38  65  94 137 175 208 261 336 394
#     4  10  22  41  73  94 118 166 224 277 317 378
#     4  11  23  41  58  96 135 174 211 261 325 399
#     4  11  22  42  62  92 131 171 212 265 323 392
#
# _framework density 19.944521999999999
#
# number of rings (size 3 to 8) (size 9 to 14) (size 15 to 20)
#    0.000    1.231    4.615    0.923    4.308    2.462 
#    0.000    0.000   22.000    0.000    0.000    0.000 
#    0.000    0.000    0.000    0.000    0.000    0.000 
#
# Total GULP energy -644930.126538 kJ/mol
# GULP energy per Si atom -12402.502433 kJ/mol
# Density = 1.989913 g / cm^3
# Si number density = 19.944522 Si / 1000 Ang^3
#
#
#
# Elastic Constant Matrix: (Units=GPa)
#
#
# Indices 1 2 3 4 5 6 
#
# 1 97.6409 40.0640 37.3566 0.0000 0.0000 0.0000
# 2 40.0640 109.0573 62.5533 0.0000 0.0000 0.0000
# 3 37.3566 62.5533 115.8601 0.0000 0.0000 0.0000
# 4 0.0000 0.0000 0.0000 31.7596 0.0000 0.0000
# 5 0.0000 0.0000 0.0000 0.0000 38.1542 0.0000
# 6 0.0000 0.0000 0.0000 0.0000 0.0000 22.2983
#
#
#
# Elastic Compliance Matrix: (Units=1/GPa)
#
#
# Indices 1 2 3 4 5 6 
#
# 1 0.012447 -0.003289 -0.002237 0.000000 0.000000 0.000000
# 2 -0.003289 0.014152 -0.006580 0.000000 0.000000 0.000000
# 3 -0.002237 -0.006580 0.012905 0.000000 0.000000 0.000000
# 4 0.000000 0.000000 0.000000 0.031487 0.000000 0.000000
# 5 0.000000 0.000000 0.000000 0.000000 0.026209 0.000000
# 6 0.000000 0.000000 0.000000 0.000000 0.000000 0.044846
#
#
# Mechanical properties :
#
#
# Convention : Reuss Voigt Hill
#
# Bulk Modulus (GPa) = 65.39944 66.94511 66.17227
# Shear Modulus (GPa) = 29.17866 30.61472 29.89669
#
# Velocity S-wave (km/s) = 3.82906 3.92215 3.87588
# Velocity P-wave (km/s) = 7.23953 7.35864 7.29933
#
# Compressibility (1/GPa) = 0.01529065
#
# Stress axis : x y z
#
# Youngs Moduli (GPa) = 80.33850 70.66040 77.48817
#
# Poissons Ratio (x) = 0.23243 0.17337
# Poissons Ratio (y) = 0.26426 0.50989
# Poissons Ratio (z) = 0.17975 0.46496
#
# Static dielectric constant tensor:
#      x y z
#    x 3.847300 0.000000 0.000000 
#    y 0.000000 3.391740 0.000000 
#    z 0.000000 0.000000 3.696090 
# 
# 
# High freq. dielectric constant tensor:
#      x y z
#    x 1.796610 0.000000 0.000000 
#    y 0.000000 1.764140 0.000000 
#    z 0.000000 0.000000 1.780860 
# 
# From -- ./inp_files/24961.got.cif
#   From: 2010.03.12/outbox.cif.g09.slc.cpg/sg60_13_cif.got.tgz:24961.got - 2010.04.10 18:46:24.
