data_PCOD8247975
_publ_section_title
;
Structure prediction by ZEFSAII (Michael W. Deem and Ramdas Pophale) SiO2 
 PCOD8247975
Probable space group: P B C N
;
_chemical_formula_sum "Si O2"
_cell_formula_units_Z 52
_cell_length_a 24.349661
_cell_length_b 8.645023
_cell_length_c 11.750226
_cell_angle_alpha 90.000000
_cell_angle_beta 90.000000
_cell_angle_gamma 90.000000
_cell_volume 2473.462282
_symmetry_space_group_name_H-M "P B C N"
_symmetry_group_IT_number 60
_symmetry_cell_setting 'orthorhombic'
loop_
_space_group_symop_operation_xyz
x,y,z
1/2-x,1/2-y,1/2+z
1/2+x,1/2-y,-z
-x,y,1/2-z
-x,-y,-z
1/2+x,1/2+y,1/2-z
1/2-x,1/2+y,z
x,-y,1/2+z
loop_
_atom_site_type_symbol
_atom_site_label
_atom_site_fract_x
_atom_site_fract_y
_atom_site_fract_z
Si Si1 0.573628 0.766258 0.887059
Si Si2 0.432213 0.873667 0.142024
Si Si3 0.178302 0.726239 0.519835
Si Si4 0.500000 0.551070 0.750000
Si Si5 0.819241 0.239345 0.746013
Si Si6 0.253015 0.486951 0.635983
Si Si7 0.451619 0.727365 0.367414
O O1 0.523466 0.660214 0.848124
O O2 0.624614 0.715362 0.812409
O O3 0.558660 0.945278 0.875286
O O4 0.585502 0.727744 0.019736
O O5 0.380542 0.810526 0.073236
O O6 0.423292 0.843012 0.276755
O O7 0.486825 0.784487 0.100731
O O8 0.169320 0.745383 0.386576
O O9 0.221468 0.588593 0.541751
O O10 0.201747 0.883840 0.572861
O O11 0.545683 0.443229 0.688598
O O12 0.791711 0.392943 0.794052
O O13 0.781492 0.091870 0.768888
#
# Coordination Sequence:
#
# PCOD8247975 Si02
#       7
#     8   8   8   4   8   8   8
#     4  12  24  40  69  98 128 169 220 264 327 384
#     4  10  23  42  67  96 128 178 213 265 328 382
#     4  11  23  44  69  95 135 164 221 268 322 390
#     4  10  24  42  62  96 132 172 216 260 322 390
#     4  11  25  41  69  99 125 174 216 264 335 379
#     4  10  24  46  62  97 131 172 213 271 326 383
#     4  10  25  45  62  94 140 172 215 269 323 389
#
# _framework density 21.023161999999999
#
# number of rings (size 3 to 8) (size 9 to 14) (size 15 to 20)
#    0.000    1.538    1.538    2.769    8.615    1.231 
#   11.077    0.000    0.000    0.000    0.000    0.000 
#    0.000    0.000    0.000    0.000    0.000    0.000 
#
# Total GULP energy -644973.244224 kJ/mol
# GULP energy per Si atom -12403.331620 kJ/mol
# Density = 2.097531 g / cm^3
# Si number density = 21.023162 Si / 1000 Ang^3
#
#
#
# Elastic Constant Matrix: (Units=GPa)
#
#
# Indices 1 2 3 4 5 6 
#
# 1 60.1848 31.2663 47.1743 0.0000 0.0000 0.0000
# 2 31.2663 113.2082 58.8511 0.0000 0.0000 0.0000
# 3 47.1743 58.8511 192.8481 0.0000 0.0000 0.0000
# 4 0.0000 0.0000 0.0000 16.7071 0.0000 0.0000
# 5 0.0000 0.0000 0.0000 0.0000 33.2218 0.0000
# 6 0.0000 0.0000 0.0000 0.0000 0.0000 18.6404
#
#
#
# Elastic Compliance Matrix: (Units=1/GPa)
#
#
# Indices 1 2 3 4 5 6 
#
# 1 0.021902 -0.003879 -0.004174 0.000000 0.000000 0.000000
# 2 -0.003879 0.011186 -0.002465 0.000000 0.000000 0.000000
# 3 -0.004174 -0.002465 0.006959 0.000000 0.000000 0.000000
# 4 0.000000 0.000000 0.000000 0.059855 0.000000 0.000000
# 5 0.000000 0.000000 0.000000 0.000000 0.030101 0.000000
# 6 0.000000 0.000000 0.000000 0.000000 0.000000 0.053647
#
#
# Mechanical properties :
#
#
# Convention : Reuss Voigt Hill
#
# Bulk Modulus (GPa) = 52.60052 71.20273 61.90163
# Shear Modulus (GPa) = 23.69420 28.97716 26.33568
#
# Velocity S-wave (km/s) = 3.36080 3.71663 3.54319
# Velocity P-wave (km/s) = 6.33519 7.23602 6.80054
#
# Compressibility (1/GPa) = 0.01901122
#
# Stress axis : x y z
#
# Youngs Moduli (GPa) = 45.65705 89.39808 143.70760
#
# Poissons Ratio (x) = 0.34680 0.59982
# Poissons Ratio (y) = 0.17712 0.35419
# Poissons Ratio (z) = 0.19057 0.22033
#
# Static dielectric constant tensor:
#      x y z
#    x 3.719640 0.000000 0.000000 
#    y 0.000000 4.004880 0.000000 
#    z 0.000000 0.000000 3.870210 
# 
# 
# High freq. dielectric constant tensor:
#      x y z
#    x 1.817360 0.000000 0.000000 
#    y 0.000000 1.841340 0.000000 
#    z 0.000000 0.000000 1.830980 
# 
# From -- ./inp_files/13260.got.cif
#   From: 2010.03.12/outbox.cif.g09.slc.cpg/sg60_7_cif.got.tgz:13260.got - 2010.04.10 18:46:24.
