data_PCOD8247036
_publ_section_title
;
Structure prediction by ZEFSAII (Michael W. Deem and Ramdas Pophale) SiO2 
 PCOD8247036
Probable space group: P B C N
;
_chemical_formula_sum "Si O2"
_cell_formula_units_Z 64
_cell_length_a 11.056601
_cell_length_b 33.366616
_cell_length_c 8.387301
_cell_angle_alpha 90.000000
_cell_angle_beta 90.000000
_cell_angle_gamma 90.000000
_cell_volume 3094.254490
_symmetry_space_group_name_H-M "P B C N"
_symmetry_group_IT_number 60
_symmetry_cell_setting 'orthorhombic'
loop_
_space_group_symop_operation_xyz
x,y,z
1/2-x,1/2-y,1/2+z
1/2+x,1/2-y,-z
-x,y,1/2-z
-x,-y,-z
1/2+x,1/2+y,1/2-z
1/2-x,1/2+y,z
x,-y,1/2+z
loop_
_atom_site_type_symbol
_atom_site_label
_atom_site_fract_x
_atom_site_fract_y
_atom_site_fract_z
Si Si1 0.122441 0.452194 0.957134
Si Si2 0.703702 0.394557 0.042025
Si Si3 0.916622 0.223646 0.399775
Si Si4 0.344748 0.035616 0.094382
Si Si5 0.522546 0.356783 0.561126
Si Si6 0.929486 0.691182 0.024362
Si Si7 0.679855 0.176344 0.359331
Si Si8 0.228395 0.627146 0.603040
O O1 0.175592 0.456005 0.780128
O O2 0.977870 0.451728 0.960702
O O3 0.175044 0.488645 0.061955
O O4 0.161525 0.411432 0.037151
O O5 0.729061 0.380343 0.219319
O O6 0.747962 0.439644 0.010016
O O7 0.558715 0.391565 0.018881
O O8 0.766854 0.366282 0.911121
O O9 0.897341 0.262049 0.511358
O O10 0.782885 0.210040 0.347730
O O11 0.000000 0.236018 0.250000
O O12 0.979709 0.187414 0.498974
O O13 0.500000 0.357130 0.750000
O O14 0.660717 0.363064 0.515029
O O15 0.879434 0.672079 0.186846
O O16 0.074873 0.687983 0.015021
O O17 0.864833 0.664530 0.888271
#
# Coordination Sequence:
#
# PCOD8247036 Si02
#       8
#     8   8   8   8   8   8   8   8
#     4  10  21  37  62  96 126 170 202 258 314 376
#     4  11  23  40  62  91 126 165 210 261 312 384
#     4  10  23  39  64  85 120 157 208 263 326 375
#     4  10  20  38  63  91 133 162 209 253 314 376
#     4  10  22  44  65  87 121 168 209 261 319 385
#     4  11  24  39  62  85 119 162 207 264 315 379
#     4  10  24  42  57  88 119 162 210 258 316 377
#     4  12  24  38  64  93 126 162 214 260 320 377
#
# _framework density 20.683496000000002
#
# number of rings (size 3 to 8) (size 9 to 14) (size 15 to 20)
#    0.000    1.500    0.000    5.625    5.250    5.500 
#    4.500    0.625    0.000    0.000    0.000    0.000 
#    0.000    0.000    0.000    0.000    0.000    0.000 
#
# Total GULP energy -793725.364751 kJ/mol
# GULP energy per Si atom -12401.958824 kJ/mol
# Density = 2.063642 g / cm^3
# Si number density = 20.683496 Si / 1000 Ang^3
#
#
#
# Elastic Constant Matrix: (Units=GPa)
#
#
# Indices 1 2 3 4 5 6 
#
# 1 108.4040 38.1454 14.3238 0.0000 0.0000 0.0000
# 2 38.1454 112.6937 18.0085 0.0000 0.0000 0.0000
# 3 14.3238 18.0085 66.1964 0.0000 0.0000 0.0000
# 4 0.0000 0.0000 0.0000 31.5448 0.0000 0.0000
# 5 0.0000 0.0000 0.0000 0.0000 27.6945 0.0000
# 6 0.0000 0.0000 0.0000 0.0000 0.0000 28.0145
#
#
#
# Elastic Compliance Matrix: (Units=1/GPa)
#
#
# Indices 1 2 3 4 5 6 
#
# 1 0.010591 -0.003365 -0.001376 0.000000 0.000000 0.000000
# 2 -0.003365 0.010346 -0.002086 0.000000 0.000000 0.000000
# 3 -0.001376 -0.002086 0.015972 0.000000 0.000000 0.000000
# 4 0.000000 0.000000 0.000000 0.031701 0.000000 0.000000
# 5 0.000000 0.000000 0.000000 0.000000 0.036108 0.000000
# 6 0.000000 0.000000 0.000000 0.000000 0.000000 0.035696
#
#
# Mechanical properties :
#
#
# Convention : Reuss Voigt Hill
#
# Bulk Modulus (GPa) = 43.00443 47.58328 45.29386
# Shear Modulus (GPa) = 30.89853 31.90518 31.40186
#
# Velocity S-wave (km/s) = 3.86926 3.93178 3.90065
# Velocity P-wave (km/s) = 6.38736 6.60812 6.49868
#
# Compressibility (1/GPa) = 0.02325342
#
# Stress axis : x y z
#
# Youngs Moduli (GPa) = 94.42305 96.65568 62.60963
#
# Poissons Ratio (x) = 0.32523 0.08617
# Poissons Ratio (y) = 0.31772 0.13063
# Poissons Ratio (z) = 0.12995 0.20167
#
# Static dielectric constant tensor:
#      x y z
#    x 3.964770 0.000000 0.000000 
#    y 0.000000 3.761580 0.000000 
#    z 0.000000 0.000000 3.686470 
# 
# 
# High freq. dielectric constant tensor:
#      x y z
#    x 1.812880 0.000000 0.000000 
#    y 0.000000 1.808340 0.000000 
#    z 0.000000 0.000000 1.807650 
# 
# From -- ./inp_files/5353.got.cif
#   From: 2010.03.12/outbox.cif.g09.slc.cpg/sg60_3_cif.got.tgz:5353.got - 2010.04.10 18:46:24.
