data_PCOD8247294
_publ_section_title
;
Structure prediction by ZEFSAII (Michael W. Deem and Ramdas Pophale) SiO2 
 PCOD8247294
Probable space group: P B C N
;
_chemical_formula_sum "Si O2"
_cell_formula_units_Z 44
_cell_length_a 23.915315
_cell_length_b 10.066327
_cell_length_c 8.921361
_cell_angle_alpha 90.000000
_cell_angle_beta 90.000000
_cell_angle_gamma 90.000000
_cell_volume 2147.722926
_symmetry_space_group_name_H-M "P B C N"
_symmetry_group_IT_number 60
_symmetry_cell_setting 'orthorhombic'
loop_
_space_group_symop_operation_xyz
x,y,z
1/2-x,1/2-y,1/2+z
1/2+x,1/2-y,-z
-x,y,1/2-z
-x,-y,-z
1/2+x,1/2+y,1/2-z
1/2-x,1/2+y,z
x,-y,1/2+z
loop_
_atom_site_type_symbol
_atom_site_label
_atom_site_fract_x
_atom_site_fract_y
_atom_site_fract_z
Si Si1 0.000000 0.511429 0.750000
Si Si2 0.216603 0.830311 0.466783
Si Si3 0.717547 0.397370 0.372474
Si Si4 0.411300 0.410589 0.133877
Si Si5 0.478251 0.818896 0.507554
Si Si6 0.412908 0.671103 0.965219
O O1 0.961365 0.606039 0.645789
O O2 0.961996 0.416540 0.854899
O O3 0.250999 0.702406 0.516913
O O4 0.235208 0.874970 0.299990
O O5 0.151727 0.785847 0.469011
O O6 0.230306 0.950986 0.580028
O O7 0.652326 0.370332 0.395168
O O8 0.446586 0.318882 0.021547
O O9 0.429192 0.391874 0.305054
O O10 0.423831 0.562167 0.093129
O O11 0.545829 0.794936 0.505399
#
# Coordination Sequence:
#
# PCOD8247294 Si02
#       6
#     4   8   8   8   8   8
#     4  10  24  38  58  76 128 154 182 232 276 354
#     4  10  21  40  60  88 117 154 196 243 290 345
#     4  10  21  40  60  88 117 154 196 243 290 345
#     4  10  21  37  62  86 114 146 193 240 283 338
#     4  11  21  42  55  86 116 152 190 229 289 337
#     4  10  21  37  62  86 114 146 193 240 283 338
#
# _framework density 20.486815
#
# number of rings (size 3 to 8) (size 9 to 14) (size 15 to 20)
#    0.000    1.818    1.818    1.636    2.545    1.455 
#    6.545    0.000    0.000    0.000    0.000    0.000 
#    0.000    0.000    0.000    0.000    0.000    0.000 
#
# Total GULP energy -545588.229488 kJ/mol
# GULP energy per Si atom -12399.732488 kJ/mol
# Density = 2.044019 g / cm^3
# Si number density = 20.486815 Si / 1000 Ang^3
#
#
#
# Elastic Constant Matrix: (Units=GPa)
#
#
# Indices 1 2 3 4 5 6 
#
# 1 57.3611 35.2161 24.0116 0.0000 0.0000 0.0000
# 2 35.2161 75.7552 27.7496 0.0000 0.0000 0.0000
# 3 24.0116 27.7496 98.9531 0.0000 0.0000 0.0000
# 4 0.0000 0.0000 0.0000 32.9022 0.0000 0.0000
# 5 0.0000 0.0000 0.0000 0.0000 22.4198 0.0000
# 6 0.0000 0.0000 0.0000 0.0000 0.0000 28.3146
#
#
#
# Elastic Compliance Matrix: (Units=1/GPa)
#
#
# Indices 1 2 3 4 5 6 
#
# 1 0.025253 -0.010581 -0.003160 0.000000 0.000000 0.000000
# 2 -0.010581 0.019146 -0.002801 0.000000 0.000000 0.000000
# 3 -0.003160 -0.002801 0.011658 0.000000 0.000000 0.000000
# 4 0.000000 0.000000 0.000000 0.030393 0.000000 0.000000
# 5 0.000000 0.000000 0.000000 0.000000 0.044604 0.000000
# 6 0.000000 0.000000 0.000000 0.000000 0.000000 0.035317
#
#
# Mechanical properties :
#
#
# Convention : Reuss Voigt Hill
#
# Bulk Modulus (GPa) = 43.53478 45.11377 44.32427
# Shear Modulus (GPa) = 24.14133 26.40012 25.27072
#
# Velocity S-wave (km/s) = 3.43648 3.59366 3.51595
# Velocity P-wave (km/s) = 6.08623 6.26800 6.17778
#
# Compressibility (1/GPa) = 0.02297014
#
# Stress axis : x y z
#
# Youngs Moduli (GPa) = 39.59972 52.23142 85.77604
#
# Poissons Ratio (x) = 0.55269 0.27108
# Poissons Ratio (y) = 0.41902 0.24029
# Poissons Ratio (z) = 0.12515 0.14632
#
# Static dielectric constant tensor:
#      x y z
#    x 3.518800 0.000000 0.000000 
#    y 0.000000 3.677230 0.000000 
#    z 0.000000 0.000000 3.948180 
# 
# 
# High freq. dielectric constant tensor:
#      x y z
#    x 1.775010 0.000000 0.000000 
#    y 0.000000 1.805210 0.000000 
#    z 0.000000 0.000000 1.817300 
# 
# From -- ./inp_files/8336.got.cif
#   From: 2010.03.12/outbox.cif.g09.slc.cpg/sg60_5_cif.got.tgz:8336.got - 2010.04.10 18:46:24.
