data_PCOD8247926
_publ_section_title
;
Structure prediction by ZEFSAII (Michael W. Deem and Ramdas Pophale) SiO2 
 PCOD8247926
Probable space group: P B C N
;
_chemical_formula_sum "Si O2"
_cell_formula_units_Z 32
_cell_length_a 7.459480
_cell_length_b 10.374477
_cell_length_c 20.641590
_cell_angle_alpha 90.000000
_cell_angle_beta 90.000000
_cell_angle_gamma 90.000000
_cell_volume 1597.415571
_symmetry_space_group_name_H-M "P B C N"
_symmetry_group_IT_number 60
_symmetry_cell_setting 'orthorhombic'
loop_
_space_group_symop_operation_xyz
x,y,z
1/2-x,1/2-y,1/2+z
1/2+x,1/2-y,-z
-x,y,1/2-z
-x,-y,-z
1/2+x,1/2+y,1/2-z
1/2-x,1/2+y,z
x,-y,1/2+z
loop_
_atom_site_type_symbol
_atom_site_label
_atom_site_fract_x
_atom_site_fract_y
_atom_site_fract_z
Si Si1 0.234494 0.575239 0.138168
Si Si2 0.939068 0.379186 0.541555
Si Si3 0.539399 0.684784 0.064753
Si Si4 0.599213 0.813834 0.316017
O O1 0.044252 0.618037 0.109016
O O2 0.388560 0.576721 0.082000
O O3 0.282149 0.683697 0.192351
O O4 0.228449 0.434515 0.169438
O O5 0.984633 0.248756 0.503097
O O6 0.000000 0.500000 0.500000
O O7 0.729489 0.384611 0.558494
O O8 0.537197 0.792337 0.122991
O O9 0.500000 0.845191 0.250000
#
# Coordination Sequence:
#
# PCOD8247926 Si02
#       4
#     8   8   8   8
#     4  10  23  43  68  97 131 172 223 272 330 398
#     4  12  21  40  67 101 134 172 215 280 342 395
#     4  10  23  39  65  99 133 169 221 271 337 391
#     4  10  23  47  65  93 133 175 225 269 326 393
#
# _framework density 20.032359
#
# number of rings (size 3 to 8) (size 9 to 14) (size 15 to 20)
#    1.500    0.000    5.000    0.000    0.000    5.000 
#    0.000    1.250    0.000    0.000    0.000    0.000 
#    0.000    0.000    0.000    0.000    0.000    0.000 
#
# Total GULP energy -396613.343410 kJ/mol
# GULP energy per Si atom -12394.166982 kJ/mol
# Density = 1.998676 g / cm^3
# Si number density = 20.032359 Si / 1000 Ang^3
#
#
#
# Elastic Constant Matrix: (Units=GPa)
#
#
# Indices 1 2 3 4 5 6 
#
# 1 127.9454 57.3544 16.9319 0.0000 0.0000 0.0000
# 2 57.3544 126.3654 22.4964 0.0000 0.0000 0.0000
# 3 16.9319 22.4964 48.4979 0.0000 0.0000 0.0000
# 4 0.0000 0.0000 0.0000 15.4145 0.0000 0.0000
# 5 0.0000 0.0000 0.0000 0.0000 29.2407 0.0000
# 6 0.0000 0.0000 0.0000 0.0000 0.0000 37.3248
#
#
#
# Elastic Compliance Matrix: (Units=1/GPa)
#
#
# Indices 1 2 3 4 5 6 
#
# 1 0.009911 -0.004232 -0.001497 0.000000 0.000000 0.000000
# 2 -0.004232 0.010433 -0.003362 0.000000 0.000000 0.000000
# 3 -0.001497 -0.003362 0.022702 0.000000 0.000000 0.000000
# 4 0.000000 0.000000 0.000000 0.064874 0.000000 0.000000
# 5 0.000000 0.000000 0.000000 0.000000 0.034199 0.000000
# 6 0.000000 0.000000 0.000000 0.000000 0.000000 0.026792
#
#
# Mechanical properties :
#
#
# Convention : Reuss Voigt Hill
#
# Bulk Modulus (GPa) = 40.21963 55.15267 47.68615
# Shear Modulus (GPa) = 25.59115 30.13107 27.86111
#
# Velocity S-wave (km/s) = 3.57808 3.88251 3.73340
# Velocity P-wave (km/s) = 6.09845 6.90580 6.51464
#
# Compressibility (1/GPa) = 0.02486348
#
# Stress axis : x y z
#
# Youngs Moduli (GPa) = 100.89819 95.85152 44.04966
#
# Poissons Ratio (x) = 0.40563 0.06595
# Poissons Ratio (y) = 0.42698 0.14809
# Poissons Ratio (z) = 0.15106 0.32225
#
# Static dielectric constant tensor:
#      x y z
#    x 3.654220 0.000000 0.000000 
#    y 0.000000 3.537810 0.000000 
#    z 0.000000 0.000000 3.511320 
# 
# 
# High freq. dielectric constant tensor:
#      x y z
#    x 1.774970 0.000000 0.000000 
#    y 0.000000 1.782690 0.000000 
#    z 0.000000 0.000000 1.764220 
# 
# From -- ./inp_files/23428.got.cif
#   From: 2010.03.12/outbox.cif.g09.slc.cpg/sg60_12_cif.got.tgz:23428.got - 2010.04.10 18:46:24.
