data_PCOD8247281
_publ_section_title
;
Structure prediction by ZEFSAII (Michael W. Deem and Ramdas Pophale) SiO2 
 PCOD8247281
Probable space group: P B C N
;
_chemical_formula_sum "Si O2"
_cell_formula_units_Z 32
_cell_length_a 4.891465
_cell_length_b 35.448861
_cell_length_c 8.713679
_cell_angle_alpha 90.000000
_cell_angle_beta 90.000000
_cell_angle_gamma 90.000000
_cell_volume 1510.924603
_symmetry_space_group_name_H-M "P B C N"
_symmetry_group_IT_number 60
_symmetry_cell_setting 'orthorhombic'
loop_
_space_group_symop_operation_xyz
x,y,z
1/2-x,1/2-y,1/2+z
1/2+x,1/2-y,-z
-x,y,1/2-z
-x,-y,-z
1/2+x,1/2+y,1/2-z
1/2-x,1/2+y,z
x,-y,1/2+z
loop_
_atom_site_type_symbol
_atom_site_label
_atom_site_fract_x
_atom_site_fract_y
_atom_site_fract_z
Si Si1 0.521129 0.959513 0.927475
Si Si2 0.911663 0.732428 0.577521
Si Si3 0.748382 0.348019 0.147053
Si Si4 0.489240 0.589318 0.429233
O O1 0.500000 0.966555 0.750000
O O2 0.822409 0.946104 0.967455
O O3 0.309371 0.926215 0.978947
O O4 0.500000 0.000000 0.000000
O O5 0.639384 0.755787 0.544299
O O6 0.865902 0.687646 0.554463
O O7 0.000000 0.742144 0.750000
O O8 0.500000 0.332558 0.250000
O O9 0.000000 0.365368 0.250000
O O10 0.603806 0.376724 0.030692
O O11 0.500000 0.601450 0.250000
#
# Coordination Sequence:
#
# PCOD8247281 Si02
#       4
#     8   8   8   8
#     4  10  21  37  58  86 118 154 198 249 300 361
#     4  11  23  42  65  93 127 164 209 262 314 375
#     4  11  23  41  63  91 124 161 207 259 310 372
#     4  10  22  40  60  86 121 157 200 250 304 366
#
# _framework density 21.179085000000001
#
# number of rings (size 3 to 8) (size 9 to 14) (size 15 to 20)
#    0.000    1.500    0.000    6.000    0.000    4.000 
#    0.000   10.000    0.000    0.000    0.000    0.000 
#    0.000    0.000    0.000    0.000    0.000    0.000 
#
# Total GULP energy -396610.777762 kJ/mol
# GULP energy per Si atom -12394.086805 kJ/mol
# Density = 2.113088 g / cm^3
# Si number density = 21.179085 Si / 1000 Ang^3
#
#
#
# Elastic Constant Matrix: (Units=GPa)
#
#
# Indices 1 2 3 4 5 6 
#
# 1 103.5541 30.0083 33.1420 0.0000 0.0000 0.0000
# 2 30.0083 130.4331 70.5825 0.0000 0.0000 0.0000
# 3 33.1420 70.5825 69.1159 0.0000 0.0000 0.0000
# 4 0.0000 0.0000 0.0000 48.7699 0.0000 0.0000
# 5 0.0000 0.0000 0.0000 0.0000 42.6405 0.0000
# 6 0.0000 0.0000 0.0000 0.0000 0.0000 59.8108
#
#
#
# Elastic Compliance Matrix: (Units=1/GPa)
#
#
# Indices 1 2 3 4 5 6 
#
# 1 0.011440 0.000752 -0.006254 0.000000 0.000000 0.000000
# 2 0.000752 0.017187 -0.017912 0.000000 0.000000 0.000000
# 3 -0.006254 -0.017912 0.035759 0.000000 0.000000 0.000000
# 4 0.000000 0.000000 0.000000 0.020504 0.000000 0.000000
# 5 0.000000 0.000000 0.000000 0.000000 0.023452 0.000000
# 6 0.000000 0.000000 0.000000 0.000000 0.000000 0.016719
#
#
# Mechanical properties :
#
#
# Convention : Reuss Voigt Hill
#
# Bulk Modulus (GPa) = 56.95138 63.39652 60.17395
# Shear Modulus (GPa) = 28.13061 41.53559 34.83310
#
# Velocity S-wave (km/s) = 3.64844 4.43330 4.05988
# Velocity P-wave (km/s) = 6.68557 7.49694 7.10285
#
# Compressibility (1/GPa) = 0.01755884
#
# Stress axis : x y z
#
# Youngs Moduli (GPa) = 87.40978 58.18504 27.96474
#
# Poissons Ratio (x) = -0.04377 0.17489
# Poissons Ratio (y) = -0.06575 0.50090
# Poissons Ratio (z) = 0.54666 1.04221
#
# Static dielectric constant tensor:
#      x y z
#    x 4.244500 0.000000 0.000000 
#    y 0.000000 3.508840 0.000000 
#    z 0.000000 0.000000 3.783290 
# 
# 
# High freq. dielectric constant tensor:
#      x y z
#    x 1.859740 0.000000 0.000000 
#    y 0.000000 1.827760 0.000000 
#    z 0.000000 0.000000 1.822350 
# 
# From -- ./inp_files/3036.got.cif
#   From: 2010.03.12/outbox.cif.g09.slc.cpg/sg60_2_cif.got.tgz:3036.got - 2010.04.10 18:46:24.
