data_PCOD8247966
_publ_section_title
;
Structure prediction by ZEFSAII (Michael W. Deem and Ramdas Pophale) SiO2 
 PCOD8247966
Probable space group: P B C N
;
_chemical_formula_sum "Si O2"
_cell_formula_units_Z 40
_cell_length_a 8.568895
_cell_length_b 24.577089
_cell_length_c 8.307601
_cell_angle_alpha 90.000000
_cell_angle_beta 90.000000
_cell_angle_gamma 90.000000
_cell_volume 1749.568268
_symmetry_space_group_name_H-M "P B C N"
_symmetry_group_IT_number 60
_symmetry_cell_setting 'orthorhombic'
loop_
_space_group_symop_operation_xyz
x,y,z
1/2-x,1/2-y,1/2+z
1/2+x,1/2-y,-z
-x,y,1/2-z
-x,-y,-z
1/2+x,1/2+y,1/2-z
1/2-x,1/2+y,z
x,-y,1/2+z
loop_
_atom_site_type_symbol
_atom_site_label
_atom_site_fract_x
_atom_site_fract_y
_atom_site_fract_z
Si Si1 0.193193 0.073916 0.409069
Si Si2 0.101942 0.902329 0.406119
Si Si3 0.816351 0.523441 0.763469
Si Si4 0.229150 0.804173 0.852209
Si Si5 0.405299 0.713566 0.008095
O O1 0.278893 0.050092 0.565532
O O2 0.268763 0.131936 0.361793
O O3 0.005647 0.081172 0.438885
O O4 0.226305 0.034182 0.258414
O O5 0.257782 0.938498 0.385865
O O6 0.154921 0.839615 0.412384
O O7 0.000000 0.914513 0.250000
O O8 0.000000 0.514633 0.750000
O O9 0.183125 0.784959 0.676275
O O10 0.090202 0.790671 0.975049
O O11 0.376132 0.768566 0.908476
#
# Coordination Sequence:
#
# PCOD8247966 Si02
#       5
#     8   8   8   8   8
#     4  10  23  43  63  92 126 170 216 258 321 394
#     4   9  21  41  67  90 123 174 217 260 316 393
#     4  11  23  40  63  92 131 163 214 268 323 376
#     4  10  24  43  65  96 125 165 217 262 321 384
#     4  10  23  42  66  92 130 164 213 266 319 384
#
# _framework density 22.862783
#
# number of rings (size 3 to 8) (size 9 to 14) (size 15 to 20)
#    0.000    2.000    0.000    1.200   11.200    1.600 
#   10.800    0.000    0.000    0.000    0.000    0.000 
#    0.000    0.000    0.000    0.000    0.000    0.000 
#
# Total GULP energy -496029.847125 kJ/mol
# GULP energy per Si atom -12400.746178 kJ/mol
# Density = 2.281075 g / cm^3
# Si number density = 22.862783 Si / 1000 Ang^3
#
#
#
# Elastic Constant Matrix: (Units=GPa)
#
#
# Indices 1 2 3 4 5 6 
#
# 1 58.0409 26.2645 -1.2060 0.0000 0.0000 0.0000
# 2 26.2645 136.8969 -4.5025 0.0000 0.0000 0.0000
# 3 -1.2060 -4.5025 10.7850 0.0000 0.0000 0.0000
# 4 0.0000 0.0000 0.0000 36.6601 0.0000 0.0000
# 5 0.0000 0.0000 0.0000 0.0000 24.9815 0.0000
# 6 0.0000 0.0000 0.0000 0.0000 0.0000 38.1869
#
#
#
# Elastic Compliance Matrix: (Units=1/GPa)
#
#
# Indices 1 2 3 4 5 6 
#
# 1 0.018871 -0.003601 0.000607 0.000000 0.000000 0.000000
# 2 -0.003601 0.008093 0.002976 0.000000 0.000000 0.000000
# 3 0.000607 0.002976 0.094032 0.000000 0.000000 0.000000
# 4 0.000000 0.000000 0.000000 0.027278 0.000000 0.000000
# 5 0.000000 0.000000 0.000000 0.000000 0.040030 0.000000
# 6 0.000000 0.000000 0.000000 0.000000 0.000000 0.026187
#
#
# Mechanical properties :
#
#
# Convention : Reuss Voigt Hill
#
# Bulk Modulus (GPa) = 8.26708 27.42609 17.84659
# Shear Modulus (GPa) = 19.61971 32.31015 25.96493
#
# Velocity S-wave (km/s) = 2.93260 3.76336 3.37365
# Velocity P-wave (km/s) = 3.88467 5.55930 4.79565
#
# Compressibility (1/GPa) = 0.12096166
#
# Stress axis : x y z
#
# Youngs Moduli (GPa) = 52.99088 123.55667 10.63471
#
# Poissons Ratio (x) = 0.44488 -0.00646
# Poissons Ratio (y) = 0.19080 -0.03165
# Poissons Ratio (z) = -0.03217 -0.36773
#
# Static dielectric constant tensor:
#      x y z
#    x 3.984710 0.000000 0.000000 
#    y 0.000000 4.296040 0.000000 
#    z 0.000000 0.000000 4.146040 
# 
# 
# High freq. dielectric constant tensor:
#      x y z
#    x 1.878910 0.000000 0.000000 
#    y 0.000000 1.913850 0.000000 
#    z 0.000000 0.000000 1.908010 
# 
# From -- ./inp_files/3809.got.cif
#   From: 2010.03.12/outbox.cif.g09.slc.cpg/sg60_2_cif.got.tgz:3809.got - 2010.04.10 18:46:24.
