data_PCOD8247570
_publ_section_title
;
Structure prediction by ZEFSAII (Michael W. Deem and Ramdas Pophale) SiO2 
 PCOD8247570
Probable space group: P B C N
;
_chemical_formula_sum "Si O2"
_cell_formula_units_Z 52
_cell_length_a 11.291014
_cell_length_b 9.146379
_cell_length_c 25.226497
_cell_angle_alpha 90.000000
_cell_angle_beta 90.000000
_cell_angle_gamma 90.000000
_cell_volume 2605.188107
_symmetry_space_group_name_H-M "P B C N"
_symmetry_group_IT_number 60
_symmetry_cell_setting 'orthorhombic'
loop_
_space_group_symop_operation_xyz
x,y,z
1/2-x,1/2-y,1/2+z
1/2+x,1/2-y,-z
-x,y,1/2-z
-x,-y,-z
1/2+x,1/2+y,1/2-z
1/2-x,1/2+y,z
x,-y,1/2+z
loop_
_atom_site_type_symbol
_atom_site_label
_atom_site_fract_x
_atom_site_fract_y
_atom_site_fract_z
Si Si1 0.563615 0.375353 0.641609
Si Si2 0.633492 0.583655 0.842020
Si Si3 0.832674 0.781361 0.987807
Si Si4 0.765909 0.970271 0.554818
Si Si5 0.985688 0.608946 0.574354
Si Si6 0.677899 0.111169 0.390431
Si Si7 0.000000 0.027315 0.250000
O O1 0.464602 0.494398 0.623656
O O2 0.685611 0.422141 0.612552
O O3 0.524436 0.212334 0.625767
O O4 0.571538 0.375758 0.706062
O O5 0.759675 0.508078 0.852621
O O6 0.633373 0.753512 0.855795
O O7 0.598582 0.571675 0.779709
O O8 0.957316 0.704542 0.973384
O O9 0.766265 0.830998 0.934897
O O10 0.745731 0.671053 0.018264
O O11 0.857829 0.919874 0.025799
O O12 0.642155 0.053424 0.558139
O O13 0.064731 0.466897 0.584456
#
# Coordination Sequence:
#
# PCOD8247570 Si02
#       7
#     8   8   8   8   8   8   4
#     4  10  23  47  65  91 133 175 221 289 337 393
#     4  10  21  43  70  97 128 171 228 281 337 401
#     4  12  23  40  62 100 136 183 213 271 329 408
#     4  12  26  39  63  98 140 177 220 276 338 402
#     4  12  25  43  64 101 135 179 230 270 338 419
#     4  12  22  41  70  98 133 176 225 272 331 418
#     4   8  22  46  70  94 122 172 228 288 342 396
#
# _framework density 19.960172
#
# number of rings (size 3 to 8) (size 9 to 14) (size 15 to 20)
#    0.923    0.000    6.154    0.462    2.154    0.615 
#    2.769    0.769    0.000    0.000    0.000    0.000 
#    0.000    0.000    0.000    0.000    0.000    0.000 
#
# Total GULP energy -644538.934439 kJ/mol
# GULP energy per Si atom -12394.979508 kJ/mol
# Density = 1.991474 g / cm^3
# Si number density = 19.960172 Si / 1000 Ang^3
#
#
#
# Elastic Constant Matrix: (Units=GPa)
#
#
# Indices 1 2 3 4 5 6 
#
# 1 78.5806 18.6264 31.2089 0.0000 0.0000 0.0000
# 2 18.6264 91.8722 35.4088 0.0000 0.0000 0.0000
# 3 31.2089 35.4088 125.8993 0.0000 0.0000 0.0000
# 4 0.0000 0.0000 0.0000 21.0004 0.0000 0.0000
# 5 0.0000 0.0000 0.0000 0.0000 33.1938 0.0000
# 6 0.0000 0.0000 0.0000 0.0000 0.0000 24.4149
#
#
#
# Elastic Compliance Matrix: (Units=1/GPa)
#
#
# Indices 1 2 3 4 5 6 
#
# 1 0.014355 -0.001726 -0.003073 0.000000 0.000000 0.000000
# 2 -0.001726 0.012416 -0.003064 0.000000 0.000000 0.000000
# 3 -0.003073 -0.003064 0.009566 0.000000 0.000000 0.000000
# 4 0.000000 0.000000 0.000000 0.047618 0.000000 0.000000
# 5 0.000000 0.000000 0.000000 0.000000 0.030126 0.000000
# 6 0.000000 0.000000 0.000000 0.000000 0.000000 0.040959
#
#
# Mechanical properties :
#
#
# Convention : Reuss Voigt Hill
#
# Bulk Modulus (GPa) = 48.51749 51.87113 50.19431
# Shear Modulus (GPa) = 28.14735 29.79570 28.97153
#
# Velocity S-wave (km/s) = 3.75930 3.86781 3.81395
# Velocity P-wave (km/s) = 6.57290 6.78162 6.67808
#
# Compressibility (1/GPa) = 0.02061113
#
# Stress axis : x y z
#
# Youngs Moduli (GPa) = 69.66005 80.54441 104.53294
#
# Poissons Ratio (x) = 0.13902 0.32124
# Poissons Ratio (y) = 0.12024 0.32028
# Poissons Ratio (z) = 0.21407 0.24678
#
# Static dielectric constant tensor:
#      x y z
#    x 3.567090 0.000000 0.000000 
#    y 0.000000 3.853570 0.000000 
#    z 0.000000 0.000000 3.446400 
# 
# 
# High freq. dielectric constant tensor:
#      x y z
#    x 1.772500 0.000000 0.000000 
#    y 0.000000 1.791980 0.000000 
#    z 0.000000 0.000000 1.760850 
# 
# From -- ./inp_files/25309.got.cif
#   From: 2010.03.12/outbox.cif.g09.slc.cpg/sg60_13_cif.got.tgz:25309.got - 2010.04.10 18:46:24.
