data_PCOD8247337
_publ_section_title
;
Structure prediction by ZEFSAII (Michael W. Deem and Ramdas Pophale) SiO2 
 PCOD8247337
Probable space group: P B C N
;
_chemical_formula_sum "Si O2"
_cell_formula_units_Z 64
_cell_length_a 8.856542
_cell_length_b 17.414691
_cell_length_c 20.121452
_cell_angle_alpha 90.000000
_cell_angle_beta 90.000000
_cell_angle_gamma 90.000000
_cell_volume 3103.410866
_symmetry_space_group_name_H-M "P B C N"
_symmetry_group_IT_number 60
_symmetry_cell_setting 'orthorhombic'
loop_
_space_group_symop_operation_xyz
x,y,z
1/2-x,1/2-y,1/2+z
1/2+x,1/2-y,-z
-x,y,1/2-z
-x,-y,-z
1/2+x,1/2+y,1/2-z
1/2-x,1/2+y,z
x,-y,1/2+z
loop_
_atom_site_type_symbol
_atom_site_label
_atom_site_fract_x
_atom_site_fract_y
_atom_site_fract_z
Si Si1 0.673621 0.913235 0.990802
Si Si2 0.176244 0.336398 0.372293
Si Si3 0.824286 0.160075 0.125940
Si Si4 0.326649 0.090155 0.498186
Si Si5 0.177786 0.421215 0.754355
Si Si6 0.327796 0.165751 0.635130
Si Si7 0.676625 0.582440 0.745682
Si Si8 0.673898 0.657645 0.367516
O O1 0.498782 0.894891 0.976055
O O2 0.777986 0.864490 0.941764
O O3 0.718025 0.889783 0.065478
O O4 0.703365 0.002976 0.980214
O O5 0.202809 0.248492 0.392692
O O6 0.285170 0.356054 0.311245
O O7 0.003684 0.349971 0.350210
O O8 0.780395 0.109161 0.063071
O O9 0.724347 0.139993 0.189902
O O10 0.997338 0.143173 0.142966
O O11 0.284832 0.144205 0.559917
O O12 0.243178 0.503533 0.774285
O O13 0.237911 0.396411 0.682868
O O14 0.000000 0.427209 0.750000
O O15 0.232106 0.112685 0.683593
O O16 0.284756 0.254136 0.646799
O O17 0.500000 0.568277 0.750000
#
# Coordination Sequence:
#
# PCOD8247337 Si02
#       8
#     8   8   8   8   8   8   8   8
#     4  10  21  38  61  88 119 161 207 246 295 359
#     4  10  22  40  61  88 125 164 199 242 298 356
#     4  11  23  39  61  90 123 158 201 252 299 348
#     4  10  21  38  61  88 119 161 207 246 295 359
#     4  12  25  42  63  85 117 159 201 248 303 362
#     4  10  22  40  61  88 125 164 199 242 298 356
#     4  12  25  40  63  93 121 153 199 250 299 356
#     4  11  23  39  61  90 123 158 201 252 299 348
#
# _framework density 20.62247
#
# number of rings (size 3 to 8) (size 9 to 14) (size 15 to 20)
#    0.000    1.250    0.000    6.000    0.000    8.500 
#    0.000    0.000    0.000    0.000    0.000    0.000 
#    0.000    0.000    0.000    0.000    0.000    0.000 
#
# Total GULP energy -794176.465395 kJ/mol
# GULP energy per Si atom -12409.007272 kJ/mol
# Density = 2.057553 g / cm^3
# Si number density = 20.622470 Si / 1000 Ang^3
#
#
#
# Elastic Constant Matrix: (Units=GPa)
#
#
# Indices 1 2 3 4 5 6 
#
# 1 108.3375 38.7908 39.1165 0.0000 0.0000 0.0000
# 2 38.7908 72.8807 22.6568 0.0000 0.0000 0.0000
# 3 39.1165 22.6568 89.2465 0.0000 0.0000 0.0000
# 4 0.0000 0.0000 0.0000 40.4541 0.0000 0.0000
# 5 0.0000 0.0000 0.0000 0.0000 32.1934 0.0000
# 6 0.0000 0.0000 0.0000 0.0000 0.0000 27.9098
#
#
#
# Elastic Compliance Matrix: (Units=1/GPa)
#
#
# Indices 1 2 3 4 5 6 
#
# 1 0.012693 -0.005457 -0.004178 0.000000 0.000000 0.000000
# 2 -0.005457 0.017243 -0.001986 0.000000 0.000000 0.000000
# 3 -0.004178 -0.001986 0.013540 0.000000 0.000000 0.000000
# 4 0.000000 0.000000 0.000000 0.024719 0.000000 0.000000
# 5 0.000000 0.000000 0.000000 0.000000 0.031062 0.000000
# 6 0.000000 0.000000 0.000000 0.000000 0.000000 0.035830
#
#
# Mechanical properties :
#
#
# Convention : Reuss Voigt Hill
#
# Bulk Modulus (GPa) = 49.41969 52.39922 50.90945
# Shear Modulus (GPa) = 30.28966 31.43817 30.86391
#
# Velocity S-wave (km/s) = 3.83661 3.90867 3.87281
# Velocity P-wave (km/s) = 6.60622 6.77010 6.68866
#
# Compressibility (1/GPa) = 0.02023485
#
# Stress axis : x y z
#
# Youngs Moduli (GPa) = 78.78507 57.99516 73.85444
#
# Poissons Ratio (x) = 0.31648 0.30855
# Poissons Ratio (y) = 0.42993 0.14665
# Poissons Ratio (z) = 0.32915 0.11516
#
# Static dielectric constant tensor:
#      x y z
#    x 3.732050 0.000000 0.000000 
#    y 0.000000 3.776440 0.000000 
#    z 0.000000 0.000000 3.654540 
# 
# 
# High freq. dielectric constant tensor:
#      x y z
#    x 1.803830 0.000000 0.000000 
#    y 0.000000 1.820270 0.000000 
#    z 0.000000 0.000000 1.817140 
# 
# From -- ./inp_files/22388.got.cif
#   From: 2010.03.12/outbox.cif.g09.slc.cpg/sg60_12_cif.got.tgz:22388.got - 2010.04.10 18:46:24.
