data_PCOD8247040
_publ_section_title
;
Structure prediction by ZEFSAII (Michael W. Deem and Ramdas Pophale) SiO2 
 PCOD8247040
Probable space group: P B C N
;
_chemical_formula_sum "Si O2"
_cell_formula_units_Z 52
_cell_length_a 14.612602
_cell_length_b 8.823985
_cell_length_c 20.145574
_cell_angle_alpha 90.000000
_cell_angle_beta 90.000000
_cell_angle_gamma 90.000000
_cell_volume 2597.598130
_symmetry_space_group_name_H-M "P B C N"
_symmetry_group_IT_number 60
_symmetry_cell_setting 'orthorhombic'
loop_
_space_group_symop_operation_xyz
x,y,z
1/2-x,1/2-y,1/2+z
1/2+x,1/2-y,-z
-x,y,1/2-z
-x,-y,-z
1/2+x,1/2+y,1/2-z
1/2-x,1/2+y,z
x,-y,1/2+z
loop_
_atom_site_type_symbol
_atom_site_label
_atom_site_fract_x
_atom_site_fract_y
_atom_site_fract_z
Si Si1 0.323362 0.804993 0.757959
Si Si2 0.752299 0.677175 0.102805
Si Si3 0.544870 0.541672 0.403071
Si Si4 0.648548 0.464525 0.770300
Si Si5 0.632675 0.416923 0.039947
Si Si6 0.925054 0.735772 0.663651
Si Si7 0.000000 0.476216 0.750000
O O1 0.309263 0.872041 0.832068
O O2 0.324270 0.622985 0.763894
O O3 0.239162 0.865458 0.712934
O O4 0.416976 0.868990 0.726515
O O5 0.704734 0.536584 0.067860
O O6 0.821287 0.753696 0.050628
O O7 0.672208 0.792134 0.128069
O O8 0.597855 0.488337 0.337702
O O9 0.464488 0.422462 0.421421
O O10 0.617629 0.555505 0.462188
O O11 0.498251 0.704521 0.390089
O O12 0.585128 0.364395 0.721459
O O13 0.965115 0.579325 0.689912
#
# Coordination Sequence:
#
# PCOD8247040 Si02
#       7
#     8   8   8   8   8   8   4
#     4  11  24  35  62  92 122 155 204 246 319 359
#     4  10  20  40  59  84 116 157 202 243 294 370
#     4  10  21  38  63  86 118 160 209 237 312 362
#     4  11  22  40  60  92 124 160 193 262 309 362
#     4  10  22  38  64  83 114 168 204 241 291 374
#     4  10  20  38  64  85 123 156 192 254 315 359
#     4  12  22  34  58  98 116 156 192 248 310 364
#
# _framework density 20.018491999999998
#
# number of rings (size 3 to 8) (size 9 to 14) (size 15 to 20)
#    0.000    1.538    1.538    5.538    4.308    1.231 
#    0.000    0.000    0.000    3.692    0.000    0.000 
#    0.000    0.000    0.000    0.000    0.000    0.000 
#
# Total GULP energy -644696.386125 kJ/mol
# GULP energy per Si atom -12398.007425 kJ/mol
# Density = 1.997293 g / cm^3
# Si number density = 20.018492 Si / 1000 Ang^3
#
#
#
# Elastic Constant Matrix: (Units=GPa)
#
#
# Indices 1 2 3 4 5 6 
#
# 1 104.8772 38.2263 40.6966 0.0000 0.0000 0.0000
# 2 38.2263 75.2649 17.6268 0.0000 0.0000 0.0000
# 3 40.6966 17.6268 97.1580 0.0000 0.0000 0.0000
# 4 0.0000 0.0000 0.0000 19.4247 0.0000 0.0000
# 5 0.0000 0.0000 0.0000 0.0000 41.7647 0.0000
# 6 0.0000 0.0000 0.0000 0.0000 0.0000 32.6247
#
#
#
# Elastic Compliance Matrix: (Units=1/GPa)
#
#
# Indices 1 2 3 4 5 6 
#
# 1 0.013399 -0.005735 -0.004572 0.000000 0.000000 0.000000
# 2 -0.005735 0.016330 -0.000561 0.000000 0.000000 0.000000
# 3 -0.004572 -0.000561 0.012309 0.000000 0.000000 0.000000
# 4 0.000000 0.000000 0.000000 0.051481 0.000000 0.000000
# 5 0.000000 0.000000 0.000000 0.000000 0.023944 0.000000
# 6 0.000000 0.000000 0.000000 0.000000 0.000000 0.030652
#
#
# Mechanical properties :
#
#
# Convention : Reuss Voigt Hill
#
# Bulk Modulus (GPa) = 49.25112 52.26660 50.75886
# Shear Modulus (GPa) = 28.30968 30.81285 29.56126
#
# Velocity S-wave (km/s) = 3.76463 3.92754 3.84695
# Velocity P-wave (km/s) = 6.59946 6.83618 6.71886
#
# Compressibility (1/GPa) = 0.02030411
#
# Stress axis : x y z
#
# Youngs Moduli (GPa) = 74.63053 61.23599 81.23883
#
# Poissons Ratio (x) = 0.35116 0.37144
# Poissons Ratio (y) = 0.42798 0.04555
# Poissons Ratio (z) = 0.34123 0.03433
#
# Static dielectric constant tensor:
#      x y z
#    x 3.928050 0.000000 0.000000 
#    y 0.000000 3.415270 0.000000 
#    z 0.000000 0.000000 3.453200 
# 
# 
# High freq. dielectric constant tensor:
#      x y z
#    x 1.800370 0.000000 0.000000 
#    y 0.000000 1.768370 0.000000 
#    z 0.000000 0.000000 1.755760 
# 
# From -- ./inp_files/22850.got.cif
#   From: 2010.03.12/outbox.cif.g09.slc.cpg/sg60_12_cif.got.tgz:22850.got - 2010.04.10 18:46:24.
