data_PCOD8247435
_publ_section_title
;
Structure prediction by ZEFSAII (Michael W. Deem and Ramdas Pophale) SiO2 
 PCOD8247435
Probable space group: P B C N
;
_chemical_formula_sum "Si O2"
_cell_formula_units_Z 56
_cell_length_a 19.332297
_cell_length_b 8.824671
_cell_length_c 15.100652
_cell_angle_alpha 90.000000
_cell_angle_beta 90.000000
_cell_angle_gamma 90.000000
_cell_volume 2576.188759
_symmetry_space_group_name_H-M "P B C N"
_symmetry_group_IT_number 60
_symmetry_cell_setting 'orthorhombic'
loop_
_space_group_symop_operation_xyz
x,y,z
1/2-x,1/2-y,1/2+z
1/2+x,1/2-y,-z
-x,y,1/2-z
-x,-y,-z
1/2+x,1/2+y,1/2-z
1/2-x,1/2+y,z
x,-y,1/2+z
loop_
_atom_site_type_symbol
_atom_site_label
_atom_site_fract_x
_atom_site_fract_y
_atom_site_fract_z
Si Si1 0.337416 0.313623 0.484831
Si Si2 0.175426 0.877896 0.280016
Si Si3 0.598510 0.211724 0.359401
Si Si4 0.312275 0.715156 0.299169
Si Si5 0.577634 0.043594 0.729716
Si Si6 0.461948 0.126959 0.441227
Si Si7 0.800300 0.155570 0.995598
O O1 0.339617 0.340209 0.380562
O O2 0.412415 0.234186 0.502785
O O3 0.280786 0.193267 0.521114
O O4 0.322170 0.480968 0.526449
O O5 0.111210 0.832063 0.218618
O O6 0.246487 0.794953 0.254547
O O7 0.186269 0.051526 0.256812
O O8 0.520991 0.232438 0.397033
O O9 0.653813 0.231264 0.437350
O O10 0.607879 0.049161 0.312843
O O11 0.381109 0.801918 0.273520
O O12 0.311640 0.704484 0.404339
O O13 0.500000 0.090301 0.750000
O O14 0.583573 0.951304 0.636817
O O15 0.500000 0.000000 0.500000
#
# Coordination Sequence:
#
# PCOD8247435 Si02
#       7
#     8   8   8   8   8   8   8
#     4  10  23  43  67  99 132 184 223 277 350 403
#     4  10  21  39  67  94 130 178 219 287 339 402
#     4  11  23  43  66  99 131 176 229 287 340 404
#     4  10  21  41  64  93 132 177 225 271 347 412
#     4  10  22  42  65  95 134 178 222 275 347 406
#     4  11  24  43  73  97 137 184 224 279 346 422
#     4  10  24  41  68  97 132 176 230 283 335 415
#
# _framework density 21.737539000000002
#
# number of rings (size 3 to 8) (size 9 to 14) (size 15 to 20)
#    0.000    1.714    1.429    1.714    8.000    2.857 
#   12.857    0.000    0.000    0.000    0.000    0.000 
#    0.000    0.000    0.000    0.000    0.000    0.000 
#
# Total GULP energy -694088.914360 kJ/mol
# GULP energy per Si atom -12394.444899 kJ/mol
# Density = 2.168806 g / cm^3
# Si number density = 21.737539 Si / 1000 Ang^3
#
#
#
# Elastic Constant Matrix: (Units=GPa)
#
#
# Indices 1 2 3 4 5 6 
#
# 1 130.0268 91.2944 31.8356 0.0000 0.0000 0.0000
# 2 91.2944 158.7643 31.6479 0.0000 0.0000 0.0000
# 3 31.8356 31.6479 37.9733 0.0000 0.0000 0.0000
# 4 0.0000 0.0000 0.0000 27.3056 0.0000 0.0000
# 5 0.0000 0.0000 0.0000 0.0000 33.5553 0.0000
# 6 0.0000 0.0000 0.0000 0.0000 0.0000 47.4962
#
#
#
# Elastic Compliance Matrix: (Units=1/GPa)
#
#
# Indices 1 2 3 4 5 6 
#
# 1 0.013955 -0.006827 -0.006010 0.000000 0.000000 0.000000
# 2 -0.006827 0.010893 -0.003355 0.000000 0.000000 0.000000
# 3 -0.006010 -0.003355 0.034169 0.000000 0.000000 0.000000
# 4 0.000000 0.000000 0.000000 0.036623 0.000000 0.000000
# 5 0.000000 0.000000 0.000000 0.000000 0.029802 0.000000
# 6 0.000000 0.000000 0.000000 0.000000 0.000000 0.021054
#
#
# Mechanical properties :
#
#
# Convention : Reuss Voigt Hill
#
# Bulk Modulus (GPa) = 37.54666 70.70223 54.12445
# Shear Modulus (GPa) = 26.62996 33.13720 29.88358
#
# Velocity S-wave (km/s) = 3.50389 3.90862 3.71178
# Velocity P-wave (km/s) = 5.80344 7.27776 6.58201
#
# Compressibility (1/GPa) = 0.02663353
#
# Stress axis : x y z
#
# Youngs Moduli (GPa) = 71.65665 91.80162 29.26597
#
# Poissons Ratio (x) = 0.62671 0.17589
# Poissons Ratio (y) = 0.48918 0.09819
# Poissons Ratio (z) = 0.43067 0.30802
#
# Static dielectric constant tensor:
#      x y z
#    x 4.075240 0.000000 0.000000 
#    y 0.000000 3.986840 0.000000 
#    z 0.000000 0.000000 3.941180 
# 
# 
# High freq. dielectric constant tensor:
#      x y z
#    x 1.855570 0.000000 0.000000 
#    y 0.000000 1.850200 0.000000 
#    z 0.000000 0.000000 1.852350 
# 
# From -- ./inp_files/17713.got.cif
#   From: 2010.03.12/outbox.cif.g09.slc.cpg/sg60_9_cif.got.tgz:17713.got - 2010.04.10 18:46:24.
