data_PCOD8247339
_publ_section_title
;
Structure prediction by ZEFSAII (Michael W. Deem and Ramdas Pophale) SiO2 
 PCOD8247339
Probable space group: P B C N
;
_chemical_formula_sum "Si O2"
_cell_formula_units_Z 60
_cell_length_a 17.123164
_cell_length_b 9.772162
_cell_length_c 17.585820
_cell_angle_alpha 90.000000
_cell_angle_beta 90.000000
_cell_angle_gamma 90.000000
_cell_volume 2942.641109
_symmetry_space_group_name_H-M "P B C N"
_symmetry_group_IT_number 60
_symmetry_cell_setting 'orthorhombic'
loop_
_space_group_symop_operation_xyz
x,y,z
1/2-x,1/2-y,1/2+z
1/2+x,1/2-y,-z
-x,y,1/2-z
-x,-y,-z
1/2+x,1/2+y,1/2-z
1/2-x,1/2+y,z
x,-y,1/2+z
loop_
_atom_site_type_symbol
_atom_site_label
_atom_site_fract_x
_atom_site_fract_y
_atom_site_fract_z
Si Si1 0.686422 0.834392 0.657035
Si Si2 0.000000 0.952580 0.250000
Si Si3 0.784734 0.761725 0.314753
Si Si4 0.965370 0.213180 0.599371
Si Si5 0.620723 0.782205 0.962626
Si Si6 0.123680 0.972805 0.507490
Si Si7 0.849512 0.941228 0.820947
Si Si8 0.276081 0.104718 0.918115
O O1 0.665900 0.799226 0.744221
O O2 0.609321 0.808821 0.608010
O O3 0.758544 0.742063 0.628480
O O4 0.712665 0.989937 0.645972
O O5 0.006755 0.856114 0.323018
O O6 0.078354 0.044476 0.238842
O O7 0.818859 0.704444 0.393108
O O8 0.697015 0.700135 0.304534
O O9 0.790552 0.927560 0.313703
O O10 0.947801 0.092928 0.539134
O O11 0.033736 0.311777 0.567788
O O12 0.621737 0.634298 0.000925
O O13 0.646526 0.885216 0.029412
O O14 0.114326 0.931022 0.595285
O O15 0.205604 0.922678 0.475057
#
# Coordination Sequence:
#
# PCOD8247339 Si02
#       8
#     8   4   8   8   8   8   8   8
#     4  11  23  38  60  89 124 157 207 257 312 372
#     4  12  22  38  62  98 124 168 210 258 320 384
#     4  11  22  40  63  93 121 166 209 261 309 379
#     4  11  22  38  62  91 125 164 206 256 314 377
#     4  11  21  38  64  88 122 161 210 255 311 372
#     4  10  21  38  61  90 121 162 203 259 301 372
#     4  11  23  39  67  91 124 164 212 258 317 374
#     4  11  22  38  60  90 119 161 207 256 307 367
#
# _framework density 20.389845999999999
#
# number of rings (size 3 to 8) (size 9 to 14) (size 15 to 20)
#    0.000    1.067    6.667    1.200    1.867    0.533 
#    0.000    0.000    0.000    0.800    0.000    0.000 
#    0.000    0.000    0.000    0.000    0.000    0.000 
#
# Total GULP energy -743916.082705 kJ/mol
# GULP energy per Si atom -12398.601378 kJ/mol
# Density = 2.034344 g / cm^3
# Si number density = 20.389846 Si / 1000 Ang^3
#
#
#
# Elastic Constant Matrix: (Units=GPa)
#
#
# Indices 1 2 3 4 5 6 
#
# 1 94.4769 37.4479 24.5197 0.0000 0.0000 0.0000
# 2 37.4479 57.9759 19.6232 0.0000 0.0000 0.0000
# 3 24.5197 19.6232 73.7637 0.0000 0.0000 0.0000
# 4 0.0000 0.0000 0.0000 24.7406 0.0000 0.0000
# 5 0.0000 0.0000 0.0000 0.0000 34.2057 0.0000
# 6 0.0000 0.0000 0.0000 0.0000 0.0000 27.6049
#
#
#
# Elastic Compliance Matrix: (Units=1/GPa)
#
#
# Indices 1 2 3 4 5 6 
#
# 1 0.014663 -0.008595 -0.002588 0.000000 0.000000 0.000000
# 2 -0.008595 0.023994 -0.003526 0.000000 0.000000 0.000000
# 3 -0.002588 -0.003526 0.015355 0.000000 0.000000 0.000000
# 4 0.000000 0.000000 0.000000 0.040419 0.000000 0.000000
# 5 0.000000 0.000000 0.000000 0.000000 0.029235 0.000000
# 6 0.000000 0.000000 0.000000 0.000000 0.000000 0.036225
#
#
# Mechanical properties :
#
#
# Convention : Reuss Voigt Hill
#
# Bulk Modulus (GPa) = 40.65981 43.26647 41.96314
# Shear Modulus (GPa) = 25.31552 26.95197 26.13374
#
# Velocity S-wave (km/s) = 3.52742 3.63965 3.58397
# Velocity P-wave (km/s) = 6.04771 6.23926 6.14423
#
# Compressibility (1/GPa) = 0.02459431
#
# Stress axis : x y z
#
# Youngs Moduli (GPa) = 68.19831 41.67721 65.12576
#
# Poissons Ratio (x) = 0.35823 0.16851
# Poissons Ratio (y) = 0.58619 0.22962
# Poissons Ratio (z) = 0.17647 0.14695
#
# Static dielectric constant tensor:
#      x y z
#    x 3.816090 0.000000 0.000000 
#    y 0.000000 3.473670 0.000000 
#    z 0.000000 0.000000 3.881890 
# 
# 
# High freq. dielectric constant tensor:
#      x y z
#    x 1.795320 0.000000 0.000000 
#    y 0.000000 1.769710 0.000000 
#    z 0.000000 0.000000 1.813380 
# 
# From -- ./inp_files/20893.got.cif
#   From: 2010.03.12/outbox.cif.g09.slc.cpg/sg60_11_cif.got.tgz:20893.got - 2010.04.10 18:46:24.
