data_PCOD8247187
_publ_section_title
;
Structure prediction by ZEFSAII (Michael W. Deem and Ramdas Pophale) SiO2 
 PCOD8247187
Probable space group: P B C N
;
_chemical_formula_sum "Si O2"
_cell_formula_units_Z 48
_cell_length_a 12.331589
_cell_length_b 8.657254
_cell_length_c 21.316738
_cell_angle_alpha 90.000000
_cell_angle_beta 90.000000
_cell_angle_gamma 90.000000
_cell_volume 2275.725882
_symmetry_space_group_name_H-M "P B C N"
_symmetry_group_IT_number 60
_symmetry_cell_setting 'orthorhombic'
loop_
_space_group_symop_operation_xyz
x,y,z
1/2-x,1/2-y,1/2+z
1/2+x,1/2-y,-z
-x,y,1/2-z
-x,-y,-z
1/2+x,1/2+y,1/2-z
1/2-x,1/2+y,z
x,-y,1/2+z
loop_
_atom_site_type_symbol
_atom_site_label
_atom_site_fract_x
_atom_site_fract_y
_atom_site_fract_z
Si Si1 0.660800 0.203909 0.250689
Si Si2 0.498878 0.118153 0.352689
Si Si3 0.382827 0.559137 0.222572
Si Si4 0.017890 0.368943 0.449989
Si Si5 0.153077 0.874536 0.581584
Si Si6 0.132447 0.783691 0.049506
O O1 0.598138 0.100903 0.302970
O O2 0.608522 0.177800 0.182350
O O3 0.646403 0.381101 0.269187
O O4 0.787572 0.161276 0.246245
O O5 0.527087 0.240933 0.407955
O O6 0.471644 0.947914 0.381540
O O7 0.500000 0.602533 0.250000
O O8 0.393150 0.596466 0.149985
O O9 0.121744 0.274315 0.476863
O O10 0.000000 0.500000 0.500000
O O11 0.918582 0.250882 0.453656
O O12 0.273308 0.807704 0.585370
O O13 0.152862 0.034775 0.543948
#
# Coordination Sequence:
#
# PCOD8247187 Si02
#       6
#     8   8   8   8   8   8
#     4  11  23  41  67  96 139 177 222 285 348 409
#     4  10  20  43  65  95 137 179 222 285 347 403
#     4  12  24  43  67 105 135 182 230 279 348 420
#     4  10  24  40  64  97 125 173 228 276 337 407
#     4  12  22  41  68  96 132 177 227 285 344 417
#     4  11  21  41  66  95 129 176 230 280 347 417
#
# _framework density 21.092172000000001
#
# number of rings (size 3 to 8) (size 9 to 14) (size 15 to 20)
#    0.000    1.000    5.000    2.500    2.333    1.333 
#    0.000   11.667    0.000    0.000    0.000    0.000 
#    0.000    0.000    0.000    0.000    0.000    0.000 
#
# Total GULP energy -595074.780480 kJ/mol
# GULP energy per Si atom -12397.391260 kJ/mol
# Density = 2.104417 g / cm^3
# Si number density = 21.092172 Si / 1000 Ang^3
#
#
#
# Elastic Constant Matrix: (Units=GPa)
#
#
# Indices 1 2 3 4 5 6 
#
# 1 136.0319 55.5476 52.6737 0.0000 0.0000 0.0000
# 2 55.5476 142.3366 54.7178 0.0000 0.0000 0.0000
# 3 52.6737 54.7178 87.1717 0.0000 0.0000 0.0000
# 4 0.0000 0.0000 0.0000 26.9063 0.0000 0.0000
# 5 0.0000 0.0000 0.0000 0.0000 37.5730 0.0000
# 6 0.0000 0.0000 0.0000 0.0000 0.0000 34.1109
#
#
#
# Elastic Compliance Matrix: (Units=1/GPa)
#
#
# Indices 1 2 3 4 5 6 
#
# 1 0.010048 -0.002092 -0.004758 0.000000 0.000000 0.000000
# 2 -0.002092 0.009696 -0.004822 0.000000 0.000000 0.000000
# 3 -0.004758 -0.004822 0.017374 0.000000 0.000000 0.000000
# 4 0.000000 0.000000 0.000000 0.037166 0.000000 0.000000
# 5 0.000000 0.000000 0.000000 0.000000 0.026615 0.000000
# 6 0.000000 0.000000 0.000000 0.000000 0.000000 0.029316
#
#
# Mechanical properties :
#
#
# Convention : Reuss Voigt Hill
#
# Bulk Modulus (GPa) = 72.60738 76.82425 74.71581
# Shear Modulus (GPa) = 31.61564 33.22480 32.42022
#
# Velocity S-wave (km/s) = 3.87580 3.97321 3.92481
# Velocity P-wave (km/s) = 7.38429 7.58622 7.48593
#
# Compressibility (1/GPa) = 0.01377271
#
# Stress axis : x y z
#
# Youngs Moduli (GPa) = 99.52230 103.13871 57.55883
#
# Poissons Ratio (x) = 0.21577 0.27388
# Poissons Ratio (y) = 0.20821 0.27754
# Poissons Ratio (z) = 0.47356 0.49732
#
# Static dielectric constant tensor:
#      x y z
#    x 3.842280 0.000000 0.000000 
#    y 0.000000 4.090550 0.000000 
#    z 0.000000 0.000000 4.083290 
# 
# 
# High freq. dielectric constant tensor:
#      x y z
#    x 1.814200 0.000000 0.000000 
#    y 0.000000 1.836650 0.000000 
#    z 0.000000 0.000000 1.824150 
# 
# From -- ./inp_files/24218.got.cif
#   From: 2010.03.12/outbox.cif.g09.slc.cpg/sg60_13_cif.got.tgz:24218.got - 2010.04.10 18:46:24.
