data_PCOD8247262
_publ_section_title
;
Structure prediction by ZEFSAII (Michael W. Deem and Ramdas Pophale) SiO2 
 PCOD8247262
Probable space group: P B C N
;
_chemical_formula_sum "Si O2"
_cell_formula_units_Z 36
_cell_length_a 5.189031
_cell_length_b 16.665999
_cell_length_c 19.972857
_cell_angle_alpha 90.000000
_cell_angle_beta 90.000000
_cell_angle_gamma 90.000000
_cell_volume 1727.260372
_symmetry_space_group_name_H-M "P B C N"
_symmetry_group_IT_number 60
_symmetry_cell_setting 'orthorhombic'
loop_
_space_group_symop_operation_xyz
x,y,z
1/2-x,1/2-y,1/2+z
1/2+x,1/2-y,-z
-x,y,1/2-z
-x,-y,-z
1/2+x,1/2+y,1/2-z
1/2-x,1/2+y,z
x,-y,1/2+z
loop_
_atom_site_type_symbol
_atom_site_label
_atom_site_fract_x
_atom_site_fract_y
_atom_site_fract_z
Si Si1 0.254242 0.095981 0.212548
Si Si2 0.136175 0.162532 0.544776
Si Si3 0.897818 0.188085 0.412355
Si Si4 0.500000 0.941706 0.250000
Si Si5 0.624075 0.153573 0.621228
O O1 0.500000 0.136677 0.250000
O O2 0.237564 0.123590 0.135600
O O3 0.283552 0.999092 0.215745
O O4 0.000000 0.124806 0.250000
O O5 0.174994 0.260133 0.549267
O O6 0.395817 0.119001 0.572238
O O7 0.071889 0.141501 0.467531
O O8 0.900507 0.134018 0.590640
O O9 0.075839 0.250540 0.370214
O O10 0.374851 0.886101 0.306122
#
# Coordination Sequence:
#
# PCOD8247262 Si02
#       5
#     8   8   8   4   8
#     4  10  26  39  61  85 129 165 203 251 313 376
#     4  10  21  36  64  93 119 155 209 259 308 359
#     4  10  21  39  65  92 125 155 208 265 307 366
#     4  10  26  44  58  90 132 168 202 256 308 380
#     4  10  22  35  66  85 125 157 209 252 306 367
#
# _framework density 20.842254000000001
#
# number of rings (size 3 to 8) (size 9 to 14) (size 15 to 20)
#    2.000    0.000    2.222    0.000    7.778    0.000 
#    0.000    2.222    0.000    0.000    0.000    0.000 
#    0.000    0.000    0.000    0.000    0.000    0.000 
#
# Total GULP energy -446010.424216 kJ/mol
# GULP energy per Si atom -12389.178450 kJ/mol
# Density = 2.079482 g / cm^3
# Si number density = 20.842254 Si / 1000 Ang^3
#
#
#
# Elastic Constant Matrix: (Units=GPa)
#
#
# Indices 1 2 3 4 5 6 
#
# 1 111.4499 2.0951 10.3158 0.0000 0.0000 0.0000
# 2 2.0951 41.7545 34.1840 0.0000 0.0000 0.0000
# 3 10.3158 34.1840 99.7697 0.0000 0.0000 0.0000
# 4 0.0000 0.0000 0.0000 15.9094 0.0000 0.0000
# 5 0.0000 0.0000 0.0000 0.0000 31.3811 0.0000
# 6 0.0000 0.0000 0.0000 0.0000 0.0000 4.4672
#
#
#
# Elastic Compliance Matrix: (Units=1/GPa)
#
#
# Indices 1 2 3 4 5 6 
#
# 1 0.009065 0.000434 -0.001086 0.000000 0.000000 0.000000
# 2 0.000434 0.033308 -0.011457 0.000000 0.000000 0.000000
# 3 -0.001086 -0.011457 0.014061 0.000000 0.000000 0.000000
# 4 0.000000 0.000000 0.000000 0.062856 0.000000 0.000000
# 5 0.000000 0.000000 0.000000 0.000000 0.031866 0.000000
# 6 0.000000 0.000000 0.000000 0.000000 0.000000 0.223852
#
#
# Mechanical properties :
#
#
# Convention : Reuss Voigt Hill
#
# Bulk Modulus (GPa) = 31.04068 38.46265 34.75167
# Shear Modulus (GPa) = 12.19621 24.11016 18.15318
#
# Velocity S-wave (km/s) = 2.42165 3.40485 2.95444
# Velocity P-wave (km/s) = 4.76914 5.82680 5.32430
#
# Compressibility (1/GPa) = 0.03221579
#
# Stress axis : x y z
#
# Youngs Moduli (GPa) = 110.31430 30.02324 71.11917
#
# Poissons Ratio (x) = -0.01304 0.07724
# Poissons Ratio (y) = -0.04791 0.81482
# Poissons Ratio (z) = 0.11981 0.34398
#
# Static dielectric constant tensor:
#      x y z
#    x 3.695610 0.000000 0.000000 
#    y 0.000000 3.237320 0.000000 
#    z 0.000000 0.000000 3.549270 
# 
# 
# High freq. dielectric constant tensor:
#      x y z
#    x 1.820780 0.000000 0.000000 
#    y 0.000000 1.762310 0.000000 
#    z 0.000000 0.000000 1.816030 
# 
# From -- ./inp_files/21508.got.cif
#   From: 2010.03.12/outbox.cif.g09.slc.cpg/sg60_11_cif.got.tgz:21508.got - 2010.04.10 18:46:24.
