data_PCOD8247661
_publ_section_title
;
Structure prediction by ZEFSAII (Michael W. Deem and Ramdas Pophale) SiO2 
 PCOD8247661
Probable space group: P B C N
;
_chemical_formula_sum "Si O2"
_cell_formula_units_Z 40
_cell_length_a 13.134249
_cell_length_b 24.422765
_cell_length_c 5.715012
_cell_angle_alpha 90.000000
_cell_angle_beta 90.000000
_cell_angle_gamma 90.000000
_cell_volume 1833.231127
_symmetry_space_group_name_H-M "P B C N"
_symmetry_group_IT_number 60
_symmetry_cell_setting 'orthorhombic'
loop_
_space_group_symop_operation_xyz
x,y,z
1/2-x,1/2-y,1/2+z
1/2+x,1/2-y,-z
-x,y,1/2-z
-x,-y,-z
1/2+x,1/2+y,1/2-z
1/2-x,1/2+y,z
x,-y,1/2+z
loop_
_atom_site_type_symbol
_atom_site_label
_atom_site_fract_x
_atom_site_fract_y
_atom_site_fract_z
Si Si1 0.500000 0.389838 0.250000
Si Si2 0.809002 0.619129 0.990755
Si Si3 0.500000 0.149869 0.750000
Si Si4 0.328366 0.691436 0.806649
Si Si5 0.137666 0.694781 0.121172
Si Si6 0.356736 0.468288 0.020221
O O1 0.585170 0.352625 0.122341
O O2 0.450640 0.425837 0.039454
O O3 0.859144 0.638497 0.232173
O O4 0.732495 0.667863 0.916688
O O5 0.752193 0.561380 0.998635
O O6 0.903779 0.611813 0.813809
O O7 0.539746 0.190201 0.546434
O O8 0.381896 0.749396 0.761144
O O9 0.249435 0.699630 0.013461
O O10 0.364899 0.498924 0.275582
#
# Coordination Sequence:
#
# PCOD8247661 Si02
#       6
#     4   8   4   8   8   8
#     4  10  24  42  66 103 141 176 242 280 354 424
#     4  10  23  43  65  94 134 178 226 288 344 413
#     4  10  24  38  66  95 135 172 228 280 346 408
#     4  10  22  38  62  97 138 183 223 269 340 425
#     4  11  21  40  63  95 141 184 222 276 345 418
#     4  11  26  49  74 101 137 183 236 304 359 410
#
# _framework density 21.819396000000001
#
# number of rings (size 3 to 8) (size 9 to 14) (size 15 to 20)
#    0.000    1.600    2.000    1.200   11.200    0.000 
#    3.600    1.000    0.000    0.000    0.000    0.000 
#    0.000    0.000    0.000    0.000    0.000    0.000 
#
# Total GULP energy -495651.246328 kJ/mol
# GULP energy per Si atom -12391.281158 kJ/mol
# Density = 2.176973 g / cm^3
# Si number density = 21.819396 Si / 1000 Ang^3
#
#
#
# Elastic Constant Matrix: (Units=GPa)
#
#
# Indices 1 2 3 4 5 6 
#
# 1 136.8894 58.5297 32.4833 0.0000 0.0000 0.0000
# 2 58.5297 109.9261 52.9451 0.0000 0.0000 0.0000
# 3 32.4833 52.9451 105.3910 0.0000 0.0000 0.0000
# 4 0.0000 0.0000 0.0000 23.4698 0.0000 0.0000
# 5 0.0000 0.0000 0.0000 0.0000 33.1179 0.0000
# 6 0.0000 0.0000 0.0000 0.0000 0.0000 31.1338
#
#
#
# Elastic Compliance Matrix: (Units=1/GPa)
#
#
# Indices 1 2 3 4 5 6 
#
# 1 0.009479 -0.004802 -0.000509 0.000000 0.000000 0.000000
# 2 -0.004802 0.014433 -0.005771 0.000000 0.000000 0.000000
# 3 -0.000509 -0.005771 0.012545 0.000000 0.000000 0.000000
# 4 0.000000 0.000000 0.000000 0.042608 0.000000 0.000000
# 5 0.000000 0.000000 0.000000 0.000000 0.030195 0.000000
# 6 0.000000 0.000000 0.000000 0.000000 0.000000 0.032119
#
#
# Mechanical properties :
#
#
# Convention : Reuss Voigt Hill
#
# Bulk Modulus (GPa) = 69.96446 71.12474 70.54460
# Shear Modulus (GPa) = 29.70753 31.42754 30.56753
#
# Velocity S-wave (km/s) = 3.69388 3.79931 3.74697
# Velocity P-wave (km/s) = 7.09421 7.20515 7.14990
#
# Compressibility (1/GPa) = 0.01429297
#
# Stress axis : x y z
#
# Youngs Moduli (GPa) = 105.49477 69.28487 79.71611
#
# Poissons Ratio (x) = 0.33269 0.04060
# Poissons Ratio (y) = 0.50657 0.46002
# Poissons Ratio (z) = 0.05373 0.39983
#
# Static dielectric constant tensor:
#      x y z
#    x 4.206210 0.000000 0.000000 
#    y 0.000000 3.825350 0.000000 
#    z 0.000000 0.000000 3.901780 
# 
# 
# High freq. dielectric constant tensor:
#      x y z
#    x 1.881230 0.000000 0.000000 
#    y 0.000000 1.839250 0.000000 
#    z 0.000000 0.000000 1.847680 
# 
# From -- ./inp_files/863.got.cif
#   From: 2010.03.12/outbox.cif.g09.slc.cpg/sg60_1_cif.got.tgz:863.got - 2010.04.10 18:46:24.
