data_PCOD8247665
_publ_section_title
;
Structure prediction by ZEFSAII (Michael W. Deem and Ramdas Pophale) SiO2 
 PCOD8247665
Probable space group: P B C N
;
_chemical_formula_sum "Si O2"
_cell_formula_units_Z 56
_cell_length_a 14.024492
_cell_length_b 15.990447
_cell_length_c 12.791244
_cell_angle_alpha 90.000000
_cell_angle_beta 90.000000
_cell_angle_gamma 90.000000
_cell_volume 2868.537467
_symmetry_space_group_name_H-M "P B C N"
_symmetry_group_IT_number 60
_symmetry_cell_setting 'orthorhombic'
loop_
_space_group_symop_operation_xyz
x,y,z
1/2-x,1/2-y,1/2+z
1/2+x,1/2-y,-z
-x,y,1/2-z
-x,-y,-z
1/2+x,1/2+y,1/2-z
1/2-x,1/2+y,z
x,-y,1/2+z
loop_
_atom_site_type_symbol
_atom_site_label
_atom_site_fract_x
_atom_site_fract_y
_atom_site_fract_z
Si Si1 0.809858 0.060182 0.765890
Si Si2 0.888641 0.389764 0.365539
Si Si3 0.433699 0.426399 0.033548
Si Si4 0.000000 0.473078 0.750000
Si Si5 0.000000 0.755393 0.750000
Si Si6 0.632035 0.140897 0.107025
Si Si7 0.334530 0.380216 0.831637
Si Si8 0.062682 0.183043 0.851468
O O1 0.708776 0.099844 0.799163
O O2 0.883588 0.054481 0.858739
O O3 0.849361 0.120761 0.674277
O O4 0.810582 0.963649 0.732939
O O5 0.865484 0.395153 0.488937
O O6 0.951656 0.470185 0.338572
O O7 0.947180 0.304828 0.334736
O O8 0.503055 0.349046 0.050413
O O9 0.500000 0.500000 0.000000
O O10 0.355910 0.408374 0.948096
O O11 0.923314 0.418743 0.687225
O O12 0.917091 0.817854 0.708587
O O13 0.733687 0.164883 0.157909
O O14 0.586358 0.229874 0.098585
O O15 0.000000 0.197775 0.750000
#
# Coordination Sequence:
#
# PCOD8247665 Si02
#       8
#     8   8   8   4   4   8   8   8
#     4  11  22  40  64  96 131 171 215 269 331 394
#     4  11  24  45  65  91 136 171 217 273 333 402
#     4  11  21  38  64  96 126 169 215 264 326 391
#     4  11  24  44  69  90 126 174 221 268 336 391
#     4  11  26  44  65 100 136 178 215 278 336 389
#     4  12  23  43  67  97 125 169 223 271 324 398
#     4  12  23  41  68  95 132 170 219 268 326 391
#     4  10  22  38  64  90 128 167 210 271 327 381
#
# _framework density 19.522144999999998
#
# number of rings (size 3 to 8) (size 9 to 14) (size 15 to 20)
#    0.000    0.857    5.000    3.000    1.000    0.000 
#    0.000    0.000    3.143    0.000    0.000    0.000 
#    0.000    0.000    0.000    0.000    0.000    0.000 
#
# Total GULP energy -693784.994247 kJ/mol
# GULP energy per Si atom -12389.017754 kJ/mol
# Density = 1.947771 g / cm^3
# Si number density = 19.522145 Si / 1000 Ang^3
#
#
#
# Elastic Constant Matrix: (Units=GPa)
#
#
# Indices 1 2 3 4 5 6 
#
# 1 124.6279 48.8843 33.5696 0.0000 0.0000 0.0000
# 2 48.8843 112.7623 40.9979 0.0000 0.0000 0.0000
# 3 33.5696 40.9979 77.6860 0.0000 0.0000 0.0000
# 4 0.0000 0.0000 0.0000 26.0443 0.0000 0.0000
# 5 0.0000 0.0000 0.0000 0.0000 23.2385 0.0000
# 6 0.0000 0.0000 0.0000 0.0000 0.0000 43.8795
#
#
#
# Elastic Compliance Matrix: (Units=1/GPa)
#
#
# Indices 1 2 3 4 5 6 
#
# 1 0.010054 -0.003439 -0.002530 0.000000 0.000000 0.000000
# 2 -0.003439 0.012150 -0.004926 0.000000 0.000000 0.000000
# 3 -0.002530 -0.004926 0.016565 0.000000 0.000000 0.000000
# 4 0.000000 0.000000 0.000000 0.038396 0.000000 0.000000
# 5 0.000000 0.000000 0.000000 0.000000 0.043032 0.000000
# 6 0.000000 0.000000 0.000000 0.000000 0.000000 0.022790
#
#
# Mechanical properties :
#
#
# Convention : Reuss Voigt Hill
#
# Bulk Modulus (GPa) = 58.89287 62.44221 60.66754
# Shear Modulus (GPa) = 29.33644 31.40743 30.37193
#
# Velocity S-wave (km/s) = 3.88071 4.01535 3.94860
# Velocity P-wave (km/s) = 7.09313 7.31793 7.20641
#
# Compressibility (1/GPa) = 0.01697998
#
# Stress axis : x y z
#
# Youngs Moduli (GPa) = 99.46117 82.30443 60.36766
#
# Poissons Ratio (x) = 0.28303 0.15272
# Poissons Ratio (y) = 0.34203 0.29737
# Poissons Ratio (z) = 0.25161 0.40543
#
# Static dielectric constant tensor:
#      x y z
#    x 3.770300 0.000000 0.000000 
#    y 0.000000 3.626760 0.000000 
#    z 0.000000 0.000000 3.522490 
# 
# 
# High freq. dielectric constant tensor:
#      x y z
#    x 1.777840 0.000000 0.000000 
#    y 0.000000 1.771640 0.000000 
#    z 0.000000 0.000000 1.763080 
# 
# From -- ./inp_files/11991.got.cif
#   From: 2010.03.12/outbox.cif.g09.slc.cpg/sg60_6_cif.got.tgz:11991.got - 2010.04.10 18:46:24.
