data_PCOD8247455
_publ_section_title
;
Structure prediction by ZEFSAII (Michael W. Deem and Ramdas Pophale) SiO2 
 PCOD8247455
Probable space group: P B C N
;
_chemical_formula_sum "Si O2"
_cell_formula_units_Z 40
_cell_length_a 20.688288
_cell_length_b 17.601750
_cell_length_c 5.382734
_cell_angle_alpha 90.000000
_cell_angle_beta 90.000000
_cell_angle_gamma 90.000000
_cell_volume 1960.122981
_symmetry_space_group_name_H-M "P B C N"
_symmetry_group_IT_number 60
_symmetry_cell_setting 'orthorhombic'
loop_
_space_group_symop_operation_xyz
x,y,z
1/2-x,1/2-y,1/2+z
1/2+x,1/2-y,-z
-x,y,1/2-z
-x,-y,-z
1/2+x,1/2+y,1/2-z
1/2-x,1/2+y,z
x,-y,1/2+z
loop_
_atom_site_type_symbol
_atom_site_label
_atom_site_fract_x
_atom_site_fract_y
_atom_site_fract_z
Si Si1 0.699222 0.954537 0.924254
Si Si2 0.650669 0.454846 0.917814
Si Si3 0.070311 0.803093 0.631335
Si Si4 0.500000 0.218154 0.250000
Si Si5 0.901820 0.656260 0.606349
Si Si6 0.500000 0.952343 0.250000
O O1 0.774352 0.933042 0.922646
O O2 0.660657 0.875367 0.959938
O O3 0.681900 0.009062 0.157485
O O4 0.632399 0.492797 0.181488
O O5 0.610549 0.378954 0.883874
O O6 0.112751 0.738975 0.775554
O O7 0.000000 0.818108 0.750000
O O8 0.056973 0.771628 0.357218
O O9 0.533949 0.162993 0.440669
O O10 0.931958 0.594137 0.792479
O O11 0.500000 0.000000 0.500000
#
# Coordination Sequence:
#
# PCOD8247455 Si02
#       6
#     8   8   8   4   8   4
#     4  10  23  43  64  91 129 170 212 263 311 376
#     4  10  24  46  67  94 128 165 216 269 323 384
#     4  10  23  41  65  94 129 168 209 274 323 380
#     4  10  21  40  60  89 134 160 206 268 313 374
#     4  11  22  39  60  92 129 170 210 260 316 373
#     4  12  23  34  58  89 122 166 208 242 301 370
#
# _framework density 20.406882
#
# number of rings (size 3 to 8) (size 9 to 14) (size 15 to 20)
#    0.000    1.600    3.000    1.800    8.400    0.800 
#    3.600    0.000    0.000    0.000    0.000    0.000 
#    0.000    0.000    0.000    0.000    0.000    0.000 
#
# Total GULP energy -495660.078893 kJ/mol
# GULP energy per Si atom -12391.501972 kJ/mol
# Density = 2.036044 g / cm^3
# Si number density = 20.406882 Si / 1000 Ang^3
#
#
#
# Elastic Constant Matrix: (Units=GPa)
#
#
# Indices 1 2 3 4 5 6 
#
# 1 72.4045 71.7401 24.3034 0.0000 0.0000 0.0000
# 2 71.7401 148.1506 49.4862 0.0000 0.0000 0.0000
# 3 24.3034 49.4862 117.7685 0.0000 0.0000 0.0000
# 4 0.0000 0.0000 0.0000 15.1619 0.0000 0.0000
# 5 0.0000 0.0000 0.0000 0.0000 19.4834 0.0000
# 6 0.0000 0.0000 0.0000 0.0000 0.0000 44.5862
#
#
#
# Elastic Compliance Matrix: (Units=1/GPa)
#
#
# Indices 1 2 3 4 5 6 
#
# 1 0.026551 -0.012827 -0.000089 0.000000 0.000000 0.000000
# 2 -0.012827 0.014049 -0.003256 0.000000 0.000000 0.000000
# 3 -0.000089 -0.003256 0.009878 0.000000 0.000000 0.000000
# 4 0.000000 0.000000 0.000000 0.065955 0.000000 0.000000
# 5 0.000000 0.000000 0.000000 0.000000 0.051326 0.000000
# 6 0.000000 0.000000 0.000000 0.000000 0.000000 0.022428
#
#
# Mechanical properties :
#
#
# Convention : Reuss Voigt Hill
#
# Bulk Modulus (GPa) = 55.14997 69.93143 62.54070
# Shear Modulus (GPa) = 21.87462 28.69922 25.28692
#
# Velocity S-wave (km/s) = 3.27758 3.75420 3.52396
# Velocity P-wave (km/s) = 6.43484 7.28937 6.87540
#
# Compressibility (1/GPa) = 0.01813238
#
# Stress axis : x y z
#
# Youngs Moduli (GPa) = 37.66407 71.18019 101.23570
#
# Poissons Ratio (x) = 0.91302 0.00904
# Poissons Ratio (y) = 0.48311 0.32965
# Poissons Ratio (z) = 0.00336 0.23178
#
# Static dielectric constant tensor:
#      x y z
#    x 3.636480 0.000000 0.000000 
#    y 0.000000 3.597380 0.000000 
#    z 0.000000 0.000000 4.281830 
# 
# 
# High freq. dielectric constant tensor:
#      x y z
#    x 1.786550 0.000000 0.000000 
#    y 0.000000 1.794850 0.000000 
#    z 0.000000 0.000000 1.813790 
# 
# From -- ./inp_files/1657.got.cif
#   From: 2010.03.12/outbox.cif.g09.slc.cpg/sg60_1_cif.got.tgz:1657.got - 2010.04.10 18:46:24.
