data_PCOD8247662
_publ_section_title
;
Structure prediction by ZEFSAII (Michael W. Deem and Ramdas Pophale) SiO2 
 PCOD8247662
Probable space group: P B C N
;
_chemical_formula_sum "Si O2"
_cell_formula_units_Z 56
_cell_length_a 10.948982
_cell_length_b 19.799245
_cell_length_c 12.887885
_cell_angle_alpha 90.000000
_cell_angle_beta 90.000000
_cell_angle_gamma 90.000000
_cell_volume 2793.856036
_symmetry_space_group_name_H-M "P B C N"
_symmetry_group_IT_number 60
_symmetry_cell_setting 'orthorhombic'
loop_
_space_group_symop_operation_xyz
x,y,z
1/2-x,1/2-y,1/2+z
1/2+x,1/2-y,-z
-x,y,1/2-z
-x,-y,-z
1/2+x,1/2+y,1/2-z
1/2-x,1/2+y,z
x,-y,1/2+z
loop_
_atom_site_type_symbol
_atom_site_label
_atom_site_fract_x
_atom_site_fract_y
_atom_site_fract_z
Si Si1 0.381563 0.001373 0.687422
Si Si2 0.873236 0.653777 0.858553
Si Si3 0.756461 0.419081 0.974128
Si Si4 0.201474 0.030430 0.363135
Si Si5 0.144530 0.691799 0.870616
Si Si6 0.207216 0.831245 0.950370
Si Si7 0.514051 0.384588 0.862231
O O1 0.500000 0.979079 0.750000
O O2 0.366246 0.946523 0.596896
O O3 0.264624 0.002829 0.763353
O O4 0.402524 0.074246 0.635190
O O5 0.821418 0.668943 0.744714
O O6 0.767042 0.676014 0.937008
O O7 0.996960 0.695688 0.882768
O O8 0.805865 0.360739 0.046063
O O9 0.652837 0.392157 0.895823
O O10 0.705192 0.481111 0.039459
O O11 0.265537 0.103752 0.390021
O O12 0.057477 0.043886 0.341847
O O13 0.059733 0.844899 0.953770
O O14 0.218617 0.760930 0.889270
O O15 0.500000 0.345692 0.750000
#
# Coordination Sequence:
#
# PCOD8247662 Si02
#       7
#     8   8   8   8   8   8   8
#     4  12  22  39  66 104 131 173 224 287 332 400
#     4  11  23  46  67  96 135 172 227 279 346 401
#     4  12  22  40  66  96 132 170 232 273 336 402
#     4  10  22  38  63  95 124 171 222 269 331 391
#     4  11  26  41  71  96 132 183 222 278 348 413
#     4  10  25  40  68  93 132 178 223 276 332 412
#     4  10  22  40  61  93 128 174 212 269 333 397
#
# _framework density 20.043982
#
# number of rings (size 3 to 8) (size 9 to 14) (size 15 to 20)
#    0.857    0.286    5.714    0.429    6.000    2.286 
#    0.000    0.714    0.000    0.000    0.000    0.000 
#    0.000    0.000    0.000    0.000    0.000    0.000 
#
# Total GULP energy -693897.371883 kJ/mol
# GULP energy per Si atom -12391.024498 kJ/mol
# Density = 1.999836 g / cm^3
# Si number density = 20.043982 Si / 1000 Ang^3
#
#
#
# Elastic Constant Matrix: (Units=GPa)
#
#
# Indices 1 2 3 4 5 6 
#
# 1 65.4014 10.3799 42.7986 0.0000 0.0000 0.0000
# 2 10.3799 83.3123 28.4961 0.0000 0.0000 0.0000
# 3 42.7986 28.4961 103.0154 0.0000 0.0000 0.0000
# 4 0.0000 0.0000 0.0000 26.1492 0.0000 0.0000
# 5 0.0000 0.0000 0.0000 0.0000 47.8714 0.0000
# 6 0.0000 0.0000 0.0000 0.0000 0.0000 24.6797
#
#
#
# Elastic Compliance Matrix: (Units=1/GPa)
#
#
# Indices 1 2 3 4 5 6 
#
# 1 0.021012 0.000406 -0.008842 0.000000 0.000000 0.000000
# 2 0.000406 0.013265 -0.003838 0.000000 0.000000 0.000000
# 3 -0.008842 -0.003838 0.014443 0.000000 0.000000 0.000000
# 4 0.000000 0.000000 0.000000 0.038242 0.000000 0.000000
# 5 0.000000 0.000000 0.000000 0.000000 0.020889 0.000000
# 6 0.000000 0.000000 0.000000 0.000000 0.000000 0.040519
#
#
# Mechanical properties :
#
#
# Convention : Reuss Voigt Hill
#
# Bulk Modulus (GPa) = 41.37028 46.11983 43.74506
# Shear Modulus (GPa) = 27.62809 31.07701 29.35255
#
# Velocity S-wave (km/s) = 3.71667 3.94184 3.83091
# Velocity P-wave (km/s) = 6.25322 6.61640 6.43737
#
# Compressibility (1/GPa) = 0.02417194
#
# Stress axis : x y z
#
# Youngs Moduli (GPa) = 47.59213 75.38500 69.24000
#
# Poissons Ratio (x) = -0.03064 0.61222
# Poissons Ratio (y) = -0.01934 0.26576
# Poissons Ratio (z) = 0.42081 0.28935
#
# Static dielectric constant tensor:
#      x y z
#    x 3.492910 0.000000 0.000000 
#    y 0.000000 3.652710 0.000000 
#    z 0.000000 0.000000 3.722560 
# 
# 
# High freq. dielectric constant tensor:
#      x y z
#    x 1.765000 0.000000 0.000000 
#    y 0.000000 1.779220 0.000000 
#    z 0.000000 0.000000 1.787920 
# 
# From -- ./inp_files/16145.got.cif
#   From: 2010.03.12/outbox.cif.g09.slc.cpg/sg60_9_cif.got.tgz:16145.got - 2010.04.10 18:46:24.
