data_PCOD8247039
_publ_section_title
;
Structure prediction by ZEFSAII (Michael W. Deem and Ramdas Pophale) SiO2 
 PCOD8247039
Probable space group: P B C N
;
_chemical_formula_sum "Si O2"
_cell_formula_units_Z 56
_cell_length_a 14.660613
_cell_length_b 8.769771
_cell_length_c 20.805740
_cell_angle_alpha 90.000000
_cell_angle_beta 90.000000
_cell_angle_gamma 90.000000
_cell_volume 2674.998543
_symmetry_space_group_name_H-M "P B C N"
_symmetry_group_IT_number 60
_symmetry_cell_setting 'orthorhombic'
loop_
_space_group_symop_operation_xyz
x,y,z
1/2-x,1/2-y,1/2+z
1/2+x,1/2-y,-z
-x,y,1/2-z
-x,-y,-z
1/2+x,1/2+y,1/2-z
1/2-x,1/2+y,z
x,-y,1/2+z
loop_
_atom_site_type_symbol
_atom_site_label
_atom_site_fract_x
_atom_site_fract_y
_atom_site_fract_z
Si Si1 0.000000 0.000000 0.250000
Si Si2 0.556618 0.248301 0.340456
Si Si3 0.122775 0.283089 0.074265
Si Si4 0.300404 0.886375 0.573733
Si Si5 0.699596 0.113625 0.573733
Si Si6 0.500000 1.000000 0.750000
Si Si7 0.443382 0.248301 0.840456
Si Si8 0.877225 0.283089 0.574265
O O1 0.063801 0.102029 0.296112
O O2 0.063801 0.897971 0.203887
O O3 0.641788 0.240108 0.387871
O O4 0.564756 0.103076 0.294007
O O5 0.462669 0.245106 0.380231
O O6 0.171987 0.442124 0.092457
O O7 0.193533 0.144981 0.086882
O O8 0.037331 0.254893 0.119769
O O9 0.090289 0.285919 0.000000
O O10 0.322852 0.853126 0.500000
O O11 0.641788 0.240108 0.612129
O O12 0.806467 0.144981 0.586881
O O13 0.671987 0.942124 0.592456
O O14 0.435244 0.103076 0.794007
#
# Coordination Sequence:
#
# PCOD8247039 Si02
#       8
#     4   8   8   8   8   4   8   8
#     4  10  28  38  60  86 120 156 216 240 282 338
#     4  11  21  43  60  83 120 161 197 247 288 348
#     4  10  21  38  64  94 119 149 193 244 302 359
#     4  10  21  38  64  94 119 149 193 244 302 359
#     4  10  21  38  64  94 119 149 193 244 302 359
#     4  10  20  38  64  78 108 164 208 232 274 350
#     4  11  21  43  60  83 120 161 197 247 288 348
#     4  10  21  38  64  94 119 149 193 244 302 359
#
# _framework density 20.934591999999999
#
# number of rings (size 3 to 8) (size 9 to 14) (size 15 to 20)
#    0.000    1.714    2.857    0.857    4.000    2.286 
#    0.000   10.000    0.000    0.000    0.000    0.000 
#    0.000    0.000    0.000    0.000    0.000    0.000 
#
# Total GULP energy -694351.859293 kJ/mol
# GULP energy per Si atom -12399.140345 kJ/mol
# Density = 2.088694 g / cm^3
# Si number density = 20.934592 Si / 1000 Ang^3
#
#
#
# Elastic Constant Matrix: (Units=GPa)
#
#
# Indices 1 2 3 4 5 6 
#
# 1 81.5228 16.1226 47.4515 0.0000 0.0000 0.0000
# 2 16.1226 89.8455 39.9636 0.0000 0.0000 0.0000
# 3 47.4515 39.9636 95.4835 0.0000 0.0000 0.0000
# 4 0.0000 0.0000 0.0000 6.0588 0.0000 0.0000
# 5 0.0000 0.0000 0.0000 0.0000 8.2001 0.0000
# 6 0.0000 0.0000 0.0000 0.0000 0.0000 20.4522
#
#
#
# Elastic Compliance Matrix: (Units=1/GPa)
#
#
# Indices 1 2 3 4 5 6 
#
# 1 0.017316 0.000885 -0.008976 0.000000 0.000000 0.000000
# 2 0.000885 0.013722 -0.006183 0.000000 0.000000 0.000000
# 3 -0.008976 -0.006183 0.017521 0.000000 0.000000 0.000000
# 4 0.000000 0.000000 0.000000 0.165050 0.000000 0.000000
# 5 0.000000 0.000000 0.000000 0.000000 0.121949 0.000000
# 6 0.000000 0.000000 0.000000 0.000000 0.000000 0.048894
#
#
# Mechanical properties :
#
#
# Convention : Reuss Voigt Hill
#
# Bulk Modulus (GPa) = 49.97049 52.65860 51.31454
# Shear Modulus (GPa) = 11.91412 17.82982 14.87197
#
# Velocity S-wave (km/s) = 2.38819 2.92154 2.66823
# Velocity P-wave (km/s) = 5.61483 6.04889 5.83589
#
# Compressibility (1/GPa) = 0.02001181
#
# Stress axis : x y z
#
# Youngs Moduli (GPa) = 57.75021 72.87799 57.07290
#
# Poissons Ratio (x) = -0.06451 0.51228
# Poissons Ratio (y) = -0.05112 0.35288
# Poissons Ratio (z) = 0.51836 0.45060
#
# Static dielectric constant tensor:
#      x y z
#    x 3.585110 0.000000 0.000000 
#    y 0.000000 3.970910 0.000000 
#    z 0.000000 0.000000 4.024450 
# 
# 
# High freq. dielectric constant tensor:
#      x y z
#    x 1.794220 0.000000 0.000000 
#    y 0.000000 1.825720 0.000000 
#    z 0.000000 0.000000 1.833240 
# 
# From -- ./inp_files/22940.got.cif
#   From: 2010.03.12/outbox.cif.g09.slc.cpg/sg60_12_cif.got.tgz:22940.got - 2010.04.10 18:46:24.
