data_PCOD8247904
_publ_section_title
;
Structure prediction by ZEFSAII (Michael W. Deem and Ramdas Pophale) SiO2 
 PCOD8247904
Probable space group: P B C N
;
_chemical_formula_sum "Si O2"
_cell_formula_units_Z 60
_cell_length_a 6.402294
_cell_length_b 16.979180
_cell_length_c 25.939674
_cell_angle_alpha 90.000000
_cell_angle_beta 90.000000
_cell_angle_gamma 90.000000
_cell_volume 2819.790478
_symmetry_space_group_name_H-M "P B C N"
_symmetry_group_IT_number 60
_symmetry_cell_setting 'orthorhombic'
loop_
_space_group_symop_operation_xyz
x,y,z
1/2-x,1/2-y,1/2+z
1/2+x,1/2-y,-z
-x,y,1/2-z
-x,-y,-z
1/2+x,1/2+y,1/2-z
1/2-x,1/2+y,z
x,-y,1/2+z
loop_
_atom_site_type_symbol
_atom_site_label
_atom_site_fract_x
_atom_site_fract_y
_atom_site_fract_z
Si Si1 0.712089 0.691130 0.659136
Si Si2 0.406962 0.050467 0.455140
Si Si3 0.076005 0.948359 0.401591
Si Si4 0.500000 0.771735 0.250000
Si Si5 0.379422 0.814979 0.700689
Si Si6 0.720817 0.407679 0.888180
Si Si7 0.992236 0.755884 0.928363
Si Si8 0.852546 0.836349 0.477164
O O1 0.614521 0.605421 0.648581
O O2 0.865953 0.679071 0.708128
O O3 0.524957 0.751563 0.671354
O O4 0.827072 0.717412 0.606321
O O5 0.596716 0.095730 0.429426
O O6 0.256053 0.115200 0.477766
O O7 0.500000 0.000000 0.500000
O O8 0.286187 0.995637 0.414462
O O9 0.020359 0.893756 0.450685
O O10 0.889037 0.007647 0.387674
O O11 0.343193 0.720656 0.215901
O O12 0.500000 0.848022 0.750000
O O13 0.328815 0.891015 0.666578
O O14 0.559803 0.338537 0.901612
O O15 0.793952 0.696672 0.931091
O O16 0.046518 0.765502 0.989386
#
# Coordination Sequence:
#
# PCOD8247904 Si02
#       8
#     8   8   8   4   8   8   8   8
#     4  11  24  44  72 101 130 185 231 284 348 415
#     4  12  23  41  64  95 139 189 220 270 340 399
#     4  12  26  41  66  98 147 180 225 277 350 416
#     4  10  22  46  80  96 130 166 232 302 348 406
#     4  10  23  44  77 100 127 171 235 294 352 411
#     4  12  24  42  69  99 138 182 226 288 348 408
#     4  12  23  41  69 100 137 180 244 280 329 409
#     4  12  23  41  62 101 138 186 233 280 326 411
#
# _framework density 21.278175000000001
#
# number of rings (size 3 to 8) (size 9 to 14) (size 15 to 20)
#    0.000    0.533    4.000    5.200    0.000    0.000 
#    0.000    0.000   19.067    0.000    0.000    0.000 
#    0.000    0.000    0.000    0.000    0.000    0.000 
#
# Total GULP energy -744075.572168 kJ/mol
# GULP energy per Si atom -12401.259536 kJ/mol
# Density = 2.122975 g / cm^3
# Si number density = 21.278175 Si / 1000 Ang^3
#
#
#
# Elastic Constant Matrix: (Units=GPa)
#
#
# Indices 1 2 3 4 5 6 
#
# 1 88.6614 23.2383 34.8213 0.0000 0.0000 0.0000
# 2 23.2383 75.2962 41.2186 0.0000 0.0000 0.0000
# 3 34.8213 41.2186 111.9189 0.0000 0.0000 0.0000
# 4 0.0000 0.0000 0.0000 34.5820 0.0000 0.0000
# 5 0.0000 0.0000 0.0000 0.0000 50.8519 0.0000
# 6 0.0000 0.0000 0.0000 0.0000 0.0000 30.4808
#
#
#
# Elastic Compliance Matrix: (Units=1/GPa)
#
#
# Indices 1 2 3 4 5 6 
#
# 1 0.013154 -0.002279 -0.003253 0.000000 0.000000 0.000000
# 2 -0.002279 0.017029 -0.005563 0.000000 0.000000 0.000000
# 3 -0.003253 -0.005563 0.011996 0.000000 0.000000 0.000000
# 4 0.000000 0.000000 0.000000 0.028917 0.000000 0.000000
# 5 0.000000 0.000000 0.000000 0.000000 0.019665 0.000000
# 6 0.000000 0.000000 0.000000 0.000000 0.000000 0.032808
#
#
# Mechanical properties :
#
#
# Convention : Reuss Voigt Hill
#
# Bulk Modulus (GPa) = 50.02609 52.71477 51.37043
# Shear Modulus (GPa) = 32.80386 34.95617 33.88001
#
# Velocity S-wave (km/s) = 3.93067 4.05757 3.99462
# Velocity P-wave (km/s) = 6.64543 6.83957 6.74320
#
# Compressibility (1/GPa) = 0.01998957
#
# Stress axis : x y z
#
# Youngs Moduli (GPa) = 76.02341 58.72234 83.36135
#
# Poissons Ratio (x) = 0.13381 0.27120
# Poissons Ratio (y) = 0.17323 0.46372
# Poissons Ratio (z) = 0.24733 0.32666
#
# Static dielectric constant tensor:
#      x y z
#    x 4.060420 0.000000 0.000000 
#    y 0.000000 4.441700 0.000000 
#    z 0.000000 0.000000 3.826780 
# 
# 
# High freq. dielectric constant tensor:
#      x y z
#    x 1.854860 0.000000 0.000000 
#    y 0.000000 1.824870 0.000000 
#    z 0.000000 0.000000 1.835640 
# 
# From -- ./inp_files/24985.got.cif
#   From: 2010.03.12/outbox.cif.g09.slc.cpg/sg60_13_cif.got.tgz:24985.got - 2010.04.10 18:46:24.
