data_PCOD8247092
_publ_section_title
;
Structure prediction by ZEFSAII (Michael W. Deem and Ramdas Pophale) SiO2 
 PCOD8247092
Probable space group: P B C N
;
_chemical_formula_sum "Si O2"
_cell_formula_units_Z 28
_cell_length_a 7.126010
_cell_length_b 14.012166
_cell_length_c 11.612853
_cell_angle_alpha 90.000000
_cell_angle_beta 90.000000
_cell_angle_gamma 90.000000
_cell_volume 1159.553069
_symmetry_space_group_name_H-M "P B C N"
_symmetry_group_IT_number 60
_symmetry_cell_setting 'orthorhombic'
loop_
_space_group_symop_operation_xyz
x,y,z
1/2-x,1/2-y,1/2+z
1/2+x,1/2-y,-z
-x,y,1/2-z
-x,-y,-z
1/2+x,1/2+y,1/2-z
1/2-x,1/2+y,z
x,-y,1/2+z
loop_
_atom_site_type_symbol
_atom_site_label
_atom_site_fract_x
_atom_site_fract_y
_atom_site_fract_z
Si Si1 0.500000 0.545623 0.750000
Si Si2 0.439022 0.347061 0.014842
Si Si3 0.666682 0.968750 0.628640
Si Si4 0.159678 0.370526 0.545734
O O1 0.520150 0.612978 0.859314
O O2 0.309840 0.481595 0.764130
O O3 0.409324 0.235399 0.021112
O O4 0.258925 0.399132 0.965460
O O5 0.616271 0.371257 0.930541
O O6 0.462366 0.917863 0.651810
O O7 0.620751 0.070883 0.571783
#
# Coordination Sequence:
#
# PCOD8247092 Si02
#       4
#     4   8   8   8
#     4  10  22  40  64  96 128 168 226 268 322 408
#     4  11  21  43  64  93 131 176 221 274 334 399
#     4  10  22  43  62  92 133 173 217 274 337 387
#     4  10  20  39  67  89 128 179 212 267 336 393
#
# _framework density 24.147233
#
# number of rings (size 3 to 8) (size 9 to 14) (size 15 to 20)
#    0.000    1.714    2.857    3.429    0.000    0.000 
#   10.286   17.143    0.000    0.000    0.000    0.000 
#    0.000    0.000    0.000    0.000    0.000    0.000 
#
# Total GULP energy -346950.405696 kJ/mol
# GULP energy per Si atom -12391.085918 kJ/mol
# Density = 2.409227 g / cm^3
# Si number density = 24.147233 Si / 1000 Ang^3
#
#
#
# Elastic Constant Matrix: (Units=GPa)
#
#
# Indices 1 2 3 4 5 6 
#
# 1 168.8458 51.1116 44.3403 0.0000 0.0000 0.0000
# 2 51.1116 131.6225 25.2723 0.0000 0.0000 0.0000
# 3 44.3403 25.2723 50.7566 0.0000 0.0000 0.0000
# 4 0.0000 0.0000 0.0000 5.1762 0.0000 0.0000
# 5 0.0000 0.0000 0.0000 0.0000 36.2626 0.0000
# 6 0.0000 0.0000 0.0000 0.0000 0.0000 11.7691
#
#
#
# Elastic Compliance Matrix: (Units=1/GPa)
#
#
# Indices 1 2 3 4 5 6 
#
# 1 0.008128 -0.001982 -0.006114 0.000000 0.000000 0.000000
# 2 -0.001982 0.008884 -0.002692 0.000000 0.000000 0.000000
# 3 -0.006114 -0.002692 0.026383 0.000000 0.000000 0.000000
# 4 0.000000 0.000000 0.000000 0.193192 0.000000 0.000000
# 5 0.000000 0.000000 0.000000 0.000000 0.027577 0.000000
# 6 0.000000 0.000000 0.000000 0.000000 0.000000 0.084968
#
#
# Mechanical properties :
#
#
# Convention : Reuss Voigt Hill
#
# Bulk Modulus (GPa) = 45.83012 65.85260 55.84136
# Shear Modulus (GPa) = 13.22821 26.00829 19.61825
#
# Velocity S-wave (km/s) = 2.34308 3.28544 2.85343
# Velocity P-wave (km/s) = 5.13232 6.45930 5.83367
#
# Compressibility (1/GPa) = 0.02181971
#
# Stress axis : x y z
#
# Youngs Moduli (GPa) = 123.02920 112.56024 37.90353
#
# Poissons Ratio (x) = 0.22315 0.23172
# Poissons Ratio (y) = 0.24390 0.10202
# Poissons Ratio (z) = 0.75214 0.30297
#
# Static dielectric constant tensor:
#      x y z
#    x 5.192060 0.000000 0.000000 
#    y 0.000000 4.398240 0.000000 
#    z 0.000000 0.000000 4.102020 
# 
# 
# High freq. dielectric constant tensor:
#      x y z
#    x 1.998960 0.000000 0.000000 
#    y 0.000000 1.965980 0.000000 
#    z 0.000000 0.000000 1.928510 
# 
# From -- ./inp_files/14470.got.cif
#   From: 2010.03.12/outbox.cif.g09.slc.cpg/sg60_8_cif.got.tgz:14470.got - 2010.04.10 18:46:24.
