data_PCOD8247331
_publ_section_title
;
Structure prediction by ZEFSAII (Michael W. Deem and Ramdas Pophale) SiO2 
 PCOD8247331
Probable space group: P B C N
;
_chemical_formula_sum "Si O2"
_cell_formula_units_Z 40
_cell_length_a 7.828334
_cell_length_b 11.225588
_cell_length_c 19.096737
_cell_angle_alpha 90.000000
_cell_angle_beta 90.000000
_cell_angle_gamma 90.000000
_cell_volume 1678.176412
_symmetry_space_group_name_H-M "P B C N"
_symmetry_group_IT_number 60
_symmetry_cell_setting 'orthorhombic'
loop_
_space_group_symop_operation_xyz
x,y,z
1/2-x,1/2-y,1/2+z
1/2+x,1/2-y,-z
-x,y,1/2-z
-x,-y,-z
1/2+x,1/2+y,1/2-z
1/2-x,1/2+y,z
x,-y,1/2+z
loop_
_atom_site_type_symbol
_atom_site_label
_atom_site_fract_x
_atom_site_fract_y
_atom_site_fract_z
Si Si1 0.132322 0.259541 0.541324
Si Si2 0.739026 0.249700 0.700859
Si Si3 0.686237 0.116896 0.070889
Si Si4 0.614539 0.322306 0.842386
Si Si5 0.572132 0.439154 0.124731
O O1 0.189990 0.215673 0.465161
O O2 0.302609 0.294707 0.583076
O O3 0.003130 0.374219 0.536050
O O4 0.039044 0.151268 0.580054
O O5 0.832535 0.347368 0.652242
O O6 0.752288 0.298292 0.780468
O O7 0.543321 0.235083 0.674598
O O8 0.836258 0.124208 0.691003
O O9 0.780981 0.989166 0.070401
O O10 0.546472 0.457813 0.843083
#
# Coordination Sequence:
#
# PCOD8247331 Si02
#       5
#     8   8   8   8   8
#     4  11  23  40  64  93 129 169 216 266 313 376
#     4   9  21  40  62  90 126 164 208 259 309 377
#     4  10  21  38  60  91 129 168 214 263 311 373
#     4  10  22  41  64  93 126 165 213 264 315 377
#     4  10  22  41  63  92 129 172 211 259 323 378
#
# _framework density 23.835398000000001
#
# number of rings (size 3 to 8) (size 9 to 14) (size 15 to 20)
#    0.000    2.000    0.000    3.000    0.000   12.800 
#    0.000   12.000    0.000    0.000    0.000    0.000 
#    0.000    0.000    0.000    0.000    0.000    0.000 
#
# Total GULP energy -495744.774754 kJ/mol
# GULP energy per Si atom -12393.619369 kJ/mol
# Density = 2.378115 g / cm^3
# Si number density = 23.835398 Si / 1000 Ang^3
#
#
#
# Elastic Constant Matrix: (Units=GPa)
#
#
# Indices 1 2 3 4 5 6 
#
# 1 62.7552 20.4612 -10.3974 0.0000 0.0000 0.0000
# 2 20.4612 93.9328 4.4585 0.0000 0.0000 0.0000
# 3 -10.3974 4.4585 52.3086 0.0000 0.0000 0.0000
# 4 0.0000 0.0000 0.0000 25.8839 0.0000 0.0000
# 5 0.0000 0.0000 0.0000 0.0000 40.9557 0.0000
# 6 0.0000 0.0000 0.0000 0.0000 0.0000 33.5894
#
#
#
# Elastic Compliance Matrix: (Units=1/GPa)
#
#
# Indices 1 2 3 4 5 6 
#
# 1 0.017916 -0.004088 0.003910 0.000000 0.000000 0.000000
# 2 -0.004088 0.011622 -0.001803 0.000000 0.000000 0.000000
# 3 0.003910 -0.001803 0.020048 0.000000 0.000000 0.000000
# 4 0.000000 0.000000 0.000000 0.038634 0.000000 0.000000
# 5 0.000000 0.000000 0.000000 0.000000 0.024417 0.000000
# 6 0.000000 0.000000 0.000000 0.000000 0.000000 0.029771
#
#
# Mechanical properties :
#
#
# Convention : Reuss Voigt Hill
#
# Bulk Modulus (GPa) = 21.91915 26.44903 24.18409
# Shear Modulus (GPa) = 30.94471 33.05076 31.99774
#
# Velocity S-wave (km/s) = 3.60706 3.72778 3.66792
# Velocity P-wave (km/s) = 5.15401 5.44510 5.30155
#
# Compressibility (1/GPa) = 0.04562220
#
# Stress axis : x y z
#
# Youngs Moduli (GPa) = 55.81734 86.04370 49.88003
#
# Poissons Ratio (x) = 0.35175 -0.19501
# Poissons Ratio (y) = 0.22819 0.08994
# Poissons Ratio (z) = -0.21822 0.15515
#
# Static dielectric constant tensor:
#      x y z
#    x 4.541950 0.000000 0.000000 
#    y 0.000000 4.197760 0.000000 
#    z 0.000000 0.000000 4.318770 
# 
# 
# High freq. dielectric constant tensor:
#      x y z
#    x 1.950760 0.000000 0.000000 
#    y 0.000000 1.923570 0.000000 
#    z 0.000000 0.000000 1.946470 
# 
# From -- ./inp_files/22016.got.cif
#   From: 2010.03.12/outbox.cif.g09.slc.cpg/sg60_12_cif.got.tgz:22016.got - 2010.04.10 18:46:24.
