data_PCOD8247693
_publ_section_title
;
Structure prediction by ZEFSAII (Michael W. Deem and Ramdas Pophale) SiO2 
 PCOD8247693
Probable space group: P B C N
;
_chemical_formula_sum "Si O2"
_cell_formula_units_Z 60
_cell_length_a 11.801981
_cell_length_b 19.260526
_cell_length_c 12.240918
_cell_angle_alpha 90.000000
_cell_angle_beta 90.000000
_cell_angle_gamma 90.000000
_cell_volume 2782.511982
_symmetry_space_group_name_H-M "P B C N"
_symmetry_group_IT_number 60
_symmetry_cell_setting 'orthorhombic'
loop_
_space_group_symop_operation_xyz
x,y,z
1/2-x,1/2-y,1/2+z
1/2+x,1/2-y,-z
-x,y,1/2-z
-x,-y,-z
1/2+x,1/2+y,1/2-z
1/2-x,1/2+y,z
x,-y,1/2+z
loop_
_atom_site_type_symbol
_atom_site_label
_atom_site_fract_x
_atom_site_fract_y
_atom_site_fract_z
Si Si1 0.780549 0.720089 0.723110
Si Si2 0.264476 0.841557 0.615865
Si Si3 0.542817 0.802256 0.044341
Si Si4 0.000000 0.906540 0.250000
Si Si5 0.599432 0.685883 0.562757
Si Si6 0.589176 0.063356 0.984913
Si Si7 0.243553 0.066383 0.701178
Si Si8 0.869299 0.552604 0.219683
O O1 0.788210 0.779987 0.812169
O O2 0.896999 0.716343 0.657409
O O3 0.679463 0.734652 0.637489
O O4 0.755252 0.648136 0.783748
O O5 0.379220 0.816208 0.560013
O O6 0.175857 0.861723 0.519487
O O7 0.294081 0.906341 0.692318
O O8 0.472057 0.734957 0.014457
O O9 0.469032 0.870349 0.070930
O O10 0.976075 0.861378 0.141488
O O11 0.890387 0.952597 0.284814
O O12 0.698553 0.041745 0.912902
O O13 0.637542 0.088172 0.101636
O O14 0.500000 0.000000 0.000000
O O15 0.313801 0.023935 0.792643
O O16 0.000000 0.545172 0.250000
#
# Coordination Sequence:
#
# PCOD8247693 Si02
#       8
#     8   8   8   4   8   8   8   8
#     4  10  23  38  62  94 135 176 223 276 330 401
#     4  11  23  40  60  98 134 168 223 279 341 395
#     4  11  21  37  63  92 130 176 222 279 333 392
#     4  10  24  48  68  86 130 182 222 272 326 416
#     4  10  22  39  63  90 127 175 227 270 329 397
#     4  12  23  38  66 100 130 169 222 281 333 396
#     4  11  24  44  67  98 131 178 229 268 334 410
#     4  12  24  43  69 100 138 172 215 283 349 387
#
# _framework density 21.563248000000002
#
# number of rings (size 3 to 8) (size 9 to 14) (size 15 to 20)
#    0.000    1.067    2.667    4.000    0.000    6.933 
#    0.000    4.000    0.000    0.000    0.000    0.000 
#    0.000    0.000    0.000    0.000    0.000    0.000 
#
# Total GULP energy -743826.291512 kJ/mol
# GULP energy per Si atom -12397.104859 kJ/mol
# Density = 2.151417 g / cm^3
# Si number density = 21.563248 Si / 1000 Ang^3
#
#
#
# Elastic Constant Matrix: (Units=GPa)
#
#
# Indices 1 2 3 4 5 6 
#
# 1 124.5847 34.8374 57.9805 0.0000 0.0000 0.0000
# 2 34.8374 66.3787 12.2024 0.0000 0.0000 0.0000
# 3 57.9805 12.2024 95.9059 0.0000 0.0000 0.0000
# 4 0.0000 0.0000 0.0000 26.3058 0.0000 0.0000
# 5 0.0000 0.0000 0.0000 0.0000 48.1196 0.0000
# 6 0.0000 0.0000 0.0000 0.0000 0.0000 32.3168
#
#
#
# Elastic Compliance Matrix: (Units=1/GPa)
#
#
# Indices 1 2 3 4 5 6 
#
# 1 0.012837 -0.005438 -0.007069 0.000000 0.000000 0.000000
# 2 -0.005438 0.017729 0.001032 0.000000 0.000000 0.000000
# 3 -0.007069 0.001032 0.014569 0.000000 0.000000 0.000000
# 4 0.000000 0.000000 0.000000 0.038014 0.000000 0.000000
# 5 0.000000 0.000000 0.000000 0.000000 0.020782 0.000000
# 6 0.000000 0.000000 0.000000 0.000000 0.000000 0.030944
#
#
# Mechanical properties :
#
#
# Convention : Reuss Voigt Hill
#
# Bulk Modulus (GPa) = 45.07423 55.21220 50.14322
# Shear Modulus (GPa) = 30.26267 33.47169 31.86718
#
# Velocity S-wave (km/s) = 3.75031 3.94414 3.84845
# Velocity P-wave (km/s) = 6.30093 6.81190 6.56140
#
# Compressibility (1/GPa) = 0.02218562
#
# Stress axis : x y z
#
# Youngs Moduli (GPa) = 77.90002 56.40382 68.63838
#
# Poissons Ratio (x) = 0.30671 0.48519
# Poissons Ratio (y) = 0.42360 -0.07081
# Poissons Ratio (z) = 0.55066 -0.05819
#
# Static dielectric constant tensor:
#      x y z
#    x 4.094910 0.000000 0.000000 
#    y 0.000000 3.615300 0.000000 
#    z 0.000000 0.000000 4.196560 
# 
# 
# High freq. dielectric constant tensor:
#      x y z
#    x 1.851680 0.000000 0.000000 
#    y 0.000000 1.826210 0.000000 
#    z 0.000000 0.000000 1.863550 
# 
# From -- ./inp_files/11256.got.cif
#   From: 2010.03.12/outbox.cif.g09.slc.cpg/sg60_6_cif.got.tgz:11256.got - 2010.04.10 18:46:24.
