data_PCOD8247138
_publ_section_title
;
Structure prediction by ZEFSAII (Michael W. Deem and Ramdas Pophale) SiO2 
 PCOD8247138
Probable space group: P B C N
;
_chemical_formula_sum "Si O2"
_cell_formula_units_Z 32
_cell_length_a 15.625669
_cell_length_b 9.593387
_cell_length_c 8.570364
_cell_angle_alpha 90.000000
_cell_angle_beta 90.000000
_cell_angle_gamma 90.000000
_cell_volume 1284.724045
_symmetry_space_group_name_H-M "P B C N"
_symmetry_group_IT_number 60
_symmetry_cell_setting 'orthorhombic'
loop_
_space_group_symop_operation_xyz
x,y,z
1/2-x,1/2-y,1/2+z
1/2+x,1/2-y,-z
-x,y,1/2-z
-x,-y,-z
1/2+x,1/2+y,1/2-z
1/2-x,1/2+y,z
x,-y,1/2+z
loop_
_atom_site_type_symbol
_atom_site_label
_atom_site_fract_x
_atom_site_fract_y
_atom_site_fract_z
Si Si1 0.327583 0.122321 0.008124
Si Si2 0.417879 0.560772 0.856298
Si Si3 0.018184 0.227418 0.427220
Si Si4 0.246771 0.630805 0.683320
O O1 0.429671 0.154915 0.027626
O O2 0.318505 0.150006 0.824336
O O3 0.265513 0.221681 0.105893
O O4 0.299979 0.967202 0.055742
O O5 0.500000 0.576078 0.750000
O O6 0.419331 0.408637 0.936135
O O7 0.332797 0.568090 0.756409
O O8 0.428253 0.684286 0.987558
O O9 0.000000 0.275106 0.250000
#
# Coordination Sequence:
#
# PCOD8247138 Si02
#       4
#     8   8   8   8
#     4  12  26  47  70 110 144 195 244 317 369 450
#     4  10  20  40  71 104 137 187 250 299 349 450
#     4  10  22  40  70 104 140 186 247 301 365 437
#     4  12  26  44  74 104 148 190 250 306 379 438
#
# _framework density 24.908073000000002
#
# number of rings (size 3 to 8) (size 9 to 14) (size 15 to 20)
#    0.000    1.000    2.500    4.500   10.500    0.000 
#    0.000    1.250    0.000    0.000    0.000    0.000 
#    0.000    0.000    0.000    0.000    0.000    0.000 
#
# Total GULP energy -396655.903113 kJ/mol
# GULP energy per Si atom -12395.496972 kJ/mol
# Density = 2.485138 g / cm^3
# Si number density = 24.908073 Si / 1000 Ang^3
#
#
#
# Elastic Constant Matrix: (Units=GPa)
#
#
# Indices 1 2 3 4 5 6 
#
# 1 87.4816 5.7993 0.1135 0.0000 0.0000 0.0000
# 2 5.7993 35.8787 6.2734 0.0000 0.0000 0.0000
# 3 0.1135 6.2734 96.0659 0.0000 0.0000 0.0000
# 4 0.0000 0.0000 0.0000 24.5276 0.0000 0.0000
# 5 0.0000 0.0000 0.0000 0.0000 45.2267 0.0000
# 6 0.0000 0.0000 0.0000 0.0000 0.0000 34.6760
#
#
#
# Elastic Compliance Matrix: (Units=1/GPa)
#
#
# Indices 1 2 3 4 5 6 
#
# 1 0.011556 -0.001887 0.000110 0.000000 0.000000 0.000000
# 2 -0.001887 0.028502 -0.001859 0.000000 0.000000 0.000000
# 3 0.000110 -0.001859 0.010531 0.000000 0.000000 0.000000
# 4 0.000000 0.000000 0.000000 0.040770 0.000000 0.000000
# 5 0.000000 0.000000 0.000000 0.000000 0.022111 0.000000
# 6 0.000000 0.000000 0.000000 0.000000 0.000000 0.028838
#
#
# Mechanical properties :
#
#
# Convention : Reuss Voigt Hill
#
# Bulk Modulus (GPa) = 23.08637 27.08871 25.08754
# Shear Modulus (GPa) = 30.48417 34.70206 32.59311
#
# Velocity S-wave (km/s) = 3.50218 3.73662 3.62129
# Velocity P-wave (km/s) = 5.06383 5.43282 5.25157
#
# Compressibility (1/GPa) = 0.04331560
#
# Stress axis : x y z
#
# Youngs Moduli (GPa) = 86.53566 35.08554 94.95967
#
# Poissons Ratio (x) = 0.06621 -0.01041
# Poissons Ratio (y) = 0.16329 0.17653
# Poissons Ratio (z) = -0.00948 0.06522
#
# Static dielectric constant tensor:
#      x y z
#    x 4.554500 0.000000 0.000000 
#    y 0.000000 4.353720 0.000000 
#    z 0.000000 0.000000 4.859400 
# 
# 
# High freq. dielectric constant tensor:
#      x y z
#    x 1.990500 0.000000 0.000000 
#    y 0.000000 1.965040 0.000000 
#    z 0.000000 0.000000 2.007560 
# 
# From -- ./inp_files/5457.got.cif
#   From: 2010.03.12/outbox.cif.g09.slc.cpg/sg60_3_cif.got.tgz:5457.got - 2010.04.10 18:46:24.
