data_PCOD8247109
_publ_section_title
;
Structure prediction by ZEFSAII (Michael W. Deem and Ramdas Pophale) SiO2 
 PCOD8247109
Probable space group: P B C N
;
_chemical_formula_sum "Si O2"
_cell_formula_units_Z 56
_cell_length_a 10.198222
_cell_length_b 12.046511
_cell_length_c 21.789467
_cell_angle_alpha 90.000000
_cell_angle_beta 90.000000
_cell_angle_gamma 90.000000
_cell_volume 2676.901248
_symmetry_space_group_name_H-M "P B C N"
_symmetry_group_IT_number 60
_symmetry_cell_setting 'orthorhombic'
loop_
_space_group_symop_operation_xyz
x,y,z
1/2-x,1/2-y,1/2+z
1/2+x,1/2-y,-z
-x,y,1/2-z
-x,-y,-z
1/2+x,1/2+y,1/2-z
1/2-x,1/2+y,z
x,-y,1/2+z
loop_
_atom_site_type_symbol
_atom_site_label
_atom_site_fract_x
_atom_site_fract_y
_atom_site_fract_z
Si Si1 0.353663 0.235323 0.407642
Si Si2 0.882179 0.598549 0.203457
Si Si3 0.357229 0.863410 0.339682
Si Si4 0.650486 0.289315 0.765437
Si Si5 0.399333 0.598428 0.004835
Si Si6 0.615894 0.774982 0.393474
Si Si7 0.851762 0.451201 0.495560
O O1 0.420566 0.199363 0.343225
O O2 0.225539 0.307839 0.393721
O O3 0.439063 0.319383 0.448714
O O4 0.318625 0.125819 0.446485
O O5 0.853119 0.495529 0.158646
O O6 0.746889 0.616645 0.239198
O O7 0.000000 0.576383 0.250000
O O8 0.317633 0.823909 0.271504
O O9 0.501757 0.823998 0.352559
O O10 0.500000 0.327865 0.750000
O O11 0.700506 0.271663 0.836036
O O12 0.422925 0.668639 0.066239
O O13 0.249435 0.553884 0.004805
O O14 0.500000 0.500000 0.000000
O O15 0.672913 0.875375 0.434761
O O16 0.000000 0.500000 0.500000
#
# Coordination Sequence:
#
# PCOD8247109 Si02
#       7
#     8   8   8   8   8   8   8
#     4  10  22  39  60  85 120 158 199 238 291 365
#     4  11  22  37  63  91 116 153 201 247 293 351
#     4  10  20  40  63  83 116 163 197 233 297 367
#     4   9  21  39  58  85 118 153 192 240 299 357
#     4  11  24  39  59  87 120 160 197 240 297 353
#     4  10  21  37  61  89 120 150 197 255 296 341
#     4  11  23  39  63  90 118 157 201 247 298 354
#
# _framework density 20.919712000000001
#
# number of rings (size 3 to 8) (size 9 to 14) (size 15 to 20)
#    0.000    1.714    0.000    4.714    0.000   10.286 
#    0.000    4.286    0.000    1.714    0.000    0.000 
#    0.000    0.000    0.000    0.000    0.000    0.000 
#
# Total GULP energy -693762.776907 kJ/mol
# GULP energy per Si atom -12388.621016 kJ/mol
# Density = 2.087210 g / cm^3
# Si number density = 20.919712 Si / 1000 Ang^3
#
#
#
# Elastic Constant Matrix: (Units=GPa)
#
#
# Indices 1 2 3 4 5 6 
#
# 1 79.3813 39.7276 28.6188 0.0000 0.0000 0.0000
# 2 39.7276 125.2825 61.4806 0.0000 0.0000 0.0000
# 3 28.6188 61.4806 148.1846 0.0000 0.0000 0.0000
# 4 0.0000 0.0000 0.0000 37.6159 0.0000 0.0000
# 5 0.0000 0.0000 0.0000 0.0000 21.7297 0.0000
# 6 0.0000 0.0000 0.0000 0.0000 0.0000 32.3201
#
#
#
# Elastic Compliance Matrix: (Units=1/GPa)
#
#
# Indices 1 2 3 4 5 6 
#
# 1 0.015134 -0.004225 -0.001170 0.000000 0.000000 0.000000
# 2 -0.004225 0.011202 -0.003832 0.000000 0.000000 0.000000
# 3 -0.001170 -0.003832 0.008564 0.000000 0.000000 0.000000
# 4 0.000000 0.000000 0.000000 0.026585 0.000000 0.000000
# 5 0.000000 0.000000 0.000000 0.000000 0.046020 0.000000
# 6 0.000000 0.000000 0.000000 0.000000 0.000000 0.030940
#
#
# Mechanical properties :
#
#
# Convention : Reuss Voigt Hill
#
# Bulk Modulus (GPa) = 60.80209 68.05585 64.42897
# Shear Modulus (GPa) = 30.79204 33.20124 31.99664
#
# Velocity S-wave (km/s) = 3.84072 3.98814 3.91512
# Velocity P-wave (km/s) = 6.98539 7.33550 7.16259
#
# Compressibility (1/GPa) = 0.01644680
#
# Stress axis : x y z
#
# Youngs Moduli (GPa) = 66.07826 89.26968 116.76763
#
# Poissons Ratio (x) = 0.37715 0.13661
# Poissons Ratio (y) = 0.27917 0.44742
# Poissons Ratio (z) = 0.07730 0.34205
#
# Static dielectric constant tensor:
#      x y z
#    x 3.555460 0.000000 0.000000 
#    y 0.000000 4.106290 0.000000 
#    z 0.000000 0.000000 4.278210 
# 
# 
# High freq. dielectric constant tensor:
#      x y z
#    x 1.789210 0.000000 0.000000 
#    y 0.000000 1.826200 0.000000 
#    z 0.000000 0.000000 1.844330 
# 
# From -- ./inp_files/22625.got.cif
#   From: 2010.03.12/outbox.cif.g09.slc.cpg/sg60_12_cif.got.tgz:22625.got - 2010.04.10 18:46:24.
