data_PCOD8247303
_publ_section_title
;
Structure prediction by ZEFSAII (Michael W. Deem and Ramdas Pophale) SiO2 
 PCOD8247303
Probable space group: P B C N
;
_chemical_formula_sum "Si O2"
_cell_formula_units_Z 28
_cell_length_a 7.578001
_cell_length_b 11.261477
_cell_length_c 10.941631
_cell_angle_alpha 90.000000
_cell_angle_beta 90.000000
_cell_angle_gamma 90.000000
_cell_volume 933.753143
_symmetry_space_group_name_H-M "P B C N"
_symmetry_group_IT_number 60
_symmetry_cell_setting 'orthorhombic'
loop_
_space_group_symop_operation_xyz
x,y,z
1/2-x,1/2-y,1/2+z
1/2+x,1/2-y,-z
-x,y,1/2-z
-x,-y,-z
1/2+x,1/2+y,1/2-z
1/2-x,1/2+y,z
x,-y,1/2+z
loop_
_atom_site_type_symbol
_atom_site_label
_atom_site_fract_x
_atom_site_fract_y
_atom_site_fract_z
Si Si1 0.000000 0.179580 0.250000
Si Si2 0.119281 0.848531 0.103584
Si Si3 0.710565 0.526984 0.655261
Si Si4 0.520827 0.144201 0.970853
O O1 0.953572 0.254871 0.368473
O O2 0.827979 0.098168 0.219769
O O3 0.200920 0.870086 0.238468
O O4 0.271464 0.890923 0.004734
O O5 0.949947 0.929293 0.068988
O O6 0.072431 0.708114 0.085630
O O7 0.905153 0.534930 0.587172
#
# Coordination Sequence:
#
# PCOD8247303 Si02
#       4
#     4   8   8   8
#     4  10  24  40  70  90 128 174 204 268 320 370
#     4  10  21  37  66  91 127 168 208 263 316 376
#     4  10  23  42  59  96 128 163 221 258 304 393
#     4  12  20  42  66  91 129 171 206 269 318 362
#
# _framework density 29.986514
#
# number of rings (size 3 to 8) (size 9 to 14) (size 15 to 20)
#    0.000    1.714    5.714    0.000    0.000    4.571 
#    0.000   12.857    0.000    0.000    0.000    0.000 
#    0.000    0.000    0.000    0.000    0.000    0.000 
#
# Total GULP energy -347071.753963 kJ/mol
# GULP energy per Si atom -12395.419784 kJ/mol
# Density = 2.991826 g / cm^3
# Si number density = 29.986514 Si / 1000 Ang^3
#
#
#
# Elastic Constant Matrix: (Units=GPa)
#
#
# Indices 1 2 3 4 5 6 
#
# 1 235.3485 19.4641 15.3082 0.0000 0.0000 0.0000
# 2 19.4641 94.4574 1.1504 0.0000 0.0000 0.0000
# 3 15.3082 1.1504 68.5793 0.0000 0.0000 0.0000
# 4 0.0000 0.0000 0.0000 18.3886 0.0000 0.0000
# 5 0.0000 0.0000 0.0000 0.0000 57.7466 0.0000
# 6 0.0000 0.0000 0.0000 0.0000 0.0000 -8.8018
#
#
#
# Elastic Compliance Matrix: (Units=1/GPa)
#
#
# Indices 1 2 3 4 5 6 
#
# 1 0.004385 -0.000892 -0.000964 0.000000 0.000000 0.000000
# 2 -0.000892 0.010770 0.000018 0.000000 0.000000 0.000000
# 3 -0.000964 0.000018 0.014797 0.000000 0.000000 0.000000
# 4 0.000000 0.000000 0.000000 0.054382 0.000000 0.000000
# 5 0.000000 0.000000 0.000000 0.000000 0.017317 0.000000
# 6 0.000000 0.000000 0.000000 0.000000 0.000000 -0.113613
#
#
# Mechanical properties :
#
#
# Convention : Reuss Voigt Hill
#
# Bulk Modulus (GPa) = 38.05551 52.24785 45.15168
# Shear Modulus (GPa) = 10598.59399 37.63085 5318.11242
#
# Velocity S-wave (km/s) = 59.51577 3.54634 42.15865
# Velocity P-wave (km/s) = 68.81536 5.85066 48.83536
#
# Compressibility (1/GPa) = 0.02627740
#
# Stress axis : x y z
#
# Youngs Moduli (GPa) = 228.02490 92.84749 67.58346
#
# Poissons Ratio (x) = 0.08281 0.06515
# Poissons Ratio (y) = 0.20338 -0.00125
# Poissons Ratio (z) = 0.21981 -0.00171
#
# Static dielectric constant tensor:
#      x y z
#    x 6.536280 0.000000 0.000000 
#    y 0.000000 5.809150 0.000000 
#    z 0.000000 0.000000 5.749790 
# 
# 
# High freq. dielectric constant tensor:
#      x y z
#    x 2.242450 0.000000 0.000000 
#    y 0.000000 2.244610 0.000000 
#    z 0.000000 0.000000 2.232760 
# 
# From -- ./inp_files/14226.got.cif
#   From: 2010.03.12/outbox.cif.g09.slc.cpg/sg60_8_cif.got.tgz:14226.got - 2010.04.10 18:46:24.
