data_PCOD8247012
_publ_section_title
;
Structure prediction by ZEFSAII (Michael W. Deem and Ramdas Pophale) SiO2 
 PCOD8247012
Probable space group: P B C N
;
_chemical_formula_sum "Si O2"
_cell_formula_units_Z 56
_cell_length_a 13.239045
_cell_length_b 12.565177
_cell_length_c 17.575977
_cell_angle_alpha 90.000000
_cell_angle_beta 90.000000
_cell_angle_gamma 90.000000
_cell_volume 2923.780361
_symmetry_space_group_name_H-M "P B C N"
_symmetry_group_IT_number 60
_symmetry_cell_setting 'orthorhombic'
loop_
_space_group_symop_operation_xyz
x,y,z
1/2-x,1/2-y,1/2+z
1/2+x,1/2-y,-z
-x,y,1/2-z
-x,-y,-z
1/2+x,1/2+y,1/2-z
1/2-x,1/2+y,z
x,-y,1/2+z
loop_
_atom_site_type_symbol
_atom_site_label
_atom_site_fract_x
_atom_site_fract_y
_atom_site_fract_z
Si Si1 0.889746 0.589080 0.052544
Si Si2 0.611035 0.129685 0.479500
Si Si3 0.298472 0.381550 0.271005
Si Si4 0.800510 0.316345 0.821198
Si Si5 0.222058 0.762856 0.897288
Si Si6 0.384705 0.392938 0.766772
Si Si7 0.895919 0.489933 0.722642
O O1 0.794313 0.667660 0.048270
O O2 0.897098 0.533920 0.134040
O O3 0.992755 0.653483 0.035216
O O4 0.873094 0.496727 0.990311
O O5 0.679986 0.166095 0.409588
O O6 0.644885 0.194310 0.553431
O O7 0.323078 0.306795 0.198919
O O8 0.296870 0.312365 0.348375
O O9 0.376877 0.479016 0.276586
O O10 0.186322 0.423396 0.256477
O O11 0.685310 0.351654 0.802515
O O12 0.878107 0.382209 0.769414
O O13 0.154921 0.839074 0.844011
O O14 0.500000 0.361601 0.750000
O O15 0.000000 0.541753 0.750000
#
# Coordination Sequence:
#
# PCOD8247012 Si02
#       7
#     8   8   8   8   8   8   8
#     4  11  22  41  63  87 127 163 200 255 310 364
#     4  11  24  39  61  95 122 160 207 254 307 365
#     4  10  20  38  60  87 114 159 196 244 304 356
#     4  10  22  38  61  90 118 152 207 253 293 361
#     4  11  21  40  60  86 126 163 195 247 314 365
#     4  10  22  38  60  87 120 156 200 250 301 362
#     4  11  19  37  65  88 115 156 206 253 298 359
#
# _framework density 19.153286000000001
#
# number of rings (size 3 to 8) (size 9 to 14) (size 15 to 20)
#    0.000    1.429    7.143    0.000    0.000    7.429 
#    0.000    0.000    0.000    4.286    0.000    0.000 
#    0.000    0.000    0.000    0.000    0.000    0.000 
#
# Total GULP energy -694471.359632 kJ/mol
# GULP energy per Si atom -12401.274279 kJ/mol
# Density = 1.910969 g / cm^3
# Si number density = 19.153286 Si / 1000 Ang^3
#
#
#
# Elastic Constant Matrix: (Units=GPa)
#
#
# Indices 1 2 3 4 5 6 
#
# 1 115.7481 26.7424 23.9481 0.0000 0.0000 0.0000
# 2 26.7424 91.1606 28.0540 0.0000 0.0000 0.0000
# 3 23.9481 28.0540 79.0596 0.0000 0.0000 0.0000
# 4 0.0000 0.0000 0.0000 30.7186 0.0000 0.0000
# 5 0.0000 0.0000 0.0000 0.0000 32.8960 0.0000
# 6 0.0000 0.0000 0.0000 0.0000 0.0000 18.3471
#
#
#
# Elastic Compliance Matrix: (Units=1/GPa)
#
#
# Indices 1 2 3 4 5 6 
#
# 1 0.009579 -0.002152 -0.002138 0.000000 0.000000 0.000000
# 2 -0.002152 0.012798 -0.003889 0.000000 0.000000 0.000000
# 3 -0.002138 -0.003889 0.014676 0.000000 0.000000 0.000000
# 4 0.000000 0.000000 0.000000 0.032554 0.000000 0.000000
# 5 0.000000 0.000000 0.000000 0.000000 0.030399 0.000000
# 6 0.000000 0.000000 0.000000 0.000000 0.000000 0.054505
#
#
# Mechanical properties :
#
#
# Convention : Reuss Voigt Hill
#
# Bulk Modulus (GPa) = 48.32207 49.27304 48.79755
# Shear Modulus (GPa) = 28.12666 30.20725 29.16695
#
# Velocity S-wave (km/s) = 3.83626 3.97562 3.90656
# Velocity P-wave (km/s) = 6.70123 6.84511 6.77355
#
# Compressibility (1/GPa) = 0.02069448
#
# Stress axis : x y z
#
# Youngs Moduli (GPa) = 104.39487 78.13767 68.13644
#
# Poissons Ratio (x) = 0.16816 0.14567
# Poissons Ratio (y) = 0.22467 0.26501
# Poissons Ratio (z) = 0.22319 0.30391
#
# Static dielectric constant tensor:
#      x y z
#    x 3.520310 0.000000 0.000000 
#    y 0.000000 3.670090 0.000000 
#    z 0.000000 0.000000 3.529200 
# 
# 
# High freq. dielectric constant tensor:
#      x y z
#    x 1.741480 0.000000 0.000000 
#    y 0.000000 1.751350 0.000000 
#    z 0.000000 0.000000 1.736450 
# 
# From -- ./inp_files/16850.got.cif
#   From: 2010.03.12/outbox.cif.g09.slc.cpg/sg60_9_cif.got.tgz:16850.got - 2010.04.10 18:46:24.
