data_PCOD8247646
_publ_section_title
;
Structure prediction by ZEFSAII (Michael W. Deem and Ramdas Pophale) SiO2 
 PCOD8247646
Probable space group: P B C N
;
_chemical_formula_sum "Si O2"
_cell_formula_units_Z 44
_cell_length_a 8.387178
_cell_length_b 27.746854
_cell_length_c 9.142411
_cell_angle_alpha 90.000000
_cell_angle_beta 90.000000
_cell_angle_gamma 90.000000
_cell_volume 2127.601806
_symmetry_space_group_name_H-M "P B C N"
_symmetry_group_IT_number 60
_symmetry_cell_setting 'orthorhombic'
loop_
_space_group_symop_operation_xyz
x,y,z
1/2-x,1/2-y,1/2+z
1/2+x,1/2-y,-z
-x,y,1/2-z
-x,-y,-z
1/2+x,1/2+y,1/2-z
1/2-x,1/2+y,z
x,-y,1/2+z
loop_
_atom_site_type_symbol
_atom_site_label
_atom_site_fract_x
_atom_site_fract_y
_atom_site_fract_z
Si Si1 0.884816 0.865443 0.121360
Si Si2 0.633720 0.062141 0.511104
Si Si3 0.896787 0.184158 0.105527
Si Si4 0.618334 0.791486 0.118682
Si Si5 0.560814 0.144275 0.089838
Si Si6 0.000000 0.505824 0.250000
O O1 0.803274 0.910238 0.034139
O O2 0.749635 0.828835 0.179160
O O3 0.000000 0.885330 0.250000
O O4 0.985396 0.830095 0.021602
O O5 0.486626 0.099992 0.516796
O O6 0.622906 0.036288 0.351937
O O7 0.613015 0.025417 0.644680
O O8 0.820719 0.237482 0.083423
O O9 0.750154 0.147431 0.099509
O O10 0.000000 0.178353 0.250000
O O11 0.500000 0.785482 0.250000
O O12 0.529356 0.808737 0.971490
O O13 0.500000 0.132565 0.250000
#
# Coordination Sequence:
#
# PCOD8247646 Si02
#       6
#     8   8   8   8   8   4
#     4  11  24  39  62  96 133 166 212 270 323 370
#     4  10  23  42  69  95 118 164 212 257 332 394
#     4  11  23  37  58  91 131 167 212 265 312 360
#     4  10  22  38  58  88 124 178 221 245 304 376
#     4  11  22  38  63  87 122 165 211 255 306 387
#     4  10  22  44  74  90 120 158 218 262 318 434
#
# _framework density 20.680561999999998
#
# number of rings (size 3 to 8) (size 9 to 14) (size 15 to 20)
#    0.000    1.455    0.909    4.364    7.636    5.818 
#    0.000    0.909    0.000    0.000    0.000    0.000 
#    0.000    0.000    0.000    0.000    0.000    0.000 
#
# Total GULP energy -545388.773055 kJ/mol
# GULP energy per Si atom -12395.199388 kJ/mol
# Density = 2.063349 g / cm^3
# Si number density = 20.680562 Si / 1000 Ang^3
#
#
#
# Elastic Constant Matrix: (Units=GPa)
#
#
# Indices 1 2 3 4 5 6 
#
# 1 102.0362 50.1732 29.8969 0.0000 0.0000 0.0000
# 2 50.1732 109.9354 47.8332 0.0000 0.0000 0.0000
# 3 29.8969 47.8332 102.6284 0.0000 0.0000 0.0000
# 4 0.0000 0.0000 0.0000 43.7825 0.0000 0.0000
# 5 0.0000 0.0000 0.0000 0.0000 32.2480 0.0000
# 6 0.0000 0.0000 0.0000 0.0000 0.0000 27.2660
#
#
#
# Elastic Compliance Matrix: (Units=1/GPa)
#
#
# Indices 1 2 3 4 5 6 
#
# 1 0.012764 -0.005278 -0.001258 0.000000 0.000000 0.000000
# 2 -0.005278 0.013593 -0.004798 0.000000 0.000000 0.000000
# 3 -0.001258 -0.004798 0.012347 0.000000 0.000000 0.000000
# 4 0.000000 0.000000 0.000000 0.022840 0.000000 0.000000
# 5 0.000000 0.000000 0.000000 0.000000 0.031010 0.000000
# 6 0.000000 0.000000 0.000000 0.000000 0.000000 0.036676
#
#
# Mechanical properties :
#
#
# Convention : Reuss Voigt Hill
#
# Bulk Modulus (GPa) = 62.36230 63.37851 62.87040
# Shear Modulus (GPa) = 31.79798 33.10574 32.45186
#
# Velocity S-wave (km/s) = 3.92545 4.00536 3.96561
# Velocity P-wave (km/s) = 7.12503 7.21827 7.17180
#
# Compressibility (1/GPa) = 0.01603533
#
# Stress axis : x y z
#
# Youngs Moduli (GPa) = 78.34244 73.56966 80.99384
#
# Poissons Ratio (x) = 0.38830 0.10193
# Poissons Ratio (y) = 0.41349 0.38858
# Poissons Ratio (z) = 0.09859 0.35297
#
# Static dielectric constant tensor:
#      x y z
#    x 3.544010 0.000000 0.000000 
#    y 0.000000 4.013530 0.000000 
#    z 0.000000 0.000000 3.660120 
# 
# 
# High freq. dielectric constant tensor:
#      x y z
#    x 1.797890 0.000000 0.000000 
#    y 0.000000 1.810720 0.000000 
#    z 0.000000 0.000000 1.819470 
# 
# From -- ./inp_files/4130.got.cif
#   From: 2010.03.12/outbox.cif.g09.slc.cpg/sg60_3_cif.got.tgz:4130.got - 2010.04.10 18:46:24.
