data_PCOD8247446
_publ_section_title
;
Structure prediction by ZEFSAII (Michael W. Deem and Ramdas Pophale) SiO2 
 PCOD8247446
Probable space group: P B C N
;
_chemical_formula_sum "Si O2"
_cell_formula_units_Z 56
_cell_length_a 4.965953
_cell_length_b 23.666580
_cell_length_c 24.929907
_cell_angle_alpha 90.000000
_cell_angle_beta 90.000000
_cell_angle_gamma 90.000000
_cell_volume 2929.940270
_symmetry_space_group_name_H-M "P B C N"
_symmetry_group_IT_number 60
_symmetry_cell_setting 'orthorhombic'
loop_
_space_group_symop_operation_xyz
x,y,z
1/2-x,1/2-y,1/2+z
1/2+x,1/2-y,-z
-x,y,1/2-z
-x,-y,-z
1/2+x,1/2+y,1/2-z
1/2-x,1/2+y,z
x,-y,1/2+z
loop_
_atom_site_type_symbol
_atom_site_label
_atom_site_fract_x
_atom_site_fract_y
_atom_site_fract_z
Si Si1 0.526131 0.813296 0.536329
Si Si2 0.912119 0.580289 0.806163
Si Si3 0.028729 0.016446 0.438791
Si Si4 0.054662 0.580852 0.099473
Si Si5 0.734309 0.047984 0.285072
Si Si6 0.470778 0.314105 0.464192
Si Si7 0.938811 0.905918 0.125068
O O1 0.555156 0.856500 0.586024
O O2 0.558898 0.749742 0.558518
O O3 0.734904 0.826648 0.488284
O O4 0.231012 0.822463 0.513036
O O5 0.793837 0.518647 0.793506
O O6 0.665572 0.614711 0.832601
O O7 0.000000 0.609258 0.750000
O O8 0.160903 0.578706 0.846481
O O9 0.315949 0.037047 0.415326
O O10 0.808626 0.065606 0.436885
O O11 0.946632 0.961969 0.403723
O O12 0.000000 0.000000 0.500000
O O13 0.189916 0.578920 0.158384
O O14 0.500000 0.074000 0.250000
O O15 0.000000 0.061580 0.250000
O O16 0.393600 0.355724 0.416478
#
# Coordination Sequence:
#
# PCOD8247446 Si02
#       7
#     8   8   8   8   8   8   8
#     4  10  21  40  58  84 112 152 197 228 277 344
#     4  11  22  36  56  80 115 148 191 233 280 344
#     4  12  23  34  52  85 121 147 176 228 294 351
#     4  12  22  37  56  83 114 151 186 235 285 341
#     4  11  21  36  55  79 112 152 192 233 279 341
#     4  10  22  38  61  82 113 153 193 234 274 344
#     4  12  20  37  55  85 114 148 187 232 288 340
#
# _framework density 19.113019999999999
#
# number of rings (size 3 to 8) (size 9 to 14) (size 15 to 20)
#    0.000    0.857    2.857    6.857    0.000    0.000 
#    0.000    0.000    0.000    2.571    0.000    0.000 
#    0.000    0.000    0.000    0.000    0.000    0.000 
#
# Total GULP energy -694020.857099 kJ/mol
# GULP energy per Si atom -12393.229591 kJ/mol
# Density = 1.906952 g / cm^3
# Si number density = 19.113020 Si / 1000 Ang^3
#
#
#
# Elastic Constant Matrix: (Units=GPa)
#
#
# Indices 1 2 3 4 5 6 
#
# 1 113.4340 23.0355 34.9584 0.0000 0.0000 0.0000
# 2 23.0355 77.4831 46.2923 0.0000 0.0000 0.0000
# 3 34.9584 46.2923 102.7632 0.0000 0.0000 0.0000
# 4 0.0000 0.0000 0.0000 18.3599 0.0000 0.0000
# 5 0.0000 0.0000 0.0000 0.0000 24.4219 0.0000
# 6 0.0000 0.0000 0.0000 0.0000 0.0000 18.8452
#
#
#
# Elastic Compliance Matrix: (Units=1/GPa)
#
#
# Indices 1 2 3 4 5 6 
#
# 1 0.009940 -0.001279 -0.002805 0.000000 0.000000 0.000000
# 2 -0.001279 0.017823 -0.007594 0.000000 0.000000 0.000000
# 3 -0.002805 -0.007594 0.014106 0.000000 0.000000 0.000000
# 4 0.000000 0.000000 0.000000 0.054466 0.000000 0.000000
# 5 0.000000 0.000000 0.000000 0.000000 0.040947 0.000000
# 6 0.000000 0.000000 0.000000 0.000000 0.000000 0.053064
#
#
# Mechanical properties :
#
#
# Convention : Reuss Voigt Hill
#
# Bulk Modulus (GPa) = 54.01565 55.80585 54.91075
# Shear Modulus (GPa) = 22.74032 24.95169 23.84600
#
# Velocity S-wave (km/s) = 3.45306 3.61706 3.53601
# Velocity P-wave (km/s) = 6.64987 6.83414 6.74263
#
# Compressibility (1/GPa) = 0.01851315
#
# Stress axis : x y z
#
# Youngs Moduli (GPa) = 100.60385 56.10658 70.89083
#
# Poissons Ratio (x) = 0.07177 0.19886
# Poissons Ratio (y) = 0.12869 0.53833
# Poissons Ratio (z) = 0.28221 0.42606
#
# Static dielectric constant tensor:
#      x y z
#    x 3.712730 0.000000 0.000000 
#    y 0.000000 3.418060 0.000000 
#    z 0.000000 0.000000 4.601190 
# 
# 
# High freq. dielectric constant tensor:
#      x y z
#    x 1.767450 0.000000 0.000000 
#    y 0.000000 1.710050 0.000000 
#    z 0.000000 0.000000 1.745370 
# 
# From -- ./inp_files/21722.got.cif
#   From: 2010.03.12/outbox.cif.g09.slc.cpg/sg60_11_cif.got.tgz:21722.got - 2010.04.10 18:46:24.
