data_PCOD8247400
_publ_section_title
;
Structure prediction by ZEFSAII (Michael W. Deem and Ramdas Pophale) SiO2 
 PCOD8247400
Probable space group: P B C N
;
_chemical_formula_sum "Si O2"
_cell_formula_units_Z 60
_cell_length_a 18.242729
_cell_length_b 9.552215
_cell_length_c 17.437798
_cell_angle_alpha 90.000000
_cell_angle_beta 90.000000
_cell_angle_gamma 90.000000
_cell_volume 3038.683993
_symmetry_space_group_name_H-M "P B C N"
_symmetry_group_IT_number 60
_symmetry_cell_setting 'orthorhombic'
loop_
_space_group_symop_operation_xyz
x,y,z
1/2-x,1/2-y,1/2+z
1/2+x,1/2-y,-z
-x,y,1/2-z
-x,-y,-z
1/2+x,1/2+y,1/2-z
1/2-x,1/2+y,z
x,-y,1/2+z
loop_
_atom_site_type_symbol
_atom_site_label
_atom_site_fract_x
_atom_site_fract_y
_atom_site_fract_z
Si Si1 0.500000 0.014612 0.750000
Si Si2 0.991955 0.386055 0.595632
Si Si3 0.733452 0.817657 0.690797
Si Si4 0.204337 0.617479 0.546451
Si Si5 0.105942 0.606495 0.981383
Si Si6 0.831249 0.887705 0.554475
Si Si7 0.333712 0.913243 0.225258
Si Si8 0.631780 0.687668 0.567371
O O1 0.577361 0.102572 0.759389
O O2 0.493966 0.899271 0.814844
O O3 0.957198 0.531729 0.566928
O O4 0.948387 0.251809 0.567522
O O5 0.074279 0.363833 0.565847
O O6 0.775047 0.902318 0.624690
O O7 0.789494 0.715358 0.736102
O O8 0.672318 0.725300 0.647257
O O9 0.695411 0.935180 0.745285
O O10 0.176751 0.489627 0.492476
O O11 0.291318 0.619266 0.529323
O O12 0.182778 0.599465 0.634566
O O13 0.172852 0.760418 0.509799
O O14 0.122901 0.746468 0.934524
O O15 0.882321 0.022871 0.558785
#
# Coordination Sequence:
#
# PCOD8247400 Si02
#       8
#     4   8   8   8   8   8   8   8
#     4  12  22  40  66  92 124 168 210 260 320 376
#     4  10  21  39  64  87 121 163 214 251 307 385
#     4  11  23  41  63  93 128 166 213 260 321 380
#     4  10  22  37  61  91 121 157 213 254 308 362
#     4  10  21  39  62  90 118 163 211 253 305 377
#     4  11  22  38  63  90 125 164 206 262 312 371
#     4  12  25  40  67  97 128 166 210 270 318 377
#     4  10  21  40  60  90 123 169 206 257 310 383
#
# _framework density 19.745391000000001
#
# number of rings (size 3 to 8) (size 9 to 14) (size 15 to 20)
#    0.000    1.333    4.000    2.400    5.600    0.533 
#    0.000    0.000    0.000    1.600    0.000    0.000 
#    0.000    0.000    0.000    0.000    0.000    0.000 
#
# Total GULP energy -743444.218693 kJ/mol
# GULP energy per Si atom -12390.736978 kJ/mol
# Density = 1.970045 g / cm^3
# Si number density = 19.745391 Si / 1000 Ang^3
#
#
#
# Elastic Constant Matrix: (Units=GPa)
#
#
# Indices 1 2 3 4 5 6 
#
# 1 79.9530 31.1172 11.0068 0.0000 0.0000 0.0000
# 2 31.1172 118.5645 11.2161 0.0000 0.0000 0.0000
# 3 11.0068 11.2161 94.2833 0.0000 0.0000 0.0000
# 4 0.0000 0.0000 0.0000 20.8573 0.0000 0.0000
# 5 0.0000 0.0000 0.0000 0.0000 21.4905 0.0000
# 6 0.0000 0.0000 0.0000 0.0000 0.0000 9.2460
#
#
#
# Elastic Compliance Matrix: (Units=1/GPa)
#
#
# Indices 1 2 3 4 5 6 
#
# 1 0.014067 -0.003577 -0.001217 0.000000 0.000000 0.000000
# 2 -0.003577 0.009440 -0.000705 0.000000 0.000000 0.000000
# 3 -0.001217 -0.000705 0.010832 0.000000 0.000000 0.000000
# 4 0.000000 0.000000 0.000000 0.047945 0.000000 0.000000
# 5 0.000000 0.000000 0.000000 0.000000 0.046532 0.000000
# 6 0.000000 0.000000 0.000000 0.000000 0.000000 0.108154
#
#
# Mechanical properties :
#
#
# Convention : Reuss Voigt Hill
#
# Bulk Modulus (GPa) = 42.84279 44.38678 43.61479
# Shear Modulus (GPa) = 19.55047 26.28281 22.91664
#
# Velocity S-wave (km/s) = 3.15004 3.65236 3.41046
# Velocity P-wave (km/s) = 5.91397 6.34939 6.13554
#
# Compressibility (1/GPa) = 0.02334115
#
# Stress axis : x y z
#
# Youngs Moduli (GPa) = 71.08886 105.93577 92.31663
#
# Poissons Ratio (x) = 0.37891 0.11232
# Poissons Ratio (y) = 0.25427 0.06512
# Poissons Ratio (z) = 0.08649 0.07473
#
# Static dielectric constant tensor:
#      x y z
#    x 3.706060 0.000000 0.000000 
#    y 0.000000 3.475300 0.000000 
#    z 0.000000 0.000000 3.762660 
# 
# 
# High freq. dielectric constant tensor:
#      x y z
#    x 1.765420 0.000000 0.000000 
#    y 0.000000 1.760500 0.000000 
#    z 0.000000 0.000000 1.774120 
# 
# From -- ./inp_files/20896.got.cif
#   From: 2010.03.12/outbox.cif.g09.slc.cpg/sg60_11_cif.got.tgz:20896.got - 2010.04.10 18:46:24.
