data_PCOD8247917
_publ_section_title
;
Structure prediction by ZEFSAII (Michael W. Deem and Ramdas Pophale) SiO2 
 PCOD8247917
Probable space group: P B C N
;
_chemical_formula_sum "Si O2"
_cell_formula_units_Z 44
_cell_length_a 5.689335
_cell_length_b 13.879783
_cell_length_c 23.791824
_cell_angle_alpha 90.000000
_cell_angle_beta 90.000000
_cell_angle_gamma 90.000000
_cell_volume 1878.762666
_symmetry_space_group_name_H-M "P B C N"
_symmetry_group_IT_number 60
_symmetry_cell_setting 'orthorhombic'
loop_
_space_group_symop_operation_xyz
x,y,z
1/2-x,1/2-y,1/2+z
1/2+x,1/2-y,-z
-x,y,1/2-z
-x,-y,-z
1/2+x,1/2+y,1/2-z
1/2-x,1/2+y,z
x,-y,1/2+z
loop_
_atom_site_type_symbol
_atom_site_label
_atom_site_fract_x
_atom_site_fract_y
_atom_site_fract_z
Si Si1 0.482940 0.965322 0.436590
Si Si2 0.000000 0.400984 0.250000
Si Si3 0.377810 0.283258 0.307465
Si Si4 0.834840 0.116084 0.124406
Si Si5 0.662575 0.464360 0.340904
Si Si6 0.439699 0.243285 0.967737
O O1 0.726603 0.972388 0.402904
O O2 0.391481 0.856101 0.435490
O O3 0.500000 0.000000 0.500000
O O4 0.297770 0.029886 0.405187
O O5 0.870296 0.332751 0.205500
O O6 0.835164 0.469566 0.287325
O O7 0.500000 0.250708 0.250000
O O8 0.344154 0.187890 0.344567
O O9 0.532553 0.361622 0.340273
O O10 0.984098 0.173770 0.077919
O O11 0.004048 0.060049 0.167919
O O12 0.688904 0.234444 0.001054
#
# Coordination Sequence:
#
# PCOD8247917 Si02
#       6
#     8   4   8   8   8   8
#     4  12  27  48  75 112 156 205 262 323 394 478
#     4  10  22  52  72 108 150 200 258 330 392 476
#     4  10  25  51  76 106 152 198 258 327 401 480
#     4  12  26  45  76 116 151 204 257 324 398 479
#     4  11  25  46  79 108 152 199 261 325 398 474
#     4  12  28  48  79 112 162 211 266 323 393 470
#
# _framework density 23.419668000000001
#
# number of rings (size 3 to 8) (size 9 to 14) (size 15 to 20)
#    0.000    0.727    1.818    4.364    5.091    4.364 
#   21.273    0.000    0.000    0.000    0.000    0.000 
#    0.000    0.000    0.000    0.000    0.000    0.000 
#
# Total GULP energy -545518.863576 kJ/mol
# GULP energy per Si atom -12398.155990 kJ/mol
# Density = 2.336636 g / cm^3
# Si number density = 23.419668 Si / 1000 Ang^3
#
#
#
# Elastic Constant Matrix: (Units=GPa)
#
#
# Indices 1 2 3 4 5 6 
#
# 1 117.0328 57.2365 47.9443 0.0000 0.0000 0.0000
# 2 57.2365 175.5027 62.7037 0.0000 0.0000 0.0000
# 3 47.9443 62.7037 107.6375 0.0000 0.0000 0.0000
# 4 0.0000 0.0000 0.0000 24.2796 0.0000 0.0000
# 5 0.0000 0.0000 0.0000 0.0000 42.7003 0.0000
# 6 0.0000 0.0000 0.0000 0.0000 0.0000 29.6739
#
#
#
# Elastic Compliance Matrix: (Units=1/GPa)
#
#
# Indices 1 2 3 4 5 6 
#
# 1 0.011174 -0.002356 -0.003604 0.000000 0.000000 0.000000
# 2 -0.002356 0.007692 -0.003432 0.000000 0.000000 0.000000
# 3 -0.003604 -0.003432 0.012895 0.000000 0.000000 0.000000
# 4 0.000000 0.000000 0.000000 0.041187 0.000000 0.000000
# 5 0.000000 0.000000 0.000000 0.000000 0.023419 0.000000
# 6 0.000000 0.000000 0.000000 0.000000 0.000000 0.033700
#
#
# Mechanical properties :
#
#
# Convention : Reuss Voigt Hill
#
# Bulk Modulus (GPa) = 77.06255 81.77133 79.41694
# Shear Modulus (GPa) = 32.64210 34.81667 33.72938
#
# Velocity S-wave (km/s) = 3.73740 3.85988 3.79914
# Velocity P-wave (km/s) = 7.18336 7.40651 7.29579
#
# Compressibility (1/GPa) = 0.01297647
#
# Stress axis : x y z
#
# Youngs Moduli (GPa) = 89.49718 129.99811 77.54954
#
# Poissons Ratio (x) = 0.30631 0.27951
# Poissons Ratio (y) = 0.21088 0.26612
# Poissons Ratio (z) = 0.32258 0.44611
#
# Static dielectric constant tensor:
#      x y z
#    x 4.682000 0.000000 0.000000 
#    y 0.000000 5.167170 0.000000 
#    z 0.000000 0.000000 4.300800 
# 
# 
# High freq. dielectric constant tensor:
#      x y z
#    x 1.931890 0.000000 0.000000 
#    y 0.000000 1.941540 0.000000 
#    z 0.000000 0.000000 1.934160 
# 
# From -- ./inp_files/24827.got.cif
#   From: 2010.03.12/outbox.cif.g09.slc.cpg/sg60_13_cif.got.tgz:24827.got - 2010.04.10 18:46:24.
