data_PCOD8247011
_publ_section_title
;
Structure prediction by ZEFSAII (Michael W. Deem and Ramdas Pophale) SiO2 
 PCOD8247011
Probable space group: P B C N
;
_chemical_formula_sum "Si O2"
_cell_formula_units_Z 48
_cell_length_a 9.039627
_cell_length_b 9.248240
_cell_length_c 27.089732
_cell_angle_alpha 90.000000
_cell_angle_beta 90.000000
_cell_angle_gamma 90.000000
_cell_volume 2264.718933
_symmetry_space_group_name_H-M "P B C N"
_symmetry_group_IT_number 60
_symmetry_cell_setting 'orthorhombic'
loop_
_space_group_symop_operation_xyz
x,y,z
1/2-x,1/2-y,1/2+z
1/2+x,1/2-y,-z
-x,y,1/2-z
-x,-y,-z
1/2+x,1/2+y,1/2-z
1/2-x,1/2+y,z
x,-y,1/2+z
loop_
_atom_site_type_symbol
_atom_site_label
_atom_site_fract_x
_atom_site_fract_y
_atom_site_fract_z
Si Si1 0.092918 0.149454 0.296432
Si Si2 0.821662 0.716102 0.838845
Si Si3 0.652571 0.583019 0.499741
Si Si4 0.659861 0.667045 0.738225
Si Si5 0.659633 0.063962 0.400290
Si Si6 0.100450 0.594119 0.464355
O O1 0.250169 0.231086 0.299449
O O2 0.000000 0.204826 0.250000
O O3 0.980346 0.198379 0.339399
O O4 0.127307 0.980226 0.291547
O O5 0.758790 0.646002 0.787861
O O6 0.837817 0.598417 0.881079
O O7 0.700769 0.831634 0.855588
O O8 0.500000 0.500000 0.500000
O O9 0.728384 0.575822 0.446160
O O10 0.634212 0.749061 0.513819
O O11 0.748762 0.497442 0.541120
O O12 0.500000 0.738370 0.750000
O O13 0.490554 0.107688 0.413625
O O14 0.000000 0.500000 0.500000
#
# Coordination Sequence:
#
# PCOD8247011 Si02
#       6
#     8   8   8   8   8   8
#     4   9  20  37  58  84 116 157 199 236 294 374
#     4  11  22  39  62  90 122 156 202 264 310 351
#     4  11  21  39  63  86 120 166 208 250 307 386
#     4  10  20  38  60  84 115 158 199 236 296 373
#     4  11  22  39  61  90 122 156 204 263 312 355
#     4  10  21  38  60  88 119 163 207 243 308 387
#
# _framework density 21.194682
#
# number of rings (size 3 to 8) (size 9 to 14) (size 15 to 20)
#    0.000    1.667    0.000    8.000    0.000    3.333 
#    0.000    8.333    0.000    0.000    0.000    0.000 
#    0.000    0.000    0.000    0.000    0.000    0.000 
#
# Total GULP energy -594808.438803 kJ/mol
# GULP energy per Si atom -12391.842475 kJ/mol
# Density = 2.114644 g / cm^3
# Si number density = 21.194682 Si / 1000 Ang^3
#
#
#
# Elastic Constant Matrix: (Units=GPa)
#
#
# Indices 1 2 3 4 5 6 
#
# 1 150.7558 62.3316 17.7831 0.0000 0.0000 0.0000
# 2 62.3316 140.4213 23.0760 0.0000 0.0000 0.0000
# 3 17.7831 23.0760 38.1017 0.0000 0.0000 0.0000
# 4 0.0000 0.0000 0.0000 23.1689 0.0000 0.0000
# 5 0.0000 0.0000 0.0000 0.0000 44.6944 0.0000
# 6 0.0000 0.0000 0.0000 0.0000 0.0000 47.6370
#
#
#
# Elastic Compliance Matrix: (Units=1/GPa)
#
#
# Indices 1 2 3 4 5 6 
#
# 1 0.008235 -0.003358 -0.001810 0.000000 0.000000 0.000000
# 2 -0.003358 0.009278 -0.004052 0.000000 0.000000 0.000000
# 3 -0.001810 -0.004052 0.029544 0.000000 0.000000 0.000000
# 4 0.000000 0.000000 0.000000 0.043161 0.000000 0.000000
# 5 0.000000 0.000000 0.000000 0.000000 0.022374 0.000000
# 6 0.000000 0.000000 0.000000 0.000000 0.000000 0.020992
#
#
# Mechanical properties :
#
#
# Convention : Reuss Voigt Hill
#
# Bulk Modulus (GPa) = 34.94315 59.51782 47.23049
# Shear Modulus (GPa) = 30.94762 38.17260 34.56011
#
# Velocity S-wave (km/s) = 3.82535 4.24848 4.04245
# Velocity P-wave (km/s) = 6.00280 7.22555 6.64237
#
# Compressibility (1/GPa) = 0.02861791
#
# Stress axis : x y z
#
# Youngs Moduli (GPa) = 121.43049 107.78305 33.84766
#
# Poissons Ratio (x) = 0.36195 0.06126
# Poissons Ratio (y) = 0.40778 0.13714
# Poissons Ratio (z) = 0.21976 0.43671
#
# Static dielectric constant tensor:
#      x y z
#    x 5.784470 0.000000 0.000000 
#    y 0.000000 3.836960 0.000000 
#    z 0.000000 0.000000 3.754130 
# 
# 
# High freq. dielectric constant tensor:
#      x y z
#    x 1.850520 0.000000 0.000000 
#    y 0.000000 1.841160 0.000000 
#    z 0.000000 0.000000 1.800110 
# 
# From -- ./inp_files/25912.got.cif
#   From: 2010.03.12/outbox.cif.g09.slc.cpg/sg60_13_cif.got.tgz:25912.got - 2010.04.10 18:46:24.
