data_PCOD8247752
_publ_section_title
;
Structure prediction by ZEFSAII (Michael W. Deem and Ramdas Pophale) SiO2 
 PCOD8247752
Probable space group: P B C N
;
_chemical_formula_sum "Si O2"
_cell_formula_units_Z 40
_cell_length_a 7.207731
_cell_length_b 13.915813
_cell_length_c 19.175060
_cell_angle_alpha 90.000000
_cell_angle_beta 90.000000
_cell_angle_gamma 90.000000
_cell_volume 1923.286068
_symmetry_space_group_name_H-M "P B C N"
_symmetry_group_IT_number 60
_symmetry_cell_setting 'orthorhombic'
loop_
_space_group_symop_operation_xyz
x,y,z
1/2-x,1/2-y,1/2+z
1/2+x,1/2-y,-z
-x,y,1/2-z
-x,-y,-z
1/2+x,1/2+y,1/2-z
1/2-x,1/2+y,z
x,-y,1/2+z
loop_
_atom_site_type_symbol
_atom_site_label
_atom_site_fract_x
_atom_site_fract_y
_atom_site_fract_z
Si Si1 0.968620 0.157424 0.016160
Si Si2 0.326711 0.507589 0.581313
Si Si3 0.381185 0.589261 0.819066
Si Si4 0.155198 0.724180 0.398347
Si Si5 0.475934 0.034654 0.327692
O O1 0.870050 0.212493 0.079930
O O2 0.144351 0.096878 0.045892
O O3 0.038917 0.238364 0.963865
O O4 0.812456 0.088492 0.979289
O O5 0.518753 0.532149 0.619548
O O6 0.157609 0.511788 0.635933
O O7 0.500000 0.572546 0.750000
O O8 0.363373 0.702586 0.834048
O O9 0.174300 0.548691 0.816851
O O10 0.081845 0.620627 0.377150
O O11 0.500000 0.076916 0.250000
#
# Coordination Sequence:
#
# PCOD8247752 Si02
#       5
#     8   8   8   8   8
#     4  10  22  41  63 100 134 167 219 275 326 397
#     4  10  22  42  66  94 131 174 213 275 326 388
#     4  11  23  45  64  93 135 167 222 268 323 389
#     4  11  24  40  66  97 130 170 216 271 327 396
#     4  12  24  42  69  93 126 179 219 264 334 390
#
# _framework density 20.797737000000001
#
# number of rings (size 3 to 8) (size 9 to 14) (size 15 to 20)
#    0.000    1.200    4.000    1.800    2.800    0.800 
#    0.000    1.000    0.000    0.000    0.000    0.000 
#    0.000    0.000    0.000    0.000    0.000    0.000 
#
# Total GULP energy -495941.359360 kJ/mol
# GULP energy per Si atom -12398.533984 kJ/mol
# Density = 2.075040 g / cm^3
# Si number density = 20.797737 Si / 1000 Ang^3
#
#
#
# Elastic Constant Matrix: (Units=GPa)
#
#
# Indices 1 2 3 4 5 6 
#
# 1 105.3111 27.7937 36.3740 0.0000 0.0000 0.0000
# 2 27.7937 61.6194 16.5378 0.0000 0.0000 0.0000
# 3 36.3740 16.5378 89.0331 0.0000 0.0000 0.0000
# 4 0.0000 0.0000 0.0000 32.0892 0.0000 0.0000
# 5 0.0000 0.0000 0.0000 0.0000 46.5983 0.0000
# 6 0.0000 0.0000 0.0000 0.0000 0.0000 23.9126
#
#
#
# Elastic Compliance Matrix: (Units=1/GPa)
#
#
# Indices 1 2 3 4 5 6 
#
# 1 0.012064 -0.004335 -0.004123 0.000000 0.000000 0.000000
# 2 -0.004335 0.018638 -0.001691 0.000000 0.000000 0.000000
# 3 -0.004123 -0.001691 0.013230 0.000000 0.000000 0.000000
# 4 0.000000 0.000000 0.000000 0.031163 0.000000 0.000000
# 5 0.000000 0.000000 0.000000 0.000000 0.021460 0.000000
# 6 0.000000 0.000000 0.000000 0.000000 0.000000 0.041819
#
#
# Mechanical properties :
#
#
# Convention : Reuss Voigt Hill
#
# Bulk Modulus (GPa) = 42.31255 46.37496 44.34375
# Shear Modulus (GPa) = 30.02089 32.20389 31.11239
#
# Velocity S-wave (km/s) = 3.80342 3.93928 3.87195
# Velocity P-wave (km/s) = 6.29897 6.56026 6.43094
#
# Compressibility (1/GPa) = 0.02363365
#
# Stress axis : x y z
#
# Youngs Moduli (GPa) = 82.89160 53.65456 75.58297
#
# Poissons Ratio (x) = 0.23258 0.31166
# Poissons Ratio (y) = 0.35932 0.12781
# Poissons Ratio (z) = 0.34180 0.09073
#
# Static dielectric constant tensor:
#      x y z
#    x 3.629140 0.000000 0.000000 
#    y 0.000000 3.709420 0.000000 
#    z 0.000000 0.000000 3.972260 
# 
# 
# High freq. dielectric constant tensor:
#      x y z
#    x 1.804680 0.000000 0.000000 
#    y 0.000000 1.816380 0.000000 
#    z 0.000000 0.000000 1.825970 
# 
# From -- ./inp_files/18979.got.cif
#   From: 2010.03.12/outbox.cif.g09.slc.cpg/sg60_10_cif.got.tgz:18979.got - 2010.04.10 18:46:24.
