data_PCOD8247545
_publ_section_title
;
Structure prediction by ZEFSAII (Michael W. Deem and Ramdas Pophale) SiO2 
 PCOD8247545
Probable space group: P B C N
;
_chemical_formula_sum "Si O2"
_cell_formula_units_Z 56
_cell_length_a 9.086429
_cell_length_b 19.373188
_cell_length_c 15.463262
_cell_angle_alpha 90.000000
_cell_angle_beta 90.000000
_cell_angle_gamma 90.000000
_cell_volume 2722.045904
_symmetry_space_group_name_H-M "P B C N"
_symmetry_group_IT_number 60
_symmetry_cell_setting 'orthorhombic'
loop_
_space_group_symop_operation_xyz
x,y,z
1/2-x,1/2-y,1/2+z
1/2+x,1/2-y,-z
-x,y,1/2-z
-x,-y,-z
1/2+x,1/2+y,1/2-z
1/2-x,1/2+y,z
x,-y,1/2+z
loop_
_atom_site_type_symbol
_atom_site_label
_atom_site_fract_x
_atom_site_fract_y
_atom_site_fract_z
Si Si1 0.000000 0.037095 0.250000
Si Si2 0.000000 0.397155 0.250000
Si Si3 0.819689 0.624949 0.492966
Si Si4 0.760790 0.474875 0.152940
Si Si5 0.345404 0.764606 0.779954
Si Si6 0.632312 0.338221 0.848210
Si Si7 0.924964 0.713697 0.631065
Si Si8 0.450338 0.101336 0.348503
O O1 0.102588 0.087379 0.193483
O O2 0.095950 0.986909 0.311613
O O3 0.858264 0.444097 0.231480
O O4 0.031894 0.345841 0.169178
O O5 0.770353 0.573498 0.568955
O O6 0.670264 0.650764 0.448399
O O7 0.901980 0.693121 0.531358
O O8 0.919727 0.590285 0.418552
O O9 0.823818 0.548511 0.123963
O O10 0.500000 0.729323 0.750000
O O11 0.271691 0.802773 0.697831
O O12 0.234761 0.708763 0.820881
O O13 0.382970 0.821784 0.853131
O O14 0.488051 0.289430 0.848064
O O15 0.500000 0.086532 0.250000
#
# Coordination Sequence:
#
# PCOD8247545 Si02
#       8
#     4   4   8   8   8   8   8   8
#     4  12  23  44  70  92 127 180 228 268 328 396
#     4  10  21  42  64  90 127 182 206 262 326 398
#     4  11  26  38  63 102 133 163 222 277 327 382
#     4  11  23  41  66  95 133 169 224 267 326 387
#     4  11  20  38  72  95 117 172 224 257 315 407
#     4  12  21  43  69  93 128 174 216 270 325 399
#     4  11  23  43  62  99 134 166 215 269 336 384
#     4  11  19  40  66  93 121 177 223 258 320 401
#
# _framework density 20.572759999999999
#
# number of rings (size 3 to 8) (size 9 to 14) (size 15 to 20)
#    0.000    0.857    7.857    0.429    2.000    0.571 
#    5.143    1.429    0.000    0.000    0.000    0.000 
#    0.000    0.000    0.000    0.000    0.000    0.000 
#
# Total GULP energy -694102.728491 kJ/mol
# GULP energy per Si atom -12394.691580 kJ/mol
# Density = 2.052594 g / cm^3
# Si number density = 20.572760 Si / 1000 Ang^3
#
#
#
# Elastic Constant Matrix: (Units=GPa)
#
#
# Indices 1 2 3 4 5 6 
#
# 1 110.6749 22.3242 53.9852 0.0000 0.0000 0.0000
# 2 22.3242 57.1446 30.1565 0.0000 0.0000 0.0000
# 3 53.9852 30.1565 125.1143 0.0000 0.0000 0.0000
# 4 0.0000 0.0000 0.0000 22.9728 0.0000 0.0000
# 5 0.0000 0.0000 0.0000 0.0000 42.8758 0.0000
# 6 0.0000 0.0000 0.0000 0.0000 0.0000 23.2798
#
#
#
# Elastic Compliance Matrix: (Units=1/GPa)
#
#
# Indices 1 2 3 4 5 6 
#
# 1 0.011676 -0.002180 -0.004513 0.000000 0.000000 0.000000
# 2 -0.002180 0.020457 -0.003990 0.000000 0.000000 0.000000
# 3 -0.004513 -0.003990 0.010902 0.000000 0.000000 0.000000
# 4 0.000000 0.000000 0.000000 0.043530 0.000000 0.000000
# 5 0.000000 0.000000 0.000000 0.000000 0.023323 0.000000
# 6 0.000000 0.000000 0.000000 0.000000 0.000000 0.042956
#
#
# Mechanical properties :
#
#
# Convention : Reuss Voigt Hill
#
# Bulk Modulus (GPa) = 46.14872 56.20729 51.17800
# Shear Modulus (GPa) = 27.55850 30.25687 28.90769
#
# Velocity S-wave (km/s) = 3.66397 3.83916 3.75259
# Velocity P-wave (km/s) = 6.35455 6.85804 6.61109
#
# Compressibility (1/GPa) = 0.02166908
#
# Stress axis : x y z
#
# Youngs Moduli (GPa) = 85.64232 48.88355 91.72936
#
# Poissons Ratio (x) = 0.10657 0.41396
# Poissons Ratio (y) = 0.18670 0.36601
# Poissons Ratio (z) = 0.38649 0.19505
#
# Static dielectric constant tensor:
#      x y z
#    x 3.753140 0.000000 0.000000 
#    y 0.000000 3.777190 0.000000 
#    z 0.000000 0.000000 3.740160 
# 
# 
# High freq. dielectric constant tensor:
#      x y z
#    x 1.800940 0.000000 0.000000 
#    y 0.000000 1.799760 0.000000 
#    z 0.000000 0.000000 1.796090 
# 
# From -- ./inp_files/15312.got.cif
#   From: 2010.03.12/outbox.cif.g09.slc.cpg/sg60_8_cif.got.tgz:15312.got - 2010.04.10 18:46:24.
