data_PCOD8247860
_publ_section_title
;
Structure prediction by ZEFSAII (Michael W. Deem and Ramdas Pophale) SiO2 
 PCOD8247860
Probable space group: P B C N
;
_chemical_formula_sum "Si O2"
_cell_formula_units_Z 44
_cell_length_a 9.678604
_cell_length_b 28.169313
_cell_length_c 7.817988
_cell_angle_alpha 90.000000
_cell_angle_beta 90.000000
_cell_angle_gamma 90.000000
_cell_volume 2131.493320
_symmetry_space_group_name_H-M "P B C N"
_symmetry_group_IT_number 60
_symmetry_cell_setting 'orthorhombic'
loop_
_space_group_symop_operation_xyz
x,y,z
1/2-x,1/2-y,1/2+z
1/2+x,1/2-y,-z
-x,y,1/2-z
-x,-y,-z
1/2+x,1/2+y,1/2-z
1/2-x,1/2+y,z
x,-y,1/2+z
loop_
_atom_site_type_symbol
_atom_site_label
_atom_site_fract_x
_atom_site_fract_y
_atom_site_fract_z
Si Si1 0.141444 0.062119 0.548169
Si Si2 0.342531 0.797740 0.761866
Si Si3 0.500000 0.488439 0.750000
Si Si4 0.500000 0.854042 0.250000
Si Si5 0.249964 0.200219 0.881849
Si Si6 0.000000 0.143335 0.750000
Si Si7 0.092711 0.395021 0.913146
O O1 0.130978 0.022292 0.698576
O O2 0.293925 0.065582 0.465531
O O3 0.092378 0.112439 0.620929
O O4 0.034476 0.046121 0.404456
O O5 0.500000 0.780510 0.750000
O O6 0.252937 0.756739 0.850196
O O7 0.290148 0.809981 0.574697
O O8 0.329437 0.845882 0.870333
O O9 0.636485 0.821488 0.247049
O O10 0.497949 0.886946 0.419387
O O11 0.101427 0.176742 0.856485
O O12 0.000000 0.411826 0.750000
#
# Coordination Sequence:
#
# PCOD8247860 Si02
#       7
#     8   8   4   4   8   4   8
#     4  10  22  43  69  99 130 164 223 277 351 410
#     4  11  24  41  60  94 137 184 236 277 328 386
#     4   9  22  44  71  96 130 164 208 299 346 417
#     4  12  22  42  65  92 139 181 218 287 332 380
#     4  12  24  40  63  95 139 182 235 283 325 391
#     4  11  24  40  70 102 129 185 230 278 334 415
#     4  11  23  43  65  98 133 182 223 273 339 410
#
# _framework density 20.642804000000002
#
# number of rings (size 3 to 8) (size 9 to 14) (size 15 to 20)
#    0.000    1.091    6.364    1.091    2.545    0.000 
#    3.273    0.909    0.000    0.000    0.000    0.000 
#    0.000    0.000    0.000    0.000    0.000    0.000 
#
# Total GULP energy -545604.628659 kJ/mol
# GULP energy per Si atom -12400.105197 kJ/mol
# Density = 2.059582 g / cm^3
# Si number density = 20.642804 Si / 1000 Ang^3
#
#
#
# Elastic Constant Matrix: (Units=GPa)
#
#
# Indices 1 2 3 4 5 6 
#
# 1 102.3220 28.8411 37.5426 0.0000 0.0000 0.0000
# 2 28.8411 63.9148 29.0295 0.0000 0.0000 0.0000
# 3 37.5426 29.0295 129.8985 0.0000 0.0000 0.0000
# 4 0.0000 0.0000 0.0000 22.8202 0.0000 0.0000
# 5 0.0000 0.0000 0.0000 0.0000 44.4627 0.0000
# 6 0.0000 0.0000 0.0000 0.0000 0.0000 31.9807
#
#
#
# Elastic Compliance Matrix: (Units=1/GPa)
#
#
# Indices 1 2 3 4 5 6 
#
# 1 0.011878 -0.004230 -0.002488 0.000000 0.000000 0.000000
# 2 -0.004230 0.018920 -0.003006 0.000000 0.000000 0.000000
# 3 -0.002488 -0.003006 0.009089 0.000000 0.000000 0.000000
# 4 0.000000 0.000000 0.000000 0.043821 0.000000 0.000000
# 5 0.000000 0.000000 0.000000 0.000000 0.022491 0.000000
# 6 0.000000 0.000000 0.000000 0.000000 0.000000 0.031269
#
#
# Mechanical properties :
#
#
# Convention : Reuss Voigt Hill
#
# Bulk Modulus (GPa) = 48.92309 54.10684 51.51497
# Shear Modulus (GPa) = 30.53859 33.23419 31.88639
#
# Velocity S-wave (km/s) = 3.85045 4.01679 3.93450
# Velocity P-wave (km/s) = 6.59691 6.91236 6.75647
#
# Compressibility (1/GPa) = 0.02044025
#
# Stress axis : x y z
#
# Youngs Moduli (GPa) = 84.18850 52.85486 110.02362
#
# Poissons Ratio (x) = 0.22358 0.27370
# Poissons Ratio (y) = 0.35612 0.33069
# Poissons Ratio (z) = 0.20943 0.15886
#
# Static dielectric constant tensor:
#      x y z
#    x 3.464900 0.000000 0.000000 
#    y 0.000000 3.647820 0.000000 
#    z 0.000000 0.000000 3.865520 
# 
# 
# High freq. dielectric constant tensor:
#      x y z
#    x 1.795510 0.000000 0.000000 
#    y 0.000000 1.794420 0.000000 
#    z 0.000000 0.000000 1.825960 
# 
# From -- ./inp_files/4143.got.cif
#   From: 2010.03.12/outbox.cif.g09.slc.cpg/sg60_3_cif.got.tgz:4143.got - 2010.04.10 18:46:24.
