data_PCOD8247230
_publ_section_title
;
Structure prediction by ZEFSAII (Michael W. Deem and Ramdas Pophale) SiO2 
 PCOD8247230
Probable space group: P B C N
;
_chemical_formula_sum "Si O2"
_cell_formula_units_Z 64
_cell_length_a 18.559530
_cell_length_b 9.013422
_cell_length_c 19.191295
_cell_angle_alpha 90.000000
_cell_angle_beta 90.000000
_cell_angle_gamma 90.000000
_cell_volume 3210.413405
_symmetry_space_group_name_H-M "P B C N"
_symmetry_group_IT_number 60
_symmetry_cell_setting 'orthorhombic'
loop_
_space_group_symop_operation_xyz
x,y,z
1/2-x,1/2-y,1/2+z
1/2+x,1/2-y,-z
-x,y,1/2-z
-x,-y,-z
1/2+x,1/2+y,1/2-z
1/2-x,1/2+y,z
x,-y,1/2+z
loop_
_atom_site_type_symbol
_atom_site_label
_atom_site_fract_x
_atom_site_fract_y
_atom_site_fract_z
Si Si1 0.970688 0.706225 0.554990
Si Si2 0.258699 0.193919 0.154462
Si Si3 0.836323 0.037517 0.774407
Si Si4 0.365398 0.565042 0.502762
Si Si5 0.038025 0.037826 0.129261
Si Si6 0.390334 0.619701 0.871703
Si Si7 0.914035 0.605183 0.051284
Si Si8 0.707344 0.929223 0.438258
O O1 0.898169 0.784745 0.528346
O O2 0.948463 0.544354 0.582516
O O3 0.006175 0.795936 0.619412
O O4 0.026069 0.696181 0.491069
O O5 0.315145 0.309915 0.186895
O O6 0.196145 0.286459 0.112928
O O7 0.222038 0.092548 0.213935
O O8 0.301668 0.084489 0.102404
O O9 0.841207 0.071149 0.692918
O O10 0.912258 0.976735 0.803017
O O11 0.419468 0.499499 0.559280
O O12 0.355167 0.447986 0.440914
O O13 0.288808 0.595077 0.536454
O O14 0.972550 0.925670 0.140072
O O15 0.388222 0.797739 0.882752
O O16 0.847655 0.568582 0.001060
#
# Coordination Sequence:
#
# PCOD8247230 Si02
#       8
#     8   8   8   8   8   8   8   8
#     4  10  21  35  60  93 127 157 198 262 321 363
#     4  10  21  39  59  87 122 167 213 260 310 378
#     4  11  24  40  64  87 126 172 213 253 319 388
#     4  11  19  39  65  91 120 162 219 265 309 378
#     4  11  19  42  65  87 117 170 220 252 295 394
#     4  11  23  38  61  92 125 166 205 259 328 382
#     4  11  21  34  58  98 128 153 195 270 330 364
#     4  11  21  36  64  94 120 163 221 266 315 377
#
# _framework density 19.935127000000001
#
# number of rings (size 3 to 8) (size 9 to 14) (size 15 to 20)
#    0.000    1.250    5.000    3.375    0.000    1.000 
#    0.000    6.250    0.000    3.000    0.000    0.000 
#    0.000    0.000    0.000    0.000    0.000    0.000 
#
# Total GULP energy -793625.426269 kJ/mol
# GULP energy per Si atom -12400.397285 kJ/mol
# Density = 1.988975 g / cm^3
# Si number density = 19.935127 Si / 1000 Ang^3
#
#
#
# Elastic Constant Matrix: (Units=GPa)
#
#
# Indices 1 2 3 4 5 6 
#
# 1 81.9617 35.0920 24.4289 0.0000 0.0000 0.0000
# 2 35.0920 126.9681 35.5356 0.0000 0.0000 0.0000
# 3 24.4289 35.5356 81.7916 0.0000 0.0000 0.0000
# 4 0.0000 0.0000 0.0000 24.7152 0.0000 0.0000
# 5 0.0000 0.0000 0.0000 0.0000 17.8225 0.0000
# 6 0.0000 0.0000 0.0000 0.0000 0.0000 17.9380
#
#
#
# Elastic Compliance Matrix: (Units=1/GPa)
#
#
# Indices 1 2 3 4 5 6 
#
# 1 0.014431 -0.003167 -0.002934 0.000000 0.000000 0.000000
# 2 -0.003167 0.009661 -0.003252 0.000000 0.000000 0.000000
# 3 -0.002934 -0.003252 0.014515 0.000000 0.000000 0.000000
# 4 0.000000 0.000000 0.000000 0.040461 0.000000 0.000000
# 5 0.000000 0.000000 0.000000 0.000000 0.056109 0.000000
# 6 0.000000 0.000000 0.000000 0.000000 0.000000 0.055748
#
#
# Mechanical properties :
#
#
# Convention : Reuss Voigt Hill
#
# Bulk Modulus (GPa) = 50.24640 53.42604 51.83622
# Shear Modulus (GPa) = 23.11972 25.13948 24.12960
#
# Velocity S-wave (km/s) = 3.40920 3.55500 3.48286
# Velocity P-wave (km/s) = 6.38409 6.61127 6.49867
#
# Compressibility (1/GPa) = 0.01990192
#
# Stress axis : x y z
#
# Youngs Moduli (GPa) = 69.29289 103.50406 68.89322
#
# Poissons Ratio (x) = 0.32784 0.20214
# Poissons Ratio (y) = 0.21948 0.22401
# Poissons Ratio (z) = 0.20332 0.33655
#
# Static dielectric constant tensor:
#      x y z
#    x 3.719240 0.000000 0.000000 
#    y 0.000000 3.835860 0.000000 
#    z 0.000000 0.000000 3.519420 
# 
# 
# High freq. dielectric constant tensor:
#      x y z
#    x 1.774060 0.000000 0.000000 
#    y 0.000000 1.794420 0.000000 
#    z 0.000000 0.000000 1.752220 
# 
# From -- ./inp_files/23092.got.cif
#   From: 2010.03.12/outbox.cif.g09.slc.cpg/sg60_12_cif.got.tgz:23092.got - 2010.04.10 18:46:24.
