data_PCOD8247462
_publ_section_title
;
Structure prediction by ZEFSAII (Michael W. Deem and Ramdas Pophale) SiO2 
 PCOD8247462
Probable space group: P B C N
;
_chemical_formula_sum "Si O2"
_cell_formula_units_Z 48
_cell_length_a 15.314725
_cell_length_b 8.991768
_cell_length_c 16.246492
_cell_angle_alpha 90.000000
_cell_angle_beta 90.000000
_cell_angle_gamma 90.000000
_cell_volume 2237.246806
_symmetry_space_group_name_H-M "P B C N"
_symmetry_group_IT_number 60
_symmetry_cell_setting 'orthorhombic'
loop_
_space_group_symop_operation_xyz
x,y,z
1/2-x,1/2-y,1/2+z
1/2+x,1/2-y,-z
-x,y,1/2-z
-x,-y,-z
1/2+x,1/2+y,1/2-z
1/2-x,1/2+y,z
x,-y,1/2+z
loop_
_atom_site_type_symbol
_atom_site_label
_atom_site_fract_x
_atom_site_fract_y
_atom_site_fract_z
Si Si1 0.820691 0.625838 0.415764
Si Si2 0.158537 0.632497 0.897523
Si Si3 0.313698 0.550633 0.330669
Si Si4 0.502077 0.948329 0.847419
Si Si5 0.671184 0.442979 0.354242
Si Si6 0.483693 0.385295 0.346850
O O1 0.835579 0.683145 0.508087
O O2 0.733249 0.527813 0.417612
O O3 0.809209 0.766479 0.355101
O O4 0.900269 0.523842 0.382035
O O5 0.178313 0.772184 0.838854
O O6 0.226459 0.502026 0.876314
O O7 0.060955 0.572392 0.884758
O O8 0.308906 0.506690 0.235655
O O9 0.398450 0.476207 0.373165
O O10 0.500000 0.964693 0.750000
O O11 0.472200 0.784145 0.877251
O O12 0.570532 0.464084 0.384014
O O13 0.500000 0.383155 0.250000
#
# Coordination Sequence:
#
# PCOD8247462 Si02
#       6
#     8   8   8   8   8   8
#     4  11  23  40  60  90 125 158 196 250 304 349
#     4  12  24  38  59  92 124 156 198 251 302 350
#     4  11  22  39  62  88 118 159 205 245 291 358
#     4  10  21  40  63  88 120 160 199 241 294 358
#     4  10  21  40  63  86 118 162 203 243 294 359
#     4   8  18  37  61  86 114 149 197 248 289 338
#
# _framework density 21.454941999999999
#
# number of rings (size 3 to 8) (size 9 to 14) (size 15 to 20)
#    0.000    1.667    0.000    5.500    0.000    3.333 
#    0.000    9.167    0.000    0.000    0.000    0.000 
#    0.000    0.000    0.000    0.000    0.000    0.000 
#
# Total GULP energy -595319.798700 kJ/mol
# GULP energy per Si atom -12402.495806 kJ/mol
# Density = 2.140611 g / cm^3
# Si number density = 21.454942 Si / 1000 Ang^3
#
#
#
# Elastic Constant Matrix: (Units=GPa)
#
#
# Indices 1 2 3 4 5 6 
#
# 1 113.0226 57.7023 28.7637 0.0000 0.0000 0.0000
# 2 57.7023 112.9844 33.5925 0.0000 0.0000 0.0000
# 3 28.7637 33.5925 93.1120 0.0000 0.0000 0.0000
# 4 0.0000 0.0000 0.0000 17.1794 0.0000 0.0000
# 5 0.0000 0.0000 0.0000 0.0000 21.2620 0.0000
# 6 0.0000 0.0000 0.0000 0.0000 0.0000 40.2127
#
#
#
# Elastic Compliance Matrix: (Units=1/GPa)
#
#
# Indices 1 2 3 4 5 6 
#
# 1 0.012205 -0.005727 -0.001704 0.000000 0.000000 0.000000
# 2 -0.005727 0.012601 -0.002777 0.000000 0.000000 0.000000
# 3 -0.001704 -0.002777 0.012268 0.000000 0.000000 0.000000
# 4 0.000000 0.000000 0.000000 0.058209 0.000000 0.000000
# 5 0.000000 0.000000 0.000000 0.000000 0.047032 0.000000
# 6 0.000000 0.000000 0.000000 0.000000 0.000000 0.024868
#
#
# Mechanical properties :
#
#
# Convention : Reuss Voigt Hill
#
# Bulk Modulus (GPa) = 60.03009 62.13734 61.08371
# Shear Modulus (GPa) = 25.88629 29.00153 27.44391
#
# Velocity S-wave (km/s) = 3.47730 3.68059 3.58039
# Velocity P-wave (km/s) = 6.64549 6.86200 6.75461
#
# Compressibility (1/GPa) = 0.01665831
#
# Stress axis : x y z
#
# Youngs Moduli (GPa) = 81.93251 79.35823 81.51164
#
# Poissons Ratio (x) = 0.45445 0.13893
# Poissons Ratio (y) = 0.46919 0.22637
# Poissons Ratio (z) = 0.13964 0.22039
#
# Static dielectric constant tensor:
#      x y z
#    x 4.225570 0.000000 0.000000 
#    y 0.000000 3.720800 0.000000 
#    z 0.000000 0.000000 3.615510 
# 
# 
# High freq. dielectric constant tensor:
#      x y z
#    x 1.858410 0.000000 0.000000 
#    y 0.000000 1.833690 0.000000 
#    z 0.000000 0.000000 1.826070 
# 
# From -- ./inp_files/20474.got.cif
#   From: 2010.03.12/outbox.cif.g09.slc.cpg/sg60_11_cif.got.tgz:20474.got - 2010.04.10 18:46:24.
