data_PCOD8247062
_publ_section_title
;
Structure prediction by ZEFSAII (Michael W. Deem and Ramdas Pophale) SiO2 
 PCOD8247062
Probable space group: P B C N
;
_chemical_formula_sum "Si O2"
_cell_formula_units_Z 48
_cell_length_a 16.694165
_cell_length_b 9.770254
_cell_length_c 14.966232
_cell_angle_alpha 90.000000
_cell_angle_beta 90.000000
_cell_angle_gamma 90.000000
_cell_volume 2441.085714
_symmetry_space_group_name_H-M "P B C N"
_symmetry_group_IT_number 60
_symmetry_cell_setting 'orthorhombic'
loop_
_space_group_symop_operation_xyz
x,y,z
1/2-x,1/2-y,1/2+z
1/2+x,1/2-y,-z
-x,y,1/2-z
-x,-y,-z
1/2+x,1/2+y,1/2-z
1/2-x,1/2+y,z
x,-y,1/2+z
loop_
_atom_site_type_symbol
_atom_site_label
_atom_site_fract_x
_atom_site_fract_y
_atom_site_fract_z
Si Si1 0.178659 0.657652 0.724251
Si Si2 0.707246 0.253463 0.118482
Si Si3 0.591716 0.418354 0.737372
Si Si4 0.663493 0.361292 0.363348
Si Si5 0.826736 0.040474 0.054427
Si Si6 0.406047 0.130559 0.242030
O O1 0.228033 0.686661 0.813497
O O2 0.109952 0.772661 0.716248
O O3 0.240475 0.665724 0.640789
O O4 0.137027 0.512372 0.727734
O O5 0.743739 0.123548 0.066701
O O6 0.687276 0.377065 0.050863
O O7 0.627050 0.204458 0.169034
O O8 0.500000 0.457918 0.750000
O O9 0.646648 0.530734 0.784574
O O10 0.611028 0.419227 0.632047
O O11 0.635907 0.416905 0.459308
O O12 0.613926 0.222883 0.344540
O O13 0.500000 0.107859 0.250000
#
# Coordination Sequence:
#
# PCOD8247062 Si02
#       6
#     8   8   8   8   8   8
#     4  10  20  40  62  85 118 160 203 241 293 358
#     4  10  20  39  60  87 115 161 196 249 292 351
#     4  11  23  42  62  89 126 160 195 248 311 359
#     4  11  23  38  64  91 117 158 209 250 289 358
#     4  11  23  38  64  89 123 156 209 247 298 350
#     4  11  21  39  61  89 123 157 198 250 302 355
#
# _framework density 19.663381999999999
#
# number of rings (size 3 to 8) (size 9 to 14) (size 15 to 20)
#    0.000    1.333    5.000    3.000    4.667    0.667 
#    0.000    0.000    0.000    4.000    0.000    0.000 
#    0.000    0.000    0.000    0.000    0.000    0.000 
#
# Total GULP energy -595253.704545 kJ/mol
# GULP energy per Si atom -12401.118845 kJ/mol
# Density = 1.961863 g / cm^3
# Si number density = 19.663382 Si / 1000 Ang^3
#
#
#
# Elastic Constant Matrix: (Units=GPa)
#
#
# Indices 1 2 3 4 5 6 
#
# 1 78.4655 0.9163 22.6104 0.0000 0.0000 0.0000
# 2 0.9163 89.7068 11.4076 0.0000 0.0000 0.0000
# 3 22.6104 11.4076 76.9582 0.0000 0.0000 0.0000
# 4 0.0000 0.0000 0.0000 15.8058 0.0000 0.0000
# 5 0.0000 0.0000 0.0000 0.0000 12.4930 0.0000
# 6 0.0000 0.0000 0.0000 0.0000 0.0000 24.1051
#
#
#
# Elastic Compliance Matrix: (Units=1/GPa)
#
#
# Indices 1 2 3 4 5 6 
#
# 1 0.013936 0.000386 -0.004152 0.000000 0.000000 0.000000
# 2 0.000386 0.011372 -0.001799 0.000000 0.000000 0.000000
# 3 -0.004152 -0.001799 0.014481 0.000000 0.000000 0.000000
# 4 0.000000 0.000000 0.000000 0.063268 0.000000 0.000000
# 5 0.000000 0.000000 0.000000 0.000000 0.080045 0.000000
# 6 0.000000 0.000000 0.000000 0.000000 0.000000 0.041485
#
#
# Mechanical properties :
#
#
# Convention : Reuss Voigt Hill
#
# Bulk Modulus (GPa) = 34.89318 34.99991 34.94655
# Shear Modulus (GPa) = 20.38572 24.49386 22.43979
#
# Velocity S-wave (km/s) = 3.22333 3.53322 3.38183
# Velocity P-wave (km/s) = 5.62467 5.87222 5.74978
#
# Compressibility (1/GPa) = 0.02865889
#
# Stress axis : x y z
#
# Youngs Moduli (GPa) = 71.75518 87.93328 69.05838
#
# Poissons Ratio (x) = -0.03391 0.28671
# Poissons Ratio (y) = -0.02767 0.12424
# Poissons Ratio (z) = 0.29790 0.15819
#
# Static dielectric constant tensor:
#      x y z
#    x 3.468750 0.000000 0.000000 
#    y 0.000000 3.952020 0.000000 
#    z 0.000000 0.000000 3.389650 
# 
# 
# High freq. dielectric constant tensor:
#      x y z
#    x 1.752220 0.000000 0.000000 
#    y 0.000000 1.789030 0.000000 
#    z 0.000000 0.000000 1.744870 
# 
# From -- ./inp_files/17304.got.cif
#   From: 2010.03.12/outbox.cif.g09.slc.cpg/sg60_9_cif.got.tgz:17304.got - 2010.04.10 18:46:24.
