data_PCOD8247612
_publ_section_title
;
Structure prediction by ZEFSAII (Michael W. Deem and Ramdas Pophale) SiO2 
 PCOD8247612
Probable space group: P B C N
;
_chemical_formula_sum "Si O2"
_cell_formula_units_Z 56
_cell_length_a 23.153240
_cell_length_b 13.303914
_cell_length_c 9.547138
_cell_angle_alpha 90.000000
_cell_angle_beta 90.000000
_cell_angle_gamma 90.000000
_cell_volume 2940.792638
_symmetry_space_group_name_H-M "P B C N"
_symmetry_group_IT_number 60
_symmetry_cell_setting 'orthorhombic'
loop_
_space_group_symop_operation_xyz
x,y,z
1/2-x,1/2-y,1/2+z
1/2+x,1/2-y,-z
-x,y,1/2-z
-x,-y,-z
1/2+x,1/2+y,1/2-z
1/2-x,1/2+y,z
x,-y,1/2+z
loop_
_atom_site_type_symbol
_atom_site_label
_atom_site_fract_x
_atom_site_fract_y
_atom_site_fract_z
Si Si1 0.290122 0.796160 0.963206
Si Si2 0.666611 0.110032 0.316726
Si Si3 0.099244 0.280823 0.449465
Si Si4 0.793429 0.082658 0.413080
Si Si5 0.173180 0.106459 0.402691
Si Si6 0.489352 0.097445 0.591832
Si Si7 0.632694 0.107672 0.822154
O O1 0.321386 0.826051 0.820861
O O2 0.221711 0.811365 0.945438
O O3 0.307792 0.683165 0.001015
O O4 0.310174 0.866698 0.090871
O O5 0.625162 0.178595 0.407645
O O6 0.724610 0.076938 0.397094
O O7 0.632497 0.008858 0.277690
O O8 0.111645 0.160626 0.437203
O O9 0.132878 0.330278 0.320013
O O10 0.031191 0.308701 0.447048
O O11 0.823763 0.079624 0.261433
O O12 0.818799 0.992634 0.505301
O O13 0.500000 0.062549 0.750000
O O14 0.422985 0.133436 0.580240
O O15 0.500000 0.000000 0.500000
#
# Coordination Sequence:
#
# PCOD8247612 Si02
#       7
#     8   8   8   8   8   8   8
#     4  11  23  37  57  89 123 158 196 241 301 358
#     4  11  22  33  60  88 124 159 192 247 292 368
#     4  11  22  38  56  86 120 159 200 242 304 355
#     4  11  24  38  57  87 121 164 202 244 296 360
#     4  11  24  38  60  84 122 160 200 248 298 355
#     4  10  22  36  59  86 119 154 195 243 300 358
#     4  11  21  39  58  88 120 159 195 241 302 357
#
# _framework density 19.042486
#
# number of rings (size 3 to 8) (size 9 to 14) (size 15 to 20)
#    0.000    1.143    5.714    0.857    6.000    0.000 
#    0.000    0.000    0.000    0.857    0.000    0.000 
#    0.000    0.000    0.000    0.000    0.000    0.000 
#
# Total GULP energy -694381.898773 kJ/mol
# GULP energy per Si atom -12399.676764 kJ/mol
# Density = 1.899914 g / cm^3
# Si number density = 19.042486 Si / 1000 Ang^3
#
#
#
# Elastic Constant Matrix: (Units=GPa)
#
#
# Indices 1 2 3 4 5 6 
#
# 1 65.2044 29.4196 14.8074 0.0000 0.0000 0.0000
# 2 29.4196 129.1091 49.4006 0.0000 0.0000 0.0000
# 3 14.8074 49.4006 75.4193 0.0000 0.0000 0.0000
# 4 0.0000 0.0000 0.0000 29.4106 0.0000 0.0000
# 5 0.0000 0.0000 0.0000 0.0000 15.8135 0.0000
# 6 0.0000 0.0000 0.0000 0.0000 0.0000 29.5546
#
#
#
# Elastic Compliance Matrix: (Units=1/GPa)
#
#
# Indices 1 2 3 4 5 6 
#
# 1 0.017159 -0.003498 -0.001078 0.000000 0.000000 0.000000
# 2 -0.003498 0.011049 -0.006550 0.000000 0.000000 0.000000
# 3 -0.001078 -0.006550 0.017761 0.000000 0.000000 0.000000
# 4 0.000000 0.000000 0.000000 0.034001 0.000000 0.000000
# 5 0.000000 0.000000 0.000000 0.000000 0.063237 0.000000
# 6 0.000000 0.000000 0.000000 0.000000 0.000000 0.033836
#
#
# Mechanical properties :
#
#
# Convention : Reuss Voigt Hill
#
# Bulk Modulus (GPa) = 42.16287 50.77645 46.46966
# Shear Modulus (GPa) = 24.13114 26.69609 25.41361
#
# Velocity S-wave (km/s) = 3.56367 3.74829 3.65715
# Velocity P-wave (km/s) = 6.25480 6.74208 6.50301
#
# Compressibility (1/GPa) = 0.02371755
#
# Stress axis : x y z
#
# Youngs Moduli (GPa) = 58.27760 90.50839 56.30185
#
# Poissons Ratio (x) = 0.31656 0.06069
# Poissons Ratio (y) = 0.20383 0.36880
# Poissons Ratio (z) = 0.06282 0.59286
#
# Static dielectric constant tensor:
#      x y z
#    x 3.005760 0.000000 0.000000 
#    y 0.000000 3.435600 0.000000 
#    z 0.000000 0.000000 3.838870 
# 
# 
# High freq. dielectric constant tensor:
#      x y z
#    x 1.719940 0.000000 0.000000 
#    y 0.000000 1.731380 0.000000 
#    z 0.000000 0.000000 1.754400 
# 
# From -- ./inp_files/7437.got.cif
#   From: 2010.03.12/outbox.cif.g09.slc.cpg/sg60_4_cif.got.tgz:7437.got - 2010.04.10 18:46:24.
