data_PCOD8247081
_publ_section_title
;
Structure prediction by ZEFSAII (Michael W. Deem and Ramdas Pophale) SiO2 
 PCOD8247081
Probable space group: P B C N
;
_chemical_formula_sum "Si O2"
_cell_formula_units_Z 40
_cell_length_a 10.320632
_cell_length_b 8.874096
_cell_length_c 21.320683
_cell_angle_alpha 90.000000
_cell_angle_beta 90.000000
_cell_angle_gamma 90.000000
_cell_volume 1952.682025
_symmetry_space_group_name_H-M "P B C N"
_symmetry_group_IT_number 60
_symmetry_cell_setting 'orthorhombic'
loop_
_space_group_symop_operation_xyz
x,y,z
1/2-x,1/2-y,1/2+z
1/2+x,1/2-y,-z
-x,y,1/2-z
-x,-y,-z
1/2+x,1/2+y,1/2-z
1/2-x,1/2+y,z
x,-y,1/2+z
loop_
_atom_site_type_symbol
_atom_site_label
_atom_site_fract_x
_atom_site_fract_y
_atom_site_fract_z
Si Si1 0.784865 0.721657 0.347898
Si Si2 0.083808 0.448949 0.439680
Si Si3 0.898314 0.991136 0.416224
Si Si4 0.422577 0.946956 0.188714
Si Si5 0.842209 0.110409 0.052502
O O1 0.706025 0.612154 0.393572
O O2 0.868806 0.616125 0.302076
O O3 0.883647 0.826763 0.386086
O O4 0.691735 0.825948 0.307622
O O5 0.149230 0.289404 0.455135
O O6 0.198012 0.568170 0.424060
O O7 0.000000 0.500000 0.500000
O O8 0.995876 0.434852 0.377807
O O9 0.043390 0.051752 0.401204
O O10 0.867660 0.978369 0.488894
O O11 0.500000 0.903430 0.250000
#
# Coordination Sequence:
#
# PCOD8247081 Si02
#       5
#     8   8   8   8   8
#     4  10  21  44  66  88 130 174 213 260 333 390
#     4  12  26  42  65  97 135 171 218 275 327 388
#     4  10  20  39  64  95 131 173 210 262 334 387
#     4  11  25  45  68  94 129 172 219 265 327 390
#     4  11  24  36  63 100 131 167 219 271 319 387
#
# _framework density 20.484646000000001
#
# number of rings (size 3 to 8) (size 9 to 14) (size 15 to 20)
#    0.000    1.200    2.000    4.800    8.400    1.600 
#    0.000    2.000    0.000    0.000    0.000    0.000 
#    0.000    0.000    0.000    0.000    0.000    0.000 
#
# Total GULP energy -495923.652971 kJ/mol
# GULP energy per Si atom -12398.091324 kJ/mol
# Density = 2.043802 g / cm^3
# Si number density = 20.484646 Si / 1000 Ang^3
#
#
#
# Elastic Constant Matrix: (Units=GPa)
#
#
# Indices 1 2 3 4 5 6 
#
# 1 91.5664 30.6346 8.3599 0.0000 0.0000 0.0000
# 2 30.6346 129.1621 1.9673 0.0000 0.0000 0.0000
# 3 8.3599 1.9673 67.3069 0.0000 0.0000 0.0000
# 4 0.0000 0.0000 0.0000 8.9838 0.0000 0.0000
# 5 0.0000 0.0000 0.0000 0.0000 25.7759 0.0000
# 6 0.0000 0.0000 0.0000 0.0000 0.0000 39.6642
#
#
#
# Elastic Compliance Matrix: (Units=1/GPa)
#
#
# Indices 1 2 3 4 5 6 
#
# 1 0.011994 -0.002823 -0.001407 0.000000 0.000000 0.000000
# 2 -0.002823 0.008410 0.000105 0.000000 0.000000 0.000000
# 3 -0.001407 0.000105 0.015029 0.000000 0.000000 0.000000
# 4 0.000000 0.000000 0.000000 0.111312 0.000000 0.000000
# 5 0.000000 0.000000 0.000000 0.000000 0.038796 0.000000
# 6 0.000000 0.000000 0.000000 0.000000 0.000000 0.025212
#
#
# Mechanical properties :
#
#
# Convention : Reuss Voigt Hill
#
# Bulk Modulus (GPa) = 36.78901 41.10653 38.94777
# Shear Modulus (GPa) = 21.92361 31.35636 26.63999
#
# Velocity S-wave (km/s) = 3.27501 3.91669 3.61014
# Velocity P-wave (km/s) = 5.68324 6.36903 6.03588
#
# Compressibility (1/GPa) = 0.02718203
#
# Stress axis : x y z
#
# Youngs Moduli (GPa) = 83.37446 118.90265 66.53783
#
# Poissons Ratio (x) = 0.33570 0.09363
# Poissons Ratio (y) = 0.23539 -0.00698
# Poissons Ratio (z) = 0.11732 -0.01247
#
# Static dielectric constant tensor:
#      x y z
#    x 4.191280 0.000000 0.000000 
#    y 0.000000 4.036060 0.000000 
#    z 0.000000 0.000000 3.360260 
# 
# 
# High freq. dielectric constant tensor:
#      x y z
#    x 1.816130 0.000000 0.000000 
#    y 0.000000 1.825540 0.000000 
#    z 0.000000 0.000000 1.762630 
# 
# From -- ./inp_files/19872.got.cif
#   From: 2010.03.12/outbox.cif.g09.slc.cpg/sg60_10_cif.got.tgz:19872.got - 2010.04.10 18:46:24.
