data_PCOD8247052
_publ_section_title
;
Structure prediction by ZEFSAII (Michael W. Deem and Ramdas Pophale) SiO2 
 PCOD8247052
Probable space group: P B C N
;
_chemical_formula_sum "Si O2"
_cell_formula_units_Z 40
_cell_length_a 9.335286
_cell_length_b 9.795270
_cell_length_c 17.507471
_cell_angle_alpha 90.000000
_cell_angle_beta 90.000000
_cell_angle_gamma 90.000000
_cell_volume 1600.911981
_symmetry_space_group_name_H-M "P B C N"
_symmetry_group_IT_number 60
_symmetry_cell_setting 'orthorhombic'
loop_
_space_group_symop_operation_xyz
x,y,z
1/2-x,1/2-y,1/2+z
1/2+x,1/2-y,-z
-x,y,1/2-z
-x,-y,-z
1/2+x,1/2+y,1/2-z
1/2-x,1/2+y,z
x,-y,1/2+z
loop_
_atom_site_type_symbol
_atom_site_label
_atom_site_fract_x
_atom_site_fract_y
_atom_site_fract_z
Si Si1 0.582421 0.054595 0.669916
Si Si2 0.391885 0.414867 0.646646
Si Si3 0.900746 0.317146 0.460418
Si Si4 0.399921 0.381065 0.032087
Si Si5 0.699733 0.663858 0.186893
O O1 0.500000 0.059953 0.750000
O O2 0.476151 0.075990 0.597986
O O3 0.706140 0.172211 0.676400
O O4 0.656348 0.907863 0.656705
O O5 0.325884 0.307439 0.586415
O O6 0.370727 0.573159 0.620874
O O7 0.320692 0.388431 0.727063
O O8 0.561322 0.382344 0.639738
O O9 0.761600 0.379361 0.504736
O O10 0.018354 0.262979 0.521527
O O11 0.500000 0.500000 0.000000
#
# Coordination Sequence:
#
# PCOD8247052 Si02
#       5
#     8   8   8   8   8
#     4  11  21  41  64  94 135 172 231 284 346 405
#     4   9  19  39  61  89 131 174 217 275 339 395
#     4  10  21  40  66  93 133 176 219 281 329 406
#     4  10  22  40  65  92 131 170 222 270 337 402
#     4  10  20  38  67  94 131 175 224 286 342 405
#
# _framework density 24.985758000000001
#
# number of rings (size 3 to 8) (size 9 to 14) (size 15 to 20)
#    0.000    2.000    4.000    1.200    2.800    0.000 
#    3.600    8.000    0.000    0.000    0.000    0.000 
#    0.000    0.000    0.000    0.000    0.000    0.000 
#
# Total GULP energy -495558.809288 kJ/mol
# GULP energy per Si atom -12388.970232 kJ/mol
# Density = 2.492889 g / cm^3
# Si number density = 24.985758 Si / 1000 Ang^3
#
#
#
# Elastic Constant Matrix: (Units=GPa)
#
#
# Indices 1 2 3 4 5 6 
#
# 1 132.0939 52.1224 24.1403 0.0000 0.0000 0.0000
# 2 52.1224 72.9962 12.2699 0.0000 0.0000 0.0000
# 3 24.1403 12.2699 18.9282 0.0000 0.0000 0.0000
# 4 0.0000 0.0000 0.0000 19.7707 0.0000 0.0000
# 5 0.0000 0.0000 0.0000 0.0000 22.8098 0.0000
# 6 0.0000 0.0000 0.0000 0.0000 0.0000 48.3344
#
#
#
# Elastic Compliance Matrix: (Units=1/GPa)
#
#
# Indices 1 2 3 4 5 6 
#
# 1 0.012368 -0.006936 -0.011278 0.000000 0.000000 0.000000
# 2 -0.006936 0.019264 -0.003642 0.000000 0.000000 0.000000
# 3 -0.011278 -0.003642 0.069575 0.000000 0.000000 0.000000
# 4 0.000000 0.000000 0.000000 0.050580 0.000000 0.000000
# 5 0.000000 0.000000 0.000000 0.000000 0.043841 0.000000
# 6 0.000000 0.000000 0.000000 0.000000 0.000000 0.020689
#
#
# Mechanical properties :
#
#
# Convention : Reuss Voigt Hill
#
# Bulk Modulus (GPa) = 17.39243 44.56484 30.97864
# Shear Modulus (GPa) = 17.90869 27.21535 22.56202
#
# Velocity S-wave (km/s) = 2.68013 3.30394 3.00825
# Velocity P-wave (km/s) = 4.06860 5.69469 4.94889
#
# Compressibility (1/GPa) = 0.05749629
#
# Stress axis : x y z
#
# Youngs Moduli (GPa) = 80.85292 51.91057 14.37288
#
# Poissons Ratio (x) = 0.36003 0.16210
# Poissons Ratio (y) = 0.56077 0.05235
# Poissons Ratio (z) = 0.91185 0.18906
#
# Static dielectric constant tensor:
#      x y z
#    x 4.518270 0.000000 0.000000 
#    y 0.000000 4.866320 0.000000 
#    z 0.000000 0.000000 4.719100 
# 
# 
# High freq. dielectric constant tensor:
#      x y z
#    x 1.988220 0.000000 0.000000 
#    y 0.000000 1.983040 0.000000 
#    z 0.000000 0.000000 1.997350 
# 
# From -- ./inp_files/21997.got.cif
#   From: 2010.03.12/outbox.cif.g09.slc.cpg/sg60_11_cif.got.tgz:21997.got - 2010.04.10 18:46:24.
