data_PCOD8247989
_publ_section_title
;
Structure prediction by ZEFSAII (Michael W. Deem and Ramdas Pophale) SiO2 
 PCOD8247989
Probable space group: P B C N
;
_chemical_formula_sum "Si O2"
_cell_formula_units_Z 56
_cell_length_a 11.484755
_cell_length_b 14.443644
_cell_length_c 14.843900
_cell_angle_alpha 90.000000
_cell_angle_beta 90.000000
_cell_angle_gamma 90.000000
_cell_volume 2462.331554
_symmetry_space_group_name_H-M "P B C N"
_symmetry_group_IT_number 60
_symmetry_cell_setting 'orthorhombic'
loop_
_space_group_symop_operation_xyz
x,y,z
1/2-x,1/2-y,1/2+z
1/2+x,1/2-y,-z
-x,y,1/2-z
-x,-y,-z
1/2+x,1/2+y,1/2-z
1/2-x,1/2+y,z
x,-y,1/2+z
loop_
_atom_site_type_symbol
_atom_site_label
_atom_site_fract_x
_atom_site_fract_y
_atom_site_fract_z
Si Si1 0.497933 0.199756 0.094516
Si Si2 0.341764 0.063480 0.316501
Si Si3 0.744703 0.143803 0.355619
Si Si4 0.390537 0.466495 0.115777
Si Si5 0.531771 0.243155 0.893979
Si Si6 0.500000 0.341683 0.250000
Si Si7 0.113520 0.913128 0.920550
Si Si8 0.500000 0.910202 0.250000
O O1 0.550703 0.101813 0.125608
O O2 0.359149 0.183624 0.082183
O O3 0.538722 0.278834 0.165311
O O4 0.552804 0.225159 0.999021
O O5 0.306773 0.141744 0.244606
O O6 0.231484 0.045558 0.379932
O O7 0.384129 0.971334 0.265067
O O8 0.851088 0.213515 0.355404
O O9 0.786830 0.040961 0.382808
O O10 0.395570 0.406228 0.208495
O O11 0.515744 0.513539 0.105322
O O12 0.371674 0.401416 0.028582
O O13 0.422852 0.313267 0.880090
O O14 0.510754 0.149616 0.840221
#
# Coordination Sequence:
#
# PCOD8247989 Si02
#       8
#     8   8   8   8   8   4   8   4
#     4  12  26  47  71 108 152 188 242 307 372 433
#     4  12  25  48  69 100 153 193 232 311 374 444
#     4  11  24  48  70 102 151 187 237 307 369 435
#     4  10  23  42  74 107 138 190 251 292 362 448
#     4  11  27  48  75 110 142 190 252 305 361 447
#     4  12  21  45  74 104 144 194 252 291 361 442
#     4  10  23  46  69 106 146 185 238 311 365 422
#     4  12  27  49  72 112 138 198 256 289 393 450
#
# _framework density 22.742673
#
# number of rings (size 3 to 8) (size 9 to 14) (size 15 to 20)
#    0.000    0.857    4.286    1.714    4.000    6.286 
#    5.143    0.000    0.000    0.000    0.000    0.000 
#    0.000    0.000    0.000    0.000    0.000    0.000 
#
# Total GULP energy -694397.959176 kJ/mol
# GULP energy per Si atom -12399.963557 kJ/mol
# Density = 2.269091 g / cm^3
# Si number density = 22.742673 Si / 1000 Ang^3
#
#
#
# Elastic Constant Matrix: (Units=GPa)
#
#
# Indices 1 2 3 4 5 6 
#
# 1 119.1516 50.8134 41.1452 0.0000 0.0000 0.0000
# 2 50.8134 113.1400 54.9023 0.0000 0.0000 0.0000
# 3 41.1452 54.9023 143.7439 0.0000 0.0000 0.0000
# 4 0.0000 0.0000 0.0000 44.0530 0.0000 0.0000
# 5 0.0000 0.0000 0.0000 0.0000 31.4086 0.0000
# 6 0.0000 0.0000 0.0000 0.0000 0.0000 25.3666
#
#
#
# Elastic Compliance Matrix: (Units=1/GPa)
#
#
# Indices 1 2 3 4 5 6 
#
# 1 0.010637 -0.004051 -0.001498 0.000000 0.000000 0.000000
# 2 -0.004051 0.012392 -0.003574 0.000000 0.000000 0.000000
# 3 -0.001498 -0.003574 0.008750 0.000000 0.000000 0.000000
# 4 0.000000 0.000000 0.000000 0.022700 0.000000 0.000000
# 5 0.000000 0.000000 0.000000 0.000000 0.031838 0.000000
# 6 0.000000 0.000000 0.000000 0.000000 0.000000 0.039422
#
#
# Mechanical properties :
#
#
# Convention : Reuss Voigt Hill
#
# Bulk Modulus (GPa) = 73.87807 74.41748 74.14777
# Shear Modulus (GPa) = 33.67098 35.44393 34.55746
#
# Velocity S-wave (km/s) = 3.85193 3.95204 3.90230
# Velocity P-wave (km/s) = 7.23450 7.32239 7.27858
#
# Compressibility (1/GPa) = 0.01353582
#
# Stress axis : x y z
#
# Youngs Moduli (GPa) = 94.00896 80.69747 114.28003
#
# Poissons Ratio (x) = 0.32688 0.17116
# Poissons Ratio (y) = 0.38080 0.40839
# Poissons Ratio (z) = 0.14080 0.28838
#
# Static dielectric constant tensor:
#      x y z
#    x 4.091600 0.000000 0.000000 
#    y 0.000000 4.097010 0.000000 
#    z 0.000000 0.000000 4.187230 
# 
# 
# High freq. dielectric constant tensor:
#      x y z
#    x 1.892070 0.000000 0.000000 
#    y 0.000000 1.900990 0.000000 
#    z 0.000000 0.000000 1.902660 
# 
# From -- ./inp_files/16222.got.cif
#   From: 2010.03.12/outbox.cif.g09.slc.cpg/sg60_9_cif.got.tgz:16222.got - 2010.04.10 18:46:24.
