data_PCOD8247719
_publ_section_title
;
Structure prediction by ZEFSAII (Michael W. Deem and Ramdas Pophale) SiO2 
 PCOD8247719
Probable space group: P B C N
;
_chemical_formula_sum "Si O2"
_cell_formula_units_Z 36
_cell_length_a 7.840852
_cell_length_b 24.894426
_cell_length_c 8.809712
_cell_angle_alpha 90.000000
_cell_angle_beta 90.000000
_cell_angle_gamma 90.000000
_cell_volume 1719.598606
_symmetry_space_group_name_H-M "P B C N"
_symmetry_group_IT_number 60
_symmetry_cell_setting 'orthorhombic'
loop_
_space_group_symop_operation_xyz
x,y,z
1/2-x,1/2-y,1/2+z
1/2+x,1/2-y,-z
-x,y,1/2-z
-x,-y,-z
1/2+x,1/2+y,1/2-z
1/2-x,1/2+y,z
x,-y,1/2+z
loop_
_atom_site_type_symbol
_atom_site_label
_atom_site_fract_x
_atom_site_fract_y
_atom_site_fract_z
Si Si1 0.950801 0.780231 0.919799
Si Si2 0.500000 0.991777 0.750000
Si Si3 0.345496 0.653667 0.649261
Si Si4 0.380223 0.173541 0.931832
Si Si5 0.888263 0.574742 0.988262
O O1 0.000000 0.798470 0.750000
O O2 0.960328 0.715307 0.936944
O O3 0.767223 0.805800 0.954883
O O4 0.091126 0.798346 0.043036
O O5 0.622654 0.953026 0.652145
O O6 0.390682 0.028666 0.638841
O O7 0.500000 0.630877 0.750000
O O8 0.191323 0.672195 0.759666
O O9 0.285785 0.606500 0.537827
O O10 0.447235 0.114649 0.978971
#
# Coordination Sequence:
#
# PCOD8247719 Si02
#       5
#     8   4   8   8   8
#     4  11  23  36  60  95 125 163 205 240 304 384
#     4  10  24  38  70  86 114 158 220 252 312 362
#     4  10  22  40  62  88 131 165 194 254 319 367
#     4  11  21  39  62  89 129 165 193 254 311 367
#     4  11  21  43  64  91 118 159 208 258 307 371
#
# _framework density 20.935119
#
# number of rings (size 3 to 8) (size 9 to 14) (size 15 to 20)
#    0.000    1.333    2.222    4.000    3.111    0.000 
#    6.000    1.111    0.000    0.000    0.000    0.000 
#    0.000    0.000    0.000    0.000    0.000    0.000 
#
# Total GULP energy -446297.320495 kJ/mol
# GULP energy per Si atom -12397.147792 kJ/mol
# Density = 2.088747 g / cm^3
# Si number density = 20.935119 Si / 1000 Ang^3
#
#
#
# Elastic Constant Matrix: (Units=GPa)
#
#
# Indices 1 2 3 4 5 6 
#
# 1 71.8700 53.7898 26.9035 0.0000 0.0000 0.0000
# 2 53.7898 130.4609 62.4078 0.0000 0.0000 0.0000
# 3 26.9035 62.4078 114.1372 0.0000 0.0000 0.0000
# 4 0.0000 0.0000 0.0000 27.6033 0.0000 0.0000
# 5 0.0000 0.0000 0.0000 0.0000 32.9148 0.0000
# 6 0.0000 0.0000 0.0000 0.0000 0.0000 9.2289
#
#
#
# Elastic Compliance Matrix: (Units=1/GPa)
#
#
# Indices 1 2 3 4 5 6 
#
# 1 0.020131 -0.008166 -0.000280 0.000000 0.000000 0.000000
# 2 -0.008166 0.013693 -0.005562 0.000000 0.000000 0.000000
# 3 -0.000280 -0.005562 0.011869 0.000000 0.000000 0.000000
# 4 0.000000 0.000000 0.000000 0.036228 0.000000 0.000000
# 5 0.000000 0.000000 0.000000 0.000000 0.030382 0.000000
# 6 0.000000 0.000000 0.000000 0.000000 0.000000 0.108355
#
#
# Mechanical properties :
#
#
# Convention : Reuss Voigt Hill
#
# Bulk Modulus (GPa) = 56.57480 66.96337 61.76908
# Shear Modulus (GPa) = 19.64141 25.50720 22.57430
#
# Velocity S-wave (km/s) = 3.06633 3.49433 3.28731
# Velocity P-wave (km/s) = 6.29437 6.95242 6.63156
#
# Compressibility (1/GPa) = 0.01767571
#
# Stress axis : x y z
#
# Youngs Moduli (GPa) = 49.67579 73.03149 84.25587
#
# Poissons Ratio (x) = 0.59638 0.02359
# Poissons Ratio (y) = 0.40565 0.46864
# Poissons Ratio (z) = 0.01391 0.40621
#
# Static dielectric constant tensor:
#      x y z
#    x 3.714500 0.000000 0.000000 
#    y 0.000000 3.855310 0.000000 
#    z 0.000000 0.000000 3.998520 
# 
# 
# High freq. dielectric constant tensor:
#      x y z
#    x 1.808350 0.000000 0.000000 
#    y 0.000000 1.819800 0.000000 
#    z 0.000000 0.000000 1.834990 
# 
# From -- ./inp_files/3670.got.cif
#   From: 2010.03.12/outbox.cif.g09.slc.cpg/sg60_2_cif.got.tgz:3670.got - 2010.04.10 18:46:24.
