data_PCOD8247751
_publ_section_title
;
Structure prediction by ZEFSAII (Michael W. Deem and Ramdas Pophale) SiO2 
 PCOD8247751
Probable space group: P B C N
;
_chemical_formula_sum "Si O2"
_cell_formula_units_Z 36
_cell_length_a 18.384508
_cell_length_b 6.309534
_cell_length_c 13.527426
_cell_angle_alpha 90.000000
_cell_angle_beta 90.000000
_cell_angle_gamma 90.000000
_cell_volume 1569.150009
_symmetry_space_group_name_H-M "P B C N"
_symmetry_group_IT_number 60
_symmetry_cell_setting 'orthorhombic'
loop_
_space_group_symop_operation_xyz
x,y,z
1/2-x,1/2-y,1/2+z
1/2+x,1/2-y,-z
-x,y,1/2-z
-x,-y,-z
1/2+x,1/2+y,1/2-z
1/2-x,1/2+y,z
x,-y,1/2+z
loop_
_atom_site_type_symbol
_atom_site_label
_atom_site_fract_x
_atom_site_fract_y
_atom_site_fract_z
Si Si1 0.343934 0.521526 0.992574
Si Si2 0.367273 0.603774 0.771270
Si Si3 0.000000 0.412664 0.750000
Si Si4 0.698098 0.849864 0.897679
Si Si5 0.093143 0.717671 0.640833
O O1 0.331924 0.565396 0.878076
O O2 0.277193 0.609560 0.058460
O O3 0.349662 0.270763 0.016905
O O4 0.414194 0.646037 0.038611
O O5 0.433085 0.769201 0.784131
O O6 0.304143 0.698166 0.700466
O O7 0.397354 0.380149 0.732077
O O8 0.023581 0.567080 0.659333
O O9 0.664356 0.072850 0.869086
#
# Coordination Sequence:
#
# PCOD8247751 Si02
#       5
#     8   8   4   8   8
#     4  11  22  41  65 102 133 175 222 271 343 409
#     4  10  24  42  70  96 133 182 224 282 337 396
#     4  10  22  46  70  96 132 184 228 276 338 390
#     4  10  22  41  62  98 138 169 214 272 337 408
#     4  10  22  44  65  95 139 172 224 281 325 405
#
# _framework density 22.942357999999999
#
# number of rings (size 3 to 8) (size 9 to 14) (size 15 to 20)
#    0.000    1.778    2.222    0.667    0.000    8.000 
#    0.000   15.556    0.000    0.000    0.000    0.000 
#    0.000    0.000    0.000    0.000    0.000    0.000 
#
# Total GULP energy -446007.969128 kJ/mol
# GULP energy per Si atom -12389.110254 kJ/mol
# Density = 2.289014 g / cm^3
# Si number density = 22.942358 Si / 1000 Ang^3
#
#
#
# Elastic Constant Matrix: (Units=GPa)
#
#
# Indices 1 2 3 4 5 6 
#
# 1 60.1197 26.9582 26.6732 0.0000 0.0000 0.0000
# 2 26.9582 137.1749 34.0141 0.0000 0.0000 0.0000
# 3 26.6732 34.0141 140.9189 0.0000 0.0000 0.0000
# 4 0.0000 0.0000 0.0000 17.0454 0.0000 0.0000
# 5 0.0000 0.0000 0.0000 0.0000 19.0963 0.0000
# 6 0.0000 0.0000 0.0000 0.0000 0.0000 34.0963
#
#
#
# Elastic Compliance Matrix: (Units=1/GPa)
#
#
# Indices 1 2 3 4 5 6 
#
# 1 0.019303 -0.003071 -0.002912 0.000000 0.000000 0.000000
# 2 -0.003071 0.008243 -0.001408 0.000000 0.000000 0.000000
# 3 -0.002912 -0.001408 0.007987 0.000000 0.000000 0.000000
# 4 0.000000 0.000000 0.000000 0.058667 0.000000 0.000000
# 5 0.000000 0.000000 0.000000 0.000000 0.052366 0.000000
# 6 0.000000 0.000000 0.000000 0.000000 0.000000 0.029329
#
#
# Mechanical properties :
#
#
# Convention : Reuss Voigt Hill
#
# Bulk Modulus (GPa) = 48.19459 57.05607 52.62533
# Shear Modulus (GPa) = 25.30432 30.75215 28.02824
#
# Velocity S-wave (km/s) = 3.32468 3.66513 3.49905
# Velocity P-wave (km/s) = 5.98251 6.54479 6.26995
#
# Compressibility (1/GPa) = 0.02074922
#
# Stress axis : x y z
#
# Youngs Moduli (GPa) = 51.80601 121.31887 125.19668
#
# Poissons Ratio (x) = 0.37261 0.36461
# Poissons Ratio (y) = 0.15911 0.17631
# Poissons Ratio (z) = 0.15087 0.17085
#
# Static dielectric constant tensor:
#      x y z
#    x 3.950850 0.000000 0.000000 
#    y 0.000000 4.962640 0.000000 
#    z 0.000000 0.000000 3.961550 
# 
# 
# High freq. dielectric constant tensor:
#      x y z
#    x 1.877490 0.000000 0.000000 
#    y 0.000000 1.945520 0.000000 
#    z 0.000000 0.000000 1.888410 
# 
# From -- ./inp_files/12997.got.cif
#   From: 2010.03.12/outbox.cif.g09.slc.cpg/sg60_7_cif.got.tgz:12997.got - 2010.04.10 18:46:24.
