data_PCOD8247300
_publ_section_title
;
Structure prediction by ZEFSAII (Michael W. Deem and Ramdas Pophale) SiO2 
 PCOD8247300
Probable space group: P B C N
;
_chemical_formula_sum "Si O2"
_cell_formula_units_Z 60
_cell_length_a 17.593427
_cell_length_b 8.837587
_cell_length_c 17.012844
_cell_angle_alpha 90.000000
_cell_angle_beta 90.000000
_cell_angle_gamma 90.000000
_cell_volume 2645.215539
_symmetry_space_group_name_H-M "P B C N"
_symmetry_group_IT_number 60
_symmetry_cell_setting 'orthorhombic'
loop_
_space_group_symop_operation_xyz
x,y,z
1/2-x,1/2-y,1/2+z
1/2+x,1/2-y,-z
-x,y,1/2-z
-x,-y,-z
1/2+x,1/2+y,1/2-z
1/2-x,1/2+y,z
x,-y,1/2+z
loop_
_atom_site_type_symbol
_atom_site_label
_atom_site_fract_x
_atom_site_fract_y
_atom_site_fract_z
Si Si1 0.805509 0.159590 0.440970
Si Si2 0.690131 0.323925 0.624768
Si Si3 0.928598 0.969046 0.054980
Si Si4 0.925643 0.773182 0.207284
Si Si5 0.312880 0.042897 0.492871
Si Si6 0.000000 0.726106 0.750000
Si Si7 0.606563 0.036010 0.643991
Si Si8 0.359801 0.442544 0.721242
O O1 0.866765 0.114925 0.504536
O O2 0.815524 0.341379 0.433150
O O3 0.815862 0.072981 0.359925
O O4 0.722841 0.113360 0.475583
O O5 0.608605 0.375808 0.587393
O O6 0.761145 0.366356 0.571362
O O7 0.681903 0.144058 0.643823
O O8 0.698594 0.402401 0.709581
O O9 0.950254 0.863549 0.128743
O O10 0.000000 0.000000 0.000000
O O11 0.877616 0.620697 0.190389
O O12 0.000000 0.712851 0.250000
O O13 0.881405 0.881997 0.267492
O O14 0.394491 0.008999 0.450231
O O15 0.032331 0.621520 0.821570
O O16 0.066462 0.833008 0.717219
#
# Coordination Sequence:
#
# PCOD8247300 Si02
#       8
#     8   8   8   8   8   4   8   8
#     4  11  23  42  65  92 128 172 219 275 327 395
#     4   9  22  41  66  90 125 180 213 266 329 388
#     4  10  21  37  64  92 123 172 217 261 329 392
#     4  11  20  37  62  95 127 165 215 266 325 403
#     4  11  22  45  64  89 132 175 226 264 327 399
#     4  10  22  42  66 102 134 170 214 274 342 380
#     4  11  21  39  68  94 131 167 219 276 325 398
#     4  10  22  42  66  95 132 169 221 272 327 402
#
# _framework density 22.682461
#
# number of rings (size 3 to 8) (size 9 to 14) (size 15 to 20)
#    0.000    1.600    4.000    0.800    3.733    0.000 
#    7.200    2.667    0.000    0.000    0.000    0.000 
#    0.000    0.000    0.000    0.000    0.000    0.000 
#
# Total GULP energy -743321.937591 kJ/mol
# GULP energy per Si atom -12388.698960 kJ/mol
# Density = 2.263083 g / cm^3
# Si number density = 22.682461 Si / 1000 Ang^3
#
#
#
# Elastic Constant Matrix: (Units=GPa)
#
#
# Indices 1 2 3 4 5 6 
#
# 1 48.2602 12.7744 27.9350 0.0000 0.0000 0.0000
# 2 12.7744 118.0712 7.6235 0.0000 0.0000 0.0000
# 3 27.9350 7.6235 89.0776 0.0000 0.0000 0.0000
# 4 0.0000 0.0000 0.0000 10.2870 0.0000 0.0000
# 5 0.0000 0.0000 0.0000 0.0000 38.2906 0.0000
# 6 0.0000 0.0000 0.0000 0.0000 0.0000 18.9011
#
#
#
# Elastic Compliance Matrix: (Units=1/GPa)
#
#
# Indices 1 2 3 4 5 6 
#
# 1 0.025919 -0.002292 -0.007932 0.000000 0.000000 0.000000
# 2 -0.002292 0.008719 -0.000027 0.000000 0.000000 0.000000
# 3 -0.007932 -0.000027 0.013716 0.000000 0.000000 0.000000
# 4 0.000000 0.000000 0.000000 0.097210 0.000000 0.000000
# 5 0.000000 0.000000 0.000000 0.000000 0.026116 0.000000
# 6 0.000000 0.000000 0.000000 0.000000 0.000000 0.052907
#
#
# Mechanical properties :
#
#
# Convention : Reuss Voigt Hill
#
# Bulk Modulus (GPa) = 35.90516 39.11940 37.51228
# Shear Modulus (GPa) = 19.65600 27.30080 23.47840
#
# Velocity S-wave (km/s) = 2.94695 3.47307 3.22077
# Velocity P-wave (km/s) = 5.23863 5.77641 5.51408
#
# Compressibility (1/GPa) = 0.02785115
#
# Stress axis : x y z
#
# Youngs Moduli (GPa) = 38.58141 114.68915 72.90716
#
# Poissons Ratio (x) = 0.26288 0.57831
# Poissons Ratio (y) = 0.08843 0.00200
# Poissons Ratio (z) = 0.30603 0.00314
#
# Static dielectric constant tensor:
#      x y z
#    x 1.286480 0.000000 0.000000 
#    y 0.000000 4.497310 0.000000 
#    z 0.000000 0.000000 3.870890 
# 
# 
# High freq. dielectric constant tensor:
#      x y z
#    x 1.862930 0.000000 0.000000 
#    y 0.000000 1.914210 0.000000 
#    z 0.000000 0.000000 1.890010 
# 
# From -- ./inp_files/20881.got.cif
#   From: 2010.03.12/outbox.cif.g09.slc.cpg/sg60_11_cif.got.tgz:20881.got - 2010.04.10 18:46:24.
