data_PCOD8247124
_publ_section_title
;
Structure prediction by ZEFSAII (Michael W. Deem and Ramdas Pophale) SiO2 
 PCOD8247124
Probable space group: P B C N
;
_chemical_formula_sum "Si O2"
_cell_formula_units_Z 36
_cell_length_a 9.099893
_cell_length_b 9.314182
_cell_length_c 19.426562
_cell_angle_alpha 90.000000
_cell_angle_beta 90.000000
_cell_angle_gamma 90.000000
_cell_volume 1646.557699
_symmetry_space_group_name_H-M "P B C N"
_symmetry_group_IT_number 60
_symmetry_cell_setting 'orthorhombic'
loop_
_space_group_symop_operation_xyz
x,y,z
1/2-x,1/2-y,1/2+z
1/2+x,1/2-y,-z
-x,y,1/2-z
-x,-y,-z
1/2+x,1/2+y,1/2-z
1/2-x,1/2+y,z
x,-y,1/2+z
loop_
_atom_site_type_symbol
_atom_site_label
_atom_site_fract_x
_atom_site_fract_y
_atom_site_fract_z
Si Si1 0.295358 0.091241 0.858341
Si Si2 0.988788 0.988556 0.823595
Si Si3 0.500000 0.214887 0.750000
Si Si4 0.650548 0.161821 0.057089
Si Si5 0.093178 0.883740 0.041783
O O1 0.375687 0.115634 0.784872
O O2 0.248824 0.241015 0.891758
O O3 0.153812 0.989209 0.851903
O O4 0.394098 0.991122 0.908485
O O5 0.883149 0.064600 0.878952
O O6 0.000000 0.073479 0.750000
O O7 0.935990 0.822992 0.809600
O O8 0.496497 0.235304 0.038306
O O9 0.744837 0.136645 0.988087
O O10 0.000000 0.000000 0.000000
#
# Coordination Sequence:
#
# PCOD8247124 Si02
#       5
#     8   8   4   8   8
#     4  11  20  43  66  92 133 175 216 280 337 398
#     4   9  20  41  62  93 131 172 215 275 333 389
#     4  10  20  40  66  92 130 178 216 266 342 400
#     4  11  22  41  70  95 136 178 223 278 339 394
#     4  11  21  43  67  95 140 178 220 280 337 399
#
# _framework density 21.863795
#
# number of rings (size 3 to 8) (size 9 to 14) (size 15 to 20)
#    0.667    0.889    6.667    0.000    0.000    0.889 
#   16.000    0.000    0.000    0.000    0.000    0.000 
#    0.000    0.000    0.000    0.000    0.000    0.000 
#
# Total GULP energy -446043.269323 kJ/mol
# GULP energy per Si atom -12390.090815 kJ/mol
# Density = 2.181403 g / cm^3
# Si number density = 21.863795 Si / 1000 Ang^3
#
#
#
# Elastic Constant Matrix: (Units=GPa)
#
#
# Indices 1 2 3 4 5 6 
#
# 1 46.2691 28.0402 29.4175 0.0000 0.0000 0.0000
# 2 28.0402 100.2137 40.2964 0.0000 0.0000 0.0000
# 3 29.4175 40.2964 131.5790 0.0000 0.0000 0.0000
# 4 0.0000 0.0000 0.0000 47.6634 0.0000 0.0000
# 5 0.0000 0.0000 0.0000 0.0000 41.5003 0.0000
# 6 0.0000 0.0000 0.0000 0.0000 0.0000 22.7918
#
#
#
# Elastic Compliance Matrix: (Units=1/GPa)
#
#
# Indices 1 2 3 4 5 6 
#
# 1 0.028113 -0.006089 -0.004421 0.000000 0.000000 0.000000
# 2 -0.006089 0.012699 -0.002528 0.000000 0.000000 0.000000
# 3 -0.004421 -0.002528 0.009362 0.000000 0.000000 0.000000
# 4 0.000000 0.000000 0.000000 0.020980 0.000000 0.000000
# 5 0.000000 0.000000 0.000000 0.000000 0.024096 0.000000
# 6 0.000000 0.000000 0.000000 0.000000 0.000000 0.043875
#
#
# Mechanical properties :
#
#
# Convention : Reuss Voigt Hill
#
# Bulk Modulus (GPa) = 41.49332 52.61885 47.05609
# Shear Modulus (GPa) = 28.86271 34.41162 31.63716
#
# Velocity S-wave (km/s) = 3.63728 3.97156 3.80809
# Velocity P-wave (km/s) = 6.05467 6.71937 6.39566
#
# Compressibility (1/GPa) = 0.02410026
#
# Stress axis : x y z
#
# Youngs Moduli (GPa) = 35.57053 78.74814 106.80931
#
# Poissons Ratio (x) = 0.47946 0.47217
# Poissons Ratio (y) = 0.21657 0.26999
# Poissons Ratio (z) = 0.15725 0.19906
#
# Static dielectric constant tensor:
#      x y z
#    x 3.492790 0.000000 0.000000 
#    y 0.000000 3.926590 0.000000 
#    z 0.000000 0.000000 4.926580 
# 
# 
# High freq. dielectric constant tensor:
#      x y z
#    x 1.819640 0.000000 0.000000 
#    y 0.000000 1.860700 0.000000 
#    z 0.000000 0.000000 1.866910 
# 
# From -- ./inp_files/21932.got.cif
#   From: 2010.03.12/outbox.cif.g09.slc.cpg/sg60_11_cif.got.tgz:21932.got - 2010.04.10 18:46:24.
