data_PCOD8247049
_publ_section_title
;
Structure prediction by ZEFSAII (Michael W. Deem and Ramdas Pophale) SiO2 
 PCOD8247049
Probable space group: P B C N
;
_chemical_formula_sum "Si O2"
_cell_formula_units_Z 56
_cell_length_a 15.433920
_cell_length_b 15.627648
_cell_length_c 10.698697
_cell_angle_alpha 90.000000
_cell_angle_beta 90.000000
_cell_angle_gamma 90.000000
_cell_volume 2580.481520
_symmetry_space_group_name_H-M "P B C N"
_symmetry_group_IT_number 60
_symmetry_cell_setting 'orthorhombic'
loop_
_space_group_symop_operation_xyz
x,y,z
1/2-x,1/2-y,1/2+z
1/2+x,1/2-y,-z
-x,y,1/2-z
-x,-y,-z
1/2+x,1/2+y,1/2-z
1/2-x,1/2+y,z
x,-y,1/2+z
loop_
_atom_site_type_symbol
_atom_site_label
_atom_site_fract_x
_atom_site_fract_y
_atom_site_fract_z
Si Si1 0.088459 0.717140 0.912790
Si Si2 0.518693 0.562424 0.884775
Si Si3 0.696147 0.283328 0.802416
Si Si4 0.054127 0.472733 0.377223
Si Si5 0.182374 0.375133 0.866146
Si Si6 0.691040 0.658674 0.920747
Si Si7 0.083141 0.777683 0.471458
O O1 0.113946 0.764092 0.784717
O O2 0.102230 0.615742 0.907235
O O3 0.988306 0.735504 0.939318
O O4 0.148864 0.756048 0.020147
O O5 0.500000 0.517676 0.750000
O O6 0.618976 0.589558 0.884526
O O7 0.500000 0.500000 0.000000
O O8 0.455305 0.643905 0.892874
O O9 0.753383 0.361848 0.751025
O O10 0.754719 0.196223 0.804002
O O11 0.661768 0.309046 0.939738
O O12 0.127481 0.540730 0.344274
O O13 0.000000 0.461798 0.250000
O O14 0.000000 0.500000 0.500000
O O15 0.240388 0.387347 0.989086
O O16 0.118168 0.293493 0.875864
#
# Coordination Sequence:
#
# PCOD8247049 Si02
#       7
#     8   8   8   8   8   8   8
#     4  10  21  40  67  93 132 181 217 265 330 407
#     4  11  25  45  68  95 128 172 224 273 323 388
#     4  10  20  38  65  96 124 176 219 272 328 384
#     4  12  26  42  66 103 137 175 219 270 333 403
#     4  10  22  40  63  98 133 168 220 271 327 391
#     4   9  22  43  64  92 130 169 226 269 326 388
#     4  10  20  41  69  88 128 176 225 260 326 400
#
# _framework density 21.701377000000001
#
# number of rings (size 3 to 8) (size 9 to 14) (size 15 to 20)
#    0.000    1.714    1.429    2.143    4.000    4.000 
#   12.857    0.000    0.000    0.000    0.000    0.000 
#    0.000    0.000    0.000    0.000    0.000    0.000 
#
# Total GULP energy -694354.452987 kJ/mol
# GULP energy per Si atom -12399.186660 kJ/mol
# Density = 2.165198 g / cm^3
# Si number density = 21.701377 Si / 1000 Ang^3
#
#
#
# Elastic Constant Matrix: (Units=GPa)
#
#
# Indices 1 2 3 4 5 6 
#
# 1 87.4756 21.2786 13.9722 0.0000 0.0000 0.0000
# 2 21.2786 87.8183 20.8391 0.0000 0.0000 0.0000
# 3 13.9722 20.8391 88.2366 0.0000 0.0000 0.0000
# 4 0.0000 0.0000 0.0000 20.4146 0.0000 0.0000
# 5 0.0000 0.0000 0.0000 0.0000 17.4203 0.0000
# 6 0.0000 0.0000 0.0000 0.0000 0.0000 24.3720
#
#
#
# Elastic Compliance Matrix: (Units=1/GPa)
#
#
# Indices 1 2 3 4 5 6 
#
# 1 0.012290 -0.002666 -0.001317 0.000000 0.000000 0.000000
# 2 -0.002666 0.012641 -0.002563 0.000000 0.000000 0.000000
# 3 -0.001317 -0.002563 0.012147 0.000000 0.000000 0.000000
# 4 0.000000 0.000000 0.000000 0.048985 0.000000 0.000000
# 5 0.000000 0.000000 0.000000 0.000000 0.057404 0.000000
# 6 0.000000 0.000000 0.000000 0.000000 0.000000 0.041031
#
#
# Mechanical properties :
#
#
# Convention : Reuss Voigt Hill
#
# Bulk Modulus (GPa) = 41.68834 41.74559 41.71697
# Shear Modulus (GPa) = 24.32078 26.27077 25.29577
#
# Velocity S-wave (km/s) = 3.35132 3.48308 3.41784
# Velocity P-wave (km/s) = 5.85037 5.95432 5.90258
#
# Compressibility (1/GPa) = 0.02398752
#
# Stress axis : x y z
#
# Youngs Moduli (GPa) = 81.36391 79.10567 82.32433
#
# Poissons Ratio (x) = 0.21086 0.10839
# Poissons Ratio (y) = 0.21688 0.21103
# Poissons Ratio (z) = 0.10713 0.20278
#
# Static dielectric constant tensor:
#      x y z
#    x 4.150400 0.000000 0.000000 
#    y 0.000000 3.671680 0.000000 
#    z 0.000000 0.000000 3.872500 
# 
# 
# High freq. dielectric constant tensor:
#      x y z
#    x 1.870520 0.000000 0.000000 
#    y 0.000000 1.829760 0.000000 
#    z 0.000000 0.000000 1.855580 
# 
# From -- ./inp_files/11980.got.cif
#   From: 2010.03.12/outbox.cif.g09.slc.cpg/sg60_6_cif.got.tgz:11980.got - 2010.04.10 18:46:24.
