data_PCOD8247315
_publ_section_title
;
Structure prediction by ZEFSAII (Michael W. Deem and Ramdas Pophale) SiO2 
 PCOD8247315
Probable space group: P B C N
;
_chemical_formula_sum "Si O2"
_cell_formula_units_Z 44
_cell_length_a 30.899883
_cell_length_b 7.638170
_cell_length_c 8.653584
_cell_angle_alpha 90.000000
_cell_angle_beta 90.000000
_cell_angle_gamma 90.000000
_cell_volume 2042.406429
_symmetry_space_group_name_H-M "P B C N"
_symmetry_group_IT_number 60
_symmetry_cell_setting 'orthorhombic'
loop_
_space_group_symop_operation_xyz
x,y,z
1/2-x,1/2-y,1/2+z
1/2+x,1/2-y,-z
-x,y,1/2-z
-x,-y,-z
1/2+x,1/2+y,1/2-z
1/2-x,1/2+y,z
x,-y,1/2+z
loop_
_atom_site_type_symbol
_atom_site_label
_atom_site_fract_x
_atom_site_fract_y
_atom_site_fract_z
Si Si1 0.214983 0.589962 0.325463
Si Si2 0.289541 0.240407 0.993510
Si Si3 0.500000 0.502593 0.250000
Si Si4 0.561106 0.406016 0.997003
Si Si5 0.886335 0.740452 0.472600
Si Si6 0.880783 0.374696 0.630193
O O1 0.208666 0.382473 0.341375
O O2 0.225423 0.641393 0.150135
O O3 0.254009 0.618256 0.447042
O O4 0.170030 0.674153 0.384649
O O5 0.337467 0.319112 0.019457
O O6 0.524703 0.379573 0.128089
O O7 0.536534 0.619924 0.334387
O O8 0.596435 0.254468 0.008614
O O9 0.581563 0.600999 0.012171
O O10 0.891347 0.576980 0.590065
O O11 0.896933 0.665938 0.302779
#
# Coordination Sequence:
#
# PCOD8247315 Si02
#       6
#     8   8   4   8   8   8
#     4  10  21  38  57  88 125 163 210 257 301 365
#     4  10  21  38  57  88 125 163 210 257 301 365
#     4  10  24  42  70  94 126 158 208 270 314 392
#     4  11  22  46  66  94 130 162 206 262 326 375
#     4  10  23  41  65  94 126 169 214 255 313 378
#     4  10  23  41  65  94 126 169 214 255 313 378
#
# _framework density 21.543215
#
# number of rings (size 3 to 8) (size 9 to 14) (size 15 to 20)
#    0.000    1.818    1.818    1.091    5.091    1.455 
#    0.000    5.455    0.000    0.000    0.000    0.000 
#    0.000    0.000    0.000    0.000    0.000    0.000 
#
# Total GULP energy -545245.920862 kJ/mol
# GULP energy per Si atom -12391.952747 kJ/mol
# Density = 2.149418 g / cm^3
# Si number density = 21.543215 Si / 1000 Ang^3
#
#
#
# Elastic Constant Matrix: (Units=GPa)
#
#
# Indices 1 2 3 4 5 6 
#
# 1 94.8095 41.3682 29.0831 0.0000 0.0000 0.0000
# 2 41.3682 79.7598 13.3819 0.0000 0.0000 0.0000
# 3 29.0831 13.3819 69.5451 0.0000 0.0000 0.0000
# 4 0.0000 0.0000 0.0000 27.9856 0.0000 0.0000
# 5 0.0000 0.0000 0.0000 0.0000 39.2346 0.0000
# 6 0.0000 0.0000 0.0000 0.0000 0.0000 22.6553
#
#
#
# Elastic Compliance Matrix: (Units=1/GPa)
#
#
# Indices 1 2 3 4 5 6 
#
# 1 0.015136 -0.007015 -0.004980 0.000000 0.000000 0.000000
# 2 -0.007015 0.016207 -0.000185 0.000000 0.000000 0.000000
# 3 -0.004980 -0.000185 0.016497 0.000000 0.000000 0.000000
# 4 0.000000 0.000000 0.000000 0.035733 0.000000 0.000000
# 5 0.000000 0.000000 0.000000 0.000000 0.025488 0.000000
# 6 0.000000 0.000000 0.000000 0.000000 0.000000 0.044140
#
#
# Mechanical properties :
#
#
# Convention : Reuss Voigt Hill
#
# Bulk Modulus (GPa) = 42.58820 45.75342 44.17081
# Shear Modulus (GPa) = 26.97064 28.66050 27.81557
#
# Velocity S-wave (km/s) = 3.54210 3.65138 3.59716
# Velocity P-wave (km/s) = 6.04486 6.24987 6.14822
#
# Compressibility (1/GPa) = 0.02348068
#
# Stress axis : x y z
#
# Youngs Moduli (GPa) = 66.06834 61.70168 60.61600
#
# Poissons Ratio (x) = 0.43283 0.30186
# Poissons Ratio (y) = 0.46346 0.01122
# Poissons Ratio (z) = 0.32901 0.01142
#
# Static dielectric constant tensor:
#      x y z
#    x 4.134690 0.000000 0.000000 
#    y 0.000000 3.493090 0.000000 
#    z 0.000000 0.000000 3.941880 
# 
# 
# High freq. dielectric constant tensor:
#      x y z
#    x 1.856570 0.000000 0.000000 
#    y 0.000000 1.811920 0.000000 
#    z 0.000000 0.000000 1.856390 
# 
# From -- ./inp_files/8338.got.cif
#   From: 2010.03.12/outbox.cif.g09.slc.cpg/sg60_5_cif.got.tgz:8338.got - 2010.04.10 18:46:24.
