data_PCOD8247588
_publ_section_title
;
Structure prediction by ZEFSAII (Michael W. Deem and Ramdas Pophale) SiO2 
 PCOD8247588
Probable space group: P B C N
;
_chemical_formula_sum "Si O2"
_cell_formula_units_Z 32
_cell_length_a 16.143224
_cell_length_b 15.692832
_cell_length_c 5.477474
_cell_angle_alpha 90.000000
_cell_angle_beta 90.000000
_cell_angle_gamma 90.000000
_cell_volume 1387.624385
_symmetry_space_group_name_H-M "P B C N"
_symmetry_group_IT_number 60
_symmetry_cell_setting 'orthorhombic'
loop_
_space_group_symop_operation_xyz
x,y,z
1/2-x,1/2-y,1/2+z
1/2+x,1/2-y,-z
-x,y,1/2-z
-x,-y,-z
1/2+x,1/2+y,1/2-z
1/2-x,1/2+y,z
x,-y,1/2+z
loop_
_atom_site_type_symbol
_atom_site_label
_atom_site_fract_x
_atom_site_fract_y
_atom_site_fract_z
Si Si1 0.626563 0.170816 0.102846
Si Si2 0.737782 0.448721 0.423293
Si Si3 0.500000 0.948609 0.750000
Si Si4 0.500000 0.764403 0.250000
Si Si5 0.588462 0.334678 0.370438
O O1 0.706881 0.136363 0.959650
O O2 0.587536 0.103278 0.291906
O O3 0.641384 0.265268 0.213036
O O4 0.545739 0.173909 0.932867
O O5 0.755520 0.492634 0.161310
O O6 0.642229 0.419386 0.409777
O O7 0.500000 0.000000 0.500000
O O8 0.429227 0.704766 0.366351
O O9 0.500000 0.358197 0.250000
#
# Coordination Sequence:
#
# PCOD8247588 Si02
#       5
#     8   8   4   4   8
#     4  11  24  44  71 106 145 191 246 295 364 451
#     4  12  31  48  71 112 154 192 240 312 378 432
#     4  12  23  38  66 101 144 182 216 288 365 432
#     4  10  21  44  76 105 132 188 256 294 347 430
#     4  10  25  47  78 103 140 199 259 300 360 442
#
# _framework density 23.060998000000001
#
# number of rings (size 3 to 8) (size 9 to 14) (size 15 to 20)
#    0.000    1.000    3.750    2.250   14.000    1.000 
#    0.000    0.000    0.000    0.000    0.000    0.000 
#    0.000    0.000    0.000    0.000    0.000    0.000 
#
# Total GULP energy -396491.070353 kJ/mol
# GULP energy per Si atom -12390.345949 kJ/mol
# Density = 2.300851 g / cm^3
# Si number density = 23.060998 Si / 1000 Ang^3
#
#
#
# Elastic Constant Matrix: (Units=GPa)
#
#
# Indices 1 2 3 4 5 6 
#
# 1 74.6544 26.0199 11.5488 0.0000 0.0000 0.0000
# 2 26.0199 47.3171 24.7936 0.0000 0.0000 0.0000
# 3 11.5488 24.7936 121.4967 0.0000 0.0000 0.0000
# 4 0.0000 0.0000 0.0000 17.8743 0.0000 0.0000
# 5 0.0000 0.0000 0.0000 0.0000 26.4882 0.0000
# 6 0.0000 0.0000 0.0000 0.0000 0.0000 55.5659
#
#
#
# Elastic Compliance Matrix: (Units=1/GPa)
#
#
# Indices 1 2 3 4 5 6 
#
# 1 0.016582 -0.009286 0.000319 0.000000 0.000000 0.000000
# 2 -0.009286 0.028864 -0.005008 0.000000 0.000000 0.000000
# 3 0.000319 -0.005008 0.009222 0.000000 0.000000 0.000000
# 4 0.000000 0.000000 0.000000 0.055946 0.000000 0.000000
# 5 0.000000 0.000000 0.000000 0.000000 0.037753 0.000000
# 6 0.000000 0.000000 0.000000 0.000000 0.000000 0.017997
#
#
# Mechanical properties :
#
#
# Convention : Reuss Voigt Hill
#
# Bulk Modulus (GPa) = 37.42584 40.91032 39.16808
# Shear Modulus (GPa) = 24.60391 32.05939 28.33165
#
# Velocity S-wave (km/s) = 3.26990 3.73258 3.50887
# Velocity P-wave (km/s) = 5.52454 6.02949 5.78253
#
# Compressibility (1/GPa) = 0.02671951
#
# Stress axis : x y z
#
# Youngs Moduli (GPa) = 60.30581 34.64506 108.43306
#
# Poissons Ratio (x) = 0.32170 -0.03456
# Poissons Ratio (y) = 0.55998 0.54299
# Poissons Ratio (z) = -0.01922 0.17349
#
# Static dielectric constant tensor:
#      x y z
#    x 4.149740 0.000000 0.000000 
#    y 0.000000 4.014370 0.000000 
#    z 0.000000 0.000000 4.371510 
# 
# 
# High freq. dielectric constant tensor:
#      x y z
#    x 1.908420 0.000000 0.000000 
#    y 0.000000 1.904250 0.000000 
#    z 0.000000 0.000000 1.920790 
# 
# From -- ./inp_files/1067.got.cif
#   From: 2010.03.12/outbox.cif.g09.slc.cpg/sg60_1_cif.got.tgz:1067.got - 2010.04.10 18:46:24.
