data_PCOD8247192
_publ_section_title
;
Structure prediction by ZEFSAII (Michael W. Deem and Ramdas Pophale) SiO2 
 PCOD8247192
Probable space group: P B C N
;
_chemical_formula_sum "Si O2"
_cell_formula_units_Z 60
_cell_length_a 16.963846
_cell_length_b 13.560181
_cell_length_c 12.129681
_cell_angle_alpha 90.000000
_cell_angle_beta 90.000000
_cell_angle_gamma 90.000000
_cell_volume 2790.224753
_symmetry_space_group_name_H-M "P B C N"
_symmetry_group_IT_number 60
_symmetry_cell_setting 'orthorhombic'
loop_
_space_group_symop_operation_xyz
x,y,z
1/2-x,1/2-y,1/2+z
1/2+x,1/2-y,-z
-x,y,1/2-z
-x,-y,-z
1/2+x,1/2+y,1/2-z
1/2-x,1/2+y,z
x,-y,1/2+z
loop_
_atom_site_type_symbol
_atom_site_label
_atom_site_fract_x
_atom_site_fract_y
_atom_site_fract_z
Si Si1 0.543799 0.767545 0.863654
Si Si2 0.206872 0.792076 0.210334
Si Si3 0.285716 0.902878 0.828785
Si Si4 0.439175 0.659584 0.041499
Si Si5 0.856507 0.046941 0.641555
Si Si6 0.924398 0.485138 0.815141
Si Si7 0.500000 0.450312 0.750000
Si Si8 0.655953 0.153811 0.937430
O O1 0.500000 0.741755 0.750000
O O2 0.630464 0.722562 0.864986
O O3 0.550245 0.885350 0.878292
O O4 0.498080 0.719334 0.963651
O O5 0.241231 0.686618 0.249465
O O6 0.186223 0.854111 0.318928
O O7 0.266200 0.854965 0.136359
O O8 0.350021 0.969631 0.766279
O O9 0.208807 0.961792 0.868006
O O10 0.327993 0.855566 0.933717
O O11 0.488392 0.615854 0.142118
O O12 0.377458 0.737957 0.088651
O O13 0.395437 0.570052 0.977338
O O14 0.923357 0.017525 0.730081
O O15 0.903424 0.566722 0.905349
O O16 0.000000 0.526200 0.750000
#
# Coordination Sequence:
#
# PCOD8247192 Si02
#       8
#     8   8   8   8   8   8   4   8
#     4  10  20  43  74  97 133 188 240 282 347 424
#     4  11  23  45  70 100 138 185 234 290 349 423
#     4  11  25  45  70 103 136 187 236 285 347 426
#     4  12  26  47  69 106 141 185 236 299 356 422
#     4  12  24  47  71  97 144 184 237 294 354 419
#     4  10  23  43  68 101 139 182 236 286 342 421
#     4  12  30  44  72 108 140 178 240 302 358 422
#     4  12  25  43  67 102 142 183 230 287 354 421
#
# _framework density 21.503644000000001
#
# number of rings (size 3 to 8) (size 9 to 14) (size 15 to 20)
#    0.000    0.800    4.000    3.600    4.667    4.267 
#    0.000    0.000    0.000    0.000    0.000    0.000 
#    0.000    0.000    0.000    0.000    0.000    0.000 
#
# Total GULP energy -744287.228006 kJ/mol
# GULP energy per Si atom -12404.787133 kJ/mol
# Density = 2.145470 g / cm^3
# Si number density = 21.503644 Si / 1000 Ang^3
#
#
#
# Elastic Constant Matrix: (Units=GPa)
#
#
# Indices 1 2 3 4 5 6 
#
# 1 99.9246 50.5647 33.6157 0.0000 0.0000 0.0000
# 2 50.5647 92.2686 35.3386 0.0000 0.0000 0.0000
# 3 33.6157 35.3386 100.5056 0.0000 0.0000 0.0000
# 4 0.0000 0.0000 0.0000 33.4459 0.0000 0.0000
# 5 0.0000 0.0000 0.0000 0.0000 31.2766 0.0000
# 6 0.0000 0.0000 0.0000 0.0000 0.0000 39.6069
#
#
#
# Elastic Compliance Matrix: (Units=1/GPa)
#
#
# Indices 1 2 3 4 5 6 
#
# 1 0.014310 -0.006944 -0.002345 0.000000 0.000000 0.000000
# 2 -0.006944 0.015894 -0.003266 0.000000 0.000000 0.000000
# 3 -0.002345 -0.003266 0.011882 0.000000 0.000000 0.000000
# 4 0.000000 0.000000 0.000000 0.029899 0.000000 0.000000
# 5 0.000000 0.000000 0.000000 0.000000 0.031973 0.000000
# 6 0.000000 0.000000 0.000000 0.000000 0.000000 0.025248
#
#
# Mechanical properties :
#
#
# Convention : Reuss Voigt Hill
#
# Bulk Modulus (GPa) = 58.90280 59.08186 58.99233
# Shear Modulus (GPa) = 31.25472 32.41118 31.83295
#
# Velocity S-wave (km/s) = 3.81657 3.88653 3.85171
# Velocity P-wave (km/s) = 6.84639 6.90472 6.87561
#
# Compressibility (1/GPa) = 0.01697712
#
# Stress axis : x y z
#
# Youngs Moduli (GPa) = 69.87957 62.91535 84.15926
#
# Poissons Ratio (x) = 0.43690 0.19732
# Poissons Ratio (y) = 0.48527 0.27486
# Poissons Ratio (z) = 0.16384 0.20548
#
# Static dielectric constant tensor:
#      x y z
#    x 4.029940 0.000000 0.000000 
#    y 0.000000 3.922320 0.000000 
#    z 0.000000 0.000000 3.716560 
# 
# 
# High freq. dielectric constant tensor:
#      x y z
#    x 1.855680 0.000000 0.000000 
#    y 0.000000 1.854080 0.000000 
#    z 0.000000 0.000000 1.834760 
# 
# From -- ./inp_files/12519.got.cif
#   From: 2010.03.12/outbox.cif.g09.slc.cpg/sg60_7_cif.got.tgz:12519.got - 2010.04.10 18:46:24.
