data_PCOD8247971
_publ_section_title
;
Structure prediction by ZEFSAII (Michael W. Deem and Ramdas Pophale) SiO2 
 PCOD8247971
Probable space group: P B C N
;
_chemical_formula_sum "Si O2"
_cell_formula_units_Z 56
_cell_length_a 13.145626
_cell_length_b 13.754632
_cell_length_c 14.734038
_cell_angle_alpha 90.000000
_cell_angle_beta 90.000000
_cell_angle_gamma 90.000000
_cell_volume 2664.109268
_symmetry_space_group_name_H-M "P B C N"
_symmetry_group_IT_number 60
_symmetry_cell_setting 'orthorhombic'
loop_
_space_group_symop_operation_xyz
x,y,z
1/2-x,1/2-y,1/2+z
1/2+x,1/2-y,-z
-x,y,1/2-z
-x,-y,-z
1/2+x,1/2+y,1/2-z
1/2-x,1/2+y,z
x,-y,1/2+z
loop_
_atom_site_type_symbol
_atom_site_label
_atom_site_fract_x
_atom_site_fract_y
_atom_site_fract_z
Si Si1 0.672843 0.636611 0.947347
Si Si2 0.247716 0.266761 0.692941
Si Si3 0.322964 0.172908 0.390699
Si Si4 0.263757 0.573599 0.049514
Si Si5 0.916987 0.468587 0.071374
Si Si6 0.461974 0.801239 0.158321
Si Si7 0.045683 0.822855 0.485433
O O1 0.660960 0.709509 0.861705
O O2 0.731559 0.538551 0.922463
O O3 0.554448 0.615176 0.964102
O O4 0.736469 0.684677 0.031180
O O5 0.224666 0.286843 0.797518
O O6 0.261962 0.370099 0.644370
O O7 0.340782 0.191461 0.673301
O O8 0.420501 0.239309 0.414319
O O9 0.362650 0.061644 0.380878
O O10 0.167416 0.593610 0.983744
O O11 0.363191 0.600991 0.992339
O O12 0.977274 0.403350 0.145246
O O13 0.000000 0.500000 0.000000
O O14 0.500000 0.750260 0.250000
O O15 0.486051 0.729994 0.077335
#
# Coordination Sequence:
#
# PCOD8247971 Si02
#       7
#     8   8   8   8   8   8   8
#     4  11  22  45  67  93 137 174 226 279 346 416
#     4  11  24  43  66  98 137 177 228 278 347 409
#     4  11  24  42  69  98 137 183 224 291 346 411
#     4  10  23  42  66  96 131 179 225 282 341 423
#     4  11  22  41  66 101 133 175 231 283 350 405
#     4  11  22  38  67  98 129 174 225 276 340 414
#     4  11  22  42  67  93 132 181 217 280 350 412
#
# _framework density 21.020159
#
# number of rings (size 3 to 8) (size 9 to 14) (size 15 to 20)
#    0.000    1.143    4.286    3.000    2.000    2.857 
#    2.571    0.000    9.429    0.000    0.000    0.000 
#    0.000    0.000    0.000    0.000    0.000    0.000 
#
# Total GULP energy -693980.712349 kJ/mol
# GULP energy per Si atom -12392.512721 kJ/mol
# Density = 2.097232 g / cm^3
# Si number density = 21.020159 Si / 1000 Ang^3
#
#
#
# Elastic Constant Matrix: (Units=GPa)
#
#
# Indices 1 2 3 4 5 6 
#
# 1 112.1851 34.5941 36.6341 0.0000 0.0000 0.0000
# 2 34.5941 85.1118 49.2685 0.0000 0.0000 0.0000
# 3 36.6341 49.2685 123.4871 0.0000 0.0000 0.0000
# 4 0.0000 0.0000 0.0000 10.2338 0.0000 0.0000
# 5 0.0000 0.0000 0.0000 0.0000 32.9062 0.0000
# 6 0.0000 0.0000 0.0000 0.0000 0.0000 38.0886
#
#
#
# Elastic Compliance Matrix: (Units=1/GPa)
#
#
# Indices 1 2 3 4 5 6 
#
# 1 0.010502 -0.003205 -0.001837 0.000000 0.000000 0.000000
# 2 -0.003205 0.016256 -0.005535 0.000000 0.000000 0.000000
# 3 -0.001837 -0.005535 0.010851 0.000000 0.000000 0.000000
# 4 0.000000 0.000000 0.000000 0.097716 0.000000 0.000000
# 5 0.000000 0.000000 0.000000 0.000000 0.030389 0.000000
# 6 0.000000 0.000000 0.000000 0.000000 0.000000 0.026255
#
#
# Mechanical properties :
#
#
# Convention : Reuss Voigt Hill
#
# Bulk Modulus (GPa) = 60.77046 62.41969 61.59508
# Shear Modulus (GPa) = 22.87200 29.59820 26.23510
#
# Velocity S-wave (km/s) = 3.30221 3.75652 3.53667
# Velocity P-wave (km/s) = 6.59642 6.96957 6.78556
#
# Compressibility (1/GPa) = 0.01645536
#
# Stress axis : x y z
#
# Youngs Moduli (GPa) = 95.21944 61.51551 92.15599
#
# Poissons Ratio (x) = 0.19718 0.16926
# Poissons Ratio (y) = 0.30522 0.51007
# Poissons Ratio (z) = 0.17489 0.34048
#
# Static dielectric constant tensor:
#      x y z
#    x 4.098240 0.000000 0.000000 
#    y 0.000000 3.852680 0.000000 
#    z 0.000000 0.000000 3.854290 
# 
# 
# High freq. dielectric constant tensor:
#      x y z
#    x 1.838940 0.000000 0.000000 
#    y 0.000000 1.822210 0.000000 
#    z 0.000000 0.000000 1.809660 
# 
# From -- ./inp_files/16184.got.cif
#   From: 2010.03.12/outbox.cif.g09.slc.cpg/sg60_9_cif.got.tgz:16184.got - 2010.04.10 18:46:24.
