data_PCOD8247724
_publ_section_title
;
Structure prediction by ZEFSAII (Michael W. Deem and Ramdas Pophale) SiO2 
 PCOD8247724
Probable space group: P B C N
;
_chemical_formula_sum "Si O2"
_cell_formula_units_Z 36
_cell_length_a 21.723657
_cell_length_b 5.141104
_cell_length_c 12.788505
_cell_angle_alpha 90.000000
_cell_angle_beta 90.000000
_cell_angle_gamma 90.000000
_cell_volume 1428.266020
_symmetry_space_group_name_H-M "P B C N"
_symmetry_group_IT_number 60
_symmetry_cell_setting 'orthorhombic'
loop_
_space_group_symop_operation_xyz
x,y,z
1/2-x,1/2-y,1/2+z
1/2+x,1/2-y,-z
-x,y,1/2-z
-x,-y,-z
1/2+x,1/2+y,1/2-z
1/2-x,1/2+y,z
x,-y,1/2+z
loop_
_atom_site_type_symbol
_atom_site_label
_atom_site_fract_x
_atom_site_fract_y
_atom_site_fract_z
Si Si1 0.464058 0.253629 0.463663
Si Si2 0.709110 0.756361 0.969317
Si Si3 0.500000 0.889997 0.750000
Si Si4 0.289426 0.772540 0.292550
Si Si5 0.884603 0.593777 0.867311
O O1 0.500000 0.500000 0.500000
O O2 0.460623 0.271934 0.336713
O O3 0.397097 0.247517 0.522144
O O4 0.500000 0.000000 0.500000
O O5 0.738587 0.476087 0.945009
O O6 0.686218 0.763253 0.089044
O O7 0.650027 0.822329 0.896859
O O8 0.450232 0.056898 0.687437
O O9 0.239276 0.554030 0.269850
O O10 0.345327 0.731278 0.212242
#
# Coordination Sequence:
#
# PCOD8247724 Si02
#       5
#     8   8   4   8   8
#     4  10  24  43  64  92 128 172 220 269 326 392
#     4  10  22  40  63  94 129 169 219 275 340 406
#     4  10  24  44  66  96 134 178 226 274 330 396
#     4  10  22  40  65  96 128 167 215 272 336 397
#     4  11  22  42  66  95 131 175 222 278 333 399
#
# _framework density 25.205390999999999
#
# number of rings (size 3 to 8) (size 9 to 14) (size 15 to 20)
#    0.000    1.778    0.000    2.667    0.000   10.667 
#    0.000   13.333    0.000    0.000    0.000    0.000 
#    0.000    0.000    0.000    0.000    0.000    0.000 
#
# Total GULP energy -446167.459664 kJ/mol
# GULP energy per Si atom -12393.540546 kJ/mol
# Density = 2.514802 g / cm^3
# Si number density = 25.205391 Si / 1000 Ang^3
#
#
#
# Elastic Constant Matrix: (Units=GPa)
#
#
# Indices 1 2 3 4 5 6 
#
# 1 84.2462 -13.4763 45.3201 0.0000 0.0000 0.0000
# 2 -13.4763 77.9092 -8.1434 0.0000 0.0000 0.0000
# 3 45.3201 -8.1434 153.1689 0.0000 0.0000 0.0000
# 4 0.0000 0.0000 0.0000 5.4732 0.0000 0.0000
# 5 0.0000 0.0000 0.0000 0.0000 74.7794 0.0000
# 6 0.0000 0.0000 0.0000 0.0000 0.0000 14.0301
#
#
#
# Elastic Compliance Matrix: (Units=1/GPa)
#
#
# Indices 1 2 3 4 5 6 
#
# 1 0.014439 0.002063 -0.004163 0.000000 0.000000 0.000000
# 2 0.002063 0.013202 0.000092 0.000000 0.000000 0.000000
# 3 -0.004163 0.000092 0.007765 0.000000 0.000000 0.000000
# 4 0.000000 0.000000 0.000000 0.182708 0.000000 0.000000
# 5 0.000000 0.000000 0.000000 0.000000 0.013373 0.000000
# 6 0.000000 0.000000 0.000000 0.000000 0.000000 0.071276
#
#
# Mechanical properties :
#
#
# Convention : Reuss Voigt Hill
#
# Bulk Modulus (GPa) = 31.85807 40.30279 36.08043
# Shear Modulus (GPa) = 15.76082 38.29813 27.02948
#
# Velocity S-wave (km/s) = 2.50330 3.90223 3.27826
# Velocity P-wave (km/s) = 4.58500 6.02724 5.35490
#
# Compressibility (1/GPa) = 0.03138922
#
# Stress axis : x y z
#
# Youngs Moduli (GPa) = 69.25598 75.74724 128.77851
#
# Poissons Ratio (x) = -0.15623 0.53606
# Poissons Ratio (y) = -0.14284 -0.01180
# Poissons Ratio (z) = 0.28829 -0.00694
#
# Static dielectric constant tensor:
#      x y z
#    x 4.610730 0.000000 0.000000 
#    y 0.000000 4.229810 0.000000 
#    z 0.000000 0.000000 6.084480 
# 
# 
# High freq. dielectric constant tensor:
#      x y z
#    x 1.994510 0.000000 0.000000 
#    y 0.000000 1.984640 0.000000 
#    z 0.000000 0.000000 2.044880 
# 
# From -- ./inp_files/17579.got.cif
#   From: 2010.03.12/outbox.cif.g09.slc.cpg/sg60_9_cif.got.tgz:17579.got - 2010.04.10 18:46:24.
