data_PCOD8247044
_publ_section_title
;
Structure prediction by ZEFSAII (Michael W. Deem and Ramdas Pophale) SiO2 
 PCOD8247044
Probable space group: P B C N
;
_chemical_formula_sum "Si O2"
_cell_formula_units_Z 32
_cell_length_a 8.796145
_cell_length_b 9.734621
_cell_length_c 16.720353
_cell_angle_alpha 90.000000
_cell_angle_beta 90.000000
_cell_angle_gamma 90.000000
_cell_volume 1431.715971
_symmetry_space_group_name_H-M "P B C N"
_symmetry_group_IT_number 60
_symmetry_cell_setting 'orthorhombic'
loop_
_space_group_symop_operation_xyz
x,y,z
1/2-x,1/2-y,1/2+z
1/2+x,1/2-y,-z
-x,y,1/2-z
-x,-y,-z
1/2+x,1/2+y,1/2-z
1/2-x,1/2+y,z
x,-y,1/2+z
loop_
_atom_site_type_symbol
_atom_site_label
_atom_site_fract_x
_atom_site_fract_y
_atom_site_fract_z
Si Si1 0.232584 0.642955 0.878750
Si Si2 0.192807 0.177122 0.063344
Si Si3 0.424765 0.966533 0.083520
Si Si4 0.081075 0.901080 0.832407
O O1 0.224512 0.798222 0.845628
O O2 0.355612 0.555915 0.829268
O O3 0.065493 0.576397 0.860477
O O4 0.283874 0.640779 0.970749
O O5 0.329151 0.100410 0.112605
O O6 0.196575 0.340797 0.076909
O O7 0.031383 0.118191 0.092431
O O8 0.500000 0.000000 0.000000
O O9 0.000000 0.864889 0.750000
#
# Coordination Sequence:
#
# PCOD8247044 Si02
#       4
#     8   8   8   8
#     4  10  21  41  62  87 122 160 205 250 299 372
#     4  10  20  38  64  90 118 158 206 248 301 370
#     4   9  19  34  58  89 116 149 198 254 293 347
#     4  11  25  41  61  92 126 161 203 258 316 363
#
# _framework density 22.350802000000002
#
# number of rings (size 3 to 8) (size 9 to 14) (size 15 to 20)
#    0.000    2.000    0.000    3.750    0.000   10.000 
#    0.000    1.250    0.000    0.000    0.000    0.000 
#    0.000    0.000    0.000    0.000    0.000    0.000 
#
# Total GULP energy -396607.656784 kJ/mol
# GULP energy per Si atom -12393.989275 kJ/mol
# Density = 2.229993 g / cm^3
# Si number density = 22.350802 Si / 1000 Ang^3
#
#
#
# Elastic Constant Matrix: (Units=GPa)
#
#
# Indices 1 2 3 4 5 6 
#
# 1 80.1644 58.1177 31.0675 0.0000 0.0000 0.0000
# 2 58.1177 100.8245 30.7845 0.0000 0.0000 0.0000
# 3 31.0675 30.7845 70.6523 0.0000 0.0000 0.0000
# 4 0.0000 0.0000 0.0000 15.5759 0.0000 0.0000
# 5 0.0000 0.0000 0.0000 0.0000 21.3433 0.0000
# 6 0.0000 0.0000 0.0000 0.0000 0.0000 62.7434
#
#
#
# Elastic Compliance Matrix: (Units=1/GPa)
#
#
# Indices 1 2 3 4 5 6 
#
# 1 0.022849 -0.011653 -0.004970 0.000000 0.000000 0.000000
# 2 -0.011653 0.017383 -0.002450 0.000000 0.000000 0.000000
# 3 -0.004970 -0.002450 0.017407 0.000000 0.000000 0.000000
# 4 0.000000 0.000000 0.000000 0.064202 0.000000 0.000000
# 5 0.000000 0.000000 0.000000 0.000000 0.046853 0.000000
# 6 0.000000 0.000000 0.000000 0.000000 0.000000 0.015938
#
#
# Mechanical properties :
#
#
# Convention : Reuss Voigt Hill
#
# Bulk Modulus (GPa) = 51.30050 54.62007 52.96028
# Shear Modulus (GPa) = 21.80787 28.71062 25.25924
#
# Velocity S-wave (km/s) = 3.12702 3.58794 3.36538
# Velocity P-wave (km/s) = 6.00333 6.45408 6.23278
#
# Compressibility (1/GPa) = 0.01949299
#
# Stress axis : x y z
#
# Youngs Moduli (GPa) = 43.76634 57.52589 57.44939
#
# Poissons Ratio (x) = 0.67036 0.28550
# Poissons Ratio (y) = 0.51002 0.14076
# Poissons Ratio (z) = 0.21750 0.14095
#
# Static dielectric constant tensor:
#      x y z
#    x 4.476460 0.000000 0.000000 
#    y 0.000000 4.482500 0.000000 
#    z 0.000000 0.000000 3.485270 
# 
# 
# High freq. dielectric constant tensor:
#      x y z
#    x 1.882620 0.000000 0.000000 
#    y 0.000000 1.893810 0.000000 
#    z 0.000000 0.000000 1.833830 
# 
# From -- ./inp_files/21884.got.cif
#   From: 2010.03.12/outbox.cif.g09.slc.cpg/sg60_11_cif.got.tgz:21884.got - 2010.04.10 18:46:24.
