data_PCOD8247505
_publ_section_title
;
Structure prediction by ZEFSAII (Michael W. Deem and Ramdas Pophale) SiO2 
 PCOD8247505
Probable space group: P B C N
;
_chemical_formula_sum "Si O2"
_cell_formula_units_Z 48
_cell_length_a 8.868196
_cell_length_b 13.654269
_cell_length_c 19.998283
_cell_angle_alpha 90.000000
_cell_angle_beta 90.000000
_cell_angle_gamma 90.000000
_cell_volume 2421.566765
_symmetry_space_group_name_H-M "P B C N"
_symmetry_group_IT_number 60
_symmetry_cell_setting 'orthorhombic'
loop_
_space_group_symop_operation_xyz
x,y,z
1/2-x,1/2-y,1/2+z
1/2+x,1/2-y,-z
-x,y,1/2-z
-x,-y,-z
1/2+x,1/2+y,1/2-z
1/2-x,1/2+y,z
x,-y,1/2+z
loop_
_atom_site_type_symbol
_atom_site_label
_atom_site_fract_x
_atom_site_fract_y
_atom_site_fract_z
Si Si1 0.000000 0.073513 0.250000
Si Si2 0.732532 0.839372 0.460834
Si Si3 0.500000 0.735504 0.750000
Si Si4 0.759836 0.995773 0.576651
Si Si5 0.942358 0.076316 0.855582
Si Si6 0.747135 0.669972 0.171320
Si Si7 0.885578 0.302534 0.055056
O O1 0.908094 0.147255 0.205890
O O2 0.900737 0.005037 0.299815
O O3 0.793893 0.889820 0.394014
O O4 0.566577 0.797390 0.445432
O O5 0.829544 0.745465 0.485408
O O6 0.757093 0.924271 0.514225
O O7 0.492248 0.673695 0.682469
O O8 0.643320 0.801804 0.732203
O O9 0.649790 0.083239 0.558344
O O10 0.926915 0.036697 0.594551
O O11 0.692768 0.931003 0.637681
O O12 0.703481 0.751715 0.116343
#
# Coordination Sequence:
#
# PCOD8247505 Si02
#       7
#     4   8   4   8   8   8   8
#     4   9  22  40  61  90 126 166 211 258 315 372
#     4  11  24  38  67  94 124 171 205 269 323 384
#     4  11  22  40  65  86 126 170 205 258 313 380
#     4  10  21  43  62  90 129 159 213 263 319 379
#     4  10  21  41  63  89 123 170 208 254 319 377
#     4  10  23  40  63  91 125 167 209 264 310 380
#     4  11  23  41  62  95 127 163 214 266 321 381
#
# _framework density 19.821878000000002
#
# number of rings (size 3 to 8) (size 9 to 14) (size 15 to 20)
#    0.000    1.667    1.667    2.000    4.667    4.000 
#    0.000    0.833    0.000    0.000    0.000    0.000 
#    0.000    0.000    0.000    0.000    0.000    0.000 
#
# Total GULP energy -594720.292197 kJ/mol
# GULP energy per Si atom -12390.006087 kJ/mol
# Density = 1.977676 g / cm^3
# Si number density = 19.821878 Si / 1000 Ang^3
#
#
#
# Elastic Constant Matrix: (Units=GPa)
#
#
# Indices 1 2 3 4 5 6 
#
# 1 91.3265 31.3611 28.9918 0.0000 0.0000 0.0000
# 2 31.3611 105.3677 26.9437 0.0000 0.0000 0.0000
# 3 28.9918 26.9437 79.5693 0.0000 0.0000 0.0000
# 4 0.0000 0.0000 0.0000 20.0981 0.0000 0.0000
# 5 0.0000 0.0000 0.0000 0.0000 37.2397 0.0000
# 6 0.0000 0.0000 0.0000 0.0000 0.0000 24.0450
#
#
#
# Elastic Compliance Matrix: (Units=1/GPa)
#
#
# Indices 1 2 3 4 5 6 
#
# 1 0.013168 -0.002948 -0.003800 0.000000 0.000000 0.000000
# 2 -0.002948 0.011050 -0.002668 0.000000 0.000000 0.000000
# 3 -0.003800 -0.002668 0.014856 0.000000 0.000000 0.000000
# 4 0.000000 0.000000 0.000000 0.049756 0.000000 0.000000
# 5 0.000000 0.000000 0.000000 0.000000 0.026853 0.000000
# 6 0.000000 0.000000 0.000000 0.000000 0.000000 0.041589
#
#
# Mechanical properties :
#
#
# Convention : Reuss Voigt Hill
#
# Bulk Modulus (GPa) = 49.39902 50.09518 49.74710
# Shear Modulus (GPa) = 27.34489 28.87437 28.10963
#
# Velocity S-wave (km/s) = 3.71823 3.82080 3.76987
# Velocity P-wave (km/s) = 6.58857 6.69270 6.64084
#
# Compressibility (1/GPa) = 0.02024331
#
# Stress axis : x y z
#
# Youngs Moduli (GPa) = 75.94053 90.49706 67.31513
#
# Poissons Ratio (x) = 0.26676 0.25578
# Poissons Ratio (y) = 0.22385 0.17958
# Poissons Ratio (z) = 0.28856 0.24142
#
# Static dielectric constant tensor:
#      x y z
#    x 3.472750 0.000000 0.000000 
#    y 0.000000 3.846420 0.000000 
#    z 0.000000 0.000000 5.019850 
# 
# 
# High freq. dielectric constant tensor:
#      x y z
#    x 1.753160 0.000000 0.000000 
#    y 0.000000 1.790690 0.000000 
#    z 0.000000 0.000000 1.781530 
# 
# From -- ./inp_files/19378.got.cif
#   From: 2010.03.12/outbox.cif.g09.slc.cpg/sg60_10_cif.got.tgz:19378.got - 2010.04.10 18:46:24.
