data_PCOD8247275
_publ_section_title
;
Structure prediction by ZEFSAII (Michael W. Deem and Ramdas Pophale) SiO2 
 PCOD8247275
Probable space group: P B C N
;
_chemical_formula_sum "Si O2"
_cell_formula_units_Z 56
_cell_length_a 22.047352
_cell_length_b 11.105495
_cell_length_c 10.968317
_cell_angle_alpha 90.000000
_cell_angle_beta 90.000000
_cell_angle_gamma 90.000000
_cell_volume 2685.556852
_symmetry_space_group_name_H-M "P B C N"
_symmetry_group_IT_number 60
_symmetry_cell_setting 'orthorhombic'
loop_
_space_group_symop_operation_xyz
x,y,z
1/2-x,1/2-y,1/2+z
1/2+x,1/2-y,-z
-x,y,1/2-z
-x,-y,-z
1/2+x,1/2+y,1/2-z
1/2-x,1/2+y,z
x,-y,1/2+z
loop_
_atom_site_type_symbol
_atom_site_label
_atom_site_fract_x
_atom_site_fract_y
_atom_site_fract_z
Si Si1 0.858990 0.330914 0.382893
Si Si2 0.463101 0.515699 0.374928
Si Si3 0.672068 0.066274 0.476715
Si Si4 0.722191 0.727049 0.828483
Si Si5 0.139835 0.836657 0.396649
Si Si6 0.625735 0.272984 0.644804
Si Si7 0.711879 0.558276 0.040076
O O1 0.870953 0.473977 0.401323
O O2 0.792684 0.306569 0.323532
O O3 0.875218 0.269624 0.510350
O O4 0.899343 0.273806 0.275388
O O5 0.500000 0.534264 0.250000
O O6 0.500000 0.500000 0.500000
O O7 0.421865 0.397176 0.347283
O O8 0.424398 0.635253 0.404749
O O9 0.713058 0.138966 0.380718
O O10 0.632553 0.154436 0.560246
O O11 0.716837 0.975421 0.553332
O O12 0.685902 0.714750 0.703328
O O13 0.692744 0.630202 0.919368
O O14 0.175384 0.936050 0.472452
O O15 0.689594 0.351853 0.650057
#
# Coordination Sequence:
#
# PCOD8247275 Si02
#       7
#     8   8   8   8   8   8   8
#     4  11  23  35  61  95 135 177 212 250 325 407
#     4  11  26  46  74  97 123 166 232 300 354 381
#     4  10  21  37  57  90 133 173 206 239 320 397
#     4  10  22  35  56  90 136 173 206 249 309 402
#     4  11  23  38  64  91 128 163 223 272 329 382
#     4  10  23  39  65  89 134 162 220 273 321 388
#     4   9  20  36  55  87 128 173 204 248 317 378
#
# _framework density 20.852284999999998
#
# number of rings (size 3 to 8) (size 9 to 14) (size 15 to 20)
#    0.000    1.714    1.429    1.714   16.000    0.000 
#    0.000    0.000    0.000    4.286    0.000    0.000 
#    0.000    0.000    0.000    0.000    0.000    0.000 
#
# Total GULP energy -693824.234041 kJ/mol
# GULP energy per Si atom -12389.718465 kJ/mol
# Density = 2.080482 g / cm^3
# Si number density = 20.852285 Si / 1000 Ang^3
#
#
#
# Elastic Constant Matrix: (Units=GPa)
#
#
# Indices 1 2 3 4 5 6 
#
# 1 60.8855 29.0088 27.0845 0.0000 0.0000 0.0000
# 2 29.0088 140.7389 51.5091 0.0000 0.0000 0.0000
# 3 27.0845 51.5091 105.0524 0.0000 0.0000 0.0000
# 4 0.0000 0.0000 0.0000 31.9359 0.0000 0.0000
# 5 0.0000 0.0000 0.0000 0.0000 30.6640 0.0000
# 6 0.0000 0.0000 0.0000 0.0000 0.0000 21.8360
#
#
#
# Elastic Compliance Matrix: (Units=1/GPa)
#
#
# Indices 1 2 3 4 5 6 
#
# 1 0.019320 -0.002631 -0.003691 0.000000 0.000000 0.000000
# 2 -0.002631 0.009018 -0.003743 0.000000 0.000000 0.000000
# 3 -0.003691 -0.003743 0.012306 0.000000 0.000000 0.000000
# 4 0.000000 0.000000 0.000000 0.031313 0.000000 0.000000
# 5 0.000000 0.000000 0.000000 0.000000 0.032611 0.000000
# 6 0.000000 0.000000 0.000000 0.000000 0.000000 0.045796
#
#
# Mechanical properties :
#
#
# Convention : Reuss Voigt Hill
#
# Bulk Modulus (GPa) = 48.74995 57.98685 53.36840
# Shear Modulus (GPa) = 28.19573 30.15881 29.17727
#
# Velocity S-wave (km/s) = 3.68117 3.80716 3.74469
# Velocity P-wave (km/s) = 6.44185 6.86984 6.65929
#
# Compressibility (1/GPa) = 0.02051284
#
# Stress axis : x y z
#
# Youngs Moduli (GPa) = 51.76037 110.89336 81.26157
#
# Poissons Ratio (x) = 0.29180 0.29992
# Poissons Ratio (y) = 0.13620 0.30417
# Poissons Ratio (z) = 0.19104 0.41509
#
# Static dielectric constant tensor:
#      x y z
#    x 3.540980 0.000000 0.000000 
#    y 0.000000 4.071200 0.000000 
#    z 0.000000 0.000000 3.876270 
# 
# 
# High freq. dielectric constant tensor:
#      x y z
#    x 1.766520 0.000000 0.000000 
#    y 0.000000 1.838550 0.000000 
#    z 0.000000 0.000000 1.818240 
# 
# From -- ./inp_files/12828.got.cif
#   From: 2010.03.12/outbox.cif.g09.slc.cpg/sg60_7_cif.got.tgz:12828.got - 2010.04.10 18:46:24.
