data_PCOD8247238
_publ_section_title
;
Structure prediction by ZEFSAII (Michael W. Deem and Ramdas Pophale) SiO2 
 PCOD8247238
Probable space group: P B C N
;
_chemical_formula_sum "Si O2"
_cell_formula_units_Z 48
_cell_length_a 8.707678
_cell_length_b 10.239540
_cell_length_c 24.388416
_cell_angle_alpha 90.000000
_cell_angle_beta 90.000000
_cell_angle_gamma 90.000000
_cell_volume 2174.535000
_symmetry_space_group_name_H-M "P B C N"
_symmetry_group_IT_number 60
_symmetry_cell_setting 'orthorhombic'
loop_
_space_group_symop_operation_xyz
x,y,z
1/2-x,1/2-y,1/2+z
1/2+x,1/2-y,-z
-x,y,1/2-z
-x,-y,-z
1/2+x,1/2+y,1/2-z
1/2-x,1/2+y,z
x,-y,1/2+z
loop_
_atom_site_type_symbol
_atom_site_label
_atom_site_fract_x
_atom_site_fract_y
_atom_site_fract_z
Si Si1 0.614987 0.039119 0.300009
Si Si2 0.376475 0.668790 0.702156
Si Si3 0.258421 0.590289 0.497051
Si Si4 0.407026 0.337698 0.512442
Si Si5 0.860496 0.449396 0.617517
Si Si6 0.620877 0.659738 0.617921
O O1 0.500000 0.027741 0.250000
O O2 0.689842 0.183646 0.299893
O O3 0.526868 0.013995 0.357908
O O4 0.740284 0.930664 0.289460
O O5 0.500000 0.652366 0.750000
O O6 0.455703 0.633773 0.644363
O O7 0.308873 0.464396 0.533672
O O8 0.414695 0.652367 0.469274
O O9 0.172200 0.702631 0.533033
O O10 0.140465 0.546076 0.449085
O O11 0.399914 0.346151 0.446913
O O12 0.737279 0.551405 0.640773
O O13 0.817395 0.302323 0.636850
#
# Coordination Sequence:
#
# PCOD8247238 Si02
#       6
#     8   8   8   8   8   8
#     4  10  21  36  55  80 107 137 175 214 259 319
#     4  10  21  36  54  78 108 137 171 217 262 312
#     4   9  18  34  53  75 104 138 176 220 266 315
#     4   9  18  34  53  76 106 139 178 222 269 318
#     4   9  18  34  54  76 104 137 174 214 261 314
#     4   9  18  34  53  76 105 136 174 219 262 310
#
# _framework density 22.073685999999999
#
# number of rings (size 3 to 8) (size 9 to 14) (size 15 to 20)
#    0.000    2.667    0.000    1.000    0.000    2.667 
#    0.000   20.000    0.000    0.000    0.000    0.000 
#    0.000    0.000    0.000    0.000    0.000    0.000 
#
# Total GULP energy -594880.993074 kJ/mol
# GULP energy per Si atom -12393.354022 kJ/mol
# Density = 2.202345 g / cm^3
# Si number density = 22.073686 Si / 1000 Ang^3
#
#
#
# Elastic Constant Matrix: (Units=GPa)
#
#
# Indices 1 2 3 4 5 6 
#
# 1 68.8671 47.5008 16.3981 0.0000 0.0000 0.0000
# 2 47.5008 118.2793 12.7030 0.0000 0.0000 0.0000
# 3 16.3981 12.7030 31.2316 0.0000 0.0000 0.0000
# 4 0.0000 0.0000 0.0000 9.8671 0.0000 0.0000
# 5 0.0000 0.0000 0.0000 0.0000 25.0355 0.0000
# 6 0.0000 0.0000 0.0000 0.0000 0.0000 51.5137
#
#
#
# Elastic Compliance Matrix: (Units=1/GPa)
#
#
# Indices 1 2 3 4 5 6 
#
# 1 0.021969 -0.007930 -0.008309 0.000000 0.000000 0.000000
# 2 -0.007930 0.011703 -0.000596 0.000000 0.000000 0.000000
# 3 -0.008309 -0.000596 0.036624 0.000000 0.000000 0.000000
# 4 0.000000 0.000000 0.000000 0.101347 0.000000 0.000000
# 5 0.000000 0.000000 0.000000 0.000000 0.039943 0.000000
# 6 0.000000 0.000000 0.000000 0.000000 0.000000 0.019412
#
#
# Mechanical properties :
#
#
# Convention : Reuss Voigt Hill
#
# Bulk Modulus (GPa) = 27.30398 41.28688 34.29543
# Shear Modulus (GPa) = 18.05839 26.73501 22.39670
#
# Velocity S-wave (km/s) = 2.86334 3.48396 3.18879
# Velocity P-wave (km/s) = 4.82990 5.91005 5.39707
#
# Compressibility (1/GPa) = 0.03662469
#
# Stress axis : x y z
#
# Youngs Moduli (GPa) = 45.51820 85.44491 27.30432
#
# Poissons Ratio (x) = 0.67761 0.22688
# Poissons Ratio (y) = 0.36098 0.01628
# Poissons Ratio (z) = 0.37823 0.05096
#
# Static dielectric constant tensor:
#      x y z
#    x 3.912430 0.000000 0.000000 
#    y 0.000000 4.536750 0.000000 
#    z 0.000000 0.000000 3.790840 
# 
# 
# High freq. dielectric constant tensor:
#      x y z
#    x 1.851470 0.000000 0.000000 
#    y 0.000000 1.889950 0.000000 
#    z 0.000000 0.000000 1.834000 
# 
# From -- ./inp_files/25968.got.cif
#   From: 2010.03.12/outbox.cif.g09.slc.cpg/sg60_13_cif.got.tgz:25968.got - 2010.04.10 18:46:24.
