data_PCOD8247100
_publ_section_title
;
Structure prediction by ZEFSAII (Michael W. Deem and Ramdas Pophale) SiO2 
 PCOD8247100
Probable space group: P B C N
;
_chemical_formula_sum "Si O2"
_cell_formula_units_Z 36
_cell_length_a 20.792799
_cell_length_b 7.311932
_cell_length_c 12.740743
_cell_angle_alpha 90.000000
_cell_angle_beta 90.000000
_cell_angle_gamma 90.000000
_cell_volume 1937.045645
_symmetry_space_group_name_H-M "P B C N"
_symmetry_group_IT_number 60
_symmetry_cell_setting 'orthorhombic'
loop_
_space_group_symop_operation_xyz
x,y,z
1/2-x,1/2-y,1/2+z
1/2+x,1/2-y,-z
-x,y,1/2-z
-x,-y,-z
1/2+x,1/2+y,1/2-z
1/2-x,1/2+y,z
x,-y,1/2+z
loop_
_atom_site_type_symbol
_atom_site_label
_atom_site_fract_x
_atom_site_fract_y
_atom_site_fract_z
Si Si1 0.161851 0.447154 0.267915
Si Si2 0.500000 0.496855 0.250000
Si Si3 0.390758 0.286859 0.372706
Si Si4 0.303087 0.441401 0.767272
Si Si5 0.898503 0.804585 0.881689
O O1 0.119336 0.574315 0.343296
O O2 0.179801 0.253388 0.324002
O O3 0.228204 0.548655 0.238170
O O4 0.120667 0.398238 0.162696
O O5 0.450520 0.367322 0.309947
O O6 0.533896 0.629412 0.333895
O O7 0.325849 0.397581 0.344444
O O8 0.404980 0.299973 0.494754
O O9 0.342695 0.446904 0.656752
#
# Coordination Sequence:
#
# PCOD8247100 Si02
#       5
#     8   4   8   8   8
#     4  10  20  40  58  91 120 150 190 243 292 356
#     4  10  22  42  60  84 124 150 204 256 278 340
#     4  11  20  41  61  85 116 164 188 245 300 334
#     4   9  20  39  59  86 127 141 194 245 287 358
#     4   9  22  38  62  86 116 156 201 235 293 352
#
# _framework density 18.585001999999999
#
# number of rings (size 3 to 8) (size 9 to 14) (size 15 to 20)
#    1.333    0.889    2.222    0.667    0.000    2.667 
#    8.000    2.222    0.000    0.000    0.000    0.000 
#    0.000    0.000    0.000    0.000    0.000    0.000 
#
# Total GULP energy -445993.600464 kJ/mol
# GULP energy per Si atom -12388.711124 kJ/mol
# Density = 1.854270 g / cm^3
# Si number density = 18.585002 Si / 1000 Ang^3
#
#
#
# Elastic Constant Matrix: (Units=GPa)
#
#
# Indices 1 2 3 4 5 6 
#
# 1 105.3776 40.3477 43.4977 0.0000 0.0000 0.0000
# 2 40.3477 114.8591 50.7888 0.0000 0.0000 0.0000
# 3 43.4977 50.7888 130.1655 0.0000 0.0000 0.0000
# 4 0.0000 0.0000 0.0000 26.2261 0.0000 0.0000
# 5 0.0000 0.0000 0.0000 0.0000 12.1610 0.0000
# 6 0.0000 0.0000 0.0000 0.0000 0.0000 31.5027
#
#
#
# Elastic Compliance Matrix: (Units=1/GPa)
#
#
# Indices 1 2 3 4 5 6 
#
# 1 0.011752 -0.002890 -0.002799 0.000000 0.000000 0.000000
# 2 -0.002890 0.011233 -0.003417 0.000000 0.000000 0.000000
# 3 -0.002799 -0.003417 0.009951 0.000000 0.000000 0.000000
# 4 0.000000 0.000000 0.000000 0.038130 0.000000 0.000000
# 5 0.000000 0.000000 0.000000 0.000000 0.082230 0.000000
# 6 0.000000 0.000000 0.000000 0.000000 0.000000 0.031743
#
#
# Mechanical properties :
#
#
# Convention : Reuss Voigt Hill
#
# Bulk Modulus (GPa) = 67.92383 68.85229 68.38806
# Shear Modulus (GPa) = 24.01999 28.36249 26.19124
#
# Velocity S-wave (km/s) = 3.59895 3.91077 3.75809
# Velocity P-wave (km/s) = 7.34145 7.58418 7.46380
#
# Compressibility (1/GPa) = 0.01472237
#
# Stress axis : x y z
#
# Youngs Moduli (GPa) = 85.09269 89.02698 100.49010
#
# Poissons Ratio (x) = 0.25732 0.28131
# Poissons Ratio (y) = 0.24595 0.34337
# Poissons Ratio (z) = 0.23821 0.30420
#
# Static dielectric constant tensor:
#      x y z
#    x 3.462140 0.000000 0.000000 
#    y 0.000000 3.461810 0.000000 
#    z 0.000000 0.000000 3.008110 
# 
# 
# High freq. dielectric constant tensor:
#      x y z
#    x 1.731980 0.000000 0.000000 
#    y 0.000000 1.723390 0.000000 
#    z 0.000000 0.000000 1.685850 
# 
# From -- ./inp_files/12739.got.cif
#   From: 2010.03.12/outbox.cif.g09.slc.cpg/sg60_7_cif.got.tgz:12739.got - 2010.04.10 18:46:24.
