data_PCOD8247865
_publ_section_title
;
Structure prediction by ZEFSAII (Michael W. Deem and Ramdas Pophale) SiO2 
 PCOD8247865
Probable space group: P B C N
;
_chemical_formula_sum "Si O2"
_cell_formula_units_Z 64
_cell_length_a 14.322849
_cell_length_b 20.781682
_cell_length_c 9.071411
_cell_angle_alpha 90.000000
_cell_angle_beta 90.000000
_cell_angle_gamma 90.000000
_cell_volume 2700.131730
_symmetry_space_group_name_H-M "P B C N"
_symmetry_group_IT_number 60
_symmetry_cell_setting 'orthorhombic'
loop_
_space_group_symop_operation_xyz
x,y,z
1/2-x,1/2-y,1/2+z
1/2+x,1/2-y,-z
-x,y,1/2-z
-x,-y,-z
1/2+x,1/2+y,1/2-z
1/2-x,1/2+y,z
x,-y,1/2+z
loop_
_atom_site_type_symbol
_atom_site_label
_atom_site_fract_x
_atom_site_fract_y
_atom_site_fract_z
Si Si1 0.101142 0.653054 0.138660
Si Si2 0.892347 0.859529 0.279231
Si Si3 0.408167 0.700351 0.188084
Si Si4 0.047780 0.442222 0.408348
Si Si5 0.232643 0.034235 0.863159
Si Si6 0.220510 0.920087 0.669850
Si Si7 0.672494 0.725707 0.021525
Si Si8 0.378013 0.233333 0.404640
O O1 0.169515 0.594458 0.175928
O O2 0.064494 0.681318 0.301792
O O3 0.033139 0.621622 0.014357
O O4 0.163371 0.711127 0.077450
O O5 0.819354 0.915705 0.244598
O O6 0.880563 0.835624 0.448828
O O7 0.861487 0.799305 0.181206
O O8 0.000000 0.880066 0.250000
O O9 0.500000 0.665865 0.250000
O O10 0.335518 0.645230 0.153057
O O11 0.366759 0.744245 0.318320
O O12 0.436182 0.746724 0.050606
O O13 0.155990 0.454817 0.367276
O O14 0.000000 0.430791 0.250000
O O15 0.000000 0.500000 0.500000
O O16 0.201607 0.963089 0.812626
O O17 0.192883 0.038654 0.027153
O O18 0.780114 0.704880 0.040238
#
# Coordination Sequence:
#
# PCOD8247865 Si02
#       8
#     8   8   8   8   8   8   8   8
#     4  10  22  43  74 104 143 197 248 300 389 453
#     4  11  24  45  69 103 147 196 252 311 375 463
#     4  12  24  41  67 107 148 184 240 314 373 442
#     4  11  24  49  77 110 155 197 256 324 382 458
#     4  11  25  45  73 101 144 199 248 303 384 446
#     4  11  23  44  67 103 141 191 246 297 368 454
#     4  11  22  41  73 103 142 197 248 306 389 453
#     4  11  20  44  70 101 144 193 243 308 375 460
#
# _framework density 23.702548
#
# number of rings (size 3 to 8) (size 9 to 14) (size 15 to 20)
#    0.000    1.000    3.750    3.750    1.750    1.000 
#    0.000   17.500    0.000    0.000    0.000    0.000 
#    0.000    0.000    0.000    0.000    0.000    0.000 
#
# Total GULP energy -792905.220014 kJ/mol
# GULP energy per Si atom -12389.144063 kJ/mol
# Density = 2.364860 g / cm^3
# Si number density = 23.702548 Si / 1000 Ang^3
#
#
#
# Elastic Constant Matrix: (Units=GPa)
#
#
# Indices 1 2 3 4 5 6 
#
# 1 108.4174 33.2299 45.6801 0.0000 0.0000 0.0000
# 2 33.2299 97.8656 66.5797 0.0000 0.0000 0.0000
# 3 45.6801 66.5797 178.1625 0.0000 0.0000 0.0000
# 4 0.0000 0.0000 0.0000 40.5683 0.0000 0.0000
# 5 0.0000 0.0000 0.0000 0.0000 34.2018 0.0000
# 6 0.0000 0.0000 0.0000 0.0000 0.0000 21.9551
#
#
#
# Elastic Compliance Matrix: (Units=1/GPa)
#
#
# Indices 1 2 3 4 5 6 
#
# 1 0.010738 -0.002377 -0.001865 0.000000 0.000000 0.000000
# 2 -0.002377 0.014228 -0.004707 0.000000 0.000000 0.000000
# 3 -0.001865 -0.004707 0.007850 0.000000 0.000000 0.000000
# 4 0.000000 0.000000 0.000000 0.024650 0.000000 0.000000
# 5 0.000000 0.000000 0.000000 0.000000 0.029238 0.000000
# 6 0.000000 0.000000 0.000000 0.000000 0.000000 0.045547
#
#
# Mechanical properties :
#
#
# Convention : Reuss Voigt Hill
#
# Bulk Modulus (GPa) = 67.03838 75.04721 71.04280
# Shear Modulus (GPa) = 32.23251 35.27545 33.75398
#
# Velocity S-wave (km/s) = 3.69165 3.86198 3.77777
# Velocity P-wave (km/s) = 6.82024 7.18452 7.00475
#
# Compressibility (1/GPa) = 0.01491683
#
# Stress axis : x y z
#
# Youngs Moduli (GPa) = 93.12746 70.28451 127.38641
#
# Poissons Ratio (x) = 0.16710 0.23754
# Poissons Ratio (y) = 0.22141 0.59966
# Poissons Ratio (z) = 0.17366 0.33086
#
# Static dielectric constant tensor:
#      x y z
#    x 4.268530 0.000000 0.000000 
#    y 0.000000 4.136550 0.000000 
#    z 0.000000 0.000000 4.975120 
# 
# 
# High freq. dielectric constant tensor:
#      x y z
#    x 1.941930 0.000000 0.000000 
#    y 0.000000 1.919130 0.000000 
#    z 0.000000 0.000000 1.965240 
# 
# From -- ./inp_files/6315.got.cif
#   From: 2010.03.12/outbox.cif.g09.slc.cpg/sg60_4_cif.got.tgz:6315.got - 2010.04.10 18:46:24.
