data_PCOD8247105
_publ_section_title
;
Structure prediction by ZEFSAII (Michael W. Deem and Ramdas Pophale) SiO2 
 PCOD8247105
Probable space group: P B C N
;
_chemical_formula_sum "Si O2"
_cell_formula_units_Z 40
_cell_length_a 9.406728
_cell_length_b 10.113049
_cell_length_c 21.397105
_cell_angle_alpha 90.000000
_cell_angle_beta 90.000000
_cell_angle_gamma 90.000000
_cell_volume 2035.521602
_symmetry_space_group_name_H-M "P B C N"
_symmetry_group_IT_number 60
_symmetry_cell_setting 'orthorhombic'
loop_
_space_group_symop_operation_xyz
x,y,z
1/2-x,1/2-y,1/2+z
1/2+x,1/2-y,-z
-x,y,1/2-z
-x,-y,-z
1/2+x,1/2+y,1/2-z
1/2-x,1/2+y,z
x,-y,1/2+z
loop_
_atom_site_type_symbol
_atom_site_label
_atom_site_fract_x
_atom_site_fract_y
_atom_site_fract_z
Si Si1 0.249664 0.218709 0.035955
Si Si2 0.671245 0.538297 0.894629
Si Si3 0.547675 0.261157 0.075247
Si Si4 0.665079 0.454473 0.252590
Si Si5 0.868628 0.332354 0.706232
O O1 0.222216 0.360969 0.069034
O O2 0.420514 0.192095 0.034842
O O3 0.170840 0.106012 0.075361
O O4 0.188324 0.220089 0.966044
O O5 0.509628 0.596297 0.899608
O O6 0.721292 0.531425 0.823253
O O7 0.581788 0.170370 0.134522
O O8 0.500000 0.490051 0.250000
O O9 0.696156 0.307502 0.227843
O O10 0.747995 0.557252 0.209507
O O11 0.000000 0.372463 0.750000
#
# Coordination Sequence:
#
# PCOD8247105 Si02
#       5
#     8   8   8   8   8
#     4  10  22  37  63  87 125 167 203 257 319 366
#     4  10  20  40  62  87 125 163 204 260 316 366
#     4  10  22  40  63  89 129 161 209 261 310 376
#     4  11  21  40  66  89 121 165 209 259 317 374
#     4  11  22  42  63  92 128 161 207 267 315 375
#
# _framework density 19.650983
#
# number of rings (size 3 to 8) (size 9 to 14) (size 15 to 20)
#    1.200    0.400    4.000    3.000    0.000    4.800 
#    0.000    4.000    0.000    0.000    0.000    0.000 
#    0.000    0.000    0.000    0.000    0.000    0.000 
#
# Total GULP energy -495895.807647 kJ/mol
# GULP energy per Si atom -12397.395191 kJ/mol
# Density = 1.960626 g / cm^3
# Si number density = 19.650983 Si / 1000 Ang^3
#
#
#
# Elastic Constant Matrix: (Units=GPa)
#
#
# Indices 1 2 3 4 5 6 
#
# 1 73.4010 37.8364 36.2064 0.0000 0.0000 0.0000
# 2 37.8364 70.8406 9.8311 0.0000 0.0000 0.0000
# 3 36.2064 9.8311 108.8520 0.0000 0.0000 0.0000
# 4 0.0000 0.0000 0.0000 20.8373 0.0000 0.0000
# 5 0.0000 0.0000 0.0000 0.0000 37.8617 0.0000
# 6 0.0000 0.0000 0.0000 0.0000 0.0000 27.7531
#
#
#
# Elastic Compliance Matrix: (Units=1/GPa)
#
#
# Indices 1 2 3 4 5 6 
#
# 1 0.022585 -0.011160 -0.006504 0.000000 0.000000 0.000000
# 2 -0.011160 0.019810 0.001923 0.000000 0.000000 0.000000
# 3 -0.006504 0.001923 0.011177 0.000000 0.000000 0.000000
# 4 0.000000 0.000000 0.000000 0.047991 0.000000 0.000000
# 5 0.000000 0.000000 0.000000 0.000000 0.026412 0.000000
# 6 0.000000 0.000000 0.000000 0.000000 0.000000 0.036032
#
#
# Mechanical properties :
#
#
# Convention : Reuss Voigt Hill
#
# Bulk Modulus (GPa) = 45.27222 46.76014 46.01618
# Shear Modulus (GPa) = 24.64852 28.57173 26.61013
#
# Velocity S-wave (km/s) = 3.54547 3.81722 3.68385
# Velocity P-wave (km/s) = 6.31258 6.57839 6.44685
#
# Compressibility (1/GPa) = 0.02208860
#
# Stress axis : x y z
#
# Youngs Moduli (GPa) = 44.27742 50.47956 89.47291
#
# Poissons Ratio (x) = 0.56336 0.58195
# Poissons Ratio (y) = 0.49414 -0.17205
# Poissons Ratio (z) = 0.28799 -0.09707
#
# Static dielectric constant tensor:
#      x y z
#    x 3.344820 0.000000 0.000000 
#    y 0.000000 3.442520 0.000000 
#    z 0.000000 0.000000 3.538920 
# 
# 
# High freq. dielectric constant tensor:
#      x y z
#    x 1.745560 0.000000 0.000000 
#    y 0.000000 1.759490 0.000000 
#    z 0.000000 0.000000 1.773020 
# 
# From -- ./inp_files/22000.got.cif
#   From: 2010.03.12/outbox.cif.g09.slc.cpg/sg60_11_cif.got.tgz:22000.got - 2010.04.10 18:46:24.
