data_PCOD8247222
_publ_section_title
;
Structure prediction by ZEFSAII (Michael W. Deem and Ramdas Pophale) SiO2 
 PCOD8247222
Probable space group: P B C N
;
_chemical_formula_sum "Si O2"
_cell_formula_units_Z 48
_cell_length_a 22.185149
_cell_length_b 9.679349
_cell_length_c 11.029848
_cell_angle_alpha 90.000000
_cell_angle_beta 90.000000
_cell_angle_gamma 90.000000
_cell_volume 2368.525292
_symmetry_space_group_name_H-M "P B C N"
_symmetry_group_IT_number 60
_symmetry_cell_setting 'orthorhombic'
loop_
_space_group_symop_operation_xyz
x,y,z
1/2-x,1/2-y,1/2+z
1/2+x,1/2-y,-z
-x,y,1/2-z
-x,-y,-z
1/2+x,1/2+y,1/2-z
1/2-x,1/2+y,z
x,-y,1/2+z
loop_
_atom_site_type_symbol
_atom_site_label
_atom_site_fract_x
_atom_site_fract_y
_atom_site_fract_z
Si Si1 0.962047 0.640289 0.866641
Si Si2 0.829957 0.438827 0.333327
Si Si3 0.850729 0.747543 0.367097
Si Si4 0.252783 0.654996 0.462111
Si Si5 0.219032 0.101969 0.818325
Si Si6 0.981491 0.682911 0.385603
O O1 0.890522 0.653216 0.840774
O O2 0.977775 0.480872 0.881945
O O3 0.000000 0.699187 0.750000
O O4 0.976712 0.718351 0.995806
O O5 0.843925 0.598518 0.300872
O O6 0.791213 0.437435 0.456331
O O7 0.787074 0.374335 0.231305
O O8 0.805172 0.755453 0.477725
O O9 0.833529 0.877289 0.281158
O O10 0.918683 0.759332 0.414610
O O11 0.286883 0.551242 0.370666
O O12 0.208556 0.770197 0.407645
O O13 0.000000 0.736531 0.250000
#
# Coordination Sequence:
#
# PCOD8247222 Si02
#       6
#     8   8   8   8   8   8
#     4   9  19  32  54  86 120 154 198 252 301 347
#     4  10  21  34  55  88 121 153 199 249 307 356
#     4  10  21  36  57  88 117 154 198 251 304 365
#     4  11  22  36  58  86 119 157 194 246 303 366
#     4  11  22  36  58  85 118 157 195 243 307 367
#     4   9  19  34  56  84 117 157 201 247 300 353
#
# _framework density 20.265775000000001
#
# number of rings (size 3 to 8) (size 9 to 14) (size 15 to 20)
#    0.000    2.000    3.333    0.000    4.667    1.333 
#    0.000    0.000    0.000    1.000    0.000    0.000 
#    0.000    0.000    0.000    0.000    0.000    0.000 
#
# Total GULP energy -594627.821661 kJ/mol
# GULP energy per Si atom -12388.079618 kJ/mol
# Density = 2.021965 g / cm^3
# Si number density = 20.265775 Si / 1000 Ang^3
#
#
#
# Elastic Constant Matrix: (Units=GPa)
#
#
# Indices 1 2 3 4 5 6 
#
# 1 108.3861 7.0997 31.7027 0.0000 0.0000 0.0000
# 2 7.0997 45.9743 7.6620 0.0000 0.0000 0.0000
# 3 31.7027 7.6620 101.3488 0.0000 0.0000 0.0000
# 4 0.0000 0.0000 0.0000 -0.7800 0.0000 0.0000
# 5 0.0000 0.0000 0.0000 0.0000 13.2237 0.0000
# 6 0.0000 0.0000 0.0000 0.0000 0.0000 22.7070
#
#
#
# Elastic Compliance Matrix: (Units=1/GPa)
#
#
# Indices 1 2 3 4 5 6 
#
# 1 0.010206 -0.001057 -0.003113 0.000000 0.000000 0.000000
# 2 -0.001057 0.022138 -0.001343 0.000000 0.000000 0.000000
# 3 -0.003113 -0.001343 0.010942 0.000000 0.000000 0.000000
# 4 0.000000 0.000000 0.000000 -1.282077 0.000000 0.000000
# 5 0.000000 0.000000 0.000000 0.000000 0.075622 0.000000
# 6 0.000000 0.000000 0.000000 0.000000 0.000000 0.044039
#
#
# Mechanical properties :
#
#
# Convention : Reuss Voigt Hill
#
# Bulk Modulus (GPa) = 30.99744 38.73757 34.86750
# Shear Modulus (GPa) = -4.55643 20.97979 8.21168
#
# Velocity S-wave (km/s) = -1.50107 3.22099 2.01514
# Velocity P-wave (km/s) = 3.51061 5.74363 4.75992
#
# Compressibility (1/GPa) = 0.03226073
#
# Stress axis : x y z
#
# Youngs Moduli (GPa) = 97.98198 45.17039 91.39034
#
# Poissons Ratio (x) = 0.04776 0.28446
# Poissons Ratio (y) = 0.10360 0.12273
# Poissons Ratio (z) = 0.30498 0.06066
#
# Static dielectric constant tensor:
#      x y z
#    x 3.648610 0.000000 0.000000 
#    y 0.000000 3.146600 0.000000 
#    z 0.000000 0.000000 3.932480 
# 
# 
# High freq. dielectric constant tensor:
#      x y z
#    x 1.783120 0.000000 0.000000 
#    y 0.000000 1.745080 0.000000 
#    z 0.000000 0.000000 1.801120 
# 
# From -- ./inp_files/12802.got.cif
#   From: 2010.03.12/outbox.cif.g09.slc.cpg/sg60_7_cif.got.tgz:12802.got - 2010.04.10 18:46:24.
