data_PCOD8247960
_publ_section_title
;
Structure prediction by ZEFSAII (Michael W. Deem and Ramdas Pophale) SiO2 
 PCOD8247960
Probable space group: P B C N
;
_chemical_formula_sum "Si O2"
_cell_formula_units_Z 28
_cell_length_a 7.143053
_cell_length_b 16.925884
_cell_length_c 9.606909
_cell_angle_alpha 90.000000
_cell_angle_beta 90.000000
_cell_angle_gamma 90.000000
_cell_volume 1161.499186
_symmetry_space_group_name_H-M "P B C N"
_symmetry_group_IT_number 60
_symmetry_cell_setting 'orthorhombic'
loop_
_space_group_symop_operation_xyz
x,y,z
1/2-x,1/2-y,1/2+z
1/2+x,1/2-y,-z
-x,y,1/2-z
-x,-y,-z
1/2+x,1/2+y,1/2-z
1/2-x,1/2+y,z
x,-y,1/2+z
loop_
_atom_site_type_symbol
_atom_site_label
_atom_site_fract_x
_atom_site_fract_y
_atom_site_fract_z
Si Si1 0.541484 0.422478 0.401813
Si Si2 0.736838 0.673280 0.413042
Si Si3 0.409743 0.154004 0.599691
Si Si4 0.500000 0.424502 0.750000
O O1 0.500000 0.386604 0.250000
O O2 0.431033 0.363147 0.499066
O O3 0.765062 0.416964 0.429770
O O4 0.477935 0.517489 0.388599
O O5 0.711933 0.766181 0.399297
O O6 0.689736 0.629558 0.263982
O O7 0.938064 0.652938 0.476017
O O8 0.500000 0.141140 0.750000
#
# Coordination Sequence:
#
# PCOD8247960 Si02
#       4
#     8   8   8   4
#     4  10  23  42  64  96 139 180 222 295 348 413
#     4  12  23  41  69  98 135 185 236 288 349 420
#     4  12  23  40  69 101 137 184 238 287 349 419
#     4  10  24  44  68  96 144 180 228 288 362 414
#
# _framework density 24.106774000000001
#
# number of rings (size 3 to 8) (size 9 to 14) (size 15 to 20)
#    0.857    0.000    7.143    0.857    0.000    1.143 
#    0.000    7.143    0.000    0.000    0.000    0.000 
#    0.000    0.000    0.000    0.000    0.000    0.000 
#
# Total GULP energy -346973.931830 kJ/mol
# GULP energy per Si atom -12391.926137 kJ/mol
# Density = 2.405191 g / cm^3
# Si number density = 24.106774 Si / 1000 Ang^3
#
#
#
# Elastic Constant Matrix: (Units=GPa)
#
#
# Indices 1 2 3 4 5 6 
#
# 1 186.0422 57.7954 44.6322 0.0000 0.0000 0.0000
# 2 57.7954 111.2252 33.3831 0.0000 0.0000 0.0000
# 3 44.6322 33.3831 70.1745 0.0000 0.0000 0.0000
# 4 0.0000 0.0000 0.0000 23.0842 0.0000 0.0000
# 5 0.0000 0.0000 0.0000 0.0000 50.5724 0.0000
# 6 0.0000 0.0000 0.0000 0.0000 0.0000 34.4418
#
#
#
# Elastic Compliance Matrix: (Units=1/GPa)
#
#
# Indices 1 2 3 4 5 6 
#
# 1 0.006962 -0.002670 -0.003158 0.000000 0.000000 0.000000
# 2 -0.002670 0.011512 -0.003778 0.000000 0.000000 0.000000
# 3 -0.003158 -0.003778 0.018056 0.000000 0.000000 0.000000
# 4 0.000000 0.000000 0.000000 0.043320 0.000000 0.000000
# 5 0.000000 0.000000 0.000000 0.000000 0.019774 0.000000
# 6 0.000000 0.000000 0.000000 0.000000 0.000000 0.029035
#
#
# Mechanical properties :
#
#
# Convention : Reuss Voigt Hill
#
# Bulk Modulus (GPa) = 57.74349 71.00703 64.37526
# Shear Modulus (GPa) = 32.54288 37.06175 34.80232
#
# Velocity S-wave (km/s) = 3.67815 3.92522 3.80369
# Velocity P-wave (km/s) = 6.48410 7.07547 6.78623
#
# Compressibility (1/GPa) = 0.01731797
#
# Stress axis : x y z
#
# Youngs Moduli (GPa) = 143.63389 86.86469 55.38283
#
# Poissons Ratio (x) = 0.23192 0.17490
# Poissons Ratio (y) = 0.38349 0.20926
# Poissons Ratio (z) = 0.45359 0.32821
#
# Static dielectric constant tensor:
#      x y z
#    x 4.939260 0.000000 0.000000 
#    y 0.000000 4.574110 0.000000 
#    z 0.000000 0.000000 3.375140 
# 
# 
# High freq. dielectric constant tensor:
#      x y z
#    x 1.938630 0.000000 0.000000 
#    y 0.000000 1.968290 0.000000 
#    z 0.000000 0.000000 1.994160 
# 
# From -- ./inp_files/8756.got.cif
#   From: 2010.03.12/outbox.cif.g09.slc.cpg/sg60_5_cif.got.tgz:8756.got - 2010.04.10 18:46:24.
