data_PCOD8247257
_publ_section_title
;
Structure prediction by ZEFSAII (Michael W. Deem and Ramdas Pophale) SiO2 
 PCOD8247257
Probable space group: P B C N
;
_chemical_formula_sum "Si O2"
_cell_formula_units_Z 48
_cell_length_a 9.165503
_cell_length_b 19.107713
_cell_length_c 13.668257
_cell_angle_alpha 90.000000
_cell_angle_beta 90.000000
_cell_angle_gamma 90.000000
_cell_volume 2393.746463
_symmetry_space_group_name_H-M "P B C N"
_symmetry_group_IT_number 60
_symmetry_cell_setting 'orthorhombic'
loop_
_space_group_symop_operation_xyz
x,y,z
1/2-x,1/2-y,1/2+z
1/2+x,1/2-y,-z
-x,y,1/2-z
-x,-y,-z
1/2+x,1/2+y,1/2-z
1/2-x,1/2+y,z
x,-y,1/2+z
loop_
_atom_site_type_symbol
_atom_site_label
_atom_site_fract_x
_atom_site_fract_y
_atom_site_fract_z
Si Si1 0.335534 0.672875 0.515723
Si Si2 0.606931 0.087893 0.573716
Si Si3 0.500000 0.154863 0.250000
Si Si4 0.652473 0.696370 0.560047
Si Si5 0.000000 0.679253 0.750000
Si Si6 0.190629 0.223261 0.721271
Si Si7 0.361298 0.068878 0.416096
O O1 0.506069 0.688606 0.494842
O O2 0.232912 0.732830 0.471060
O O3 0.320758 0.667278 0.633459
O O4 0.284501 0.600091 0.466968
O O5 0.747533 0.130088 0.537177
O O6 0.520693 0.128446 0.657890
O O7 0.501000 0.078892 0.483360
O O8 0.664338 0.012284 0.609478
O O9 0.385637 0.203782 0.188850
O O10 0.396105 0.108420 0.316375
O O11 0.613718 0.698585 0.676875
O O12 0.136860 0.731514 0.741220
#
# Coordination Sequence:
#
# PCOD8247257 Si02
#       7
#     8   8   4   8   4   8   8
#     4  12  21  39  62  91 121 161 203 258 309 362
#     4  10  22  41  58  91 118 168 204 247 304 376
#     4  12  21  40  58  96 121 162 198 260 313 358
#     4  11  23  37  61  90 122 157 207 254 304 359
#     4  10  21  36  62  90 119 156 208 250 295 374
#     4  11  21  35  60  90 120 154 199 253 307 357
#     4  11  23  39  63  84 127 163 202 250 312 365
#
# _framework density 20.052249
#
# number of rings (size 3 to 8) (size 9 to 14) (size 15 to 20)
#    0.000    1.000    5.000    2.500    2.333    0.667 
#    0.000    0.000    0.000    0.000    0.000    0.000 
#    0.000    0.000    0.000    0.000    0.000    0.000 
#
# Total GULP energy -595116.617553 kJ/mol
# GULP energy per Si atom -12398.262866 kJ/mol
# Density = 2.000661 g / cm^3
# Si number density = 20.052249 Si / 1000 Ang^3
#
#
#
# Elastic Constant Matrix: (Units=GPa)
#
#
# Indices 1 2 3 4 5 6 
#
# 1 92.8484 38.0744 12.7751 0.0000 0.0000 0.0000
# 2 38.0744 92.2992 5.2868 0.0000 0.0000 0.0000
# 3 12.7751 5.2868 65.3842 0.0000 0.0000 0.0000
# 4 0.0000 0.0000 0.0000 22.4191 0.0000 0.0000
# 5 0.0000 0.0000 0.0000 0.0000 28.8655 0.0000
# 6 0.0000 0.0000 0.0000 0.0000 0.0000 24.5346
#
#
#
# Elastic Compliance Matrix: (Units=1/GPa)
#
#
# Indices 1 2 3 4 5 6 
#
# 1 0.013259 -0.005346 -0.002158 0.000000 0.000000 0.000000
# 2 -0.005346 0.013040 -0.000010 0.000000 0.000000 0.000000
# 3 -0.002158 -0.000010 0.015717 0.000000 0.000000 0.000000
# 4 0.000000 0.000000 0.000000 0.044605 0.000000 0.000000
# 5 0.000000 0.000000 0.000000 0.000000 0.034643 0.000000
# 6 0.000000 0.000000 0.000000 0.000000 0.000000 0.040759
#
#
# Mechanical properties :
#
#
# Convention : Reuss Voigt Hill
#
# Bulk Modulus (GPa) = 37.05384 40.31158 38.68271
# Shear Modulus (GPa) = 26.87477 28.12354 27.49916
#
# Velocity S-wave (km/s) = 3.66490 3.74908 3.70723
# Velocity P-wave (km/s) = 6.03551 6.23600 6.13657
#
# Compressibility (1/GPa) = 0.02698775
#
# Stress axis : x y z
#
# Youngs Moduli (GPa) = 75.41777 76.68594 63.62639
#
# Poissons Ratio (x) = 0.40997 0.13733
# Poissons Ratio (y) = 0.40319 0.00063
# Poissons Ratio (z) = 0.16278 0.00076
#
# Static dielectric constant tensor:
#      x y z
#    x 3.848720 0.000000 0.000000 
#    y 0.000000 3.723160 0.000000 
#    z 0.000000 0.000000 3.693490 
# 
# 
# High freq. dielectric constant tensor:
#      x y z
#    x 1.794560 0.000000 0.000000 
#    y 0.000000 1.762030 0.000000 
#    z 0.000000 0.000000 1.785620 
# 
# From -- ./inp_files/15084.got.cif
#   From: 2010.03.12/outbox.cif.g09.slc.cpg/sg60_8_cif.got.tgz:15084.got - 2010.04.10 18:46:24.
