data_PCOD8247445
_publ_section_title
;
Structure prediction by ZEFSAII (Michael W. Deem and Ramdas Pophale) SiO2 
 PCOD8247445
Probable space group: P B C N
;
_chemical_formula_sum "Si O2"
_cell_formula_units_Z 56
_cell_length_a 5.859810
_cell_length_b 15.276187
_cell_length_c 29.055209
_cell_angle_alpha 90.000000
_cell_angle_beta 90.000000
_cell_angle_gamma 90.000000
_cell_volume 2600.893111
_symmetry_space_group_name_H-M "P B C N"
_symmetry_group_IT_number 60
_symmetry_cell_setting 'orthorhombic'
loop_
_space_group_symop_operation_xyz
x,y,z
1/2-x,1/2-y,1/2+z
1/2+x,1/2-y,-z
-x,y,1/2-z
-x,-y,-z
1/2+x,1/2+y,1/2-z
1/2-x,1/2+y,z
x,-y,1/2+z
loop_
_atom_site_type_symbol
_atom_site_label
_atom_site_fract_x
_atom_site_fract_y
_atom_site_fract_z
Si Si1 0.098299 0.720438 0.800779
Si Si2 0.674403 0.874567 0.521078
Si Si3 0.427490 0.568861 0.802648
Si Si4 0.622984 0.943752 0.061890
Si Si5 0.203967 0.370144 0.131199
Si Si6 0.503171 0.691375 0.947423
Si Si7 0.250234 0.898953 0.776335
O O1 0.284157 0.651835 0.816507
O O2 0.233136 0.811669 0.806460
O O3 0.000000 0.704879 0.750000
O O4 0.894944 0.706817 0.836513
O O5 0.492751 0.907250 0.484079
O O6 0.583313 0.790555 0.548687
O O7 0.909268 0.844725 0.496781
O O8 0.715201 0.956637 0.555458
O O9 0.500000 0.578397 0.750000
O O10 0.637275 0.566065 0.838080
O O11 0.261200 0.484474 0.808482
O O12 0.464597 0.939927 0.107054
O O13 0.825158 0.877469 0.072687
O O14 0.303059 0.309433 0.090947
O O15 0.500000 0.899260 0.750000
O O16 0.000000 0.900858 0.750000
#
# Coordination Sequence:
#
# PCOD8247445 Si02
#       7
#     8   8   8   8   8   8   8
#     4  11  22  42  69  95 136 183 239 291 361 417
#     4  10  21  39  73  93 130 179 214 278 349 427
#     4  11  22  42  69  92 134 183 236 287 358 423
#     4  10  22  42  62 102 135 170 226 278 344 428
#     4  11  25  40  63 102 138 184 227 296 346 425
#     4  11  21  42  66 100 136 171 236 275 356 430
#     4  10  24  41  69 104 129 176 247 304 355 429
#
# _framework density 21.531064000000001
#
# number of rings (size 3 to 8) (size 9 to 14) (size 15 to 20)
#    0.000    1.429    2.857    2.143    4.000    1.143 
#    0.000    5.714    0.000    0.000    0.000    0.000 
#    0.000    0.000    0.000    0.000    0.000    0.000 
#
# Total GULP energy -693798.619099 kJ/mol
# GULP energy per Si atom -12389.261055 kJ/mol
# Density = 2.148206 g / cm^3
# Si number density = 21.531064 Si / 1000 Ang^3
#
#
#
# Elastic Constant Matrix: (Units=GPa)
#
#
# Indices 1 2 3 4 5 6 
#
# 1 107.6816 59.8149 37.8002 0.0000 0.0000 0.0000
# 2 59.8149 196.5721 45.2279 0.0000 0.0000 0.0000
# 3 37.8002 45.2279 101.0038 0.0000 0.0000 0.0000
# 4 0.0000 0.0000 0.0000 -69.9096 0.0000 0.0000
# 5 0.0000 0.0000 0.0000 0.0000 33.5771 0.0000
# 6 0.0000 0.0000 0.0000 0.0000 0.0000 32.6960
#
#
#
# Elastic Compliance Matrix: (Units=1/GPa)
#
#
# Indices 1 2 3 4 5 6 
#
# 1 0.012033 -0.002927 -0.003193 0.000000 0.000000 0.000000
# 2 -0.002927 0.006383 -0.001763 0.000000 0.000000 0.000000
# 3 -0.003193 -0.001763 0.011885 0.000000 0.000000 0.000000
# 4 0.000000 0.000000 0.000000 -0.014304 0.000000 0.000000
# 5 0.000000 0.000000 0.000000 0.000000 0.029782 0.000000
# 6 0.000000 0.000000 0.000000 0.000000 0.000000 0.030585
#
#
# Mechanical properties :
#
#
# Convention : Reuss Voigt Hill
#
# Bulk Modulus (GPa) = 68.79372 76.77149 72.78260
# Shear Modulus (GPa) = 51.55944 16.76699 34.16322
#
# Velocity S-wave (km/s) = 4.89883 2.79361 3.98765
# Velocity P-wave (km/s) = 8.00114 6.79259 7.42151
#
# Compressibility (1/GPa) = 0.01453621
#
# Stress axis : x y z
#
# Youngs Moduli (GPa) = 83.10272 156.65404 84.14018
#
# Poissons Ratio (x) = 0.45853 0.26864
# Poissons Ratio (y) = 0.24324 0.14834
# Poissons Ratio (z) = 0.26532 0.27618
#
# Static dielectric constant tensor:
#      x y z
#    x 4.442600 0.000000 0.000000 
#    y 0.000000 4.368370 0.000000 
#    z 0.000000 0.000000 3.740490 
# 
# 
# High freq. dielectric constant tensor:
#      x y z
#    x 1.852380 0.000000 0.000000 
#    y 0.000000 1.852450 0.000000 
#    z 0.000000 0.000000 1.835000 
# 
# From -- ./inp_files/25684.got.cif
#   From: 2010.03.12/outbox.cif.g09.slc.cpg/sg60_13_cif.got.tgz:25684.got - 2010.04.10 18:46:24.
