data_PCOD8247957
_publ_section_title
;
Structure prediction by ZEFSAII (Michael W. Deem and Ramdas Pophale) SiO2 
 PCOD8247957
Probable space group: P B C N
;
_chemical_formula_sum "Si O2"
_cell_formula_units_Z 52
_cell_length_a 20.000491
_cell_length_b 8.471905
_cell_length_c 14.147458
_cell_angle_alpha 90.000000
_cell_angle_beta 90.000000
_cell_angle_gamma 90.000000
_cell_volume 2397.177253
_symmetry_space_group_name_H-M "P B C N"
_symmetry_group_IT_number 60
_symmetry_cell_setting 'orthorhombic'
loop_
_space_group_symop_operation_xyz
x,y,z
1/2-x,1/2-y,1/2+z
1/2+x,1/2-y,-z
-x,y,1/2-z
-x,-y,-z
1/2+x,1/2+y,1/2-z
1/2-x,1/2+y,z
x,-y,1/2+z
loop_
_atom_site_type_symbol
_atom_site_label
_atom_site_fract_x
_atom_site_fract_y
_atom_site_fract_z
Si Si1 0.599420 0.663683 0.135125
Si Si2 0.288637 0.821588 0.244378
Si Si3 0.844848 0.780173 0.442394
Si Si4 0.715412 0.618556 0.442533
Si Si5 0.000000 0.647456 0.750000
Si Si6 0.116286 0.587300 0.225729
Si Si7 0.348200 0.328680 0.358667
O O1 0.663045 0.755144 0.175267
O O2 0.601006 0.685518 0.022546
O O3 0.529719 0.737246 0.170025
O O4 0.605298 0.479960 0.161247
O O5 0.299111 0.718130 0.150950
O O6 0.214401 0.830177 0.285918
O O7 0.311645 0.000260 0.220099
O O8 0.792994 0.641299 0.471954
O O9 0.887127 0.725507 0.351974
O O10 0.800138 0.935746 0.420200
O O11 0.671654 0.679698 0.531554
O O12 0.942258 0.538032 0.793222
O O13 0.109574 0.672677 0.328683
#
# Coordination Sequence:
#
# PCOD8247957 Si02
#       7
#     8   8   8   8   4   8   8
#     4  10  23  42  63  89 131 168 220 256 318 369
#     4  11  21  37  62  98 132 163 197 260 322 390
#     4  11  22  37  62  96 128 171 201 258 313 391
#     4  11  23  36  62 100 141 158 197 250 330 393
#     4  10  26  46  62  86 122 180 220 276 300 364
#     4  11  24  40  66  92 128 168 217 257 319 373
#     4  11  22  38  64  98 129 168 203 264 320 390
#
# _framework density 21.692178999999999
#
# number of rings (size 3 to 8) (size 9 to 14) (size 15 to 20)
#    0.000    1.231    3.077    2.769    2.154    3.692 
#    0.000    1.538    0.000   10.154    0.000    0.000 
#    0.000    0.000    0.000    0.000    0.000    0.000 
#
# Total GULP energy -644747.944662 kJ/mol
# GULP energy per Si atom -12398.998936 kJ/mol
# Density = 2.164281 g / cm^3
# Si number density = 21.692179 Si / 1000 Ang^3
#
#
#
# Elastic Constant Matrix: (Units=GPa)
#
#
# Indices 1 2 3 4 5 6 
#
# 1 55.2511 22.0643 15.0571 0.0000 0.0000 0.0000
# 2 22.0643 106.8045 44.2767 0.0000 0.0000 0.0000
# 3 15.0571 44.2767 99.9616 0.0000 0.0000 0.0000
# 4 0.0000 0.0000 0.0000 36.0088 0.0000 0.0000
# 5 0.0000 0.0000 0.0000 0.0000 18.4112 0.0000
# 6 0.0000 0.0000 0.0000 0.0000 0.0000 34.1812
#
#
#
# Elastic Compliance Matrix: (Units=1/GPa)
#
#
# Indices 1 2 3 4 5 6 
#
# 1 0.019895 -0.003513 -0.001441 0.000000 0.000000 0.000000
# 2 -0.003513 0.012089 -0.004826 0.000000 0.000000 0.000000
# 3 -0.001441 -0.004826 0.012358 0.000000 0.000000 0.000000
# 4 0.000000 0.000000 0.000000 0.027771 0.000000 0.000000
# 5 0.000000 0.000000 0.000000 0.000000 0.054315 0.000000
# 6 0.000000 0.000000 0.000000 0.000000 0.000000 0.029256
#
#
# Mechanical properties :
#
#
# Convention : Reuss Voigt Hill
#
# Bulk Modulus (GPa) = 40.34885 47.20149 43.77517
# Shear Modulus (GPa) = 27.24752 29.76151 28.50452
#
# Velocity S-wave (km/s) = 3.54799 3.70806 3.62891
# Velocity P-wave (km/s) = 5.95192 6.33560 6.14676
#
# Compressibility (1/GPa) = 0.02478386
#
# Stress axis : x y z
#
# Youngs Moduli (GPa) = 50.26493 82.71958 80.91734
#
# Poissons Ratio (x) = 0.29056 0.11659
# Poissons Ratio (y) = 0.17656 0.39047
# Poissons Ratio (z) = 0.07242 0.39917
#
# Static dielectric constant tensor:
#      x y z
#    x 3.610440 0.000000 0.000000 
#    y 0.000000 4.237450 0.000000 
#    z 0.000000 0.000000 3.936690 
# 
# 
# High freq. dielectric constant tensor:
#      x y z
#    x 1.814680 0.000000 0.000000 
#    y 0.000000 1.871450 0.000000 
#    z 0.000000 0.000000 1.860870 
# 
# From -- ./inp_files/17680.got.cif
#   From: 2010.03.12/outbox.cif.g09.slc.cpg/sg60_9_cif.got.tgz:17680.got - 2010.04.10 18:46:24.
