data_PCOD8247849
_publ_section_title
;
Structure prediction by ZEFSAII (Michael W. Deem and Ramdas Pophale) SiO2 
 PCOD8247849
Probable space group: P B C N
;
_chemical_formula_sum "Si O2"
_cell_formula_units_Z 64
_cell_length_a 10.938366
_cell_length_b 18.084770
_cell_length_c 15.124055
_cell_angle_alpha 90.000000
_cell_angle_beta 90.000000
_cell_angle_gamma 90.000000
_cell_volume 2991.807791
_symmetry_space_group_name_H-M "P B C N"
_symmetry_group_IT_number 60
_symmetry_cell_setting 'orthorhombic'
loop_
_space_group_symop_operation_xyz
x,y,z
1/2-x,1/2-y,1/2+z
1/2+x,1/2-y,-z
-x,y,1/2-z
-x,-y,-z
1/2+x,1/2+y,1/2-z
1/2-x,1/2+y,z
x,-y,1/2+z
loop_
_atom_site_type_symbol
_atom_site_label
_atom_site_fract_x
_atom_site_fract_y
_atom_site_fract_z
Si Si1 0.729751 0.273033 0.105821
Si Si2 0.133696 0.399697 0.086953
Si Si3 0.028787 0.190626 0.570311
Si Si4 0.108044 0.450305 0.678238
Si Si5 0.826565 0.854672 0.275587
Si Si6 0.681453 0.388185 0.557872
Si Si7 0.592633 0.158433 0.487569
Si Si8 0.640326 0.520323 0.226047
O O1 0.603859 0.276910 0.052938
O O2 0.706732 0.289793 0.208562
O O3 0.781281 0.189929 0.102255
O O4 0.805002 0.341660 0.063985
O O5 0.078461 0.468514 0.140930
O O6 0.217673 0.352026 0.152514
O O7 0.215742 0.425038 0.003980
O O8 0.028937 0.349742 0.045453
O O9 0.047214 0.161771 0.670979
O O10 0.060120 0.125581 0.501005
O O11 0.115893 0.260755 0.554288
O O12 0.101221 0.398632 0.592406
O O13 0.247583 0.444461 0.715851
O O14 0.000000 0.430617 0.750000
O O15 0.841416 0.932666 0.226622
O O16 0.654869 0.451241 0.627515
O O17 0.500000 0.542800 0.250000
#
# Coordination Sequence:
#
# PCOD8247849 Si02
#       8
#     8   8   8   8   8   8   8   8
#     4  11  23  40  66  99 126 178 227 273 342 406
#     4  10  22  45  64  96 134 170 219 282 334 407
#     4  10  22  43  65  94 134 174 219 279 339 401
#     4  11  26  41  69 103 134 179 225 278 337 405
#     4  10  24  43  69  94 136 176 223 279 341 409
#     4  10  23  43  66  95 135 175 219 286 329 405
#     4  11  24  39  69  94 132 175 222 276 340 404
#     4  11  25  45  66 101 138 177 228 277 344 400
#
# _framework density 21.391748
#
# number of rings (size 3 to 8) (size 9 to 14) (size 15 to 20)
#    0.000    1.500    1.250    2.250    8.750    0.000 
#    4.500    2.500    0.000    0.000    0.000    0.000 
#    0.000    0.000    0.000    0.000    0.000    0.000 
#
# Total GULP energy -793030.343633 kJ/mol
# GULP energy per Si atom -12391.099119 kJ/mol
# Density = 2.134306 g / cm^3
# Si number density = 21.391748 Si / 1000 Ang^3
#
#
#
# Elastic Constant Matrix: (Units=GPa)
#
#
# Indices 1 2 3 4 5 6 
#
# 1 101.4492 15.4495 41.0048 0.0000 0.0000 0.0000
# 2 15.4495 54.2034 33.4200 0.0000 0.0000 0.0000
# 3 41.0048 33.4200 118.4868 0.0000 0.0000 0.0000
# 4 0.0000 0.0000 0.0000 40.0618 0.0000 0.0000
# 5 0.0000 0.0000 0.0000 0.0000 16.4006 0.0000
# 6 0.0000 0.0000 0.0000 0.0000 0.0000 18.6613
#
#
#
# Elastic Compliance Matrix: (Units=1/GPa)
#
#
# Indices 1 2 3 4 5 6 
#
# 1 0.011505 -0.000998 -0.003700 0.000000 0.000000 0.000000
# 2 -0.000998 0.022419 -0.005978 0.000000 0.000000 0.000000
# 3 -0.003700 -0.005978 0.011406 0.000000 0.000000 0.000000
# 4 0.000000 0.000000 0.000000 0.024961 0.000000 0.000000
# 5 0.000000 0.000000 0.000000 0.000000 0.060974 0.000000
# 6 0.000000 0.000000 0.000000 0.000000 0.000000 0.053587
#
#
# Mechanical properties :
#
#
# Convention : Reuss Voigt Hill
#
# Bulk Modulus (GPa) = 41.70431 50.43202 46.06816
# Shear Modulus (GPa) = 23.34299 27.30906 25.32603
#
# Velocity S-wave (km/s) = 3.30694 3.57685 3.44454
# Velocity P-wave (km/s) = 5.84114 6.37849 6.11572
#
# Compressibility (1/GPa) = 0.02397833
#
# Stress axis : x y z
#
# Youngs Moduli (GPa) = 86.92175 44.60422 87.67008
#
# Poissons Ratio (x) = 0.04451 0.32437
# Poissons Ratio (y) = 0.08674 0.52411
# Poissons Ratio (z) = 0.32161 0.26665
#
# Static dielectric constant tensor:
#      x y z
#    x 4.128340 0.000000 0.000000 
#    y 0.000000 3.657140 0.000000 
#    z 0.000000 0.000000 4.014580 
# 
# 
# High freq. dielectric constant tensor:
#      x y z
#    x 1.849350 0.000000 0.000000 
#    y 0.000000 1.828230 0.000000 
#    z 0.000000 0.000000 1.854170 
# 
# From -- ./inp_files/16369.got.cif
#   From: 2010.03.12/outbox.cif.g09.slc.cpg/sg60_9_cif.got.tgz:16369.got - 2010.04.10 18:46:24.
