data_PCOD8247215
_publ_section_title
;
Structure prediction by ZEFSAII (Michael W. Deem and Ramdas Pophale) SiO2 
 PCOD8247215
Probable space group: P B C N
;
_chemical_formula_sum "Si O2"
_cell_formula_units_Z 56
_cell_length_a 16.479226
_cell_length_b 20.613293
_cell_length_c 9.278375
_cell_angle_alpha 90.000000
_cell_angle_beta 90.000000
_cell_angle_gamma 90.000000
_cell_volume 3151.781539
_symmetry_space_group_name_H-M "P B C N"
_symmetry_group_IT_number 60
_symmetry_cell_setting 'orthorhombic'
loop_
_space_group_symop_operation_xyz
x,y,z
1/2-x,1/2-y,1/2+z
1/2+x,1/2-y,-z
-x,y,1/2-z
-x,-y,-z
1/2+x,1/2+y,1/2-z
1/2-x,1/2+y,z
x,-y,1/2+z
loop_
_atom_site_type_symbol
_atom_site_label
_atom_site_fract_x
_atom_site_fract_y
_atom_site_fract_z
Si Si1 0.206243 0.822384 0.933738
Si Si2 0.440316 0.013161 0.871033
Si Si3 0.346337 0.863405 0.459999
Si Si4 0.070740 0.261787 0.856161
Si Si5 0.274012 0.702541 0.765035
Si Si6 0.955868 0.238572 0.099877
Si Si7 0.661611 0.886197 0.703187
O O1 0.233192 0.768896 0.816681
O O2 0.107938 0.820854 0.926855
O O3 0.248302 0.888965 0.872970
O O4 0.240018 0.808180 0.094596
O O5 0.500000 0.039832 0.750000
O O6 0.389192 0.951400 0.816293
O O7 0.376753 0.067215 0.911676
O O8 0.500000 0.000000 0.000000
O O9 0.264945 0.853590 0.364904
O O10 0.411175 0.807131 0.427034
O O11 0.328687 0.865291 0.630237
O O12 0.129392 0.206677 0.790083
O O13 0.117144 0.329171 0.887033
O O14 0.000000 0.281816 0.750000
O O15 0.032362 0.230484 0.996640
O O16 0.000000 0.234888 0.250000
#
# Coordination Sequence:
#
# PCOD8247215 Si02
#       7
#     8   8   8   8   8   8   8
#     4  10  21  35  50  78 107 142 181 216 270 325
#     4  12  24  39  57  80 110 146 188 223 262 316
#     4  11  23  38  52  78 110 147 183 218 268 321
#     4  11  18  35  54  76 110 142 174 219 272 312
#     4  10  21  33  54  75 107 144 178 219 269 327
#     4  11  22  32  53  82 110 140 178 224 265 318
#     4  11  23  37  54  75 113 147 178 225 266 320
#
# _framework density 17.76773
#
# number of rings (size 3 to 8) (size 9 to 14) (size 15 to 20)
#    0.000    1.143    4.286    4.286   12.000    0.000 
#    0.000    0.000    0.000    0.000    0.000    2.000 
#    0.000    0.000    0.000    0.000    0.000    0.000 
#
# Total GULP energy -693897.704502 kJ/mol
# GULP energy per Si atom -12391.030438 kJ/mol
# Density = 1.772729 g / cm^3
# Si number density = 17.767730 Si / 1000 Ang^3
#
#
#
# Elastic Constant Matrix: (Units=GPa)
#
#
# Indices 1 2 3 4 5 6 
#
# 1 87.9452 36.2042 35.3164 0.0000 0.0000 0.0000
# 2 36.2042 48.4204 11.4327 0.0000 0.0000 0.0000
# 3 35.3164 11.4327 110.3269 0.0000 0.0000 0.0000
# 4 0.0000 0.0000 0.0000 23.3150 0.0000 0.0000
# 5 0.0000 0.0000 0.0000 0.0000 40.0101 0.0000
# 6 0.0000 0.0000 0.0000 0.0000 0.0000 27.0720
#
#
#
# Elastic Compliance Matrix: (Units=1/GPa)
#
#
# Indices 1 2 3 4 5 6 
#
# 1 0.018444 -0.012708 -0.004587 0.000000 0.000000 0.000000
# 2 -0.012708 0.029926 0.000967 0.000000 0.000000 0.000000
# 3 -0.004587 0.000967 0.010432 0.000000 0.000000 0.000000
# 4 0.000000 0.000000 0.000000 0.042891 0.000000 0.000000
# 5 0.000000 0.000000 0.000000 0.000000 0.024994 0.000000
# 6 0.000000 0.000000 0.000000 0.000000 0.000000 0.036938
#
#
# Mechanical properties :
#
#
# Convention : Reuss Voigt Hill
#
# Bulk Modulus (GPa) = 38.24715 45.84434 42.04575
# Shear Modulus (GPa) = 24.39061 28.99537 26.69299
#
# Velocity S-wave (km/s) = 3.70908 4.04408 3.88019
# Velocity P-wave (km/s) = 6.31791 6.90392 6.61740
#
# Compressibility (1/GPa) = 0.02614574
#
# Stress axis : x y z
#
# Youngs Moduli (GPa) = 54.21766 33.41598 95.85696
#
# Poissons Ratio (x) = 0.42464 0.43972
# Poissons Ratio (y) = 0.68898 -0.09267
# Poissons Ratio (z) = 0.24871 -0.03230
#
# Static dielectric constant tensor:
#      x y z
#    x 3.726960 0.000000 0.000000 
#    y 0.000000 2.819750 0.000000 
#    z 0.000000 0.000000 3.253100 
# 
# 
# High freq. dielectric constant tensor:
#      x y z
#    x 1.696360 0.000000 0.000000 
#    y 0.000000 1.635810 0.000000 
#    z 0.000000 0.000000 1.712790 
# 
# From -- ./inp_files/6168.got.cif
#   From: 2010.03.12/outbox.cif.g09.slc.cpg/sg60_4_cif.got.tgz:6168.got - 2010.04.10 18:46:24.
