data_PCOD8247069
_publ_section_title
;
Structure prediction by ZEFSAII (Michael W. Deem and Ramdas Pophale) SiO2 
 PCOD8247069
Probable space group: P B C N
;
_chemical_formula_sum "Si O2"
_cell_formula_units_Z 52
_cell_length_a 7.292259
_cell_length_b 19.168604
_cell_length_c 18.539791
_cell_angle_alpha 90.000000
_cell_angle_beta 90.000000
_cell_angle_gamma 90.000000
_cell_volume 2591.536946
_symmetry_space_group_name_H-M "P B C N"
_symmetry_group_IT_number 60
_symmetry_cell_setting 'orthorhombic'
loop_
_space_group_symop_operation_xyz
x,y,z
1/2-x,1/2-y,1/2+z
1/2+x,1/2-y,-z
-x,y,1/2-z
-x,-y,-z
1/2+x,1/2+y,1/2-z
1/2-x,1/2+y,z
x,-y,1/2+z
loop_
_atom_site_type_symbol
_atom_site_label
_atom_site_fract_x
_atom_site_fract_y
_atom_site_fract_z
Si Si1 0.594813 0.426069 0.822031
Si Si2 0.956945 0.518564 0.379033
Si Si3 0.500000 0.555469 0.750000
Si Si4 0.331823 0.082512 0.502168
Si Si5 0.641849 0.112773 0.694719
Si Si6 0.506399 0.658688 0.461035
Si Si7 0.134902 0.312680 0.449144
O O1 0.500000 0.392152 0.750000
O O2 0.819115 0.434797 0.828931
O O3 0.522089 0.506542 0.821859
O O4 0.527657 0.376379 0.884088
O O5 0.842737 0.483898 0.445047
O O6 0.111303 0.565285 0.419193
O O7 0.060268 0.461387 0.331093
O O8 0.325116 0.603587 0.759399
O O9 0.122132 0.107500 0.507191
O O10 0.454907 0.145878 0.529370
O O11 0.500000 0.148448 0.750000
O O12 0.689365 0.166271 0.631581
O O13 0.701554 0.666470 0.498048
O O14 0.401919 0.731211 0.452114
#
# Coordination Sequence:
#
# PCOD8247069 Si02
#       7
#     8   8   4   8   8   8   8
#     4  10  22  37  63  94 126 166 203 260 324 386
#     4  10  20  39  61  97 128 157 208 261 336 376
#     4  10  22  40  62  98 122 168 198 258 328 388
#     4  10  22  38  63  94 124 163 205 276 308 376
#     4  11  22  40  63  92 131 160 205 261 323 388
#     4  12  23  43  62  89 126 169 221 260 311 382
#     4  11  25  39  65  90 122 173 216 262 314 371
#
# _framework density 20.065311999999999
#
# number of rings (size 3 to 8) (size 9 to 14) (size 15 to 20)
#    0.462    0.923    4.615    0.923    2.154    1.231 
#    0.000    0.000    3.385    0.000    0.000    0.000 
#    0.000    0.000    0.000    0.000    0.000    0.000 
#
# Total GULP energy -644430.455654 kJ/mol
# GULP energy per Si atom -12392.893378 kJ/mol
# Density = 2.001964 g / cm^3
# Si number density = 20.065312 Si / 1000 Ang^3
#
#
#
# Elastic Constant Matrix: (Units=GPa)
#
#
# Indices 1 2 3 4 5 6 
#
# 1 86.5476 -5.2511 34.9964 0.0000 0.0000 0.0000
# 2 -5.2511 27.6090 18.0798 0.0000 0.0000 0.0000
# 3 34.9964 18.0798 107.0942 0.0000 0.0000 0.0000
# 4 0.0000 0.0000 0.0000 23.5489 0.0000 0.0000
# 5 0.0000 0.0000 0.0000 0.0000 28.2257 0.0000
# 6 0.0000 0.0000 0.0000 0.0000 0.0000 37.6069
#
#
#
# Elastic Compliance Matrix: (Units=1/GPa)
#
#
# Indices 1 2 3 4 5 6 
#
# 1 0.014277 0.006488 -0.005761 0.000000 0.000000 0.000000
# 2 0.006488 0.043670 -0.009493 0.000000 0.000000 0.000000
# 3 -0.005761 -0.009493 0.012823 0.000000 0.000000 0.000000
# 4 0.000000 0.000000 0.000000 0.042465 0.000000 0.000000
# 5 0.000000 0.000000 0.000000 0.000000 0.035429 0.000000
# 6 0.000000 0.000000 0.000000 0.000000 0.000000 0.026591
#
#
# Mechanical properties :
#
#
# Convention : Reuss Voigt Hill
#
# Bulk Modulus (GPa) = 18.78304 35.21121 26.99712
# Shear Modulus (GPa) = 23.74928 29.43800 26.59364
#
# Velocity S-wave (km/s) = 3.44408 3.83444 3.64449
# Velocity P-wave (km/s) = 5.01965 6.09839 5.58512
#
# Compressibility (1/GPa) = 0.05323953
#
# Stress axis : x y z
#
# Youngs Moduli (GPa) = 70.04040 22.89879 77.98666
#
# Poissons Ratio (x) = -0.14857 0.44928
# Poissons Ratio (y) = -0.45443 0.74030
# Poissons Ratio (z) = 0.40350 0.21737
#
# Static dielectric constant tensor:
#      x y z
#    x 3.795300 0.000000 0.000000 
#    y 0.000000 3.533180 0.000000 
#    z 0.000000 0.000000 3.713990 
# 
# 
# High freq. dielectric constant tensor:
#      x y z
#    x 1.794380 0.000000 0.000000 
#    y 0.000000 1.759730 0.000000 
#    z 0.000000 0.000000 1.781700 
# 
# From -- ./inp_files/21650.got.cif
#   From: 2010.03.12/outbox.cif.g09.slc.cpg/sg60_11_cif.got.tgz:21650.got - 2010.04.10 18:46:24.
