data_PCOD8247274
_publ_section_title
;
Structure prediction by ZEFSAII (Michael W. Deem and Ramdas Pophale) SiO2 
 PCOD8247274
Probable space group: P B C N
;
_chemical_formula_sum "Si O2"
_cell_formula_units_Z 64
_cell_length_a 28.415458
_cell_length_b 13.573051
_cell_length_c 8.827557
_cell_angle_alpha 90.000000
_cell_angle_beta 90.000000
_cell_angle_gamma 90.000000
_cell_volume 3404.651560
_symmetry_space_group_name_H-M "P B C N"
_symmetry_group_IT_number 60
_symmetry_cell_setting 'orthorhombic'
loop_
_space_group_symop_operation_xyz
x,y,z
1/2-x,1/2-y,1/2+z
1/2+x,1/2-y,-z
-x,y,1/2-z
-x,-y,-z
1/2+x,1/2+y,1/2-z
1/2-x,1/2+y,z
x,-y,1/2+z
loop_
_atom_site_type_symbol
_atom_site_label
_atom_site_fract_x
_atom_site_fract_y
_atom_site_fract_z
Si Si1 0.313353 0.888650 0.847749
Si Si2 0.715199 0.705176 0.100143
Si Si3 0.879180 0.220026 0.601659
Si Si4 0.941239 0.078562 0.118188
Si Si5 0.958599 0.120401 0.456442
Si Si6 0.286740 0.917831 0.510870
Si Si7 0.141174 0.885311 0.100867
Si Si8 0.183301 0.090129 0.110405
O O1 0.269570 0.824460 0.906412
O O2 0.360723 0.832121 0.899430
O O3 0.313812 0.897472 0.666790
O O4 0.313158 0.995772 0.922273
O O5 0.690480 0.662757 0.249141
O O6 0.711614 0.823220 0.098972
O O7 0.689986 0.664252 0.950156
O O8 0.930268 0.215618 0.519448
O O9 0.883468 0.179544 0.771462
O O10 0.843002 0.147303 0.520683
O O11 0.935219 0.086161 0.298486
O O12 0.986153 0.144293 0.063511
O O13 0.893991 0.116604 0.041565
O O14 0.951641 0.965224 0.080037
O O15 0.232946 0.948145 0.544354
O O16 0.152751 0.995264 0.160513
#
# Coordination Sequence:
#
# PCOD8247274 Si02
#       8
#     8   8   8   8   8   8   8   8
#     4  11  25  39  59  83 115 158 202 250 296 342
#     4  11  23  39  56  82 119 158 204 242 289 348
#     4  12  23  36  56  88 118 153 202 239 291 359
#     4  10  21  37  57  84 119 159 189 234 293 361
#     4  10  21  37  57  84 120 155 192 233 295 361
#     4  11  24  41  58  79 115 160 205 254 293 338
#     4  12  22  37  56  88 120 155 199 237 292 351
#     4  11  23  34  58  82 116 165 196 242 289 348
#
# _framework density 18.797812
#
# number of rings (size 3 to 8) (size 9 to 14) (size 15 to 20)
#    0.000    1.000    5.000    2.250    3.500    1.500 
#    0.000    0.000    0.000    0.000    0.000    0.875 
#    0.000    0.000    0.000    0.000    0.000    0.000 
#
# Total GULP energy -793802.211432 kJ/mol
# GULP energy per Si atom -12403.159554 kJ/mol
# Density = 1.875503 g / cm^3
# Si number density = 18.797812 Si / 1000 Ang^3
#
#
#
# Elastic Constant Matrix: (Units=GPa)
#
#
# Indices 1 2 3 4 5 6 
#
# 1 76.6542 40.6396 24.3440 0.0000 0.0000 0.0000
# 2 40.6396 122.4054 34.6475 0.0000 0.0000 0.0000
# 3 24.3440 34.6475 77.8436 0.0000 0.0000 0.0000
# 4 0.0000 0.0000 0.0000 19.4268 0.0000 0.0000
# 5 0.0000 0.0000 0.0000 0.0000 29.3397 0.0000
# 6 0.0000 0.0000 0.0000 0.0000 0.0000 30.6525
#
#
#
# Elastic Compliance Matrix: (Units=1/GPa)
#
#
# Indices 1 2 3 4 5 6 
#
# 1 0.016464 -0.004587 -0.003107 0.000000 0.000000 0.000000
# 2 -0.004587 0.010625 -0.003295 0.000000 0.000000 0.000000
# 3 -0.003107 -0.003295 0.015284 0.000000 0.000000 0.000000
# 4 0.000000 0.000000 0.000000 0.051475 0.000000 0.000000
# 5 0.000000 0.000000 0.000000 0.000000 0.034084 0.000000
# 6 0.000000 0.000000 0.000000 0.000000 0.000000 0.032624
#
#
# Mechanical properties :
#
#
# Convention : Reuss Voigt Hill
#
# Bulk Modulus (GPa) = 49.02881 52.90725 50.96803
# Shear Modulus (GPa) = 26.40859 27.70193 27.05526
#
# Velocity S-wave (km/s) = 3.75223 3.84302 3.79790
# Velocity P-wave (km/s) = 6.70158 6.92085 6.81210
#
# Compressibility (1/GPa) = 0.02039617
#
# Stress axis : x y z
#
# Youngs Moduli (GPa) = 60.73803 94.11789 65.42588
#
# Poissons Ratio (x) = 0.43169 0.20330
# Poissons Ratio (y) = 0.27859 0.21556
# Poissons Ratio (z) = 0.18873 0.31009
#
# Static dielectric constant tensor:
#      x y z
#    x 3.561630 0.000000 0.000000 
#    y 0.000000 3.316890 0.000000 
#    z 0.000000 0.000000 3.512520 
# 
# 
# High freq. dielectric constant tensor:
#      x y z
#    x 1.718060 0.000000 0.000000 
#    y 0.000000 1.698400 0.000000 
#    z 0.000000 0.000000 1.746660 
# 
# From -- ./inp_files/8507.got.cif
#   From: 2010.03.12/outbox.cif.g09.slc.cpg/sg60_5_cif.got.tgz:8507.got - 2010.04.10 18:46:24.
