data_PCOD8247349
_publ_section_title
;
Structure prediction by ZEFSAII (Michael W. Deem and Ramdas Pophale) SiO2 
 PCOD8247349
Probable space group: P B C N
;
_chemical_formula_sum "Si O2"
_cell_formula_units_Z 56
_cell_length_a 8.335833
_cell_length_b 14.135517
_cell_length_c 22.285358
_cell_angle_alpha 90.000000
_cell_angle_beta 90.000000
_cell_angle_gamma 90.000000
_cell_volume 2625.912906
_symmetry_space_group_name_H-M "P B C N"
_symmetry_group_IT_number 60
_symmetry_cell_setting 'orthorhombic'
loop_
_space_group_symop_operation_xyz
x,y,z
1/2-x,1/2-y,1/2+z
1/2+x,1/2-y,-z
-x,y,1/2-z
-x,-y,-z
1/2+x,1/2+y,1/2-z
1/2-x,1/2+y,z
x,-y,1/2+z
loop_
_atom_site_type_symbol
_atom_site_label
_atom_site_fract_x
_atom_site_fract_y
_atom_site_fract_z
Si Si1 0.680964 0.458450 0.772496
Si Si2 0.523415 0.092515 0.570405
Si Si3 0.291519 0.921723 0.546473
Si Si4 0.934030 0.957909 0.390507
Si Si5 0.750064 0.781376 0.399552
Si Si6 0.813239 0.255635 0.264140
Si Si7 0.248562 0.591157 0.824052
O O1 0.500000 0.469131 0.750000
O O2 0.687724 0.500911 0.839489
O O3 0.744440 0.352268 0.767006
O O4 0.795283 0.517954 0.728613
O O5 0.670169 0.099616 0.523132
O O6 0.402417 0.181320 0.561598
O O7 0.592884 0.105317 0.636466
O O8 0.431676 0.992523 0.568259
O O9 0.298178 0.824263 0.583337
O O10 0.113448 0.969572 0.554760
O O11 0.896959 0.852044 0.412968
O O12 0.114648 0.954840 0.366812
O O13 0.718800 0.797596 0.329325
O O14 0.711628 0.310427 0.211686
O O15 0.000000 0.263906 0.250000
#
# Coordination Sequence:
#
# PCOD8247349 Si02
#       7
#     8   8   8   8   8   8   8
#     4   9  19  34  55  88 124 161 199 251 315 382
#     4  10  24  43  65  92 126 170 222 265 317 395
#     4  10  23  45  64  87 126 176 219 264 325 381
#     4  10  21  38  62  92 127 166 210 266 320 379
#     4  11  21  39  66  90 126 171 211 266 328 381
#     4  11  20  35  61  92 126 169 206 259 327 384
#     4  11  22  37  61  96 129 161 213 266 318 389
#
# _framework density 21.325917
#
# number of rings (size 3 to 8) (size 9 to 14) (size 15 to 20)
#    0.000    1.714    4.286    0.000    0.000    2.857 
#    0.000    5.714    0.000    0.000    0.000    0.000 
#    0.000    0.000    0.000    0.000    0.000    0.000 
#
# Total GULP energy -693845.436585 kJ/mol
# GULP energy per Si atom -12390.097082 kJ/mol
# Density = 2.127738 g / cm^3
# Si number density = 21.325917 Si / 1000 Ang^3
#
#
#
# Elastic Constant Matrix: (Units=GPa)
#
#
# Indices 1 2 3 4 5 6 
#
# 1 42.6859 18.8192 23.2059 0.0000 0.0000 0.0000
# 2 18.8192 133.6974 24.4327 0.0000 0.0000 0.0000
# 3 23.2059 24.4327 72.6203 0.0000 0.0000 0.0000
# 4 0.0000 0.0000 0.0000 21.9170 0.0000 0.0000
# 5 0.0000 0.0000 0.0000 0.0000 31.6954 0.0000
# 6 0.0000 0.0000 0.0000 0.0000 0.0000 19.5962
#
#
#
# Elastic Compliance Matrix: (Units=1/GPa)
#
#
# Indices 1 2 3 4 5 6 
#
# 1 0.029151 -0.002558 -0.008455 0.000000 0.000000 0.000000
# 2 -0.002558 0.008194 -0.001939 0.000000 0.000000 0.000000
# 3 -0.008455 -0.001939 0.017124 0.000000 0.000000 0.000000
# 4 0.000000 0.000000 0.000000 0.045627 0.000000 0.000000
# 5 0.000000 0.000000 0.000000 0.000000 0.031550 0.000000
# 6 0.000000 0.000000 0.000000 0.000000 0.000000 0.051030
#
#
# Mechanical properties :
#
#
# Convention : Reuss Voigt Hill
#
# Bulk Modulus (GPa) = 35.00759 42.43546 38.72153
# Shear Modulus (GPa) = 22.92496 26.81144 24.86820
#
# Velocity S-wave (km/s) = 3.28225 3.54958 3.41853
# Velocity P-wave (km/s) = 5.55116 6.06144 5.81190
#
# Compressibility (1/GPa) = 0.02856523
#
# Stress axis : x y z
#
# Youngs Moduli (GPa) = 34.30406 122.03920 58.39624
#
# Poissons Ratio (x) = 0.31221 0.49371
# Poissons Ratio (y) = 0.08776 0.11325
# Poissons Ratio (z) = 0.29002 0.23668
#
# Static dielectric constant tensor:
#      x y z
#    x 3.479860 0.000000 0.000000 
#    y 0.000000 3.939340 0.000000 
#    z 0.000000 0.000000 4.016650 
# 
# 
# High freq. dielectric constant tensor:
#      x y z
#    x 1.808190 0.000000 0.000000 
#    y 0.000000 1.844850 0.000000 
#    z 0.000000 0.000000 1.839940 
# 
# From -- ./inp_files/22193.got.cif
#   From: 2010.03.12/outbox.cif.g09.slc.cpg/sg60_12_cif.got.tgz:22193.got - 2010.04.10 18:46:24.
