data_PCOD8247461
_publ_section_title
;
Structure prediction by ZEFSAII (Michael W. Deem and Ramdas Pophale) SiO2 
 PCOD8247461
Probable space group: P B C N
;
_chemical_formula_sum "Si O2"
_cell_formula_units_Z 48
_cell_length_a 16.407879
_cell_length_b 9.681533
_cell_length_c 15.293060
_cell_angle_alpha 90.000000
_cell_angle_beta 90.000000
_cell_angle_gamma 90.000000
_cell_volume 2429.354914
_symmetry_space_group_name_H-M "P B C N"
_symmetry_group_IT_number 60
_symmetry_cell_setting 'orthorhombic'
loop_
_space_group_symop_operation_xyz
x,y,z
1/2-x,1/2-y,1/2+z
1/2+x,1/2-y,-z
-x,y,1/2-z
-x,-y,-z
1/2+x,1/2+y,1/2-z
1/2-x,1/2+y,z
x,-y,1/2+z
loop_
_atom_site_type_symbol
_atom_site_label
_atom_site_fract_x
_atom_site_fract_y
_atom_site_fract_z
Si Si1 0.581798 0.918744 0.495711
Si Si2 0.342881 0.375226 0.329731
Si Si3 0.803228 0.527664 0.354800
Si Si4 0.010417 0.859047 0.450489
Si Si5 0.838927 0.165127 0.867575
Si Si6 0.798179 0.569495 0.153694
O O1 0.621384 0.957792 0.403561
O O2 0.557871 0.756850 0.493265
O O3 0.635580 0.967688 0.579490
O O4 0.500000 0.000000 0.500000
O O5 0.433158 0.382990 0.367173
O O6 0.363249 0.383424 0.228349
O O7 0.289579 0.502167 0.368529
O O8 0.291555 0.235255 0.347587
O O9 0.723885 0.453670 0.397392
O O10 0.791832 0.689519 0.373203
O O11 0.819979 0.508011 0.250434
O O12 0.919641 0.813759 0.424477
O O13 0.000000 0.000000 0.500000
#
# Coordination Sequence:
#
# PCOD8247461 Si02
#       6
#     8   8   8   8   8   8
#     4  11  23  40  61  89 121 161 205 248 308 361
#     4   9  20  40  62  87 117 161 201 246 303 360
#     4  10  22  39  64  89 119 159 203 251 303 364
#     4  11  24  38  59  91 123 159 201 253 307 362
#     4  10  21  40  63  85 120 160 203 247 303 366
#     4   9  21  38  62  89 119 157 202 248 300 364
#
# _framework density 19.758333
#
# number of rings (size 3 to 8) (size 9 to 14) (size 15 to 20)
#    0.000    2.000    1.667    0.500    4.667    3.333 
#    0.000    0.000    3.667    0.000    0.000    0.000 
#    0.000    0.000    0.000    0.000    0.000    0.000 
#
# Total GULP energy -594825.170193 kJ/mol
# GULP energy per Si atom -12392.191046 kJ/mol
# Density = 1.971336 g / cm^3
# Si number density = 19.758333 Si / 1000 Ang^3
#
#
#
# Elastic Constant Matrix: (Units=GPa)
#
#
# Indices 1 2 3 4 5 6 
#
# 1 91.8500 39.9198 22.0007 0.0000 0.0000 0.0000
# 2 39.9198 99.6041 28.7686 0.0000 0.0000 0.0000
# 3 22.0007 28.7686 52.6262 0.0000 0.0000 0.0000
# 4 0.0000 0.0000 0.0000 29.0967 0.0000 0.0000
# 5 0.0000 0.0000 0.0000 0.0000 37.3601 0.0000
# 6 0.0000 0.0000 0.0000 0.0000 0.0000 43.9804
#
#
#
# Elastic Compliance Matrix: (Units=1/GPa)
#
#
# Indices 1 2 3 4 5 6 
#
# 1 0.013628 -0.004532 -0.003220 0.000000 0.000000 0.000000
# 2 -0.004532 0.013429 -0.005447 0.000000 0.000000 0.000000
# 3 -0.003220 -0.005447 0.023325 0.000000 0.000000 0.000000
# 4 0.000000 0.000000 0.000000 0.034368 0.000000 0.000000
# 5 0.000000 0.000000 0.000000 0.000000 0.026767 0.000000
# 6 0.000000 0.000000 0.000000 0.000000 0.000000 0.022737
#
#
# Mechanical properties :
#
#
# Convention : Reuss Voigt Hill
#
# Bulk Modulus (GPa) = 41.69104 47.27316 44.48210
# Shear Modulus (GPa) = 29.64766 32.31351 30.98059
#
# Velocity S-wave (km/s) = 3.87785 4.04844 3.96406
# Velocity P-wave (km/s) = 6.41846 6.76984 6.59649
#
# Compressibility (1/GPa) = 0.02398597
#
# Stress axis : x y z
#
# Youngs Moduli (GPa) = 73.37682 74.46438 42.87160
#
# Poissons Ratio (x) = 0.33747 0.13804
# Poissons Ratio (y) = 0.33254 0.23350
# Poissons Ratio (z) = 0.23627 0.40558
#
# Static dielectric constant tensor:
#      x y z
#    x 4.163050 0.000000 0.000000 
#    y 0.000000 3.814590 0.000000 
#    z 0.000000 0.000000 4.110910 
# 
# 
# High freq. dielectric constant tensor:
#      x y z
#    x 1.771440 0.000000 0.000000 
#    y 0.000000 1.776750 0.000000 
#    z 0.000000 0.000000 1.767280 
# 
# From -- ./inp_files/17343.got.cif
#   From: 2010.03.12/outbox.cif.g09.slc.cpg/sg60_9_cif.got.tgz:17343.got - 2010.04.10 18:46:24.
