data_PCOD8247802
_publ_section_title
;
Structure prediction by ZEFSAII (Michael W. Deem and Ramdas Pophale) SiO2 
 PCOD8247802
Probable space group: P B C N
;
_chemical_formula_sum "Si O2"
_cell_formula_units_Z 64
_cell_length_a 21.442985
_cell_length_b 9.071092
_cell_length_c 15.699193
_cell_angle_alpha 90.000000
_cell_angle_beta 90.000000
_cell_angle_gamma 90.000000
_cell_volume 3053.670278
_symmetry_space_group_name_H-M "P B C N"
_symmetry_group_IT_number 60
_symmetry_cell_setting 'orthorhombic'
loop_
_space_group_symop_operation_xyz
x,y,z
1/2-x,1/2-y,1/2+z
1/2+x,1/2-y,-z
-x,y,1/2-z
-x,-y,-z
1/2+x,1/2+y,1/2-z
1/2-x,1/2+y,z
x,-y,1/2+z
loop_
_atom_site_type_symbol
_atom_site_label
_atom_site_fract_x
_atom_site_fract_y
_atom_site_fract_z
Si Si1 0.559652 0.313214 0.432845
Si Si2 0.421038 0.767631 0.910974
Si Si3 0.847880 0.975219 0.013088
Si Si4 0.842164 0.163042 0.168113
Si Si5 0.878794 0.582339 0.545114
Si Si6 0.384528 0.390743 0.246610
Si Si7 0.744351 0.724457 0.802172
Si Si8 0.724843 0.981945 0.918924
O O1 0.485923 0.299820 0.443366
O O2 0.587592 0.440987 0.492199
O O3 0.587810 0.157517 0.464242
O O4 0.576645 0.356959 0.337131
O O5 0.411332 0.728141 0.812600
O O6 0.418651 0.943029 0.923307
O O7 0.365417 0.692719 0.965249
O O8 0.799389 0.978158 0.935931
O O9 0.815791 0.058840 0.092771
O O10 0.872804 0.309336 0.126495
O O11 0.784855 0.208966 0.226737
O O12 0.892533 0.061670 0.220712
O O13 0.811955 0.528951 0.508059
O O14 0.309911 0.375779 0.237146
O O15 0.708399 0.847549 0.856873
O O16 0.788847 0.631174 0.866240
#
# Coordination Sequence:
#
# PCOD8247802 Si02
#       8
#     8   8   8   8   8   8   8   8
#     4  11  21  46  63  90 127 172 219 267 313 383
#     4  11  25  38  68  92 127 172 219 264 324 374
#     4  10  22  42  63  94 124 168 219 262 314 389
#     4  10  24  39  62  93 130 164 211 263 324 388
#     4  11  25  40  65  98 131 163 210 277 327 381
#     4  11  23  41  61  91 124 176 217 257 318 389
#     4  12  22  39  59  91 128 167 201 259 323 384
#     4  12  23  39  63  91 131 164 208 260 328 384
#
# _framework density 20.958386000000001
#
# number of rings (size 3 to 8) (size 9 to 14) (size 15 to 20)
#    0.000    1.000    3.750    2.625    7.000    0.000 
#    0.000    0.000    0.000    7.500    0.000    0.000 
#    0.000    0.000    0.000    0.000    0.000    0.000 
#
# Total GULP energy -793502.962338 kJ/mol
# GULP energy per Si atom -12398.483787 kJ/mol
# Density = 2.091068 g / cm^3
# Si number density = 20.958386 Si / 1000 Ang^3
#
#
#
# Elastic Constant Matrix: (Units=GPa)
#
#
# Indices 1 2 3 4 5 6 
#
# 1 74.8563 31.3636 35.0712 0.0000 0.0000 0.0000
# 2 31.3636 107.7570 53.9686 0.0000 0.0000 0.0000
# 3 35.0712 53.9686 104.0765 0.0000 0.0000 0.0000
# 4 0.0000 0.0000 0.0000 29.9241 0.0000 0.0000
# 5 0.0000 0.0000 0.0000 0.0000 18.6223 0.0000
# 6 0.0000 0.0000 0.0000 0.0000 0.0000 24.2134
#
#
#
# Elastic Compliance Matrix: (Units=1/GPa)
#
#
# Indices 1 2 3 4 5 6 
#
# 1 0.016431 -0.002714 -0.004129 0.000000 0.000000 0.000000
# 2 -0.002714 0.012984 -0.005818 0.000000 0.000000 0.000000
# 3 -0.004129 -0.005818 0.014017 0.000000 0.000000 0.000000
# 4 0.000000 0.000000 0.000000 0.033418 0.000000 0.000000
# 5 0.000000 0.000000 0.000000 0.000000 0.053699 0.000000
# 6 0.000000 0.000000 0.000000 0.000000 0.000000 0.041299
#
#
# Mechanical properties :
#
#
# Convention : Reuss Voigt Hill
#
# Bulk Modulus (GPa) = 55.22370 58.61074 56.91722
# Shear Modulus (GPa) = 24.60534 25.63772 25.12153
#
# Velocity S-wave (km/s) = 3.43010 3.50132 3.46589
# Velocity P-wave (km/s) = 6.48798 6.66120 6.57516
#
# Compressibility (1/GPa) = 0.01810817
#
# Stress axis : x y z
#
# Youngs Moduli (GPa) = 60.86138 77.01710 71.34265
#
# Poissons Ratio (x) = 0.20904 0.29460
# Poissons Ratio (y) = 0.16519 0.41509
# Poissons Ratio (z) = 0.25132 0.44811
#
# Static dielectric constant tensor:
#      x y z
#    x 3.517190 0.000000 0.000000 
#    y 0.000000 3.892960 0.000000 
#    z 0.000000 0.000000 3.848780 
# 
# 
# High freq. dielectric constant tensor:
#      x y z
#    x 1.794630 0.000000 0.000000 
#    y 0.000000 1.831390 0.000000 
#    z 0.000000 0.000000 1.831930 
# 
# From -- ./inp_files/17939.got.cif
#   From: 2010.03.12/outbox.cif.g09.slc.cpg/sg60_9_cif.got.tgz:17939.got - 2010.04.10 18:46:24.
