data_PCOD8247210
_publ_section_title
;
Structure prediction by ZEFSAII (Michael W. Deem and Ramdas Pophale) SiO2 
 PCOD8247210
Probable space group: P B C N
;
_chemical_formula_sum "Si O2"
_cell_formula_units_Z 40
_cell_length_a 8.770672
_cell_length_b 14.743427
_cell_length_c 14.241348
_cell_angle_alpha 90.000000
_cell_angle_beta 90.000000
_cell_angle_gamma 90.000000
_cell_volume 1841.545326
_symmetry_space_group_name_H-M "P B C N"
_symmetry_group_IT_number 60
_symmetry_cell_setting 'orthorhombic'
loop_
_space_group_symop_operation_xyz
x,y,z
1/2-x,1/2-y,1/2+z
1/2+x,1/2-y,-z
-x,y,1/2-z
-x,-y,-z
1/2+x,1/2+y,1/2-z
1/2-x,1/2+y,z
x,-y,1/2+z
loop_
_atom_site_type_symbol
_atom_site_label
_atom_site_fract_x
_atom_site_fract_y
_atom_site_fract_z
Si Si1 0.500000 0.121866 0.750000
Si Si2 0.000000 0.891523 0.250000
Si Si3 0.232270 0.245161 0.708170
Si Si4 0.652647 0.822812 0.972784
Si Si5 0.258018 0.033569 0.879489
Si Si6 0.692734 0.171773 0.086139
O O1 0.389450 0.191239 0.696596
O O2 0.410487 0.056410 0.820806
O O3 0.102038 0.828084 0.182817
O O4 0.106800 0.950344 0.318164
O O5 0.226860 0.325012 0.631503
O O6 0.195875 0.283942 0.810909
O O7 0.471596 0.830593 0.963040
O O8 0.733298 0.904920 0.027598
O O9 0.689923 0.727838 0.022926
O O10 0.249019 0.930338 0.909568
#
# Coordination Sequence:
#
# PCOD8247210 Si02
#       6
#     4   4   8   8   8   8
#     4  10  22  42  72  98 140 186 236 288 348 438
#     4  10  20  48  68  98 144 182 236 292 348 426
#     4  11  22  44  73  97 143 191 226 298 365 412
#     4  12  23  46  71 103 143 187 239 294 348 432
#     4  11  25  45  71 107 139 184 246 287 359 426
#     4  12  26  46  70 106 143 187 239 292 366 417
#
# _framework density 21.720889
#
# number of rings (size 3 to 8) (size 9 to 14) (size 15 to 20)
#    0.000    0.800    6.000    1.800    2.800    0.800 
#    3.600    2.000    0.000    0.000    0.000    0.000 
#    0.000    0.000    0.000    0.000    0.000    0.000 
#
# Total GULP energy -495935.327795 kJ/mol
# GULP energy per Si atom -12398.383195 kJ/mol
# Density = 2.167145 g / cm^3
# Si number density = 21.720889 Si / 1000 Ang^3
#
#
#
# Elastic Constant Matrix: (Units=GPa)
#
#
# Indices 1 2 3 4 5 6 
#
# 1 128.7513 55.0804 49.0396 0.0000 0.0000 0.0000
# 2 55.0804 127.6138 32.8389 0.0000 0.0000 0.0000
# 3 49.0396 32.8389 118.0755 0.0000 0.0000 0.0000
# 4 0.0000 0.0000 0.0000 11.6584 0.0000 0.0000
# 5 0.0000 0.0000 0.0000 0.0000 30.4212 0.0000
# 6 0.0000 0.0000 0.0000 0.0000 0.0000 20.1932
#
#
#
# Elastic Compliance Matrix: (Units=1/GPa)
#
#
# Indices 1 2 3 4 5 6 
#
# 1 0.010651 -0.003725 -0.003387 0.000000 0.000000 0.000000
# 2 -0.003725 0.009743 -0.001163 0.000000 0.000000 0.000000
# 3 -0.003387 -0.001163 0.010199 0.000000 0.000000 0.000000
# 4 0.000000 0.000000 0.000000 0.085775 0.000000 0.000000
# 5 0.000000 0.000000 0.000000 0.000000 0.032872 0.000000
# 6 0.000000 0.000000 0.000000 0.000000 0.000000 0.049522
#
#
# Mechanical properties :
#
#
# Convention : Reuss Voigt Hill
#
# Bulk Modulus (GPa) = 71.21130 72.03982 71.62556
# Shear Modulus (GPa) = 22.72794 28.28666 25.50730
#
# Velocity S-wave (km/s) = 3.23826 3.61263 3.43055
# Velocity P-wave (km/s) = 6.84381 7.11615 6.98131
#
# Compressibility (1/GPa) = 0.01404272
#
# Stress axis : x y z
#
# Youngs Moduli (GPa) = 93.88865 102.63507 98.04523
#
# Poissons Ratio (x) = 0.38236 0.33213
# Poissons Ratio (y) = 0.34978 0.11398
# Poissons Ratio (z) = 0.31805 0.11931
#
# Static dielectric constant tensor:
#      x y z
#    x 4.135580 0.000000 0.000000 
#    y 0.000000 3.918710 0.000000 
#    z 0.000000 0.000000 4.052300 
# 
# 
# High freq. dielectric constant tensor:
#      x y z
#    x 1.865120 0.000000 0.000000 
#    y 0.000000 1.847680 0.000000 
#    z 0.000000 0.000000 1.861770 
# 
# From -- ./inp_files/14727.got.cif
#   From: 2010.03.12/outbox.cif.g09.slc.cpg/sg60_8_cif.got.tgz:14727.got - 2010.04.10 18:46:24.
