data_PCOD8247610
_publ_section_title
;
Structure prediction by ZEFSAII (Michael W. Deem and Ramdas Pophale) SiO2 
 PCOD8247610
Probable space group: P B C N
;
_chemical_formula_sum "Si O2"
_cell_formula_units_Z 60
_cell_length_a 15.579703
_cell_length_b 9.045833
_cell_length_c 20.944677
_cell_angle_alpha 90.000000
_cell_angle_beta 90.000000
_cell_angle_gamma 90.000000
_cell_volume 2951.762475
_symmetry_space_group_name_H-M "P B C N"
_symmetry_group_IT_number 60
_symmetry_cell_setting 'orthorhombic'
loop_
_space_group_symop_operation_xyz
x,y,z
1/2-x,1/2-y,1/2+z
1/2+x,1/2-y,-z
-x,y,1/2-z
-x,-y,-z
1/2+x,1/2+y,1/2-z
1/2-x,1/2+y,z
x,-y,1/2+z
loop_
_atom_site_type_symbol
_atom_site_label
_atom_site_fract_x
_atom_site_fract_y
_atom_site_fract_z
Si Si1 0.518758 0.914831 0.680578
Si Si2 0.039204 0.583217 0.559709
Si Si3 0.500000 0.632864 0.750000
Si Si4 0.286807 0.802182 0.004878
Si Si5 0.855161 0.006925 0.685392
Si Si6 0.200057 0.327463 0.856123
Si Si7 0.019623 0.096612 0.416158
Si Si8 0.140177 0.003530 0.527003
O O1 0.500000 0.992124 0.750000
O O2 0.496839 0.739272 0.686807
O O3 0.619203 0.928312 0.663333
O O4 0.462201 0.986049 0.624366
O O5 0.136692 0.620397 0.543127
O O6 0.000000 0.500000 0.500000
O O7 0.982405 0.729155 0.569931
O O8 0.408055 0.544340 0.749356
O O9 0.282364 0.852491 0.930972
O O10 0.292549 0.627093 0.012247
O O11 0.196836 0.850228 0.037514
O O12 0.780222 0.884307 0.687362
O O13 0.936952 0.936024 0.650308
O O14 0.813748 0.154265 0.655764
O O15 0.922216 0.031442 0.413411
O O16 0.076978 0.011538 0.467293
#
# Coordination Sequence:
#
# PCOD8247610 Si02
#       8
#     8   8   4   8   8   8   8   8
#     4   9  21  42  63  88 133 176 221 272 347 405
#     4  11  23  36  64 100 129 177 225 285 344 404
#     4   8  22  44  66  88 126 188 214 282 342 418
#     4  11  20  36  56  95 129 164 224 270 336 381
#     4  11  22  41  67  97 127 173 232 271 345 394
#     4  11  20  35  66  95 120 163 223 285 318 407
#     4  10  22  37  60  92 137 172 209 276 349 395
#     4  10  22  36  56  90 134 174 203 268 338 404
#
# _framework density 20.326837999999999
#
# number of rings (size 3 to 8) (size 9 to 14) (size 15 to 20)
#    0.400    1.333    4.000    0.000    3.733    0.000 
#    1.200    1.333    2.933    0.000    0.000    0.000 
#    0.000    0.000    0.000    0.000    0.000    0.000 
#
# Total GULP energy -743422.464978 kJ/mol
# GULP energy per Si atom -12390.374416 kJ/mol
# Density = 2.028057 g / cm^3
# Si number density = 20.326838 Si / 1000 Ang^3
#
#
#
# Elastic Constant Matrix: (Units=GPa)
#
#
# Indices 1 2 3 4 5 6 
#
# 1 123.4964 55.4677 28.2767 0.0000 0.0000 0.0000
# 2 55.4677 95.4564 24.3105 0.0000 0.0000 0.0000
# 3 28.2767 24.3105 69.6154 0.0000 0.0000 0.0000
# 4 0.0000 0.0000 0.0000 21.4638 0.0000 0.0000
# 5 0.0000 0.0000 0.0000 0.0000 28.5199 0.0000
# 6 0.0000 0.0000 0.0000 0.0000 0.0000 44.9212
#
#
#
# Elastic Compliance Matrix: (Units=1/GPa)
#
#
# Indices 1 2 3 4 5 6 
#
# 1 0.011350 -0.005950 -0.002532 0.000000 0.000000 0.000000
# 2 -0.005950 0.014618 -0.002688 0.000000 0.000000 0.000000
# 3 -0.002532 -0.002688 0.016332 0.000000 0.000000 0.000000
# 4 0.000000 0.000000 0.000000 0.046590 0.000000 0.000000
# 5 0.000000 0.000000 0.000000 0.000000 0.035063 0.000000
# 6 0.000000 0.000000 0.000000 0.000000 0.000000 0.022261
#
#
# Mechanical properties :
#
#
# Convention : Reuss Voigt Hill
#
# Bulk Modulus (GPa) = 50.10275 56.07534 53.08905
# Shear Modulus (GPa) = 28.53754 31.01518 29.77636
#
# Velocity S-wave (km/s) = 3.75098 3.91042 3.83153
# Velocity P-wave (km/s) = 6.59256 6.93074 6.76377
#
# Compressibility (1/GPa) = 0.01995898
#
# Stress axis : x y z
#
# Youngs Moduli (GPa) = 88.10817 68.40854 61.23015
#
# Poissons Ratio (x) = 0.40704 0.15505
# Poissons Ratio (y) = 0.52426 0.16458
# Poissons Ratio (z) = 0.22311 0.18388
#
# Static dielectric constant tensor:
#      x y z
#    x 3.867340 0.000000 0.000000 
#    y 0.000000 3.725600 0.000000 
#    z 0.000000 0.000000 3.557960 
# 
# 
# High freq. dielectric constant tensor:
#      x y z
#    x 1.803660 0.000000 0.000000 
#    y 0.000000 1.795570 0.000000 
#    z 0.000000 0.000000 1.760570 
# 
# From -- ./inp_files/24402.got.cif
#   From: 2010.03.12/outbox.cif.g09.slc.cpg/sg60_13_cif.got.tgz:24402.got - 2010.04.10 18:46:24.
