data_PCOD8247703
_publ_section_title
;
Structure prediction by ZEFSAII (Michael W. Deem and Ramdas Pophale) SiO2 
 PCOD8247703
Probable space group: P B C N
;
_chemical_formula_sum "Si O2"
_cell_formula_units_Z 48
_cell_length_a 8.163425
_cell_length_b 15.170142
_cell_length_c 17.698681
_cell_angle_alpha 90.000000
_cell_angle_beta 90.000000
_cell_angle_gamma 90.000000
_cell_volume 2191.810256
_symmetry_space_group_name_H-M "P B C N"
_symmetry_group_IT_number 60
_symmetry_cell_setting 'orthorhombic'
loop_
_space_group_symop_operation_xyz
x,y,z
1/2-x,1/2-y,1/2+z
1/2+x,1/2-y,-z
-x,y,1/2-z
-x,-y,-z
1/2+x,1/2+y,1/2-z
1/2-x,1/2+y,z
x,-y,1/2+z
loop_
_atom_site_type_symbol
_atom_site_label
_atom_site_fract_x
_atom_site_fract_y
_atom_site_fract_z
Si Si1 0.327860 0.464558 0.785794
Si Si2 0.644805 0.807919 0.056225
Si Si3 0.680663 0.272341 0.717645
Si Si4 0.663845 0.378984 0.298308
Si Si5 0.831419 0.986488 0.044149
Si Si6 0.769892 0.648180 0.960651
O O1 0.500000 0.437486 0.750000
O O2 0.237134 0.369605 0.790135
O O3 0.229027 0.536924 0.733581
O O4 0.360273 0.506245 0.867287
O O5 0.702667 0.777911 0.138574
O O6 0.746380 0.892602 0.027225
O O7 0.452291 0.826508 0.063300
O O8 0.674159 0.729908 0.996970
O O9 0.500000 0.273456 0.750000
O O10 0.779903 0.218708 0.779822
O O11 0.500000 0.398269 0.250000
O O12 0.658620 0.382955 0.389003
O O13 0.713742 0.066095 0.017669
O O14 0.000000 0.000000 0.000000
#
# Coordination Sequence:
#
# PCOD8247703 Si02
#       6
#     8   8   8   8   8   8
#     4  10  22  39  67  96 128 174 226 275 339 418
#     4  12  26  44  71 102 142 184 234 294 353 426
#     4  11  22  44  70  95 134 181 230 283 349 415
#     4  11  24  43  68  99 134 179 233 288 349 415
#     4  12  24  43  70 100 138 183 227 290 357 418
#     4  12  27  44  68 105 141 184 239 288 360 419
#
# _framework density 21.899705000000001
#
# number of rings (size 3 to 8) (size 9 to 14) (size 15 to 20)
#    0.000    0.667    5.000    3.500    2.333    1.333 
#    0.000    2.500    0.000    0.000    0.000    0.000 
#    0.000    0.000    0.000    0.000    0.000    0.000 
#
# Total GULP energy -594860.634797 kJ/mol
# GULP energy per Si atom -12392.929892 kJ/mol
# Density = 2.184986 g / cm^3
# Si number density = 21.899705 Si / 1000 Ang^3
#
#
#
# Elastic Constant Matrix: (Units=GPa)
#
#
# Indices 1 2 3 4 5 6 
#
# 1 44.9176 22.0871 15.9960 0.0000 0.0000 0.0000
# 2 22.0871 186.7324 54.7346 0.0000 0.0000 0.0000
# 3 15.9960 54.7346 137.3724 0.0000 0.0000 0.0000
# 4 0.0000 0.0000 0.0000 42.6597 0.0000 0.0000
# 5 0.0000 0.0000 0.0000 0.0000 26.6231 0.0000
# 6 0.0000 0.0000 0.0000 0.0000 0.0000 30.3214
#
#
#
# Elastic Compliance Matrix: (Units=1/GPa)
#
#
# Indices 1 2 3 4 5 6 
#
# 1 0.024063 -0.002293 -0.001888 0.000000 0.000000 0.000000
# 2 -0.002293 0.006282 -0.002236 0.000000 0.000000 0.000000
# 3 -0.001888 -0.002236 0.008390 0.000000 0.000000 0.000000
# 4 0.000000 0.000000 0.000000 0.023441 0.000000 0.000000
# 5 0.000000 0.000000 0.000000 0.000000 0.037561 0.000000
# 6 0.000000 0.000000 0.000000 0.000000 0.000000 0.032980
#
#
# Mechanical properties :
#
#
# Convention : Reuss Voigt Hill
#
# Bulk Modulus (GPa) = 38.60882 61.62861 50.11871
# Shear Modulus (GPa) = 32.42848 38.33450 35.38149
#
# Velocity S-wave (km/s) = 3.85226 4.18839 4.02383
# Velocity P-wave (km/s) = 6.12002 7.18279 6.67260
#
# Compressibility (1/GPa) = 0.02590082
#
# Stress axis : x y z
#
# Youngs Moduli (GPa) = 41.55780 159.18904 119.18554
#
# Poissons Ratio (x) = 0.36497 0.22508
# Poissons Ratio (y) = 0.09528 0.26650
# Poissons Ratio (z) = 0.07848 0.35594
#
# Static dielectric constant tensor:
#      x y z
#    x 3.414600 0.000000 0.000000 
#    y 0.000000 4.865770 0.000000 
#    z 0.000000 0.000000 4.067470 
# 
# 
# High freq. dielectric constant tensor:
#      x y z
#    x 1.824450 0.000000 0.000000 
#    y 0.000000 1.898110 0.000000 
#    z 0.000000 0.000000 1.874460 
# 
# From -- ./inp_files/19309.got.cif
#   From: 2010.03.12/outbox.cif.g09.slc.cpg/sg60_10_cif.got.tgz:19309.got - 2010.04.10 18:46:24.
