data_PCOD8247637
_publ_section_title
;
Structure prediction by ZEFSAII (Michael W. Deem and Ramdas Pophale) SiO2 
 PCOD8247637
Probable space group: P B C N
;
_chemical_formula_sum "Si O2"
_cell_formula_units_Z 56
_cell_length_a 12.882088
_cell_length_b 23.037897
_cell_length_c 8.717573
_cell_angle_alpha 90.000000
_cell_angle_beta 90.000000
_cell_angle_gamma 90.000000
_cell_volume 2587.168332
_symmetry_space_group_name_H-M "P B C N"
_symmetry_group_IT_number 60
_symmetry_cell_setting 'orthorhombic'
loop_
_space_group_symop_operation_xyz
x,y,z
1/2-x,1/2-y,1/2+z
1/2+x,1/2-y,-z
-x,y,1/2-z
-x,-y,-z
1/2+x,1/2+y,1/2-z
1/2-x,1/2+y,z
x,-y,1/2+z
loop_
_atom_site_type_symbol
_atom_site_label
_atom_site_fract_x
_atom_site_fract_y
_atom_site_fract_z
Si Si1 0.534633 0.440810 0.425909
Si Si2 0.302172 0.049076 0.862027
Si Si3 0.295227 0.843840 0.777946
Si Si4 0.606879 0.047254 0.323961
Si Si5 0.378002 0.283868 0.273259
Si Si6 0.641419 0.372613 0.971103
Si Si7 0.762642 0.879553 0.398919
O O1 0.500000 0.434700 0.250000
O O2 0.500000 0.500000 0.500000
O O3 0.479457 0.390174 0.527305
O O4 0.659013 0.433326 0.434467
O O5 0.319236 0.100128 0.733339
O O6 0.300495 0.988839 0.763596
O O7 0.391055 0.039434 0.991130
O O8 0.198230 0.070765 0.950572
O O9 0.381256 0.883677 0.696807
O O10 0.321698 0.777246 0.757066
O O11 0.184232 0.858916 0.698620
O O12 0.302091 0.862152 0.953961
O O13 0.500000 0.024713 0.250000
O O14 0.500000 0.276029 0.250000
O O15 0.346159 0.312962 0.434276
O O16 0.334040 0.324790 0.140843
#
# Coordination Sequence:
#
# PCOD8247637 Si02
#       7
#     8   8   8   8   8   8   8
#     4  12  25  39  65  96 134 169 205 263 331 396
#     4  10  22  37  65  84 126 161 208 260 317 394
#     4  11  25  36  67  91 124 166 224 263 312 399
#     4  11  23  41  60  94 124 167 209 261 325 379
#     4  11  20  45  65  85 126 170 214 266 330 381
#     4  10  22  42  60  94 125 167 211 264 327 387
#     4  11  23  42  63  95 127 170 210 271 331 384
#
# _framework density 21.645287
#
# number of rings (size 3 to 8) (size 9 to 14) (size 15 to 20)
#    0.000    1.143    4.286    2.571    8.000    0.000 
#    0.000    0.000    0.000    0.000    0.000    0.000 
#    0.000    0.000    0.000    0.000    0.000    0.000 
#
# Total GULP energy -693871.461258 kJ/mol
# GULP energy per Si atom -12390.561808 kJ/mol
# Density = 2.159602 g / cm^3
# Si number density = 21.645287 Si / 1000 Ang^3
#
#
#
# Elastic Constant Matrix: (Units=GPa)
#
#
# Indices 1 2 3 4 5 6 
#
# 1 61.2005 25.3244 37.3078 0.0000 0.0000 0.0000
# 2 25.3244 128.7292 36.2983 0.0000 0.0000 0.0000
# 3 37.3078 36.2983 130.9537 0.0000 0.0000 0.0000
# 4 0.0000 0.0000 0.0000 28.3544 0.0000 0.0000
# 5 0.0000 0.0000 0.0000 0.0000 26.6473 0.0000
# 6 0.0000 0.0000 0.0000 0.0000 0.0000 27.2759
#
#
#
# Elastic Compliance Matrix: (Units=1/GPa)
#
#
# Indices 1 2 3 4 5 6 
#
# 1 0.020542 -0.002594 -0.005133 0.000000 0.000000 0.000000
# 2 -0.002594 0.008754 -0.001688 0.000000 0.000000 0.000000
# 3 -0.005133 -0.001688 0.009567 0.000000 0.000000 0.000000
# 4 0.000000 0.000000 0.000000 0.035268 0.000000 0.000000
# 5 0.000000 0.000000 0.000000 0.000000 0.037527 0.000000
# 6 0.000000 0.000000 0.000000 0.000000 0.000000 0.036662
#
#
# Mechanical properties :
#
#
# Convention : Reuss Voigt Hill
#
# Bulk Modulus (GPa) = 49.91595 57.63826 53.77711
# Shear Modulus (GPa) = 28.76402 31.25238 30.00820
#
# Velocity S-wave (km/s) = 3.64934 3.80391 3.72743
# Velocity P-wave (km/s) = 6.39280 6.78081 6.58966
#
# Compressibility (1/GPa) = 0.02003368
#
# Stress axis : x y z
#
# Youngs Moduli (GPa) = 48.68000 114.22874 104.53088
#
# Poissons Ratio (x) = 0.29628 0.53660
# Poissons Ratio (y) = 0.12626 0.17641
# Poissons Ratio (z) = 0.24990 0.19278
#
# Static dielectric constant tensor:
#      x y z
#    x 3.699520 0.000000 0.000000 
#    y 0.000000 3.925580 0.000000 
#    z 0.000000 0.000000 4.156930 
# 
# 
# High freq. dielectric constant tensor:
#      x y z
#    x 1.822730 0.000000 0.000000 
#    y 0.000000 1.852640 0.000000 
#    z 0.000000 0.000000 1.859340 
# 
# From -- ./inp_files/6152.got.cif
#   From: 2010.03.12/outbox.cif.g09.slc.cpg/sg60_4_cif.got.tgz:6152.got - 2010.04.10 18:46:24.
