data_PCOD8247500
_publ_section_title
;
Structure prediction by ZEFSAII (Michael W. Deem and Ramdas Pophale) SiO2 
 PCOD8247500
Probable space group: P B C N
;
_chemical_formula_sum "Si O2"
_cell_formula_units_Z 40
_cell_length_a 12.849399
_cell_length_b 14.811411
_cell_length_c 9.660464
_cell_angle_alpha 90.000000
_cell_angle_beta 90.000000
_cell_angle_gamma 90.000000
_cell_volume 1838.557576
_symmetry_space_group_name_H-M "P B C N"
_symmetry_group_IT_number 60
_symmetry_cell_setting 'orthorhombic'
loop_
_space_group_symop_operation_xyz
x,y,z
1/2-x,1/2-y,1/2+z
1/2+x,1/2-y,-z
-x,y,1/2-z
-x,-y,-z
1/2+x,1/2+y,1/2-z
1/2-x,1/2+y,z
x,-y,1/2+z
loop_
_atom_site_type_symbol
_atom_site_label
_atom_site_fract_x
_atom_site_fract_y
_atom_site_fract_z
Si Si1 0.169260 0.986978 0.219224
Si Si2 0.505687 0.909688 0.086460
Si Si3 0.908644 0.235204 0.489530
Si Si4 0.500000 0.349796 0.250000
Si Si5 0.732606 0.100469 0.514690
Si Si6 0.500000 0.371426 0.750000
O O1 0.084151 0.912749 0.168516
O O2 0.234980 0.943060 0.340631
O O3 0.103599 0.071008 0.277090
O O4 0.247828 0.021805 0.099840
O O5 0.500000 0.929029 0.250000
O O6 0.411542 0.842504 0.041328
O O7 0.614751 0.866643 0.035148
O O8 0.500000 0.000000 0.000000
O O9 0.943894 0.216249 0.644497
O O10 0.794455 0.191404 0.471944
O O11 0.989413 0.190550 0.384032
#
# Coordination Sequence:
#
# PCOD8247500 Si02
#       6
#     8   8   8   4   8   4
#     4   9  17  34  63  99 127 162 209 260 323 387
#     4  12  27  48  65  91 132 175 219 273 327 387
#     4  10  21  41  61  95 126 167 217 264 320 384
#     4   9  18  34  63  96 134 158 205 270 320 379
#     4  10  21  41  65  96 124 170 212 257 325 384
#     4   9  16  34  63  92 132 162 203 274 320 371
#
# _framework density 21.756187000000001
#
# number of rings (size 3 to 8) (size 9 to 14) (size 15 to 20)
#    0.000    2.000    1.000    2.400    1.400    4.800 
#   14.400    0.000    0.000    0.000    0.000    0.000 
#    0.000    0.000    0.000    0.000    0.000    0.000 
#
# Total GULP energy -495790.769874 kJ/mol
# GULP energy per Si atom -12394.769247 kJ/mol
# Density = 2.170667 g / cm^3
# Si number density = 21.756187 Si / 1000 Ang^3
#
#
#
# Elastic Constant Matrix: (Units=GPa)
#
#
# Indices 1 2 3 4 5 6 
#
# 1 81.5451 30.2438 31.4461 0.0000 0.0000 0.0000
# 2 30.2438 134.4678 47.0652 0.0000 0.0000 0.0000
# 3 31.4461 47.0652 100.3290 0.0000 0.0000 0.0000
# 4 0.0000 0.0000 0.0000 25.9544 0.0000 0.0000
# 5 0.0000 0.0000 0.0000 0.0000 30.9307 0.0000
# 6 0.0000 0.0000 0.0000 0.0000 0.0000 21.7990
#
#
#
# Elastic Compliance Matrix: (Units=1/GPa)
#
#
# Indices 1 2 3 4 5 6 
#
# 1 0.014377 -0.001982 -0.003577 0.000000 0.000000 0.000000
# 2 -0.001982 0.009171 -0.003681 0.000000 0.000000 0.000000
# 3 -0.003577 -0.003681 0.012815 0.000000 0.000000 0.000000
# 4 0.000000 0.000000 0.000000 0.038529 0.000000 0.000000
# 5 0.000000 0.000000 0.000000 0.000000 0.032330 0.000000
# 6 0.000000 0.000000 0.000000 0.000000 0.000000 0.045874
#
#
# Mechanical properties :
#
#
# Convention : Reuss Voigt Hill
#
# Bulk Modulus (GPa) = 55.91452 59.31691 57.61571
# Shear Modulus (GPa) = 28.16317 29.57592 28.86955
#
# Velocity S-wave (km/s) = 3.60181 3.69104 3.64670
# Velocity P-wave (km/s) = 6.56153 6.74452 6.65365
#
# Compressibility (1/GPa) = 0.01788444
#
# Stress axis : x y z
#
# Youngs Moduli (GPa) = 69.55344 109.04124 78.03360
#
# Poissons Ratio (x) = 0.21610 0.27910
# Poissons Ratio (y) = 0.13784 0.28724
# Poissons Ratio (z) = 0.24877 0.40138
#
# Static dielectric constant tensor:
#      x y z
#    x 4.175880 0.000000 0.000000 
#    y 0.000000 3.858890 0.000000 
#    z 0.000000 0.000000 3.905250 
# 
# 
# High freq. dielectric constant tensor:
#      x y z
#    x 1.847560 0.000000 0.000000 
#    y 0.000000 1.849830 0.000000 
#    z 0.000000 0.000000 1.855660 
# 
# From -- ./inp_files/5698.got.cif
#   From: 2010.03.12/outbox.cif.g09.slc.cpg/sg60_3_cif.got.tgz:5698.got - 2010.04.10 18:46:24.
