data_PCOD8247783
_publ_section_title
;
Structure prediction by ZEFSAII (Michael W. Deem and Ramdas Pophale) SiO2 
 PCOD8247783
Probable space group: P B C N
;
_chemical_formula_sum "Si O2"
_cell_formula_units_Z 56
_cell_length_a 11.841217
_cell_length_b 16.178989
_cell_length_c 14.292573
_cell_angle_alpha 90.000000
_cell_angle_beta 90.000000
_cell_angle_gamma 90.000000
_cell_volume 2738.155693
_symmetry_space_group_name_H-M "P B C N"
_symmetry_group_IT_number 60
_symmetry_cell_setting 'orthorhombic'
loop_
_space_group_symop_operation_xyz
x,y,z
1/2-x,1/2-y,1/2+z
1/2+x,1/2-y,-z
-x,y,1/2-z
-x,-y,-z
1/2+x,1/2+y,1/2-z
1/2-x,1/2+y,z
x,-y,1/2+z
loop_
_atom_site_type_symbol
_atom_site_label
_atom_site_fract_x
_atom_site_fract_y
_atom_site_fract_z
Si Si1 0.276822 0.309459 0.400258
Si Si2 0.223628 0.960829 0.103868
Si Si3 0.532460 0.198113 0.147621
Si Si4 0.603472 0.963298 0.555437
Si Si5 0.624335 0.918231 0.222759
Si Si6 0.069818 0.918880 0.528805
Si Si7 0.381830 0.303464 0.022638
O O1 0.373374 0.268031 0.337501
O O2 0.184992 0.342298 0.327478
O O3 0.335715 0.384487 0.456498
O O4 0.217864 0.239364 0.464406
O O5 0.310168 0.953478 0.188055
O O6 0.156972 0.875180 0.093467
O O7 0.285096 0.974294 0.005081
O O8 0.142274 0.042689 0.116583
O O9 0.500000 0.163203 0.250000
O O10 0.582316 0.131478 0.077113
O O11 0.425877 0.233340 0.092072
O O12 0.500000 0.000000 0.500000
O O13 0.617610 0.005164 0.654666
O O14 0.500000 0.886429 0.250000
O O15 0.980413 0.843453 0.545865
O O16 0.000000 0.000000 0.500000
#
# Coordination Sequence:
#
# PCOD8247783 Si02
#       7
#     8   8   8   8   8   8   8
#     4  11  22  41  65  93 132 168 211 269 325 384
#     4  11  22  43  66  90 128 173 214 267 324 380
#     4  11  24  40  62  94 127 163 212 260 321 391
#     4  12  23  41  63  92 128 168 212 264 320 385
#     4  12  25  38  65  99 127 168 224 266 321 390
#     4   9  21  40  66  91 125 173 218 257 323 393
#     4  10  22  41  68  92 127 173 212 265 334 383
#
# _framework density 20.451720999999999
#
# number of rings (size 3 to 8) (size 9 to 14) (size 15 to 20)
#    0.000    1.143    4.286    2.143    0.000    0.000 
#    0.000    1.429    0.000    0.000    0.000    0.000 
#    0.000    0.000    0.000    0.000    0.000    0.000 
#
# Total GULP energy -693871.558252 kJ/mol
# GULP energy per Si atom -12390.563540 kJ/mol
# Density = 2.040517 g / cm^3
# Si number density = 20.451721 Si / 1000 Ang^3
#
#
#
# Elastic Constant Matrix: (Units=GPa)
#
#
# Indices 1 2 3 4 5 6 
#
# 1 94.6526 28.6849 39.2318 0.0000 0.0000 0.0000
# 2 28.6849 82.3896 31.7951 0.0000 0.0000 0.0000
# 3 39.2318 31.7951 85.6308 0.0000 0.0000 0.0000
# 4 0.0000 0.0000 0.0000 25.8087 0.0000 0.0000
# 5 0.0000 0.0000 0.0000 0.0000 32.7769 0.0000
# 6 0.0000 0.0000 0.0000 0.0000 0.0000 51.2154
#
#
#
# Elastic Compliance Matrix: (Units=1/GPa)
#
#
# Indices 1 2 3 4 5 6 
#
# 1 0.013540 -0.002708 -0.005198 0.000000 0.000000 0.000000
# 2 -0.002708 0.014709 -0.004221 0.000000 0.000000 0.000000
# 3 -0.005198 -0.004221 0.015627 0.000000 0.000000 0.000000
# 4 0.000000 0.000000 0.000000 0.038747 0.000000 0.000000
# 5 0.000000 0.000000 0.000000 0.000000 0.030509 0.000000
# 6 0.000000 0.000000 0.000000 0.000000 0.000000 0.019525
#
#
# Mechanical properties :
#
#
# Convention : Reuss Voigt Hill
#
# Bulk Modulus (GPa) = 50.96268 51.34404 51.15336
# Shear Modulus (GPa) = 30.59007 32.82428 31.70717
#
# Velocity S-wave (km/s) = 3.87165 4.01055 3.94171
# Velocity P-wave (km/s) = 6.70514 6.82682 6.76625
#
# Compressibility (1/GPa) = 0.01962220
#
# Stress axis : x y z
#
# Youngs Moduli (GPa) = 73.85470 67.98460 63.99332
#
# Poissons Ratio (x) = 0.18412 0.33263
# Poissons Ratio (y) = 0.20002 0.27010
# Poissons Ratio (z) = 0.38388 0.28695
#
# Static dielectric constant tensor:
#      x y z
#    x 3.557830 0.000000 0.000000 
#    y 0.000000 3.755380 0.000000 
#    z 0.000000 0.000000 3.551550 
# 
# 
# High freq. dielectric constant tensor:
#      x y z
#    x 1.824710 0.000000 0.000000 
#    y 0.000000 1.812680 0.000000 
#    z 0.000000 0.000000 1.770700 
# 
# From -- ./inp_files/16151.got.cif
#   From: 2010.03.12/outbox.cif.g09.slc.cpg/sg60_9_cif.got.tgz:16151.got - 2010.04.10 18:46:24.
