data_PCOD8247391
_publ_section_title
;
Structure prediction by ZEFSAII (Michael W. Deem and Ramdas Pophale) SiO2 
 PCOD8247391
Probable space group: P B C N
;
_chemical_formula_sum "Si O2"
_cell_formula_units_Z 64
_cell_length_a 11.084179
_cell_length_b 33.585719
_cell_length_c 8.563391
_cell_angle_alpha 90.000000
_cell_angle_beta 90.000000
_cell_angle_gamma 90.000000
_cell_volume 3187.894606
_symmetry_space_group_name_H-M "P B C N"
_symmetry_group_IT_number 60
_symmetry_cell_setting 'orthorhombic'
loop_
_space_group_symop_operation_xyz
x,y,z
1/2-x,1/2-y,1/2+z
1/2+x,1/2-y,-z
-x,y,1/2-z
-x,-y,-z
1/2+x,1/2+y,1/2-z
1/2-x,1/2+y,z
x,-y,1/2+z
loop_
_atom_site_type_symbol
_atom_site_label
_atom_site_fract_x
_atom_site_fract_y
_atom_site_fract_z
Si Si1 0.381568 0.046219 0.553359
Si Si2 0.149933 0.533972 0.915151
Si Si3 0.819372 0.322268 0.859217
Si Si4 0.702742 0.608856 0.551526
Si Si5 0.915252 0.774511 0.895317
Si Si6 0.979299 0.145049 0.064531
Si Si7 0.768284 0.628240 0.904702
Si Si8 0.071410 0.691082 0.470180
O O1 0.522817 0.046708 0.505681
O O2 0.363721 0.036127 0.732211
O O3 0.324175 0.088811 0.516385
O O4 0.314189 0.011273 0.457788
O O5 0.253343 0.563792 0.976346
O O6 0.717828 0.288358 0.843601
O O7 0.876872 0.327192 0.689406
O O8 0.926256 0.310430 0.978285
O O9 0.764414 0.363403 0.921409
O O10 0.558671 0.611486 0.523740
O O11 0.729467 0.622427 0.727069
O O12 0.978199 0.810808 0.989741
O O13 0.000000 0.761925 0.750000
O O14 0.893885 0.737131 0.007989
O O15 0.000000 0.141980 0.250000
O O16 0.841334 0.140235 0.017395
O O17 0.868750 0.663116 0.897651
#
# Coordination Sequence:
#
# PCOD8247391 Si02
#       8
#     8   8   8   8   8   8   8   8
#     4   9  19  34  56  90 119 155 192 241 299 362
#     4   9  18  35  58  86 125 152 192 241 297 357
#     4  10  24  41  55  87 118 152 202 249 302 360
#     4  10  21  39  61  87 120 158 201 248 301 369
#     4  10  23  39  61  81 115 155 199 250 309 355
#     4  10  22  42  61  84 119 159 202 253 303 367
#     4  11  22  37  63  89 118 157 205 247 307 366
#     4  11  24  38  60  84 116 154 199 255 300 362
#
# _framework density 20.075948
#
# number of rings (size 3 to 8) (size 9 to 14) (size 15 to 20)
#    0.000    2.000    0.000    3.375    5.250    4.000 
#    4.500    3.125    0.000    0.000    0.000    0.000 
#    0.000    0.000    0.000    0.000    0.000    0.000 
#
# Total GULP energy -793505.203962 kJ/mol
# GULP energy per Si atom -12398.518812 kJ/mol
# Density = 2.003025 g / cm^3
# Si number density = 20.075948 Si / 1000 Ang^3
#
#
#
# Elastic Constant Matrix: (Units=GPa)
#
#
# Indices 1 2 3 4 5 6 
#
# 1 115.9639 52.5834 21.5639 0.0000 0.0000 0.0000
# 2 52.5834 136.5419 25.8616 0.0000 0.0000 0.0000
# 3 21.5639 25.8616 46.6015 0.0000 0.0000 0.0000
# 4 0.0000 0.0000 0.0000 31.4100 0.0000 0.0000
# 5 0.0000 0.0000 0.0000 0.0000 31.4868 0.0000
# 6 0.0000 0.0000 0.0000 0.0000 0.0000 29.6737
#
#
#
# Elastic Compliance Matrix: (Units=1/GPa)
#
#
# Indices 1 2 3 4 5 6 
#
# 1 0.010813 -0.003594 -0.003009 0.000000 0.000000 0.000000
# 2 -0.003594 0.009379 -0.003542 0.000000 0.000000 0.000000
# 3 -0.003009 -0.003542 0.024816 0.000000 0.000000 0.000000
# 4 0.000000 0.000000 0.000000 0.031837 0.000000 0.000000
# 5 0.000000 0.000000 0.000000 0.000000 0.031759 0.000000
# 6 0.000000 0.000000 0.000000 0.000000 0.000000 0.033700
#
#
# Mechanical properties :
#
#
# Convention : Reuss Voigt Hill
#
# Bulk Modulus (GPa) = 40.45554 55.45834 47.95694
# Shear Modulus (GPa) = 29.26848 31.78731 30.52790
#
# Velocity S-wave (km/s) = 3.82237 3.98345 3.90374
# Velocity P-wave (km/s) = 6.29886 6.98867 6.65271
#
# Compressibility (1/GPa) = 0.02471849
#
# Stress axis : x y z
#
# Youngs Moduli (GPa) = 92.48460 106.62471 40.29632
#
# Poissons Ratio (x) = 0.38323 0.12124
# Poissons Ratio (y) = 0.33240 0.14271
# Poissons Ratio (z) = 0.27826 0.37762
#
# Static dielectric constant tensor:
#      x y z
#    x 3.939690 0.000000 0.000000 
#    y 0.000000 3.714400 0.000000 
#    z 0.000000 0.000000 3.459590 
# 
# 
# High freq. dielectric constant tensor:
#      x y z
#    x 1.787700 0.000000 0.000000 
#    y 0.000000 1.779400 0.000000 
#    z 0.000000 0.000000 1.776140 
# 
# From -- ./inp_files/5326.got.cif
#   From: 2010.03.12/outbox.cif.g09.slc.cpg/sg60_3_cif.got.tgz:5326.got - 2010.04.10 18:46:24.
