data_PCOD8247174
_publ_section_title
;
Structure prediction by ZEFSAII (Michael W. Deem and Ramdas Pophale) SiO2 
 PCOD8247174
Probable space group: P B C N
;
_chemical_formula_sum "Si O2"
_cell_formula_units_Z 36
_cell_length_a 9.278407
_cell_length_b 15.021772
_cell_length_c 12.582379
_cell_angle_alpha 90.000000
_cell_angle_beta 90.000000
_cell_angle_gamma 90.000000
_cell_volume 1753.708261
_symmetry_space_group_name_H-M "P B C N"
_symmetry_group_IT_number 60
_symmetry_cell_setting 'orthorhombic'
loop_
_space_group_symop_operation_xyz
x,y,z
1/2-x,1/2-y,1/2+z
1/2+x,1/2-y,-z
-x,y,1/2-z
-x,-y,-z
1/2+x,1/2+y,1/2-z
1/2-x,1/2+y,z
x,-y,1/2+z
loop_
_atom_site_type_symbol
_atom_site_label
_atom_site_fract_x
_atom_site_fract_y
_atom_site_fract_z
Si Si1 0.954987 0.022506 0.117883
Si Si2 0.849537 0.797084 0.698403
Si Si3 0.000000 0.469492 0.250000
Si Si4 0.772848 0.382424 0.107439
Si Si5 0.239559 0.583713 0.142239
O O1 0.869646 0.116794 0.121273
O O2 0.108135 0.035075 0.180218
O O3 0.857908 0.939472 0.158807
O O4 0.000000 0.000000 0.000000
O O5 0.763674 0.722802 0.630842
O O6 0.742813 0.822376 0.795943
O O7 0.000000 0.763082 0.750000
O O8 0.078766 0.411078 0.338171
O O9 0.106552 0.527696 0.180495
O O10 0.774927 0.399692 0.982097
#
# Coordination Sequence:
#
# PCOD8247174 Si02
#       5
#     8   8   4   8   8
#     4   9  20  43  68  90 126 172 214 260 331 389
#     4  10  20  42  65  94 136 163 216 275 320 389
#     4  12  22  42  66  92 132 168 216 280 324 378
#     4  11  22  42  69  93 125 179 214 267 340 379
#     4  10  23  43  63  96 129 170 217 269 321 402
#
# _framework density 20.527930000000001
#
# number of rings (size 3 to 8) (size 9 to 14) (size 15 to 20)
#    0.000    1.778    3.333    0.667    0.000    0.000 
#   20.000    0.000    0.000    0.000    0.000    0.000 
#    0.000    0.000    0.000    0.000    0.000    0.000 
#
# Total GULP energy -446111.147074 kJ/mol
# GULP energy per Si atom -12391.976308 kJ/mol
# Density = 2.048121 g / cm^3
# Si number density = 20.527930 Si / 1000 Ang^3
#
#
#
# Elastic Constant Matrix: (Units=GPa)
#
#
# Indices 1 2 3 4 5 6 
#
# 1 98.0423 63.9598 49.5983 0.0000 0.0000 0.0000
# 2 63.9598 156.6152 69.2730 0.0000 0.0000 0.0000
# 3 49.5983 69.2730 117.8939 0.0000 0.0000 0.0000
# 4 0.0000 0.0000 0.0000 -4.7560 0.0000 0.0000
# 5 0.0000 0.0000 0.0000 0.0000 33.4635 0.0000
# 6 0.0000 0.0000 0.0000 0.0000 0.0000 30.4289
#
#
#
# Elastic Compliance Matrix: (Units=1/GPa)
#
#
# Indices 1 2 3 4 5 6 
#
# 1 0.014988 -0.004502 -0.003660 0.000000 0.000000 0.000000
# 2 -0.004502 0.009980 -0.003970 0.000000 0.000000 0.000000
# 3 -0.003660 -0.003970 0.012355 0.000000 0.000000 0.000000
# 4 0.000000 0.000000 0.000000 -0.210259 0.000000 0.000000
# 5 0.000000 0.000000 0.000000 0.000000 0.029883 0.000000
# 6 0.000000 0.000000 0.000000 0.000000 0.000000 0.032863
#
#
# Mechanical properties :
#
#
# Convention : Reuss Voigt Hill
#
# Bulk Modulus (GPa) = 76.57983 82.02376 79.30179
# Shear Modulus (GPa) = -61.29564 24.47530 -18.41017
#
# Velocity S-wave (km/s) = -5.47032 3.45671 -2.99797
# Velocity P-wave (km/s) = 1.58527 7.48169 5.17023
#
# Compressibility (1/GPa) = 0.01305827
#
# Stress axis : x y z
#
# Youngs Moduli (GPa) = 66.71824 100.20454 80.94067
#
# Poissons Ratio (x) = 0.45113 0.29627
# Poissons Ratio (y) = 0.30037 0.32132
# Poissons Ratio (z) = 0.24421 0.39780
#
# Static dielectric constant tensor:
#      x y z
#    x 4.057130 0.000000 0.000000 
#    y 0.000000 3.781130 0.000000 
#    z 0.000000 0.000000 3.868500 
# 
# 
# High freq. dielectric constant tensor:
#      x y z
#    x 1.799830 0.000000 0.000000 
#    y 0.000000 1.795710 0.000000 
#    z 0.000000 0.000000 1.820230 
# 
# From -- ./inp_files/14544.got.cif
#   From: 2010.03.12/outbox.cif.g09.slc.cpg/sg60_8_cif.got.tgz:14544.got - 2010.04.10 18:46:24.
