data_PCOD8247999
_publ_section_title
;
Structure prediction by ZEFSAII (Michael W. Deem and Ramdas Pophale) SiO2 
 PCOD8247999
Probable space group: P B C N
;
_chemical_formula_sum "Si O2"
_cell_formula_units_Z 64
_cell_length_a 15.969368
_cell_length_b 9.345549
_cell_length_c 21.047993
_cell_angle_alpha 90.000000
_cell_angle_beta 90.000000
_cell_angle_gamma 90.000000
_cell_volume 3141.255330
_symmetry_space_group_name_H-M "P B C N"
_symmetry_group_IT_number 60
_symmetry_cell_setting 'orthorhombic'
loop_
_space_group_symop_operation_xyz
x,y,z
1/2-x,1/2-y,1/2+z
1/2+x,1/2-y,-z
-x,y,1/2-z
-x,-y,-z
1/2+x,1/2+y,1/2-z
1/2-x,1/2+y,z
x,-y,1/2+z
loop_
_atom_site_type_symbol
_atom_site_label
_atom_site_fract_x
_atom_site_fract_y
_atom_site_fract_z
Si Si1 0.002880 0.192396 0.941833
Si Si2 0.608667 0.325661 0.326169
Si Si3 0.209630 0.674955 0.727586
Si Si4 0.855946 0.385896 0.608394
Si Si5 0.953894 0.873544 0.579951
Si Si6 0.437565 0.633171 0.196586
Si Si7 0.702432 0.800780 0.122611
Si Si8 0.088589 0.440308 0.750366
O O1 0.917768 0.189663 0.899932
O O2 0.061134 0.331435 0.928434
O O3 0.972042 0.204501 0.013823
O O4 0.054297 0.045181 0.929020
O O5 0.708260 0.324091 0.315584
O O6 0.568532 0.464112 0.294474
O O7 0.565282 0.196331 0.290582
O O8 0.155709 0.809137 0.704948
O O9 0.224403 0.681875 0.803072
O O10 0.157977 0.531168 0.713088
O O11 0.824472 0.547332 0.590165
O O12 0.784987 0.268552 0.591409
O O13 0.876698 0.390863 0.682400
O O14 0.870011 0.815727 0.612621
O O15 0.029678 0.829694 0.626381
O O16 0.500000 0.695096 0.250000
O O17 0.000000 0.527707 0.750000
#
# Coordination Sequence:
#
# PCOD8247999 Si02
#       8
#     8   8   8   8   8   8   8   8
#     4  10  23  44  65  86 128 175 218 257 311 389
#     4  11  22  37  61  92 122 163 208 255 318 377
#     4  11  23  36  58  94 131 157 200 269 324 376
#     4  11  23  38  64  93 127 166 210 263 321 377
#     4  10  23  43  65  89 125 168 222 260 313 383
#     4  11  22  37  65  91 119 167 205 260 320 376
#     4  11  23  38  64  95 129 161 208 269 322 372
#     4  11  21  35  58  90 125 161 202 264 320 379
#
# _framework density 20.374020000000002
#
# number of rings (size 3 to 8) (size 9 to 14) (size 15 to 20)
#    0.000    1.250    3.750    2.250    5.250    0.500 
#    2.250    0.000    0.000    0.000    0.000    0.000 
#    0.000    0.000    0.000    0.000    0.000    0.000 
#
# Total GULP energy -793343.332403 kJ/mol
# GULP energy per Si atom -12395.989569 kJ/mol
# Density = 2.032765 g / cm^3
# Si number density = 20.374020 Si / 1000 Ang^3
#
#
#
# Elastic Constant Matrix: (Units=GPa)
#
#
# Indices 1 2 3 4 5 6 
#
# 1 135.3014 33.5487 29.9257 0.0000 0.0000 0.0000
# 2 33.5487 75.0160 29.8994 0.0000 0.0000 0.0000
# 3 29.9257 29.8994 73.1465 0.0000 0.0000 0.0000
# 4 0.0000 0.0000 0.0000 10.9532 0.0000 0.0000
# 5 0.0000 0.0000 0.0000 0.0000 18.6437 0.0000
# 6 0.0000 0.0000 0.0000 0.0000 0.0000 16.1455
#
#
#
# Elastic Compliance Matrix: (Units=1/GPa)
#
#
# Indices 1 2 3 4 5 6 
#
# 1 0.008634 -0.002931 -0.002334 0.000000 0.000000 0.000000
# 2 -0.002931 0.016920 -0.005717 0.000000 0.000000 0.000000
# 3 -0.002334 -0.005717 0.016963 0.000000 0.000000 0.000000
# 4 0.000000 0.000000 0.000000 0.091298 0.000000 0.000000
# 5 0.000000 0.000000 0.000000 0.000000 0.053637 0.000000
# 6 0.000000 0.000000 0.000000 0.000000 0.000000 0.061937
#
#
# Mechanical properties :
#
#
# Convention : Reuss Voigt Hill
#
# Bulk Modulus (GPa) = 48.65605 52.24571 50.45088
# Shear Modulus (GPa) = 17.97242 21.82116 19.89679
#
# Velocity S-wave (km/s) = 2.97328 3.27621 3.12841
# Velocity P-wave (km/s) = 5.97666 6.32537 6.15349
#
# Compressibility (1/GPa) = 0.02055243
#
# Stress axis : x y z
#
# Youngs Moduli (GPa) = 115.82213 59.10189 58.95139
#
# Poissons Ratio (x) = 0.17322 0.13761
# Poissons Ratio (y) = 0.33946 0.33703
# Poissons Ratio (z) = 0.27036 0.33789
#
# Static dielectric constant tensor:
#      x y z
#    x 3.826890 0.000000 0.000000 
#    y 0.000000 3.941480 0.000000 
#    z 0.000000 0.000000 3.528790 
# 
# 
# High freq. dielectric constant tensor:
#      x y z
#    x 1.804940 0.000000 0.000000 
#    y 0.000000 1.809380 0.000000 
#    z 0.000000 0.000000 1.765010 
# 
# From -- ./inp_files/24438.got.cif
#   From: 2010.03.12/outbox.cif.g09.slc.cpg/sg60_13_cif.got.tgz:24438.got - 2010.04.10 18:46:24.
