data_PCOD8247193
_publ_section_title
;
Structure prediction by ZEFSAII (Michael W. Deem and Ramdas Pophale) SiO2 
 PCOD8247193
Probable space group: P B C N
;
_chemical_formula_sum "Si O2"
_cell_formula_units_Z 60
_cell_length_a 24.447915
_cell_length_b 8.729414
_cell_length_c 12.512869
_cell_angle_alpha 90.000000
_cell_angle_beta 90.000000
_cell_angle_gamma 90.000000
_cell_volume 2670.446094
_symmetry_space_group_name_H-M "P B C N"
_symmetry_group_IT_number 60
_symmetry_cell_setting 'orthorhombic'
loop_
_space_group_symop_operation_xyz
x,y,z
1/2-x,1/2-y,1/2+z
1/2+x,1/2-y,-z
-x,y,1/2-z
-x,-y,-z
1/2+x,1/2+y,1/2-z
1/2-x,1/2+y,z
x,-y,1/2+z
loop_
_atom_site_type_symbol
_atom_site_label
_atom_site_fract_x
_atom_site_fract_y
_atom_site_fract_z
Si Si1 0.471054 0.870730 0.566400
Si Si2 0.763450 0.657896 0.348063
Si Si3 0.080385 0.217514 0.387284
Si Si4 0.153939 0.241852 0.829973
Si Si5 0.215462 0.606706 0.504090
Si Si6 0.539894 0.386604 0.153723
Si Si7 0.807708 0.915003 0.658501
Si Si8 0.000000 0.571791 0.750000
O O1 0.417810 0.804631 0.503078
O O2 0.510402 0.722471 0.569083
O O3 0.500000 0.000000 0.500000
O O4 0.461859 0.954227 0.680336
O O5 0.815545 0.711201 0.278760
O O6 0.724187 0.792132 0.390471
O O7 0.786229 0.564691 0.450097
O O8 0.721318 0.565487 0.273099
O O9 0.141094 0.203120 0.337930
O O10 0.042284 0.319835 0.311172
O O11 0.057075 0.045398 0.401720
O O12 0.090810 0.213367 0.800527
O O13 0.176102 0.083521 0.878704
O O14 0.161785 0.360681 0.930025
O O15 0.266235 0.649045 0.428380
O O16 0.500000 0.428424 0.250000
#
# Coordination Sequence:
#
# PCOD8247193 Si02
#       8
#     8   8   8   8   8   8   8   4
#     4  10  22  43  63  90 138 170 215 280 334 393
#     4  11  22  43  65  97 130 173 217 269 337 396
#     4  10  22  43  68  97 128 180 223 274 334 398
#     4  10  23  42  67  96 130 170 223 277 327 399
#     4  11  22  43  65  94 133 172 215 270 341 396
#     4  11  22  44  68  96 131 176 229 276 331 406
#     4  10  22  42  67  96 133 165 225 279 317 407
#     4  10  20  44  64  94 136 174 222 278 344 404
#
# _framework density 22.468156
#
# number of rings (size 3 to 8) (size 9 to 14) (size 15 to 20)
#    0.000    1.600    4.000    0.400    0.000    1.067 
#   16.800    0.000    0.000    0.000    0.000    0.000 
#    0.000    0.000    0.000    0.000    0.000    0.000 
#
# Total GULP energy -743420.350781 kJ/mol
# GULP energy per Si atom -12390.339180 kJ/mol
# Density = 2.241702 g / cm^3
# Si number density = 22.468156 Si / 1000 Ang^3
#
#
#
# Elastic Constant Matrix: (Units=GPa)
#
#
# Indices 1 2 3 4 5 6 
#
# 1 89.0636 22.2815 26.1488 0.0000 0.0000 0.0000
# 2 22.2815 92.8943 32.4834 0.0000 0.0000 0.0000
# 3 26.1488 32.4834 96.0772 0.0000 0.0000 0.0000
# 4 0.0000 0.0000 0.0000 46.7680 0.0000 0.0000
# 5 0.0000 0.0000 0.0000 0.0000 23.5293 0.0000
# 6 0.0000 0.0000 0.0000 0.0000 0.0000 30.5796
#
#
#
# Elastic Compliance Matrix: (Units=1/GPa)
#
#
# Indices 1 2 3 4 5 6 
#
# 1 0.012541 -0.002058 -0.002717 0.000000 0.000000 0.000000
# 2 -0.002058 0.012546 -0.003682 0.000000 0.000000 0.000000
# 3 -0.002717 -0.003682 0.012393 0.000000 0.000000 0.000000
# 4 0.000000 0.000000 0.000000 0.021382 0.000000 0.000000
# 5 0.000000 0.000000 0.000000 0.000000 0.042500 0.000000
# 6 0.000000 0.000000 0.000000 0.000000 0.000000 0.032702
#
#
# Mechanical properties :
#
#
# Convention : Reuss Voigt Hill
#
# Bulk Modulus (GPa) = 48.62518 48.87361 48.74939
# Shear Modulus (GPa) = 31.67932 33.31681 32.49806
#
# Velocity S-wave (km/s) = 3.75902 3.85495 3.80729
# Velocity P-wave (km/s) = 6.36625 6.45088 6.40870
#
# Compressibility (1/GPa) = 0.02056548
#
# Stress axis : x y z
#
# Youngs Moduli (GPa) = 79.74141 79.70724 80.69304
#
# Poissons Ratio (x) = 0.16402 0.21927
# Poissons Ratio (y) = 0.16409 0.29709
# Poissons Ratio (z) = 0.21669 0.29346
#
# Static dielectric constant tensor:
#      x y z
#    x 3.907780 0.000000 0.000000 
#    y 0.000000 4.193360 0.000000 
#    z 0.000000 0.000000 4.205340 
# 
# 
# High freq. dielectric constant tensor:
#      x y z
#    x 1.866550 0.000000 0.000000 
#    y 0.000000 1.903410 0.000000 
#    z 0.000000 0.000000 1.885310 
# 
# From -- ./inp_files/13291.got.cif
#   From: 2010.03.12/outbox.cif.g09.slc.cpg/sg60_7_cif.got.tgz:13291.got - 2010.04.10 18:46:24.
