data_PCOD8247425
_publ_section_title
;
Structure prediction by ZEFSAII (Michael W. Deem and Ramdas Pophale) SiO2 
 PCOD8247425
Probable space group: P B C N
;
_chemical_formula_sum "Si O2"
_cell_formula_units_Z 48
_cell_length_a 7.472707
_cell_length_b 23.249839
_cell_length_c 13.523265
_cell_angle_alpha 90.000000
_cell_angle_beta 90.000000
_cell_angle_gamma 90.000000
_cell_volume 2349.521711
_symmetry_space_group_name_H-M "P B C N"
_symmetry_group_IT_number 60
_symmetry_cell_setting 'orthorhombic'
loop_
_space_group_symop_operation_xyz
x,y,z
1/2-x,1/2-y,1/2+z
1/2+x,1/2-y,-z
-x,y,1/2-z
-x,-y,-z
1/2+x,1/2+y,1/2-z
1/2-x,1/2+y,z
x,-y,1/2+z
loop_
_atom_site_type_symbol
_atom_site_label
_atom_site_fract_x
_atom_site_fract_y
_atom_site_fract_z
Si Si1 0.231533 0.324394 0.499416
Si Si2 0.647279 0.306729 0.478186
Si Si3 0.280517 0.410154 0.662464
Si Si4 0.684938 0.402590 0.622201
Si Si5 0.934486 0.364251 0.358208
Si Si6 0.323411 0.022353 0.548739
O O1 0.440098 0.326176 0.465967
O O2 0.153881 0.260525 0.502519
O O3 0.191501 0.357264 0.602755
O O4 0.113881 0.358767 0.421750
O O5 0.737879 0.342419 0.568880
O O6 0.771047 0.320552 0.383178
O O7 0.487839 0.396839 0.662312
O O8 0.201477 0.412169 0.775601
O O9 0.266017 0.470920 0.607842
O O10 0.704131 0.454035 0.542689
O O11 0.859920 0.428515 0.370433
O O12 0.000000 0.350175 0.250000
O O13 0.500000 0.000000 0.500000
#
# Coordination Sequence:
#
# PCOD8247425 Si02
#       6
#     8   8   8   8   8   8
#     4  11  21  41  67  92 131 169 212 271 323 374
#     4  10  22  42  66  92 133 168 211 270 322 378
#     4  10  21  39  65  89 121 166 214 259 321 385
#     4   9  22  40  60  93 122 162 211 261 322 385
#     4  11  25  42  61  97 131 169 215 262 321 382
#     4  11  22  38  60  87 126 163 206 266 312 372
#
# _framework density 20.429690999999998
#
# number of rings (size 3 to 8) (size 9 to 14) (size 15 to 20)
#    0.000    1.667    3.333    0.500    2.333    2.000 
#    0.000    0.000    0.000    0.000    0.000    0.000 
#    0.000    0.000    0.000    0.000    0.000    0.000 
#
# Total GULP energy -594854.082205 kJ/mol
# GULP energy per Si atom -12392.793379 kJ/mol
# Density = 2.038319 g / cm^3
# Si number density = 20.429691 Si / 1000 Ang^3
#
#
#
# Elastic Constant Matrix: (Units=GPa)
#
#
# Indices 1 2 3 4 5 6 
#
# 1 58.5207 7.3517 21.9238 0.0000 0.0000 0.0000
# 2 7.3517 121.7272 60.9398 0.0000 0.0000 0.0000
# 3 21.9238 60.9398 148.4016 0.0000 0.0000 0.0000
# 4 0.0000 0.0000 0.0000 14.8891 0.0000 0.0000
# 5 0.0000 0.0000 0.0000 0.0000 25.9087 0.0000
# 6 0.0000 0.0000 0.0000 0.0000 0.0000 27.7511
#
#
#
# Elastic Compliance Matrix: (Units=1/GPa)
#
#
# Indices 1 2 3 4 5 6 
#
# 1 0.018098 0.000309 -0.002801 0.000000 0.000000 0.000000
# 2 0.000309 0.010346 -0.004294 0.000000 0.000000 0.000000
# 3 -0.002801 -0.004294 0.008916 0.000000 0.000000 0.000000
# 4 0.000000 0.000000 0.000000 0.067163 0.000000 0.000000
# 5 0.000000 0.000000 0.000000 0.000000 0.038597 0.000000
# 6 0.000000 0.000000 0.000000 0.000000 0.000000 0.036035
#
#
# Mechanical properties :
#
#
# Convention : Reuss Voigt Hill
#
# Bulk Modulus (GPa) = 42.03712 56.56444 49.30078
# Shear Modulus (GPa) = 24.91823 29.60538 27.26180
#
# Velocity S-wave (km/s) = 3.49622 3.81088 3.65694
# Velocity P-wave (km/s) = 6.07612 6.86376 6.48191
#
# Compressibility (1/GPa) = 0.02378850
#
# Stress axis : x y z
#
# Youngs Moduli (GPa) = 55.25368 96.65349 112.16292
#
# Poissons Ratio (x) = -0.02987 0.31412
# Poissons Ratio (y) = -0.01707 0.48165
# Poissons Ratio (z) = 0.15474 0.41505
#
# Static dielectric constant tensor:
#      x y z
#    x 3.429870 0.000000 0.000000 
#    y 0.000000 3.458150 0.000000 
#    z 0.000000 0.000000 4.365740 
# 
# 
# High freq. dielectric constant tensor:
#      x y z
#    x 1.804970 0.000000 0.000000 
#    y 0.000000 1.804610 0.000000 
#    z 0.000000 0.000000 1.794590 
# 
# From -- ./inp_files/10090.got.cif
#   From: 2010.03.12/outbox.cif.g09.slc.cpg/sg60_6_cif.got.tgz:10090.got - 2010.04.10 18:46:24.
