data_PCOD8247492
_publ_section_title
;
Structure prediction by ZEFSAII (Michael W. Deem and Ramdas Pophale) SiO2 
 PCOD8247492
Probable space group: P B C N
;
_chemical_formula_sum "Si O2"
_cell_formula_units_Z 56
_cell_length_a 14.079602
_cell_length_b 16.767260
_cell_length_c 10.962640
_cell_angle_alpha 90.000000
_cell_angle_beta 90.000000
_cell_angle_gamma 90.000000
_cell_volume 2588.020009
_symmetry_space_group_name_H-M "P B C N"
_symmetry_group_IT_number 60
_symmetry_cell_setting 'orthorhombic'
loop_
_space_group_symop_operation_xyz
x,y,z
1/2-x,1/2-y,1/2+z
1/2+x,1/2-y,-z
-x,y,1/2-z
-x,-y,-z
1/2+x,1/2+y,1/2-z
1/2-x,1/2+y,z
x,-y,1/2+z
loop_
_atom_site_type_symbol
_atom_site_label
_atom_site_fract_x
_atom_site_fract_y
_atom_site_fract_z
Si Si1 0.185404 0.369836 0.487856
Si Si2 0.500000 0.314767 0.250000
Si Si3 0.144575 0.353781 0.216600
Si Si4 0.068442 0.099741 0.424493
Si Si5 0.110308 0.072030 0.921676
Si Si6 0.000000 0.771847 0.750000
Si Si7 0.940783 0.488435 0.876088
Si Si8 0.331869 0.293778 0.104575
O O1 0.127799 0.372320 0.360166
O O2 0.285661 0.411800 0.470868
O O3 0.128464 0.413707 0.596731
O O4 0.205467 0.277999 0.521985
O O5 0.421596 0.368842 0.316294
O O6 0.430939 0.261523 0.166009
O O7 0.070911 0.285187 0.173372
O O8 0.123836 0.433064 0.140093
O O9 0.250945 0.321926 0.197787
O O10 0.067086 0.172928 0.331598
O O11 0.139166 0.126598 0.531605
O O12 0.961140 0.081204 0.465370
O O13 0.109584 0.018238 0.367692
O O14 0.000000 0.472650 0.750000
O O15 0.000000 0.500000 0.000000
#
# Coordination Sequence:
#
# PCOD8247492 Si02
#       8
#     8   4   8   8   8   4   8   8
#     4  12  24  46  70 105 144 193 252 303 378 447
#     4  10  21  40  69  96 144 182 234 308 365 444
#     4  12  24  47  71 101 150 188 246 307 367 451
#     4  10  22  39  67  96 132 179 230 287 365 428
#     4  10  21  42  64  98 134 180 234 297 360 440
#     4  12  21  42  67  98 136 184 230 300 365 434
#     4  12  26  50  75 106 144 202 250 308 378 450
#     4  11  24  43  67 104 138 185 237 303 371 438
#
# _framework density 21.638162999999999
#
# number of rings (size 3 to 8) (size 9 to 14) (size 15 to 20)
#    0.000    0.857    5.000    2.143    1.000    0.000 
#    7.714    0.000    0.000    0.000    0.000    0.000 
#    0.000    0.000    0.000    0.000    0.000    0.000 
#
# Total GULP energy -694216.594963 kJ/mol
# GULP energy per Si atom -12396.724910 kJ/mol
# Density = 2.158891 g / cm^3
# Si number density = 21.638163 Si / 1000 Ang^3
#
#
#
# Elastic Constant Matrix: (Units=GPa)
#
#
# Indices 1 2 3 4 5 6 
#
# 1 121.9329 44.3913 34.6103 0.0000 0.0000 0.0000
# 2 44.3913 113.3455 27.7343 0.0000 0.0000 0.0000
# 3 34.6103 27.7343 95.4663 0.0000 0.0000 0.0000
# 4 0.0000 0.0000 0.0000 28.6605 0.0000 0.0000
# 5 0.0000 0.0000 0.0000 0.0000 35.0376 0.0000
# 6 0.0000 0.0000 0.0000 0.0000 0.0000 35.5342
#
#
#
# Elastic Compliance Matrix: (Units=1/GPa)
#
#
# Indices 1 2 3 4 5 6 
#
# 1 0.010185 -0.003321 -0.002727 0.000000 0.000000 0.000000
# 2 -0.003321 0.010581 -0.001870 0.000000 0.000000 0.000000
# 3 -0.002727 -0.001870 0.012007 0.000000 0.000000 0.000000
# 4 0.000000 0.000000 0.000000 0.034891 0.000000 0.000000
# 5 0.000000 0.000000 0.000000 0.000000 0.028541 0.000000
# 6 0.000000 0.000000 0.000000 0.000000 0.000000 0.028142
#
#
# Mechanical properties :
#
#
# Convention : Reuss Voigt Hill
#
# Bulk Modulus (GPa) = 59.04840 60.46849 59.75845
# Shear Modulus (GPa) = 34.28687 34.78039 34.53363
#
# Velocity S-wave (km/s) = 3.98497 4.01354 3.99928
# Velocity P-wave (km/s) = 6.96574 7.03449 7.00020
#
# Compressibility (1/GPa) = 0.01693526
#
# Stress axis : x y z
#
# Youngs Moduli (GPa) = 98.18752 94.50993 83.28555
#
# Poissons Ratio (x) = 0.31390 0.22715
# Poissons Ratio (y) = 0.32612 0.15572
# Poissons Ratio (z) = 0.26780 0.17671
#
# Static dielectric constant tensor:
#      x y z
#    x 3.884250 0.000000 0.000000 
#    y 0.000000 3.958980 0.000000 
#    z 0.000000 0.000000 3.897630 
# 
# 
# High freq. dielectric constant tensor:
#      x y z
#    x 1.859510 0.000000 0.000000 
#    y 0.000000 1.856530 0.000000 
#    z 0.000000 0.000000 1.838400 
# 
# From -- ./inp_files/12023.got.cif
#   From: 2010.03.12/outbox.cif.g09.slc.cpg/sg60_7_cif.got.tgz:12023.got - 2010.04.10 18:46:24.
