data_PCOD8247137
_publ_section_title
;
Structure prediction by ZEFSAII (Michael W. Deem and Ramdas Pophale) SiO2 
 PCOD8247137
Probable space group: P B C N
;
_chemical_formula_sum "Si O2"
_cell_formula_units_Z 64
_cell_length_a 11.001971
_cell_length_b 14.635387
_cell_length_c 18.964182
_cell_angle_alpha 90.000000
_cell_angle_beta 90.000000
_cell_angle_gamma 90.000000
_cell_volume 3053.576617
_symmetry_space_group_name_H-M "P B C N"
_symmetry_group_IT_number 60
_symmetry_cell_setting 'orthorhombic'
loop_
_space_group_symop_operation_xyz
x,y,z
1/2-x,1/2-y,1/2+z
1/2+x,1/2-y,-z
-x,y,1/2-z
-x,-y,-z
1/2+x,1/2+y,1/2-z
1/2-x,1/2+y,z
x,-y,1/2+z
loop_
_atom_site_type_symbol
_atom_site_label
_atom_site_fract_x
_atom_site_fract_y
_atom_site_fract_z
Si Si1 0.254951 0.780916 0.679193
Si Si2 0.105077 0.073491 0.994582
Si Si3 0.490724 0.055724 0.928370
Si Si4 0.238168 0.963901 0.355474
Si Si5 0.463612 0.259220 0.580589
Si Si6 0.770763 0.525487 0.378455
Si Si7 0.891735 0.142062 0.199866
Si Si8 0.134014 0.104506 0.722343
O O1 0.164295 0.744592 0.619176
O O2 0.309309 0.878950 0.657549
O O3 0.188842 0.789219 0.754251
O O4 0.359529 0.704334 0.686179
O O5 0.052496 0.172837 0.014589
O O6 0.216775 0.044275 0.044371
O O7 0.153246 0.079396 0.915468
O O8 0.000000 0.000000 0.000000
O O9 0.375620 0.025999 0.882070
O O10 0.485361 0.163007 0.947556
O O11 0.609692 0.036384 0.881596
O O12 0.500000 0.000000 0.000000
O O13 0.229578 0.898378 0.287372
O O14 0.189391 0.061928 0.331607
O O15 0.559585 0.301356 0.634220
O O16 0.667029 0.475431 0.332918
O O17 0.000000 0.103159 0.250000
O O18 0.000000 0.084821 0.750000
#
# Coordination Sequence:
#
# PCOD8247137 Si02
#       8
#     8   8   8   8   8   8   8   8
#     4  10  22  42  69 100 136 176 225 276 345 414
#     4  11  22  43  69 100 130 175 235 285 336 408
#     4  12  26  49  65  96 145 185 227 285 339 424
#     4  12  24  42  68 104 135 177 228 284 346 402
#     4  10  22  43  72  92 134 190 225 269 352 419
#     4  11  24  47  70  96 140 189 222 280 359 400
#     4  10  20  40  71 103 136 175 230 284 335 414
#     4  12  25  44  71 105 140 171 230 294 340 403
#
# _framework density 20.959029999999998
#
# number of rings (size 3 to 8) (size 9 to 14) (size 15 to 20)
#    0.000    1.000    5.000    1.875    1.750    1.500 
#   11.250    0.000    0.000    0.000    0.000    0.000 
#    0.000    0.000    0.000    0.000    0.000    0.000 
#
# Total GULP energy -793790.771230 kJ/mol
# GULP energy per Si atom -12402.980800 kJ/mol
# Density = 2.091133 g / cm^3
# Si number density = 20.959030 Si / 1000 Ang^3
#
#
#
# Elastic Constant Matrix: (Units=GPa)
#
#
# Indices 1 2 3 4 5 6 
#
# 1 85.5298 41.4044 5.6914 0.0000 0.0000 0.0000
# 2 41.4044 159.6598 36.9534 0.0000 0.0000 0.0000
# 3 5.6914 36.9534 70.5200 0.0000 0.0000 0.0000
# 4 0.0000 0.0000 0.0000 26.5905 0.0000 0.0000
# 5 0.0000 0.0000 0.0000 0.0000 32.2259 0.0000
# 6 0.0000 0.0000 0.0000 0.0000 0.0000 32.1628
#
#
#
# Elastic Compliance Matrix: (Units=1/GPa)
#
#
# Indices 1 2 3 4 5 6 
#
# 1 0.013414 -0.003674 0.000842 0.000000 0.000000 0.000000
# 2 -0.003674 0.008134 -0.003966 0.000000 0.000000 0.000000
# 3 0.000842 -0.003966 0.016190 0.000000 0.000000 0.000000
# 4 0.000000 0.000000 0.000000 0.037607 0.000000 0.000000
# 5 0.000000 0.000000 0.000000 0.000000 0.031031 0.000000
# 6 0.000000 0.000000 0.000000 0.000000 0.000000 0.031092
#
#
# Mechanical properties :
#
#
# Convention : Reuss Voigt Hill
#
# Bulk Modulus (GPa) = 41.41722 53.75645 47.58684
# Shear Modulus (GPa) = 31.42462 33.63987 32.53225
#
# Velocity S-wave (km/s) = 3.87633 4.01063 3.94405
# Velocity P-wave (km/s) = 6.31177 6.86665 6.59505
#
# Compressibility (1/GPa) = 0.02414454
#
# Stress axis : x y z
#
# Youngs Moduli (GPa) = 74.54808 122.94254 61.76465
#
# Poissons Ratio (x) = 0.45165 -0.05203
# Poissons Ratio (y) = 0.27386 0.24494
# Poissons Ratio (z) = -0.06280 0.48756
#
# Static dielectric constant tensor:
#      x y z
#    x 3.871190 0.000000 0.000000 
#    y 0.000000 3.796080 0.000000 
#    z 0.000000 0.000000 3.968290 
# 
# 
# High freq. dielectric constant tensor:
#      x y z
#    x 1.812950 0.000000 0.000000 
#    y 0.000000 1.828970 0.000000 
#    z 0.000000 0.000000 1.827730 
# 
# From -- ./inp_files/20209.got.cif
#   From: 2010.03.12/outbox.cif.g09.slc.cpg/sg60_11_cif.got.tgz:20209.got - 2010.04.10 18:46:24.
