data_PCOD8247737
_publ_section_title
;
Structure prediction by ZEFSAII (Michael W. Deem and Ramdas Pophale) SiO2 
 PCOD8247737
Probable space group: P B C N
;
_chemical_formula_sum "Si O2"
_cell_formula_units_Z 52
_cell_length_a 16.387804
_cell_length_b 5.201936
_cell_length_c 29.118258
_cell_angle_alpha 90.000000
_cell_angle_beta 90.000000
_cell_angle_gamma 90.000000
_cell_volume 2482.282214
_symmetry_space_group_name_H-M "P B C N"
_symmetry_group_IT_number 60
_symmetry_cell_setting 'orthorhombic'
loop_
_space_group_symop_operation_xyz
x,y,z
1/2-x,1/2-y,1/2+z
1/2+x,1/2-y,-z
-x,y,1/2-z
-x,-y,-z
1/2+x,1/2+y,1/2-z
1/2-x,1/2+y,z
x,-y,1/2+z
loop_
_atom_site_type_symbol
_atom_site_label
_atom_site_fract_x
_atom_site_fract_y
_atom_site_fract_z
Si Si1 0.695251 0.231352 0.598106
Si Si2 0.696999 0.483334 0.252569
Si Si3 0.200524 0.642407 0.000500
Si Si4 0.805003 0.275476 0.900208
Si Si5 0.000000 0.521526 0.750000
Si Si6 0.423889 0.340833 0.177710
Si Si7 0.584853 0.366078 0.677663
O O1 0.739767 0.504077 0.604778
O O2 0.653530 0.207508 0.547172
O O3 0.622025 0.211561 0.634623
O O4 0.761925 0.707489 0.257097
O O5 0.636037 0.536838 0.295739
O O6 0.653806 0.462512 0.202441
O O7 0.222210 0.339602 0.000192
O O8 0.154734 0.705831 0.048474
O O9 0.741743 0.507182 0.892640
O O10 0.880509 0.294414 0.865411
O O11 0.942062 0.361592 0.782768
O O12 0.939045 0.679067 0.718613
O O13 0.506787 0.474412 0.160021
#
# Coordination Sequence:
#
# PCOD8247737 Si02
#       7
#     8   8   8   8   4   8   8
#     4  10  22  40  66  96 121 159 208 256 305 368
#     4  12  24  40  61  85 114 154 212 262 294 356
#     4   8  16  36  63  91 124 152 194 256 312 358
#     4  10  22  40  66  96 121 159 208 256 305 368
#     4  12  24  44  60  78 136 170 210 242 322 364
#     4  12  25  41  60  88 124 171 203 255 316 369
#     4  12  25  41  60  88 124 171 203 255 316 369
#
# _framework density 20.948466
#
# number of rings (size 3 to 8) (size 9 to 14) (size 15 to 20)
#    0.000    1.231    3.077    2.769    4.308    0.000 
#    0.000    0.769    0.000    0.923    0.000    0.000 
#    0.000    0.000    0.000    0.000    0.000    0.000 
#
# Total GULP energy -644424.436437 kJ/mol
# GULP energy per Si atom -12392.777624 kJ/mol
# Density = 2.090079 g / cm^3
# Si number density = 20.948466 Si / 1000 Ang^3
#
#
#
# Elastic Constant Matrix: (Units=GPa)
#
#
# Indices 1 2 3 4 5 6 
#
# 1 75.1180 14.9007 52.3203 0.0000 0.0000 0.0000
# 2 14.9007 101.6423 22.6117 0.0000 0.0000 0.0000
# 3 52.3203 22.6117 175.4785 0.0000 0.0000 0.0000
# 4 0.0000 0.0000 0.0000 60.7396 0.0000 0.0000
# 5 0.0000 0.0000 0.0000 0.0000 31.0276 0.0000
# 6 0.0000 0.0000 0.0000 0.0000 0.0000 9.7385
#
#
#
# Elastic Compliance Matrix: (Units=1/GPa)
#
#
# Indices 1 2 3 4 5 6 
#
# 1 0.016994 -0.001404 -0.004886 0.000000 0.000000 0.000000
# 2 -0.001404 0.010245 -0.000901 0.000000 0.000000 0.000000
# 3 -0.004886 -0.000901 0.007272 0.000000 0.000000 0.000000
# 4 0.000000 0.000000 0.000000 0.016464 0.000000 0.000000
# 5 0.000000 0.000000 0.000000 0.000000 0.032229 0.000000
# 6 0.000000 0.000000 0.000000 0.000000 0.000000 0.102686
#
#
# Mechanical properties :
#
#
# Convention : Reuss Voigt Hill
#
# Bulk Modulus (GPa) = 49.68428 59.10046 54.39237
# Shear Modulus (GPa) = 24.15672 37.79487 30.97579
#
# Velocity S-wave (km/s) = 3.39949 4.25218 3.84951
# Velocity P-wave (km/s) = 6.25920 7.23751 6.76606
#
# Compressibility (1/GPa) = 0.02012709
#
# Stress axis : x y z
#
# Youngs Moduli (GPa) = 58.84409 97.61022 137.52054
#
# Poissons Ratio (x) = 0.13708 0.67192
# Poissons Ratio (y) = 0.08264 0.12396
# Poissons Ratio (z) = 0.28751 0.08799
#
# Static dielectric constant tensor:
#      x y z
#    x 3.243790 0.000000 0.000000 
#    y 0.000000 4.036820 0.000000 
#    z 0.000000 0.000000 4.325450 
# 
# 
# High freq. dielectric constant tensor:
#      x y z
#    x 1.783410 0.000000 0.000000 
#    y 0.000000 1.832150 0.000000 
#    z 0.000000 0.000000 1.839710 
# 
# From -- ./inp_files/25463.got.cif
#   From: 2010.03.12/outbox.cif.g09.slc.cpg/sg60_13_cif.got.tgz:25463.got - 2010.04.10 18:46:24.
