data_PCOD8247240
_publ_section_title
;
Structure prediction by ZEFSAII (Michael W. Deem and Ramdas Pophale) SiO2 
 PCOD8247240
Probable space group: P B C N
;
_chemical_formula_sum "Si O2"
_cell_formula_units_Z 40
_cell_length_a 9.313708
_cell_length_b 13.780927
_cell_length_c 16.329859
_cell_angle_alpha 90.000000
_cell_angle_beta 90.000000
_cell_angle_gamma 90.000000
_cell_volume 2095.962388
_symmetry_space_group_name_H-M "P B C N"
_symmetry_group_IT_number 60
_symmetry_cell_setting 'orthorhombic'
loop_
_space_group_symop_operation_xyz
x,y,z
1/2-x,1/2-y,1/2+z
1/2+x,1/2-y,-z
-x,y,1/2-z
-x,-y,-z
1/2+x,1/2+y,1/2-z
1/2-x,1/2+y,z
x,-y,1/2+z
loop_
_atom_site_type_symbol
_atom_site_label
_atom_site_fract_x
_atom_site_fract_y
_atom_site_fract_z
Si Si1 0.832437 0.381843 0.359829
Si Si2 0.867865 0.176168 0.306839
Si Si3 0.857862 0.031864 0.453279
Si Si4 0.604490 0.051748 0.561734
Si Si5 0.347472 0.040783 0.274606
O O1 0.787595 0.271123 0.342788
O O2 0.723285 0.433941 0.422908
O O3 0.824193 0.441421 0.275560
O O4 0.998456 0.372164 0.392711
O O5 0.906377 0.102507 0.380302
O O6 0.764687 0.123237 0.244235
O O7 0.000000 0.207779 0.250000
O O8 0.744841 0.090698 0.512420
O O9 0.000000 0.000000 0.500000
O O10 0.500000 0.000000 0.500000
O O11 0.665430 0.977470 0.628968
O O12 0.500000 0.085633 0.250000
#
# Coordination Sequence:
#
# PCOD8247240 Si02
#       5
#     8   8   8   8   8
#     4   9  20  37  56  77 105 146 184 212 263 338
#     4  11  21  35  56  79 108 146 182 221 272 328
#     4  10  21  36  55  83 113 136 176 235 278 311
#     4   9  17  34  57  76 104 144 178 216 268 323
#     4   9  18  36  56  75 104 142 183 222 264 322
#
# _framework density 19.084312000000001
#
# number of rings (size 3 to 8) (size 9 to 14) (size 15 to 20)
#    0.000    2.400    0.000    4.200    0.000    1.600 
#    0.000   12.000    0.000    0.000    0.000    0.000 
#    0.000    0.000    0.000    0.000    0.000    0.000 
#
# Total GULP energy -495601.629906 kJ/mol
# GULP energy per Si atom -12390.040748 kJ/mol
# Density = 1.904088 g / cm^3
# Si number density = 19.084312 Si / 1000 Ang^3
#
#
#
# Elastic Constant Matrix: (Units=GPa)
#
#
# Indices 1 2 3 4 5 6 
#
# 1 92.1046 34.5122 42.5434 0.0000 0.0000 0.0000
# 2 34.5122 103.1638 35.3830 0.0000 0.0000 0.0000
# 3 42.5434 35.3830 115.3725 0.0000 0.0000 0.0000
# 4 0.0000 0.0000 0.0000 -9.0712 0.0000 0.0000
# 5 0.0000 0.0000 0.0000 0.0000 37.9125 0.0000
# 6 0.0000 0.0000 0.0000 0.0000 0.0000 -16.3315
#
#
#
# Elastic Compliance Matrix: (Units=1/GPa)
#
#
# Indices 1 2 3 4 5 6 
#
# 1 0.014001 -0.003255 -0.004164 0.000000 0.000000 0.000000
# 2 -0.003255 0.011590 -0.002354 0.000000 0.000000 0.000000
# 3 -0.004164 -0.002354 0.010925 0.000000 0.000000 0.000000
# 4 0.000000 0.000000 0.000000 -0.110239 0.000000 0.000000
# 5 0.000000 0.000000 0.000000 0.000000 0.026377 0.000000
# 6 0.000000 0.000000 0.000000 0.000000 0.000000 -0.061231
#
#
# Mechanical properties :
#
#
# Convention : Reuss Voigt Hill
#
# Bulk Modulus (GPa) = 58.93447 59.50198 59.21822
# Shear Modulus (GPa) = -59.97006 15.71544 -22.12731
#
# Velocity S-wave (km/s) = -5.61177 2.87274 -3.40876
# Velocity P-wave (km/s) = 3.32282 6.49997 3.95022
#
# Compressibility (1/GPa) = 0.01696800
#
# Stress axis : x y z
#
# Youngs Moduli (GPa) = 71.42581 86.28310 91.53258
#
# Poissons Ratio (x) = 0.28089 0.38117
# Poissons Ratio (y) = 0.23252 0.21546
# Poissons Ratio (z) = 0.29744 0.20311
#
# Static dielectric constant tensor:
#      x y z
#    x 3.849440 0.000000 0.000000 
#    y 0.000000 3.111220 0.000000 
#    z 0.000000 0.000000 3.551400 
# 
# 
# High freq. dielectric constant tensor:
#      x y z
#    x 1.744290 0.000000 0.000000 
#    y 0.000000 1.706480 0.000000 
#    z 0.000000 0.000000 1.764400 
# 
# From -- ./inp_files/14646.got.cif
#   From: 2010.03.12/outbox.cif.g09.slc.cpg/sg60_8_cif.got.tgz:14646.got - 2010.04.10 18:46:24.
