data_PCOD8247530
_publ_section_title
;
Structure prediction by ZEFSAII (Michael W. Deem and Ramdas Pophale) SiO2 
 PCOD8247530
Probable space group: P B C N
;
_chemical_formula_sum "Si O2"
_cell_formula_units_Z 60
_cell_length_a 18.064721
_cell_length_b 8.762534
_cell_length_c 16.832090
_cell_angle_alpha 90.000000
_cell_angle_beta 90.000000
_cell_angle_gamma 90.000000
_cell_volume 2664.397511
_symmetry_space_group_name_H-M "P B C N"
_symmetry_group_IT_number 60
_symmetry_cell_setting 'orthorhombic'
loop_
_space_group_symop_operation_xyz
x,y,z
1/2-x,1/2-y,1/2+z
1/2+x,1/2-y,-z
-x,y,1/2-z
-x,-y,-z
1/2+x,1/2+y,1/2-z
1/2-x,1/2+y,z
x,-y,1/2+z
loop_
_atom_site_type_symbol
_atom_site_label
_atom_site_fract_x
_atom_site_fract_y
_atom_site_fract_z
Si Si1 0.206804 0.777997 0.347444
Si Si2 0.500000 0.979260 0.750000
Si Si3 0.439230 0.871657 0.906639
Si Si4 0.785256 0.468487 0.413528
Si Si5 0.967228 0.713392 0.547137
Si Si6 0.310327 0.743911 0.487282
Si Si7 0.091704 0.715003 0.666832
Si Si8 0.797948 0.941522 0.758376
O O1 0.142204 0.694801 0.395804
O O2 0.271675 0.815126 0.409681
O O3 0.237943 0.673870 0.276906
O O4 0.178617 0.935339 0.308085
O O5 0.481635 0.869235 0.822903
O O6 0.571610 0.084356 0.769138
O O7 0.435913 0.041846 0.941783
O O8 0.484416 0.766663 0.967723
O O9 0.814209 0.633040 0.441304
O O10 0.732635 0.404447 0.482440
O O11 0.854345 0.354672 0.400512
O O12 0.740021 0.475687 0.332237
O O13 0.892830 0.813182 0.537088
O O14 0.015891 0.766824 0.622751
O O15 0.127816 0.856060 0.712863
#
# Coordination Sequence:
#
# PCOD8247530 Si02
#       8
#     8   4   8   8   8   8   8   8
#     4  12  25  43  71 105 142 174 243 293 349 411
#     4  10  22  38  72  96 138 180 228 272 360 414
#     4  10  21  41  68 102 131 175 225 290 331 418
#     4  12  23  44  71  95 137 177 238 275 347 411
#     4  10  22  41  68 101 135 176 232 278 348 415
#     4  12  24  42  70 103 129 183 224 294 335 414
#     4  11  23  43  66  98 134 181 226 284 340 418
#     4  12  25  43  68 104 138 184 230 290 349 417
#
# _framework density 22.519161
#
# number of rings (size 3 to 8) (size 9 to 14) (size 15 to 20)
#    0.000    0.800    2.667    6.400    3.733    1.067 
#    0.000    2.667    0.000    0.000    0.000    0.000 
#    0.000    0.000    0.000    0.000    0.000    0.000 
#
# Total GULP energy -744346.979715 kJ/mol
# GULP energy per Si atom -12405.782995 kJ/mol
# Density = 2.246791 g / cm^3
# Si number density = 22.519161 Si / 1000 Ang^3
#
#
#
# Elastic Constant Matrix: (Units=GPa)
#
#
# Indices 1 2 3 4 5 6 
#
# 1 157.6462 37.2903 49.1337 0.0000 0.0000 0.0000
# 2 37.2903 60.9578 21.1051 0.0000 0.0000 0.0000
# 3 49.1337 21.1051 112.7957 0.0000 0.0000 0.0000
# 4 0.0000 0.0000 0.0000 27.7662 0.0000 0.0000
# 5 0.0000 0.0000 0.0000 0.0000 41.7701 0.0000
# 6 0.0000 0.0000 0.0000 0.0000 0.0000 25.9301
#
#
#
# Elastic Compliance Matrix: (Units=1/GPa)
#
#
# Indices 1 2 3 4 5 6 
#
# 1 0.008170 -0.004027 -0.002805 0.000000 0.000000 0.000000
# 2 -0.004027 0.019526 -0.001899 0.000000 0.000000 0.000000
# 3 -0.002805 -0.001899 0.010443 0.000000 0.000000 0.000000
# 4 0.000000 0.000000 0.000000 0.036015 0.000000 0.000000
# 5 0.000000 0.000000 0.000000 0.000000 0.023941 0.000000
# 6 0.000000 0.000000 0.000000 0.000000 0.000000 0.038565
#
#
# Mechanical properties :
#
#
# Convention : Reuss Voigt Hill
#
# Bulk Modulus (GPa) = 48.36586 60.71754 54.54170
# Shear Modulus (GPa) = 31.05304 34.01800 32.53552
#
# Velocity S-wave (km/s) = 3.71746 3.89089 3.80517
# Velocity P-wave (km/s) = 6.32063 6.87070 6.60140
#
# Compressibility (1/GPa) = 0.02067574
#
# Stress axis : x y z
#
# Youngs Moduli (GPa) = 122.39601 51.21457 95.75745
#
# Poissons Ratio (x) = 0.20623 0.26865
# Poissons Ratio (y) = 0.49285 0.18188
# Poissons Ratio (z) = 0.34338 0.09728
#
# Static dielectric constant tensor:
#      x y z
#    x 4.145840 0.000000 0.000000 
#    y 0.000000 3.709060 0.000000 
#    z 0.000000 0.000000 4.197840 
# 
# 
# High freq. dielectric constant tensor:
#      x y z
#    x 1.893530 0.000000 0.000000 
#    y 0.000000 1.851530 0.000000 
#    z 0.000000 0.000000 1.910560 
# 
# From -- ./inp_files/20897.got.cif
#   From: 2010.03.12/outbox.cif.g09.slc.cpg/sg60_11_cif.got.tgz:20897.got - 2010.04.10 18:46:24.
