data_PCOD8247568
_publ_section_title
;
Structure prediction by ZEFSAII (Michael W. Deem and Ramdas Pophale) SiO2 
 PCOD8247568
Probable space group: P B C N
;
_chemical_formula_sum "Si O2"
_cell_formula_units_Z 48
_cell_length_a 23.057111
_cell_length_b 8.150733
_cell_length_c 11.386604
_cell_angle_alpha 90.000000
_cell_angle_beta 90.000000
_cell_angle_gamma 90.000000
_cell_volume 2139.911311
_symmetry_space_group_name_H-M "P B C N"
_symmetry_group_IT_number 60
_symmetry_cell_setting 'orthorhombic'
loop_
_space_group_symop_operation_xyz
x,y,z
1/2-x,1/2-y,1/2+z
1/2+x,1/2-y,-z
-x,y,1/2-z
-x,-y,-z
1/2+x,1/2+y,1/2-z
1/2-x,1/2+y,z
x,-y,1/2+z
loop_
_atom_site_type_symbol
_atom_site_label
_atom_site_fract_x
_atom_site_fract_y
_atom_site_fract_z
Si Si1 0.065521 0.253181 0.733301
Si Si2 0.127549 0.353560 0.515881
Si Si3 0.332004 0.344730 0.392138
Si Si4 0.342156 0.201576 0.629358
Si Si5 0.217977 0.807211 0.844334
Si Si6 0.439516 0.128201 0.786788
O O1 0.099420 0.224461 0.609374
O O2 0.105093 0.182211 0.836446
O O3 0.061272 0.447628 0.734684
O O4 0.000000 0.179210 0.750000
O O5 0.150834 0.521842 0.573082
O O6 0.183239 0.280051 0.450020
O O7 0.074529 0.382855 0.424902
O O8 0.341464 0.345047 0.532345
O O9 0.302342 0.505862 0.341061
O O10 0.287041 0.194942 0.368810
O O11 0.287254 0.218624 0.716676
O O12 0.394015 0.243079 0.719574
O O13 0.500000 0.211015 0.750000
#
# Coordination Sequence:
#
# PCOD8247568 Si02
#       6
#     8   8   8   8   8   8
#     4  10  23  39  67 100 136 181 227 275 343 399
#     4  10  21  43  68  99 136 173 226 282 329 405
#     4  12  26  44  68  96 137 177 228 282 344 407
#     4  10  23  42  67  95 136 168 227 273 336 402
#     4  11  28  43  68 100 130 180 225 281 346 402
#     4   9  19  37  69 102 131 174 225 275 326 398
#
# _framework density 22.430834999999998
#
# number of rings (size 3 to 8) (size 9 to 14) (size 15 to 20)
#    0.000    1.667    1.667    1.000   11.667    2.000 
#    0.000    4.167    0.000    0.000    0.000    0.000 
#    0.000    0.000    0.000    0.000    0.000    0.000 
#
# Total GULP energy -594816.779110 kJ/mol
# GULP energy per Si atom -12392.016231 kJ/mol
# Density = 2.237978 g / cm^3
# Si number density = 22.430835 Si / 1000 Ang^3
#
#
#
# Elastic Constant Matrix: (Units=GPa)
#
#
# Indices 1 2 3 4 5 6 
#
# 1 115.9183 31.4271 45.6549 0.0000 0.0000 0.0000
# 2 31.4271 47.2403 21.9288 0.0000 0.0000 0.0000
# 3 45.6549 21.9288 156.1747 0.0000 0.0000 0.0000
# 4 0.0000 0.0000 0.0000 22.7157 0.0000 0.0000
# 5 0.0000 0.0000 0.0000 0.0000 22.1170 0.0000
# 6 0.0000 0.0000 0.0000 0.0000 0.0000 20.0381
#
#
#
# Elastic Compliance Matrix: (Units=1/GPa)
#
#
# Indices 1 2 3 4 5 6 
#
# 1 0.011312 -0.006408 -0.002407 0.000000 0.000000 0.000000
# 2 -0.006408 0.026274 -0.001816 0.000000 0.000000 0.000000
# 3 -0.002407 -0.001816 0.007362 0.000000 0.000000 0.000000
# 4 0.000000 0.000000 0.000000 0.044022 0.000000 0.000000
# 5 0.000000 0.000000 0.000000 0.000000 0.045214 0.000000
# 6 0.000000 0.000000 0.000000 0.000000 0.000000 0.049905
#
#
# Mechanical properties :
#
#
# Convention : Reuss Voigt Hill
#
# Bulk Modulus (GPa) = 42.21924 57.48387 49.85155
# Shear Modulus (GPa) = 23.44697 27.66235 25.55466
#
# Velocity S-wave (km/s) = 3.23662 3.51555 3.37896
# Velocity P-wave (km/s) = 5.72978 6.49319 6.12340
#
# Compressibility (1/GPa) = 0.02368588
#
# Stress axis : x y z
#
# Youngs Moduli (GPa) = 88.40045 38.05991 135.83729
#
# Poissons Ratio (x) = 0.24389 0.32698
# Poissons Ratio (y) = 0.56648 0.24667
# Poissons Ratio (z) = 0.21279 0.06911
#
# Static dielectric constant tensor:
#      x y z
#    x 4.505750 0.000000 0.000000 
#    y 0.000000 3.604850 0.000000 
#    z 0.000000 0.000000 4.353580 
# 
# 
# High freq. dielectric constant tensor:
#      x y z
#    x 1.892470 0.000000 0.000000 
#    y 0.000000 1.849410 0.000000 
#    z 0.000000 0.000000 1.900750 
# 
# From -- ./inp_files/13054.got.cif
#   From: 2010.03.12/outbox.cif.g09.slc.cpg/sg60_7_cif.got.tgz:13054.got - 2010.04.10 18:46:24.
