data_PCOD8247950
_publ_section_title
;
Structure prediction by ZEFSAII (Michael W. Deem and Ramdas Pophale) SiO2 
 PCOD8247950
Probable space group: P B C N
;
_chemical_formula_sum "Si O2"
_cell_formula_units_Z 56
_cell_length_a 8.429453
_cell_length_b 14.663195
_cell_length_c 21.059013
_cell_angle_alpha 90.000000
_cell_angle_beta 90.000000
_cell_angle_gamma 90.000000
_cell_volume 2602.951142
_symmetry_space_group_name_H-M "P B C N"
_symmetry_group_IT_number 60
_symmetry_cell_setting 'orthorhombic'
loop_
_space_group_symop_operation_xyz
x,y,z
1/2-x,1/2-y,1/2+z
1/2+x,1/2-y,-z
-x,y,1/2-z
-x,-y,-z
1/2+x,1/2+y,1/2-z
1/2-x,1/2+y,z
x,-y,1/2+z
loop_
_atom_site_type_symbol
_atom_site_label
_atom_site_fract_x
_atom_site_fract_y
_atom_site_fract_z
Si Si1 0.548273 0.942016 0.678299
Si Si2 0.085721 0.048538 0.313494
Si Si3 0.802564 0.255381 0.469017
Si Si4 0.173739 0.417632 0.118401
Si Si5 0.404621 0.447456 0.555215
Si Si6 0.025359 0.285399 0.914366
Si Si7 0.015124 0.144458 0.684473
O O1 0.500000 0.923108 0.750000
O O2 0.471686 0.870009 0.628982
O O3 0.734495 0.921119 0.675834
O O4 0.479741 0.039900 0.654658
O O5 0.000000 0.092532 0.250000
O O6 0.098364 0.941013 0.302876
O O7 0.992794 0.068395 0.378064
O O8 0.880167 0.325156 0.417729
O O9 0.871963 0.153769 0.469105
O O10 0.616481 0.247362 0.459449
O O11 0.827955 0.301988 0.538269
O O12 0.247711 0.491824 0.069252
O O13 0.305742 0.388192 0.169863
O O14 0.500000 0.500000 0.500000
O O15 0.068245 0.200548 0.870400
O O16 0.000000 0.202431 0.750000
#
# Coordination Sequence:
#
# PCOD8247950 Si02
#       7
#     8   8   8   8   8   8   8
#     4  12  24  43  68 100 134 174 230 285 348 409
#     4  10  23  41  67  93 130 178 225 272 352 423
#     4  11  24  43  63  97 138 170 233 274 347 407
#     4  10  23  41  66  96 131 172 218 294 338 398
#     4  11  22  43  70  93 134 186 225 281 352 416
#     4  11  25  40  65  95 133 179 222 286 336 411
#     4   9  18  41  65  89 123 171 223 267 344 411
#
# _framework density 21.514040999999999
#
# number of rings (size 3 to 8) (size 9 to 14) (size 15 to 20)
#    0.000    1.429    1.429    5.571    4.000    2.857 
#    0.000    0.714    0.000    0.000    0.000    0.000 
#    0.000    0.000    0.000    0.000    0.000    0.000 
#
# Total GULP energy -693862.537838 kJ/mol
# GULP energy per Si atom -12390.402461 kJ/mol
# Density = 2.146507 g / cm^3
# Si number density = 21.514041 Si / 1000 Ang^3
#
#
#
# Elastic Constant Matrix: (Units=GPa)
#
#
# Indices 1 2 3 4 5 6 
#
# 1 46.3971 12.6189 29.0501 0.0000 0.0000 0.0000
# 2 12.6189 95.9361 39.9541 0.0000 0.0000 0.0000
# 3 29.0501 39.9541 155.6709 0.0000 0.0000 0.0000
# 4 0.0000 0.0000 0.0000 22.9408 0.0000 0.0000
# 5 0.0000 0.0000 0.0000 0.0000 33.3116 0.0000
# 6 0.0000 0.0000 0.0000 0.0000 0.0000 23.3268
#
#
#
# Elastic Compliance Matrix: (Units=1/GPa)
#
#
# Indices 1 2 3 4 5 6 
#
# 1 0.024591 -0.001482 -0.004209 0.000000 0.000000 0.000000
# 2 -0.001482 0.011760 -0.002742 0.000000 0.000000 0.000000
# 3 -0.004209 -0.002742 0.007913 0.000000 0.000000 0.000000
# 4 0.000000 0.000000 0.000000 0.043590 0.000000 0.000000
# 5 0.000000 0.000000 0.000000 0.000000 0.030020 0.000000
# 6 0.000000 0.000000 0.000000 0.000000 0.000000 0.042869
#
#
# Mechanical properties :
#
#
# Convention : Reuss Voigt Hill
#
# Bulk Modulus (GPa) = 36.49660 51.25002 43.87331
# Shear Modulus (GPa) = 26.77494 30.34124 28.55809
#
# Velocity S-wave (km/s) = 3.53162 3.75947 3.64733
# Velocity P-wave (km/s) = 5.79920 6.53592 6.17855
#
# Compressibility (1/GPa) = 0.02739981
#
# Stress axis : x y z
#
# Youngs Moduli (GPa) = 40.66485 85.03108 126.37546
#
# Poissons Ratio (x) = 0.12600 0.53188
# Poissons Ratio (y) = 0.06026 0.34651
# Poissons Ratio (z) = 0.17115 0.23314
#
# Static dielectric constant tensor:
#      x y z
#    x 3.716080 0.000000 0.000000 
#    y 0.000000 3.912700 0.000000 
#    z 0.000000 0.000000 4.370790 
# 
# 
# High freq. dielectric constant tensor:
#      x y z
#    x 1.823890 0.000000 0.000000 
#    y 0.000000 1.841410 0.000000 
#    z 0.000000 0.000000 1.867270 
# 
# From -- ./inp_files/22188.got.cif
#   From: 2010.03.12/outbox.cif.g09.slc.cpg/sg60_12_cif.got.tgz:22188.got - 2010.04.10 18:46:24.
