data_PCOD8247188
_publ_section_title
;
Structure prediction by ZEFSAII (Michael W. Deem and Ramdas Pophale) SiO2 
 PCOD8247188
Probable space group: P B C N
;
_chemical_formula_sum "Si O2"
_cell_formula_units_Z 40
_cell_length_a 15.705676
_cell_length_b 8.748895
_cell_length_c 13.331281
_cell_angle_alpha 90.000000
_cell_angle_beta 90.000000
_cell_angle_gamma 90.000000
_cell_volume 1831.815464
_symmetry_space_group_name_H-M "P B C N"
_symmetry_group_IT_number 60
_symmetry_cell_setting 'orthorhombic'
loop_
_space_group_symop_operation_xyz
x,y,z
1/2-x,1/2-y,1/2+z
1/2+x,1/2-y,-z
-x,y,1/2-z
-x,-y,-z
1/2+x,1/2+y,1/2-z
1/2-x,1/2+y,z
x,-y,1/2+z
loop_
_atom_site_type_symbol
_atom_site_label
_atom_site_fract_x
_atom_site_fract_y
_atom_site_fract_z
Si Si1 0.746674 0.770651 0.627914
Si Si2 0.982917 0.065943 0.892410
Si Si3 0.983006 0.421313 0.865931
Si Si4 0.858995 0.524672 0.523617
Si Si5 0.358562 0.512328 0.768264
O O1 0.807832 0.674977 0.555649
O O2 0.684414 0.669162 0.695108
O O3 0.694420 0.874282 0.549770
O O4 0.796939 0.870440 0.710453
O O5 0.053947 0.985234 0.825750
O O6 0.998123 0.246067 0.893837
O O7 0.887605 0.026342 0.849166
O O8 0.000000 0.000000 0.000000
O O9 0.000000 0.449461 0.750000
O O10 0.052081 0.529754 0.917730
O O11 0.887487 0.469486 0.905237
#
# Coordination Sequence:
#
# PCOD8247188 Si02
#       5
#     8   8   8   8   8
#     4  10  20  43  67 104 132 169 219 282 335 389
#     4  11  21  40  67  95 130 179 219 272 327 404
#     4  11  21  43  66  95 132 182 217 272 331 406
#     4  10  22  40  69  94 136 170 219 274 331 400
#     4  10  21  41  67  93 139 165 219 278 331 393
#
# _framework density 21.836261
#
# number of rings (size 3 to 8) (size 9 to 14) (size 15 to 20)
#    0.000    1.600    4.000    1.200    0.000    0.000 
#   10.800   22.000    0.000    0.000    0.000    0.000 
#    0.000    0.000    0.000    0.000    0.000    0.000 
#
# Total GULP energy -495733.948148 kJ/mol
# GULP energy per Si atom -12393.348704 kJ/mol
# Density = 2.178656 g / cm^3
# Si number density = 21.836261 Si / 1000 Ang^3
#
#
#
# Elastic Constant Matrix: (Units=GPa)
#
#
# Indices 1 2 3 4 5 6 
#
# 1 129.8005 58.5722 72.6761 0.0000 0.0000 0.0000
# 2 58.5722 92.8993 58.0693 0.0000 0.0000 0.0000
# 3 72.6761 58.0693 164.1048 0.0000 0.0000 0.0000
# 4 0.0000 0.0000 0.0000 20.0765 0.0000 0.0000
# 5 0.0000 0.0000 0.0000 0.0000 54.8098 0.0000
# 6 0.0000 0.0000 0.0000 0.0000 0.0000 16.5793
#
#
#
# Elastic Compliance Matrix: (Units=1/GPa)
#
#
# Indices 1 2 3 4 5 6 
#
# 1 0.012093 -0.005491 -0.003412 0.000000 0.000000 0.000000
# 2 -0.005491 0.016315 -0.003341 0.000000 0.000000 0.000000
# 3 -0.003412 -0.003341 0.008787 0.000000 0.000000 0.000000
# 4 0.000000 0.000000 0.000000 0.049810 0.000000 0.000000
# 5 0.000000 0.000000 0.000000 0.000000 0.018245 0.000000
# 6 0.000000 0.000000 0.000000 0.000000 0.000000 0.060316
#
#
# Mechanical properties :
#
#
# Convention : Reuss Voigt Hill
#
# Bulk Modulus (GPa) = 78.70812 85.04887 81.87849
# Shear Modulus (GPa) = 25.73465 31.45890 28.59678
#
# Velocity S-wave (km/s) = 3.43669 3.79974 3.62277
# Velocity P-wave (km/s) = 7.20214 7.63437 7.42140
#
# Compressibility (1/GPa) = 0.01270517
#
# Stress axis : x y z
#
# Youngs Moduli (GPa) = 82.69484 61.29264 113.80255
#
# Poissons Ratio (x) = 0.33658 0.38832
# Poissons Ratio (y) = 0.45411 0.38024
# Poissons Ratio (z) = 0.28217 0.20479
#
# Static dielectric constant tensor:
#      x y z
#    x 3.931740 0.000000 0.000000 
#    y 0.000000 3.856430 0.000000 
#    z 0.000000 0.000000 3.859680 
# 
# 
# High freq. dielectric constant tensor:
#      x y z
#    x 1.871330 0.000000 0.000000 
#    y 0.000000 1.858360 0.000000 
#    z 0.000000 0.000000 1.851060 
# 
# From -- ./inp_files/17209.got.cif
#   From: 2010.03.12/outbox.cif.g09.slc.cpg/sg60_9_cif.got.tgz:17209.got - 2010.04.10 18:46:24.
