data_PCOD8247150
_publ_section_title
;
Structure prediction by ZEFSAII (Michael W. Deem and Ramdas Pophale) SiO2 
 PCOD8247150
Probable space group: P B C N
;
_chemical_formula_sum "Si O2"
_cell_formula_units_Z 40
_cell_length_a 9.004725
_cell_length_b 13.439793
_cell_length_c 16.343989
_cell_angle_alpha 90.000000
_cell_angle_beta 90.000000
_cell_angle_gamma 90.000000
_cell_volume 1977.976353
_symmetry_space_group_name_H-M "P B C N"
_symmetry_group_IT_number 60
_symmetry_cell_setting 'orthorhombic'
loop_
_space_group_symop_operation_xyz
x,y,z
1/2-x,1/2-y,1/2+z
1/2+x,1/2-y,-z
-x,y,1/2-z
-x,-y,-z
1/2+x,1/2+y,1/2-z
1/2-x,1/2+y,z
x,-y,1/2+z
loop_
_atom_site_type_symbol
_atom_site_label
_atom_site_fract_x
_atom_site_fract_y
_atom_site_fract_z
Si Si1 0.345334 0.912486 0.282105
Si Si2 0.085907 0.051504 0.671100
Si Si3 0.769439 0.556210 0.458582
Si Si4 0.660243 0.689587 0.592683
Si Si5 0.601310 0.079767 0.096784
O O1 0.500000 0.873409 0.250000
O O2 0.234577 0.899480 0.206284
O O3 0.303156 0.837934 0.354101
O O4 0.355346 0.025440 0.318154
O O5 0.000000 0.003422 0.750000
O O6 0.985631 0.134831 0.627709
O O7 0.137570 0.971775 0.604101
O O8 0.701591 0.654627 0.501088
O O9 0.802435 0.469684 0.524391
O O10 0.923732 0.575495 0.412629
O O11 0.644614 0.806322 0.598299
#
# Coordination Sequence:
#
# PCOD8247150 Si02
#       5
#     8   8   8   8   8
#     4  10  20  41  64  86 130 165 205 254 315 381
#     4  10  21  40  63  90 129 160 200 262 310 368
#     4  10  21  41  64  90 126 164 206 258 312 373
#     4  10  23  39  63  97 120 161 216 263 304 373
#     4  10  22  40  66  90 123 169 208 253 317 374
#
# _framework density 20.222688999999999
#
# number of rings (size 3 to 8) (size 9 to 14) (size 15 to 20)
#    0.000    2.000    2.000    0.600    2.800    2.400 
#    0.000    5.000    0.000    0.000    0.000    0.000 
#    0.000    0.000    0.000    0.000    0.000    0.000 
#
# Total GULP energy -495802.079284 kJ/mol
# GULP energy per Si atom -12395.051982 kJ/mol
# Density = 2.017666 g / cm^3
# Si number density = 20.222689 Si / 1000 Ang^3
#
#
#
# Elastic Constant Matrix: (Units=GPa)
#
#
# Indices 1 2 3 4 5 6 
#
# 1 125.4182 36.5379 34.8696 0.0000 0.0000 0.0000
# 2 36.5379 126.0035 23.8199 0.0000 0.0000 0.0000
# 3 34.8696 23.8199 64.4730 0.0000 0.0000 0.0000
# 4 0.0000 0.0000 0.0000 12.1616 0.0000 0.0000
# 5 0.0000 0.0000 0.0000 0.0000 32.8353 0.0000
# 6 0.0000 0.0000 0.0000 0.0000 0.0000 18.1498
#
#
#
# Elastic Compliance Matrix: (Units=1/GPa)
#
#
# Indices 1 2 3 4 5 6 
#
# 1 0.009825 -0.001983 -0.004581 0.000000 0.000000 0.000000
# 2 -0.001983 0.008932 -0.002228 0.000000 0.000000 0.000000
# 3 -0.004581 -0.002228 0.018811 0.000000 0.000000 0.000000
# 4 0.000000 0.000000 0.000000 0.082226 0.000000 0.000000
# 5 0.000000 0.000000 0.000000 0.000000 0.030455 0.000000
# 6 0.000000 0.000000 0.000000 0.000000 0.000000 0.055097
#
#
# Mechanical properties :
#
#
# Convention : Reuss Voigt Hill
#
# Bulk Modulus (GPa) = 50.03779 56.26106 53.14943
# Shear Modulus (GPa) = 21.77786 27.34049 24.55918
#
# Velocity S-wave (km/s) = 3.28518 3.68090 3.48866
# Velocity P-wave (km/s) = 6.25995 6.77839 6.52432
#
# Compressibility (1/GPa) = 0.01998489
#
# Stress axis : x y z
#
# Youngs Moduli (GPa) = 101.78494 111.95190 53.16042
#
# Poissons Ratio (x) = 0.22199 0.24353
# Poissons Ratio (y) = 0.20183 0.11842
# Poissons Ratio (z) = 0.46627 0.24939
#
# Static dielectric constant tensor:
#      x y z
#    x 3.989140 0.000000 0.000000 
#    y 0.000000 3.308030 0.000000 
#    z 0.000000 0.000000 3.980910 
# 
# 
# High freq. dielectric constant tensor:
#      x y z
#    x 1.809390 0.000000 0.000000 
#    y 0.000000 1.755350 0.000000 
#    z 0.000000 0.000000 1.803290 
# 
# From -- ./inp_files/14652.got.cif
#   From: 2010.03.12/outbox.cif.g09.slc.cpg/sg60_8_cif.got.tgz:14652.got - 2010.04.10 18:46:24.
