data_PCOD8247359
_publ_section_title
;
Structure prediction by ZEFSAII (Michael W. Deem and Ramdas Pophale) SiO2 
 PCOD8247359
Probable space group: P B C N
;
_chemical_formula_sum "Si O2"
_cell_formula_units_Z 48
_cell_length_a 12.078077
_cell_length_b 11.287612
_cell_length_c 17.300731
_cell_angle_alpha 90.000000
_cell_angle_beta 90.000000
_cell_angle_gamma 90.000000
_cell_volume 2358.654450
_symmetry_space_group_name_H-M "P B C N"
_symmetry_group_IT_number 60
_symmetry_cell_setting 'orthorhombic'
loop_
_space_group_symop_operation_xyz
x,y,z
1/2-x,1/2-y,1/2+z
1/2+x,1/2-y,-z
-x,y,1/2-z
-x,-y,-z
1/2+x,1/2+y,1/2-z
1/2-x,1/2+y,z
x,-y,1/2+z
loop_
_atom_site_type_symbol
_atom_site_label
_atom_site_fract_x
_atom_site_fract_y
_atom_site_fract_z
Si Si1 0.126742 0.452506 0.070499
Si Si2 0.035139 0.867706 0.337654
Si Si3 0.735159 0.045282 0.696845
Si Si4 0.426257 0.113988 0.409947
Si Si5 0.605908 0.779966 0.295568
Si Si6 0.665458 0.462291 0.852792
O O1 0.080200 0.384759 0.145377
O O2 0.249980 0.502133 0.080818
O O3 0.043396 0.560859 0.064656
O O4 0.137109 0.375594 0.991906
O O5 0.155450 0.925876 0.352863
O O6 0.040786 0.741556 0.378534
O O7 0.000000 0.842700 0.250000
O O8 0.943211 0.958595 0.369922
O O9 0.688117 0.171057 0.728822
O O10 0.778302 0.972542 0.769336
O O11 0.645331 0.967136 0.649704
O O12 0.500000 0.731934 0.250000
O O13 0.645282 0.677671 0.353641
#
# Coordination Sequence:
#
# PCOD8247359 Si02
#       6
#     8   8   8   8   8   8
#     4  10  25  40  60  91 126 173 204 262 311 378
#     4  10  23  40  66  96 124 163 206 267 314 368
#     4  10  21  38  63  97 117 166 206 266 310 367
#     4  11  23  43  61  91 128 165 217 250 318 384
#     4  11  20  38  64  94 122 165 211 260 318 375
#     4  10  23  40  63  93 128 158 212 263 319 370
#
# _framework density 20.350586
#
# number of rings (size 3 to 8) (size 9 to 14) (size 15 to 20)
#    0.000    1.667    1.667    2.500   11.667    1.333 
#    3.000    1.667    0.000    0.000    0.000    0.000 
#    0.000    0.000    0.000    0.000    0.000    0.000 
#
# Total GULP energy -594697.977438 kJ/mol
# GULP energy per Si atom -12389.541197 kJ/mol
# Density = 2.030427 g / cm^3
# Si number density = 20.350586 Si / 1000 Ang^3
#
#
#
# Elastic Constant Matrix: (Units=GPa)
#
#
# Indices 1 2 3 4 5 6 
#
# 1 115.6542 42.5491 32.9111 0.0000 0.0000 0.0000
# 2 42.5491 84.0275 14.2079 0.0000 0.0000 0.0000
# 3 32.9111 14.2079 59.9945 0.0000 0.0000 0.0000
# 4 0.0000 0.0000 0.0000 17.3272 0.0000 0.0000
# 5 0.0000 0.0000 0.0000 0.0000 29.7330 0.0000
# 6 0.0000 0.0000 0.0000 0.0000 0.0000 24.0202
#
#
#
# Elastic Compliance Matrix: (Units=1/GPa)
#
#
# Indices 1 2 3 4 5 6 
#
# 1 0.012103 -0.005215 -0.005404 0.000000 0.000000 0.000000
# 2 -0.005215 0.014644 -0.000607 0.000000 0.000000 0.000000
# 3 -0.005404 -0.000607 0.019777 0.000000 0.000000 0.000000
# 4 0.000000 0.000000 0.000000 0.057713 0.000000 0.000000
# 5 0.000000 0.000000 0.000000 0.000000 0.033633 0.000000
# 6 0.000000 0.000000 0.000000 0.000000 0.000000 0.041632
#
#
# Mechanical properties :
#
#
# Convention : Reuss Voigt Hill
#
# Bulk Modulus (GPa) = 41.54406 48.77915 45.16160
# Shear Modulus (GPa) = 23.81211 25.54994 24.68103
#
# Velocity S-wave (km/s) = 3.42438 3.54713 3.48629
# Velocity P-wave (km/s) = 6.00780 6.38730 6.20045
#
# Compressibility (1/GPa) = 0.02407083
#
# Stress axis : x y z
#
# Youngs Moduli (GPa) = 82.62533 68.28669 50.56467
#
# Poissons Ratio (x) = 0.35610 0.27327
# Poissons Ratio (y) = 0.43087 0.03071
# Poissons Ratio (z) = 0.44653 0.04148
#
# Static dielectric constant tensor:
#      x y z
#    x 4.016400 0.000000 0.000000 
#    y 0.000000 3.568380 0.000000 
#    z 0.000000 0.000000 3.644570 
# 
# 
# High freq. dielectric constant tensor:
#      x y z
#    x 1.807900 0.000000 0.000000 
#    y 0.000000 1.795590 0.000000 
#    z 0.000000 0.000000 1.781480 
# 
# From -- ./inp_files/19987.got.cif
#   From: 2010.03.12/outbox.cif.g09.slc.cpg/sg60_10_cif.got.tgz:19987.got - 2010.04.10 18:46:24.
