data_PCOD8247212
_publ_section_title
;
Structure prediction by ZEFSAII (Michael W. Deem and Ramdas Pophale) SiO2 
 PCOD8247212
Probable space group: P B C N
;
_chemical_formula_sum "Si O2"
_cell_formula_units_Z 64
_cell_length_a 12.152002
_cell_length_b 32.819764
_cell_length_c 8.989540
_cell_angle_alpha 90.000000
_cell_angle_beta 90.000000
_cell_angle_gamma 90.000000
_cell_volume 3585.260822
_symmetry_space_group_name_H-M "P B C N"
_symmetry_group_IT_number 60
_symmetry_cell_setting 'orthorhombic'
loop_
_space_group_symop_operation_xyz
x,y,z
1/2-x,1/2-y,1/2+z
1/2+x,1/2-y,-z
-x,y,1/2-z
-x,-y,-z
1/2+x,1/2+y,1/2-z
1/2-x,1/2+y,z
x,-y,1/2+z
loop_
_atom_site_type_symbol
_atom_site_label
_atom_site_fract_x
_atom_site_fract_y
_atom_site_fract_z
Si Si1 0.244509 0.180457 0.507497
Si Si2 0.627799 0.456392 0.110254
Si Si3 0.064954 0.726578 0.384249
Si Si4 0.287325 0.697676 0.838567
Si Si5 0.891784 0.872601 0.960273
Si Si6 0.865942 0.888952 0.616742
Si Si7 0.590762 0.746585 0.121985
Si Si8 0.127009 0.968377 0.064566
O O1 0.370679 0.195100 0.490815
O O2 0.204886 0.177657 0.677100
O O3 0.238373 0.134526 0.449787
O O4 0.169403 0.207470 0.395310
O O5 0.682377 0.458926 0.275103
O O6 0.501058 0.469837 0.105580
O O7 0.647246 0.410238 0.060299
O O8 0.680498 0.489565 0.997075
O O9 0.146475 0.760707 0.323801
O O10 0.000000 0.703877 0.250000
O O11 0.973087 0.751005 0.470194
O O12 0.160661 0.711445 0.863397
O O13 0.333941 0.667904 0.969619
O O14 0.857182 0.883602 0.793094
O O15 0.024197 0.868523 0.956591
O O16 0.854594 0.935546 0.566806
O O17 0.500000 0.739728 0.250000
#
# Coordination Sequence:
#
# PCOD8247212 Si02
#       8
#     8   8   8   8   8   8   8   8
#     4  11  23  35  54  74 100 131 173 211 257 308
#     4   9  16  28  46  67  97 135 167 204 243 302
#     4  11  23  38  54  74  98 134 169 214 260 308
#     4  11  23  36  52  76  98 133 172 212 257 309
#     4  10  21  32  48  72 105 134 171 210 254 296
#     4  10  21  32  47  74 102 136 169 213 250 299
#     4  11  23  38  54  71 100 132 169 212 261 306
#     4   9  16  28  46  67  98 133 171 200 248 297
#
# _framework density 17.850864000000001
#
# number of rings (size 3 to 8) (size 9 to 14) (size 15 to 20)
#    0.000    1.750    2.500    2.250    5.250    4.000 
#    0.000    0.000    0.000    0.000    0.000    0.000 
#    0.000    2.000    0.000    0.125    0.000    0.125 
#
# Total GULP energy -792889.224881 kJ/mol
# GULP energy per Si atom -12388.894139 kJ/mol
# Density = 1.781024 g / cm^3
# Si number density = 17.850864 Si / 1000 Ang^3
#
#
#
# Elastic Constant Matrix: (Units=GPa)
#
#
# Indices 1 2 3 4 5 6 
#
# 1 41.0373 9.1541 15.3385 0.0000 0.0000 0.0000
# 2 9.1541 49.9707 20.8163 0.0000 0.0000 0.0000
# 3 15.3385 20.8163 117.3001 0.0000 0.0000 0.0000
# 4 0.0000 0.0000 0.0000 30.1218 0.0000 0.0000
# 5 0.0000 0.0000 0.0000 0.0000 17.7982 0.0000
# 6 0.0000 0.0000 0.0000 0.0000 0.0000 13.9414
#
#
#
# Elastic Compliance Matrix: (Units=1/GPa)
#
#
# Indices 1 2 3 4 5 6 
#
# 1 0.026221 -0.003644 -0.002782 0.000000 0.000000 0.000000
# 2 -0.003644 0.022116 -0.003448 0.000000 0.000000 0.000000
# 3 -0.002782 -0.003448 0.009501 0.000000 0.000000 0.000000
# 4 0.000000 0.000000 0.000000 0.033199 0.000000 0.000000
# 5 0.000000 0.000000 0.000000 0.000000 0.056186 0.000000
# 6 0.000000 0.000000 0.000000 0.000000 0.000000 0.071729
#
#
# Mechanical properties :
#
#
# Convention : Reuss Voigt Hill
#
# Bulk Modulus (GPa) = 26.25483 33.21399 29.73441
# Shear Modulus (GPa) = 19.88900 23.23891 21.56395
#
# Velocity S-wave (km/s) = 3.34155 3.61201 3.47941
# Velocity P-wave (km/s) = 5.44314 6.00352 5.73018
#
# Compressibility (1/GPa) = 0.03808823
#
# Stress axis : x y z
#
# Youngs Moduli (GPa) = 38.13764 45.21669 105.25397
#
# Poissons Ratio (x) = 0.16479 0.29281
# Poissons Ratio (y) = 0.13899 0.36293
# Poissons Ratio (z) = 0.10610 0.15591
#
# Static dielectric constant tensor:
#      x y z
#    x 3.004930 0.000000 0.000000 
#    y 0.000000 3.217220 0.000000 
#    z 0.000000 0.000000 3.364770 
# 
# 
# High freq. dielectric constant tensor:
#      x y z
#    x 1.635930 0.000000 0.000000 
#    y 0.000000 1.679610 0.000000 
#    z 0.000000 0.000000 1.715700 
# 
# From -- ./inp_files/5339.got.cif
#   From: 2010.03.12/outbox.cif.g09.slc.cpg/sg60_3_cif.got.tgz:5339.got - 2010.04.10 18:46:24.
