data_PCOD8247765
_publ_section_title
;
Structure prediction by ZEFSAII (Michael W. Deem and Ramdas Pophale) SiO2 
 PCOD8247765
Probable space group: P B C N
;
_chemical_formula_sum "Si O2"
_cell_formula_units_Z 32
_cell_length_a 18.203053
_cell_length_b 4.932370
_cell_length_c 15.671017
_cell_angle_alpha 90.000000
_cell_angle_beta 90.000000
_cell_angle_gamma 90.000000
_cell_volume 1407.009607
_symmetry_space_group_name_H-M "P B C N"
_symmetry_group_IT_number 60
_symmetry_cell_setting 'orthorhombic'
loop_
_space_group_symop_operation_xyz
x,y,z
1/2-x,1/2-y,1/2+z
1/2+x,1/2-y,-z
-x,y,1/2-z
-x,-y,-z
1/2+x,1/2+y,1/2-z
1/2-x,1/2+y,z
x,-y,1/2+z
loop_
_atom_site_type_symbol
_atom_site_label
_atom_site_fract_x
_atom_site_fract_y
_atom_site_fract_z
Si Si1 0.702914 0.167835 0.530639
Si Si2 0.441774 0.127274 0.677579
Si Si3 0.795785 0.349987 0.230087
Si Si4 0.441740 0.366431 0.063762
O O1 0.768738 0.371279 0.503981
O O2 0.685323 0.157894 0.630354
O O3 0.628416 0.249749 0.484791
O O4 0.500000 0.199724 0.750000
O O5 0.366051 0.034945 0.720645
O O6 0.420431 0.399650 0.628670
O O7 0.474280 0.890681 0.616271
O O8 0.728520 0.547522 0.254838
O O9 0.500000 0.500000 0.000000
#
# Coordination Sequence:
#
# PCOD8247765 Si02
#       4
#     8   8   8   8
#     4  10  22  41  66  95 129 167 208 260 323 386
#     4  12  26  43  66  94 129 171 217 268 320 384
#     4  10  22  41  65  93 127 165 206 258 319 380
#     4  12  26  43  66  94 130 171 216 268 321 384
#
# _framework density 22.743272000000001
#
# number of rings (size 3 to 8) (size 9 to 14) (size 15 to 20)
#    0.000    1.000    0.000    6.000    0.000   12.000 
#    0.000    0.000    0.000    0.000    0.000    0.000 
#    0.000    0.000    0.000    0.000    0.000    0.000 
#
# Total GULP energy -396818.137791 kJ/mol
# GULP energy per Si atom -12400.566806 kJ/mol
# Density = 2.269151 g / cm^3
# Si number density = 22.743272 Si / 1000 Ang^3
#
#
#
# Elastic Constant Matrix: (Units=GPa)
#
#
# Indices 1 2 3 4 5 6 
#
# 1 92.1061 7.5480 57.5539 0.0000 0.0000 0.0000
# 2 7.5480 120.5201 42.9290 0.0000 0.0000 0.0000
# 3 57.5539 42.9290 84.2121 0.0000 0.0000 0.0000
# 4 0.0000 0.0000 0.0000 8.4676 0.0000 0.0000
# 5 0.0000 0.0000 0.0000 0.0000 22.5989 0.0000
# 6 0.0000 0.0000 0.0000 0.0000 0.0000 32.3131
#
#
#
# Elastic Compliance Matrix: (Units=1/GPa)
#
#
# Indices 1 2 3 4 5 6 
#
# 1 0.020852 0.004607 -0.016599 0.000000 0.000000 0.000000
# 2 0.004607 0.011156 -0.008835 0.000000 0.000000 0.000000
# 3 -0.016599 -0.008835 0.027724 0.000000 0.000000 0.000000
# 4 0.000000 0.000000 0.000000 0.118098 0.000000 0.000000
# 5 0.000000 0.000000 0.000000 0.000000 0.044250 0.000000
# 6 0.000000 0.000000 0.000000 0.000000 0.000000 0.030947
#
#
# Mechanical properties :
#
#
# Convention : Reuss Voigt Hill
#
# Bulk Modulus (GPa) = 55.32432 56.98888 56.15660
# Shear Modulus (GPa) = 16.62745 25.26307 20.94526
#
# Velocity S-wave (km/s) = 2.70681 3.33647 3.03800
# Velocity P-wave (km/s) = 5.84358 6.32096 6.08696
#
# Compressibility (1/GPa) = 0.01807523
#
# Stress axis : x y z
#
# Youngs Moduli (GPa) = 47.95721 89.63751 36.07039
#
# Poissons Ratio (x) = -0.41294 0.59875
# Poissons Ratio (y) = -0.22093 0.31870
# Poissons Ratio (z) = 0.79606 0.79199
#
# Static dielectric constant tensor:
#      x y z
#    x 3.803880 0.000000 0.000000 
#    y 0.000000 4.469820 0.000000 
#    z 0.000000 0.000000 4.344270 
# 
# 
# High freq. dielectric constant tensor:
#      x y z
#    x 1.892190 0.000000 0.000000 
#    y 0.000000 1.915410 0.000000 
#    z 0.000000 0.000000 1.908520 
# 
# From -- ./inp_files/17110.got.cif
#   From: 2010.03.12/outbox.cif.g09.slc.cpg/sg60_9_cif.got.tgz:17110.got - 2010.04.10 18:46:24.
