data_PCOD8247453
_publ_section_title
;
Structure prediction by ZEFSAII (Michael W. Deem and Ramdas Pophale) SiO2 
 PCOD8247453
Probable space group: P B C N
;
_chemical_formula_sum "Si O2"
_cell_formula_units_Z 64
_cell_length_a 14.800009
_cell_length_b 8.944647
_cell_length_c 21.817492
_cell_angle_alpha 90.000000
_cell_angle_beta 90.000000
_cell_angle_gamma 90.000000
_cell_volume 2888.218269
_symmetry_space_group_name_H-M "P B C N"
_symmetry_group_IT_number 60
_symmetry_cell_setting 'orthorhombic'
loop_
_space_group_symop_operation_xyz
x,y,z
1/2-x,1/2-y,1/2+z
1/2+x,1/2-y,-z
-x,y,1/2-z
-x,-y,-z
1/2+x,1/2+y,1/2-z
1/2-x,1/2+y,z
x,-y,1/2+z
loop_
_atom_site_type_symbol
_atom_site_label
_atom_site_fract_x
_atom_site_fract_y
_atom_site_fract_z
Si Si1 0.219045 0.147373 0.737307
Si Si2 0.549342 0.660144 0.599601
Si Si3 0.916943 0.361388 0.708494
Si Si4 0.226642 0.372195 0.535060
Si Si5 0.315375 0.440423 0.853477
Si Si6 0.405044 0.184668 0.782915
Si Si7 0.651556 0.391769 0.395944
Si Si8 0.175045 0.629204 0.454936
O O1 0.171224 0.304507 0.754688
O O2 0.326167 0.181649 0.730296
O O3 0.176328 0.082135 0.675072
O O4 0.206060 0.031338 0.792410
O O5 0.545509 0.729923 0.666702
O O6 0.628695 0.536251 0.596447
O O7 0.453469 0.584156 0.587101
O O8 0.576210 0.796796 0.554304
O O9 0.899635 0.526379 0.680172
O O10 0.000000 0.403268 0.750000
O O11 0.172869 0.281799 0.587510
O O12 0.299771 0.480834 0.565180
O O13 0.162813 0.473401 0.491218
O O14 0.267740 0.243204 0.494356
O O15 0.379990 0.303294 0.835209
O O16 0.223323 0.386055 0.887582
O O17 0.500000 0.224764 0.750000
#
# Coordination Sequence:
#
# PCOD8247453 Si02
#       8
#     8   8   8   8   8   8   8   8
#     4  11  23  41  67  94 141 177 218 270 349 414
#     4  11  23  40  75  97 130 173 230 282 337 407
#     4  10  21  40  60 100 134 172 211 268 341 411
#     4  10  26  46  67  91 136 178 229 280 337 397
#     4  11  24  41  69 104 132 181 215 286 339 396
#     4  11  25  36  60 101 140 172 221 266 331 411
#     4  11  26  45  69 100 131 183 221 278 351 408
#     4  11  22  48  68  96 131 176 232 285 330 391
#
# _framework density 22.158988999999998
#
# number of rings (size 3 to 8) (size 9 to 14) (size 15 to 20)
#    0.000    1.250    2.500    3.000    7.000    1.000 
#    0.000    1.250    0.000    0.000    0.000    0.000 
#    0.000    0.000    0.000    0.000    0.000    0.000 
#
# Total GULP energy -793198.578587 kJ/mol
# GULP energy per Si atom -12393.727790 kJ/mol
# Density = 2.210855 g / cm^3
# Si number density = 22.158989 Si / 1000 Ang^3
#
#
#
# Elastic Constant Matrix: (Units=GPa)
#
#
# Indices 1 2 3 4 5 6 
#
# 1 111.0949 17.4738 8.6903 0.0000 0.0000 0.0000
# 2 17.4738 104.9697 23.2319 0.0000 0.0000 0.0000
# 3 8.6903 23.2319 77.1761 0.0000 0.0000 0.0000
# 4 0.0000 0.0000 0.0000 -812.1658 0.0000 0.0000
# 5 0.0000 0.0000 0.0000 0.0000 15.5732 0.0000
# 6 0.0000 0.0000 0.0000 0.0000 0.0000 38.6650
#
#
#
# Elastic Compliance Matrix: (Units=1/GPa)
#
#
# Indices 1 2 3 4 5 6 
#
# 1 0.009271 -0.001406 -0.000621 0.000000 0.000000 0.000000
# 2 -0.001406 0.010420 -0.002978 0.000000 0.000000 0.000000
# 3 -0.000621 -0.002978 0.013924 0.000000 0.000000 0.000000
# 4 0.000000 0.000000 0.000000 -0.001231 0.000000 0.000000
# 5 0.000000 0.000000 0.000000 0.000000 0.064213 0.000000
# 6 0.000000 0.000000 0.000000 0.000000 0.000000 0.025863
#
#
# Mechanical properties :
#
#
# Convention : Reuss Voigt Hill
#
# Bulk Modulus (GPa) = 42.36446 43.55918 42.96182
# Shear Modulus (GPa) = 35.62839 -135.32920 -49.85041
#
# Velocity S-wave (km/s) = 4.01415 -7.82333 -4.74821
# Velocity P-wave (km/s) = 6.37530 7.86802 3.26047
#
# Compressibility (1/GPa) = 0.02360469
#
# Stress axis : x y z
#
# Youngs Moduli (GPa) = 107.86317 95.97163 71.81942
#
# Poissons Ratio (x) = 0.13493 0.04458
# Poissons Ratio (y) = 0.15165 0.21390
# Poissons Ratio (z) = 0.06695 0.28583
#
# Static dielectric constant tensor:
#      x y z
#    x 4.016630 0.000000 0.000000 
#    y 0.000000 4.379710 0.000000 
#    z 0.000000 0.000000 3.918620 
# 
# 
# High freq. dielectric constant tensor:
#      x y z
#    x 1.869550 0.000000 0.000000 
#    y 0.000000 1.894000 0.000000 
#    z 0.000000 0.000000 1.853880 
# 
# From -- ./inp_files/24456.got.cif
#   From: 2010.03.12/outbox.cif.g09.slc.cpg/sg60_13_cif.got.tgz:24456.got - 2010.04.10 18:46:24.
