data_PCOD8247397
_publ_section_title
;
Structure prediction by ZEFSAII (Michael W. Deem and Ramdas Pophale) SiO2 
 PCOD8247397
Probable space group: P B C N
;
_chemical_formula_sum "Si O2"
_cell_formula_units_Z 48
_cell_length_a 30.184487
_cell_length_b 5.017913
_cell_length_c 14.613099
_cell_angle_alpha 90.000000
_cell_angle_beta 90.000000
_cell_angle_gamma 90.000000
_cell_volume 2213.345709
_symmetry_space_group_name_H-M "P B C N"
_symmetry_group_IT_number 60
_symmetry_cell_setting 'orthorhombic'
loop_
_space_group_symop_operation_xyz
x,y,z
1/2-x,1/2-y,1/2+z
1/2+x,1/2-y,-z
-x,y,1/2-z
-x,-y,-z
1/2+x,1/2+y,1/2-z
1/2-x,1/2+y,z
x,-y,1/2+z
loop_
_atom_site_type_symbol
_atom_site_label
_atom_site_fract_x
_atom_site_fract_y
_atom_site_fract_z
Si Si1 0.850146 0.076903 0.337473
Si Si2 0.277902 0.574360 0.016829
Si Si3 0.778889 0.083187 0.694351
Si Si4 0.511227 0.390816 0.348976
Si Si5 0.094026 0.434901 0.629567
Si Si6 0.459622 0.199469 0.500679
O O1 0.823472 0.984798 0.248271
O O2 0.881608 0.329794 0.312789
O O3 0.818283 0.162740 0.419913
O O4 0.877382 0.828149 0.374473
O O5 0.237689 0.775620 0.039153
O O6 0.292543 0.586568 0.911553
O O7 0.740531 0.871696 0.720162
O O8 0.500000 0.515544 0.250000
O O9 0.544487 0.136920 0.331885
O O10 0.463559 0.327010 0.399095
O O11 0.536772 0.590280 0.416120
O O12 0.086066 0.543582 0.524254
O O13 0.500000 0.000000 0.500000
#
# Coordination Sequence:
#
# PCOD8247397 Si02
#       6
#     8   8   8   8   8   8
#     4  12  22  39  61  90 133 161 197 265 327 363
#     4  10  21  39  63  89 115 165 217 246 302 384
#     4  10  21  39  62  88 121 163 214 255 296 373
#     4  10  21  43  69  92 120 173 219 257 315 389
#     4  11  23  41  58  95 130 159 208 260 315 381
#     4   9  20  41  66  88 126 163 213 265 305 372
#
# _framework density 21.686626
#
# number of rings (size 3 to 8) (size 9 to 14) (size 15 to 20)
#    0.000    1.667    1.667    3.000    0.000    2.667 
#    6.000    0.000    0.000    0.000    0.000    0.000 
#    0.000    0.000    0.000    0.000    0.000    0.000 
#
# Total GULP energy -594707.951199 kJ/mol
# GULP energy per Si atom -12389.748983 kJ/mol
# Density = 2.163727 g / cm^3
# Si number density = 21.686626 Si / 1000 Ang^3
#
#
#
# Elastic Constant Matrix: (Units=GPa)
#
#
# Indices 1 2 3 4 5 6 
#
# 1 56.9300 16.7822 29.1237 0.0000 0.0000 0.0000
# 2 16.7822 100.5492 24.1726 0.0000 0.0000 0.0000
# 3 29.1237 24.1726 106.6422 0.0000 0.0000 0.0000
# 4 0.0000 0.0000 0.0000 19.5212 0.0000 0.0000
# 5 0.0000 0.0000 0.0000 0.0000 13.8094 0.0000
# 6 0.0000 0.0000 0.0000 0.0000 0.0000 30.2596
#
#
#
# Elastic Compliance Matrix: (Units=1/GPa)
#
#
# Indices 1 2 3 4 5 6 
#
# 1 0.020883 -0.002236 -0.005196 0.000000 0.000000 0.000000
# 2 -0.002236 0.010758 -0.001828 0.000000 0.000000 0.000000
# 3 -0.005196 -0.001828 0.011211 0.000000 0.000000 0.000000
# 4 0.000000 0.000000 0.000000 0.051226 0.000000 0.000000
# 5 0.000000 0.000000 0.000000 0.000000 0.072415 0.000000
# 6 0.000000 0.000000 0.000000 0.000000 0.000000 0.033047
#
#
# Mechanical properties :
#
#
# Convention : Reuss Voigt Hill
#
# Bulk Modulus (GPa) = 41.09996 44.91985 43.00991
# Shear Modulus (GPa) = 22.10723 25.65423 23.88073
#
# Velocity S-wave (km/s) = 3.19626 3.44314 3.32199
# Velocity P-wave (km/s) = 5.71090 6.04690 5.88130
#
# Compressibility (1/GPa) = 0.02433092
#
# Stress axis : x y z
#
# Youngs Moduli (GPa) = 47.88622 92.95371 89.20199
#
# Poissons Ratio (x) = 0.20787 0.46351
# Poissons Ratio (y) = 0.10709 0.16304
# Poissons Ratio (z) = 0.24882 0.16990
#
# Static dielectric constant tensor:
#      x y z
#    x 4.017290 0.000000 0.000000 
#    y 0.000000 4.470940 0.000000 
#    z 0.000000 0.000000 4.041340 
# 
# 
# High freq. dielectric constant tensor:
#      x y z
#    x 1.835570 0.000000 0.000000 
#    y 0.000000 1.872710 0.000000 
#    z 0.000000 0.000000 1.834610 
# 
# From -- ./inp_files/18035.got.cif
#   From: 2010.03.12/outbox.cif.g09.slc.cpg/sg60_10_cif.got.tgz:18035.got - 2010.04.10 18:46:24.
