data_PCOD8247642
_publ_section_title
;
Structure prediction by ZEFSAII (Michael W. Deem and Ramdas Pophale) SiO2 
 PCOD8247642
Probable space group: P B C N
;
_chemical_formula_sum "Si O2"
_cell_formula_units_Z 48
_cell_length_a 28.310495
_cell_length_b 8.447280
_cell_length_c 8.961849
_cell_angle_alpha 90.000000
_cell_angle_beta 90.000000
_cell_angle_gamma 90.000000
_cell_volume 2143.196419
_symmetry_space_group_name_H-M "P B C N"
_symmetry_group_IT_number 60
_symmetry_cell_setting 'orthorhombic'
loop_
_space_group_symop_operation_xyz
x,y,z
1/2-x,1/2-y,1/2+z
1/2+x,1/2-y,-z
-x,y,1/2-z
-x,-y,-z
1/2+x,1/2+y,1/2-z
1/2-x,1/2+y,z
x,-y,1/2+z
loop_
_atom_site_type_symbol
_atom_site_label
_atom_site_fract_x
_atom_site_fract_y
_atom_site_fract_z
Si Si1 0.706797 0.597246 0.106763
Si Si2 0.556162 0.289205 0.231945
Si Si3 0.217072 0.785104 0.220824
Si Si4 0.445957 0.457648 0.980628
Si Si5 0.615503 0.213442 0.641849
Si Si6 0.628479 0.936947 0.837406
O O1 0.735990 0.693862 0.230232
O O2 0.707500 0.412486 0.148697
O O3 0.652659 0.647910 0.112892
O O4 0.725999 0.628154 0.938428
O O5 0.500000 0.262361 0.250000
O O6 0.575776 0.408304 0.361218
O O7 0.573817 0.376159 0.081906
O O8 0.582615 0.124563 0.246496
O O9 0.175391 0.655123 0.214136
O O10 0.434935 0.307362 0.868183
O O11 0.500000 0.500000 0.000000
O O12 0.620566 0.079312 0.513594
O O13 0.627560 0.123696 0.796340
#
# Coordination Sequence:
#
# PCOD8247642 Si02
#       6
#     8   8   8   8   8   8
#     4  11  23  39  60  87 118 158 202 247 298 353
#     4   9  18  35  56  80 110 143 185 235 285 342
#     4  11  23  39  60  86 119 156 197 246 295 352
#     4   9  18  35  57  81 108 143 187 234 285 345
#     4  10  22  38  57  84 117 154 196 241 294 351
#     4  10  22  38  56  82 117 152 190 239 290 345
#
# _framework density 22.396453999999999
#
# number of rings (size 3 to 8) (size 9 to 14) (size 15 to 20)
#    0.000    2.000    0.000    3.000    0.000    6.667 
#    0.000   10.000    0.000    0.000    0.000    0.000 
#    0.000    0.000    0.000    0.000    0.000    0.000 
#
# Total GULP energy -594685.501526 kJ/mol
# GULP energy per Si atom -12389.281282 kJ/mol
# Density = 2.234548 g / cm^3
# Si number density = 22.396454 Si / 1000 Ang^3
#
#
#
# Elastic Constant Matrix: (Units=GPa)
#
#
# Indices 1 2 3 4 5 6 
#
# 1 63.4820 20.7208 22.5411 0.0000 0.0000 0.0000
# 2 20.7208 59.9833 9.4062 0.0000 0.0000 0.0000
# 3 22.5411 9.4062 47.4380 0.0000 0.0000 0.0000
# 4 0.0000 0.0000 0.0000 44.9489 0.0000 0.0000
# 5 0.0000 0.0000 0.0000 0.0000 25.3714 0.0000
# 6 0.0000 0.0000 0.0000 0.0000 0.0000 38.2714
#
#
#
# Elastic Compliance Matrix: (Units=1/GPa)
#
#
# Indices 1 2 3 4 5 6 
#
# 1 0.020735 -0.005798 -0.008703 0.000000 0.000000 0.000000
# 2 -0.005798 0.018828 -0.000978 0.000000 0.000000 0.000000
# 3 -0.008703 -0.000978 0.025410 0.000000 0.000000 0.000000
# 4 0.000000 0.000000 0.000000 0.022247 0.000000 0.000000
# 5 0.000000 0.000000 0.000000 0.000000 0.039414 0.000000
# 6 0.000000 0.000000 0.000000 0.000000 0.000000 0.026129
#
#
# Mechanical properties :
#
#
# Convention : Reuss Voigt Hill
#
# Bulk Modulus (GPa) = 29.39985 30.69326 30.04656
# Shear Modulus (GPa) = 25.63311 29.60070 27.61691
#
# Velocity S-wave (km/s) = 3.38674 3.63942 3.51535
# Velocity P-wave (km/s) = 5.33375 5.60310 5.47008
#
# Compressibility (1/GPa) = 0.03401378
#
# Stress axis : x y z
#
# Youngs Moduli (GPa) = 48.22688 53.11348 39.35529
#
# Poissons Ratio (x) = 0.30796 0.34251
# Poissons Ratio (y) = 0.27962 0.03849
# Poissons Ratio (z) = 0.41972 0.05195
#
# Static dielectric constant tensor:
#      x y z
#    x 4.057730 0.000000 0.000000 
#    y 0.000000 4.066880 0.000000 
#    z 0.000000 0.000000 4.745410 
# 
# 
# High freq. dielectric constant tensor:
#      x y z
#    x 1.876420 0.000000 0.000000 
#    y 0.000000 1.877040 0.000000 
#    z 0.000000 0.000000 1.883070 
# 
# From -- ./inp_files/8392.got.cif
#   From: 2010.03.12/outbox.cif.g09.slc.cpg/sg60_5_cif.got.tgz:8392.got - 2010.04.10 18:46:24.
