data_PCOD8247367
_publ_section_title
;
Structure prediction by ZEFSAII (Michael W. Deem and Ramdas Pophale) SiO2 
 PCOD8247367
Probable space group: P B C N
;
_chemical_formula_sum "Si O2"
_cell_formula_units_Z 40
_cell_length_a 8.478108
_cell_length_b 24.013298
_cell_length_c 8.802314
_cell_angle_alpha 90.000000
_cell_angle_beta 90.000000
_cell_angle_gamma 90.000000
_cell_volume 1792.039639
_symmetry_space_group_name_H-M "P B C N"
_symmetry_group_IT_number 60
_symmetry_cell_setting 'orthorhombic'
loop_
_space_group_symop_operation_xyz
x,y,z
1/2-x,1/2-y,1/2+z
1/2+x,1/2-y,-z
-x,y,1/2-z
-x,-y,-z
1/2+x,1/2+y,1/2-z
1/2-x,1/2+y,z
x,-y,1/2+z
loop_
_atom_site_type_symbol
_atom_site_label
_atom_site_fract_x
_atom_site_fract_y
_atom_site_fract_z
Si Si1 0.257480 0.423773 0.480898
Si Si2 0.069712 0.128709 0.416059
Si Si3 0.278788 0.784974 0.104706
Si Si4 0.136765 0.309884 0.438096
Si Si5 0.681942 0.476718 0.717122
O O1 0.425705 0.392071 0.479263
O O2 0.126434 0.376091 0.464944
O O3 0.226021 0.459526 0.631583
O O4 0.238951 0.467249 0.343900
O O5 0.164383 0.177411 0.499930
O O6 0.187974 0.075990 0.397699
O O7 0.000000 0.147578 0.250000
O O8 0.459345 0.789242 0.057993
O O9 0.265994 0.798202 0.282741
O O10 0.229053 0.720974 0.074533
O O11 0.500000 0.489911 0.750000
#
# Coordination Sequence:
#
# PCOD8247367 Si02
#       5
#     8   8   8   8   8
#     4  10  21  38  65  98 129 176 224 272 332 397
#     4   9  20  39  68  96 131 169 219 279 327 397
#     4  11  26  46  69  97 137 172 229 285 337 413
#     4  11  27  44  68  99 134 178 227 275 348 401
#     4   9  19  35  62  95 132 165 226 270 321 399
#
# _framework density 22.320936
#
# number of rings (size 3 to 8) (size 9 to 14) (size 15 to 20)
#    0.000    2.400    0.000    3.600   14.000    2.400 
#    0.000    1.000    0.000    0.000    0.000    0.000 
#    0.000    0.000    0.000    0.000    0.000    0.000 
#
# Total GULP energy -495863.928242 kJ/mol
# GULP energy per Si atom -12396.598206 kJ/mol
# Density = 2.227013 g / cm^3
# Si number density = 22.320936 Si / 1000 Ang^3
#
#
#
# Elastic Constant Matrix: (Units=GPa)
#
#
# Indices 1 2 3 4 5 6 
#
# 1 44.6237 19.7755 25.4193 0.0000 0.0000 0.0000
# 2 19.7755 127.5355 38.2019 0.0000 0.0000 0.0000
# 3 25.4193 38.2019 83.6846 0.0000 0.0000 0.0000
# 4 0.0000 0.0000 0.0000 37.1818 0.0000 0.0000
# 5 0.0000 0.0000 0.0000 0.0000 26.2002 0.0000
# 6 0.0000 0.0000 0.0000 0.0000 0.0000 26.0454
#
#
#
# Elastic Compliance Matrix: (Units=1/GPa)
#
#
# Indices 1 2 3 4 5 6 
#
# 1 0.027551 -0.002045 -0.007435 0.000000 0.000000 0.000000
# 2 -0.002045 0.009235 -0.003595 0.000000 0.000000 0.000000
# 3 -0.007435 -0.003595 0.015849 0.000000 0.000000 0.000000
# 4 0.000000 0.000000 0.000000 0.026895 0.000000 0.000000
# 5 0.000000 0.000000 0.000000 0.000000 0.038168 0.000000
# 6 0.000000 0.000000 0.000000 0.000000 0.000000 0.038394
#
#
# Mechanical properties :
#
#
# Convention : Reuss Voigt Hill
#
# Bulk Modulus (GPa) = 37.75627 46.95967 42.35797
# Shear Modulus (GPa) = 26.16848 29.38197 27.77523
#
# Velocity S-wave (km/s) = 3.42771 3.63208 3.53137
# Velocity P-wave (km/s) = 5.71117 6.21879 5.97038
#
# Compressibility (1/GPa) = 0.02648567
#
# Stress axis : x y z
#
# Youngs Moduli (GPa) = 36.29607 108.28682 63.09559
#
# Poissons Ratio (x) = 0.22144 0.46913
# Poissons Ratio (y) = 0.07422 0.22680
# Poissons Ratio (z) = 0.26987 0.38924
#
# Static dielectric constant tensor:
#      x y z
#    x 3.607850 0.000000 0.000000 
#    y 0.000000 4.234560 0.000000 
#    z 0.000000 0.000000 4.033650 
# 
# 
# High freq. dielectric constant tensor:
#      x y z
#    x 1.845110 0.000000 0.000000 
#    y 0.000000 1.897700 0.000000 
#    z 0.000000 0.000000 1.874690 
# 
# From -- ./inp_files/3829.got.cif
#   From: 2010.03.12/outbox.cif.g09.slc.cpg/sg60_2_cif.got.tgz:3829.got - 2010.04.10 18:46:24.
