data_PCOD8247873
_publ_section_title
;
Structure prediction by ZEFSAII (Michael W. Deem and Ramdas Pophale) SiO2 
 PCOD8247873
Probable space group: P B C N
;
_chemical_formula_sum "Si O2"
_cell_formula_units_Z 56
_cell_length_a 9.441173
_cell_length_b 19.817738
_cell_length_c 13.537255
_cell_angle_alpha 90.000000
_cell_angle_beta 90.000000
_cell_angle_gamma 90.000000
_cell_volume 2532.856865
_symmetry_space_group_name_H-M "P B C N"
_symmetry_group_IT_number 60
_symmetry_cell_setting 'orthorhombic'
loop_
_space_group_symop_operation_xyz
x,y,z
1/2-x,1/2-y,1/2+z
1/2+x,1/2-y,-z
-x,y,1/2-z
-x,-y,-z
1/2+x,1/2+y,1/2-z
1/2-x,1/2+y,z
x,-y,1/2+z
loop_
_atom_site_type_symbol
_atom_site_label
_atom_site_fract_x
_atom_site_fract_y
_atom_site_fract_z
Si Si1 0.538699 0.285679 0.496146
Si Si2 0.837736 0.565233 0.628662
Si Si3 0.078289 0.871652 0.646078
Si Si4 0.150065 0.588476 0.650725
Si Si5 0.160938 0.003161 0.033180
Si Si6 0.254039 0.766747 0.174422
Si Si7 0.238895 0.210780 0.892217
O O1 0.534601 0.357184 0.556682
O O2 0.623604 0.287799 0.394481
O O3 0.378884 0.262075 0.469223
O O4 0.606103 0.233120 0.572369
O O5 0.834348 0.549215 0.745039
O O6 0.761801 0.508931 0.562607
O O7 0.740456 0.630419 0.608004
O O8 0.002434 0.570323 0.596609
O O9 0.174619 0.935088 0.612768
O O10 0.172026 0.803568 0.647786
O O11 0.000000 0.886055 0.750000
O O12 0.284393 0.565055 0.585854
O O13 0.141090 0.668933 0.670136
O O14 0.000000 0.000000 0.000000
O O15 0.199270 0.758684 0.286041
#
# Coordination Sequence:
#
# PCOD8247873 Si02
#       7
#     8   8   8   8   8   8   8
#     4  12  21  40  64 100 137 178 223 282 352 409
#     4  10  22  44  67  96 130 180 232 280 342 414
#     4  12  25  42  70 101 144 181 227 289 354 412
#     4  10  24  42  74  97 131 183 235 285 344 421
#     4  12  26  45  68 102 140 188 231 287 350 422
#     4  11  23  42  69 103 133 180 232 290 345 414
#     4  11  23  39  67  99 140 174 225 284 350 418
#
# _framework density 22.109423
#
# number of rings (size 3 to 8) (size 9 to 14) (size 15 to 20)
#    0.000    0.857    4.286    2.571    4.000    0.000 
#    0.000    0.000   12.571    0.000    0.000    0.000 
#    0.000    0.000    0.000    0.000    0.000    0.000 
#
# Total GULP energy -694090.343924 kJ/mol
# GULP energy per Si atom -12394.470427 kJ/mol
# Density = 2.205910 g / cm^3
# Si number density = 22.109423 Si / 1000 Ang^3
#
#
#
# Elastic Constant Matrix: (Units=GPa)
#
#
# Indices 1 2 3 4 5 6 
#
# 1 110.6461 14.9660 37.1915 0.0000 0.0000 0.0000
# 2 14.9660 65.5902 22.5315 0.0000 0.0000 0.0000
# 3 37.1915 22.5315 112.1077 0.0000 0.0000 0.0000
# 4 0.0000 0.0000 0.0000 30.6654 0.0000 0.0000
# 5 0.0000 0.0000 0.0000 0.0000 48.7078 0.0000
# 6 0.0000 0.0000 0.0000 0.0000 0.0000 31.7283
#
#
#
# Elastic Compliance Matrix: (Units=1/GPa)
#
#
# Indices 1 2 3 4 5 6 
#
# 1 0.010268 -0.001260 -0.003153 0.000000 0.000000 0.000000
# 2 -0.001260 0.016531 -0.002905 0.000000 0.000000 0.000000
# 3 -0.003153 -0.002905 0.010550 0.000000 0.000000 0.000000
# 4 0.000000 0.000000 0.000000 0.032610 0.000000 0.000000
# 5 0.000000 0.000000 0.000000 0.000000 0.020531 0.000000
# 6 0.000000 0.000000 0.000000 0.000000 0.000000 0.031518
#
#
# Mechanical properties :
#
#
# Convention : Reuss Voigt Hill
#
# Bulk Modulus (GPa) = 44.02524 48.63580 46.33052
# Shear Modulus (GPa) = 34.67066 36.46396 35.56731
#
# Velocity S-wave (km/s) = 3.96427 4.06550 4.01520
# Velocity P-wave (km/s) = 6.39606 6.63952 6.51893
#
# Compressibility (1/GPa) = 0.02271424
#
# Stress axis : x y z
#
# Youngs Moduli (GPa) = 97.38884 60.49095 94.78809
#
# Poissons Ratio (x) = 0.07620 0.29889
# Poissons Ratio (y) = 0.12268 0.27532
# Poissons Ratio (z) = 0.30709 0.17570
#
# Static dielectric constant tensor:
#      x y z
#    x 3.876540 0.000000 0.000000 
#    y 0.000000 3.803880 0.000000 
#    z 0.000000 0.000000 4.359940 
# 
# 
# High freq. dielectric constant tensor:
#      x y z
#    x 1.865660 0.000000 0.000000 
#    y 0.000000 1.848950 0.000000 
#    z 0.000000 0.000000 1.893180 
# 
# From -- ./inp_files/15263.got.cif
#   From: 2010.03.12/outbox.cif.g09.slc.cpg/sg60_8_cif.got.tgz:15263.got - 2010.04.10 18:46:24.
