data_PCOD8247632
_publ_section_title
;
Structure prediction by ZEFSAII (Michael W. Deem and Ramdas Pophale) SiO2 
 PCOD8247632
Probable space group: P B C N
;
_chemical_formula_sum "Si O2"
_cell_formula_units_Z 56
_cell_length_a 14.078930
_cell_length_b 16.932076
_cell_length_c 11.077105
_cell_angle_alpha 90.000000
_cell_angle_beta 90.000000
_cell_angle_gamma 90.000000
_cell_volume 2640.621355
_symmetry_space_group_name_H-M "P B C N"
_symmetry_group_IT_number 60
_symmetry_cell_setting 'orthorhombic'
loop_
_space_group_symop_operation_xyz
x,y,z
1/2-x,1/2-y,1/2+z
1/2+x,1/2-y,-z
-x,y,1/2-z
-x,-y,-z
1/2+x,1/2+y,1/2-z
1/2-x,1/2+y,z
x,-y,1/2+z
loop_
_atom_site_type_symbol
_atom_site_label
_atom_site_fract_x
_atom_site_fract_y
_atom_site_fract_z
Si Si1 0.351348 0.693158 0.960663
Si Si2 0.647097 0.865198 0.467584
Si Si3 0.043365 0.567041 0.918467
Si Si4 0.175486 0.463017 0.802050
Si Si5 0.795611 0.899669 0.272078
Si Si6 0.173153 0.342560 0.592095
Si Si7 0.451943 0.309878 0.127458
O O1 0.302726 0.656860 0.842983
O O2 0.463987 0.670389 0.969409
O O3 0.346907 0.787483 0.950922
O O4 0.287626 0.665977 0.075141
O O5 0.542345 0.870723 0.405937
O O6 0.678805 0.935824 0.558076
O O7 0.715283 0.861831 0.354472
O O8 0.087611 0.527181 0.795743
O O9 0.133595 0.607163 0.981432
O O10 0.000000 0.500000 0.000000
O O11 0.272070 0.509277 0.763035
O O12 0.153944 0.389444 0.715952
O O13 0.894963 0.891884 0.346391
O O14 0.121550 0.257792 0.587194
O O15 0.500000 0.277944 0.250000
#
# Coordination Sequence:
#
# PCOD8247632 Si02
#       7
#     8   8   8   8   8   8   8
#     4  11  23  43  66  94 126 173 221 267 325 398
#     4  11  23  39  65  96 132 169 216 270 335 389
#     4  10  22  37  60 100 130 164 207 273 334 392
#     4  11  23  39  64  97 135 167 213 274 343 392
#     4  11  23  40  63  92 130 171 216 273 320 394
#     4  12  22  41  67  94 129 172 215 271 335 397
#     4  10  22  41  67  90 123 174 224 264 319 399
#
# _framework density 21.207131
#
# number of rings (size 3 to 8) (size 9 to 14) (size 15 to 20)
#    0.000    1.143    4.286    3.429    2.000    2.857 
#    0.000    0.714    3.143    0.000    0.000    0.000 
#    0.000    0.000    0.000    0.000    0.000    0.000 
#
# Total GULP energy -693819.741788 kJ/mol
# GULP energy per Si atom -12389.638246 kJ/mol
# Density = 2.115886 g / cm^3
# Si number density = 21.207131 Si / 1000 Ang^3
#
#
#
# Elastic Constant Matrix: (Units=GPa)
#
#
# Indices 1 2 3 4 5 6 
#
# 1 139.4086 55.5937 46.9321 0.0000 0.0000 0.0000
# 2 55.5937 76.0621 20.5763 0.0000 0.0000 0.0000
# 3 46.9321 20.5763 57.8418 0.0000 0.0000 0.0000
# 4 0.0000 0.0000 0.0000 23.0216 0.0000 0.0000
# 5 0.0000 0.0000 0.0000 0.0000 40.7704 0.0000
# 6 0.0000 0.0000 0.0000 0.0000 0.0000 36.7591
#
#
#
# Elastic Compliance Matrix: (Units=1/GPa)
#
#
# Indices 1 2 3 4 5 6 
#
# 1 0.012608 -0.007134 -0.007692 0.000000 0.000000 0.000000
# 2 -0.007134 0.018584 -0.000822 0.000000 0.000000 0.000000
# 3 -0.007692 -0.000822 0.023822 0.000000 0.000000 0.000000
# 4 0.000000 0.000000 0.000000 0.043437 0.000000 0.000000
# 5 0.000000 0.000000 0.000000 0.000000 0.024528 0.000000
# 6 0.000000 0.000000 0.000000 0.000000 0.000000 0.027204
#
#
# Mechanical properties :
#
#
# Convention : Reuss Voigt Hill
#
# Bulk Modulus (GPa) = 42.16379 57.72406 49.94393
# Shear Modulus (GPa) = 26.40125 30.12425 28.26275
#
# Velocity S-wave (km/s) = 3.53217 3.77301 3.65458
# Velocity P-wave (km/s) = 6.04649 6.80140 6.43503
#
# Compressibility (1/GPa) = 0.02371703
#
# Stress axis : x y z
#
# Youngs Moduli (GPa) = 79.31762 53.80998 41.97780
#
# Poissons Ratio (x) = 0.38388 0.32288
# Poissons Ratio (y) = 0.56586 0.03452
# Poissons Ratio (z) = 0.61009 0.04426
#
# Static dielectric constant tensor:
#      x y z
#    x 4.369380 0.000000 0.000000 
#    y 0.000000 3.165520 0.000000 
#    z 0.000000 0.000000 3.734710 
# 
# 
# High freq. dielectric constant tensor:
#      x y z
#    x 1.839840 0.000000 0.000000 
#    y 0.000000 1.820560 0.000000 
#    z 0.000000 0.000000 1.815820 
# 
# From -- ./inp_files/11957.got.cif
#   From: 2010.03.12/outbox.cif.g09.slc.cpg/sg60_6_cif.got.tgz:11957.got - 2010.04.10 18:46:24.
