data_PCOD8247875
_publ_section_title
;
Structure prediction by ZEFSAII (Michael W. Deem and Ramdas Pophale) SiO2 
 PCOD8247875
Probable space group: P B C N
;
_chemical_formula_sum "Si O2"
_cell_formula_units_Z 44
_cell_length_a 16.230415
_cell_length_b 13.449958
_cell_length_c 8.550705
_cell_angle_alpha 90.000000
_cell_angle_beta 90.000000
_cell_angle_gamma 90.000000
_cell_volume 1866.605221
_symmetry_space_group_name_H-M "P B C N"
_symmetry_group_IT_number 60
_symmetry_cell_setting 'orthorhombic'
loop_
_space_group_symop_operation_xyz
x,y,z
1/2-x,1/2-y,1/2+z
1/2+x,1/2-y,-z
-x,y,1/2-z
-x,-y,-z
1/2+x,1/2+y,1/2-z
1/2-x,1/2+y,z
x,-y,1/2+z
loop_
_atom_site_type_symbol
_atom_site_label
_atom_site_fract_x
_atom_site_fract_y
_atom_site_fract_z
Si Si1 0.330349 0.364695 0.172284
Si Si2 0.425010 0.128782 0.965650
Si Si3 0.368733 0.412313 0.677058
Si Si4 0.471629 0.341064 0.962957
Si Si5 0.500000 0.031125 0.250000
Si Si6 0.246680 0.209921 0.982232
O O1 0.321022 0.482817 0.182508
O O2 0.312117 0.303669 0.331487
O O3 0.427407 0.345868 0.132249
O O4 0.271237 0.322757 0.032013
O O5 0.442691 0.100651 0.144705
O O6 0.482021 0.224224 0.918767
O O7 0.329267 0.150301 0.946200
O O8 0.441209 0.036494 0.854415
O O9 0.406787 0.391086 0.844602
O O10 0.442382 0.401692 0.546063
O O11 0.299244 0.332635 0.635045
#
# Coordination Sequence:
#
# PCOD8247875 Si02
#       6
#     8   8   8   8   4   8
#     4  11  24  43  67 100 141 191 233 297 357 424
#     4  10  23  43  67 102 135 189 233 302 348 428
#     4  11  23  44  72 103 140 191 234 305 351 433
#     4  10  23  45  70 103 145 183 247 294 362 421
#     4  10  22  44  68  96 140 186 244 276 362 432
#     4  11  25  42  65 105 143 180 243 291 364 419
#
# _framework density 23.572203999999999
#
# number of rings (size 3 to 8) (size 9 to 14) (size 15 to 20)
#    0.000    1.455    0.000    4.909    2.545    5.091 
#    6.545    1.818    0.000    0.000    0.000    0.000 
#    0.000    0.000    0.000    0.000    0.000    0.000 
#
# Total GULP energy -545393.517969 kJ/mol
# GULP energy per Si atom -12395.307227 kJ/mol
# Density = 2.351855 g / cm^3
# Si number density = 23.572204 Si / 1000 Ang^3
#
#
#
# Elastic Constant Matrix: (Units=GPa)
#
#
# Indices 1 2 3 4 5 6 
#
# 1 70.6190 38.7183 27.2864 0.0000 0.0000 0.0000
# 2 38.7183 140.0433 42.3172 0.0000 0.0000 0.0000
# 3 27.2864 42.3172 87.9864 0.0000 0.0000 0.0000
# 4 0.0000 0.0000 0.0000 31.1006 0.0000 0.0000
# 5 0.0000 0.0000 0.0000 0.0000 52.2512 0.0000
# 6 0.0000 0.0000 0.0000 0.0000 0.0000 36.0480
#
#
#
# Elastic Compliance Matrix: (Units=1/GPa)
#
#
# Indices 1 2 3 4 5 6 
#
# 1 0.017642 -0.003773 -0.003657 0.000000 0.000000 0.000000
# 2 -0.003773 0.009162 -0.003236 0.000000 0.000000 0.000000
# 3 -0.003657 -0.003236 0.014056 0.000000 0.000000 0.000000
# 4 0.000000 0.000000 0.000000 0.032154 0.000000 0.000000
# 5 0.000000 0.000000 0.000000 0.000000 0.019138 0.000000
# 6 0.000000 0.000000 0.000000 0.000000 0.000000 0.027741
#
#
# Mechanical properties :
#
#
# Convention : Reuss Voigt Hill
#
# Bulk Modulus (GPa) = 51.20806 57.25473 54.23140
# Shear Modulus (GPa) = 33.84493 36.56840 35.20666
#
# Velocity S-wave (km/s) = 3.79330 3.94297 3.86886
# Velocity P-wave (km/s) = 6.39974 6.71351 6.55850
#
# Compressibility (1/GPa) = 0.01952818
#
# Stress axis : x y z
#
# Youngs Moduli (GPa) = 56.68366 109.15140 71.14440
#
# Poissons Ratio (x) = 0.41178 0.26015
# Poissons Ratio (y) = 0.21384 0.23025
# Poissons Ratio (z) = 0.20727 0.35325
#
# Static dielectric constant tensor:
#      x y z
#    x 4.234240 0.000000 0.000000 
#    y 0.000000 4.343760 0.000000 
#    z 0.000000 0.000000 4.346720 
# 
# 
# High freq. dielectric constant tensor:
#      x y z
#    x 1.925640 0.000000 0.000000 
#    y 0.000000 1.937350 0.000000 
#    z 0.000000 0.000000 1.939620 
# 
# From -- ./inp_files/6657.got.cif
#   From: 2010.03.12/outbox.cif.g09.slc.cpg/sg60_4_cif.got.tgz:6657.got - 2010.04.10 18:46:24.
