data_PCOD8247396
_publ_section_title
;
Structure prediction by ZEFSAII (Michael W. Deem and Ramdas Pophale) SiO2 
 PCOD8247396
Probable space group: P B C N
;
_chemical_formula_sum "Si O2"
_cell_formula_units_Z 44
_cell_length_a 5.007593
_cell_length_b 16.090595
_cell_length_c 25.003840
_cell_angle_alpha 90.000000
_cell_angle_beta 90.000000
_cell_angle_gamma 90.000000
_cell_volume 2014.688181
_symmetry_space_group_name_H-M "P B C N"
_symmetry_group_IT_number 60
_symmetry_cell_setting 'orthorhombic'
loop_
_space_group_symop_operation_xyz
x,y,z
1/2-x,1/2-y,1/2+z
1/2+x,1/2-y,-z
-x,y,1/2-z
-x,-y,-z
1/2+x,1/2+y,1/2-z
1/2-x,1/2+y,z
x,-y,1/2+z
loop_
_atom_site_type_symbol
_atom_site_label
_atom_site_fract_x
_atom_site_fract_y
_atom_site_fract_z
Si Si1 0.447960 0.266005 0.032738
Si Si2 0.500000 0.546942 0.750000
Si Si3 0.732758 0.843646 0.174423
Si Si4 0.352805 0.564032 0.150527
Si Si5 0.360291 0.173008 0.361757
Si Si6 0.229661 0.899405 0.107761
O O1 0.562319 0.212461 0.081483
O O2 0.322545 0.354871 0.050892
O O3 0.699955 0.283221 0.994007
O O4 0.748634 0.607416 0.731186
O O5 0.612558 0.486560 0.795131
O O6 0.761883 0.743876 0.180002
O O7 0.485069 0.862217 0.136911
O O8 0.987042 0.880222 0.145645
O O9 0.624124 0.606972 0.130779
O O10 0.255418 0.500012 0.103472
O O11 0.122539 0.630522 0.162284
#
# Coordination Sequence:
#
# PCOD8247396 Si02
#       6
#     8   4   8   8   8   8
#     4  11  22  41  67  91 120 168 225 258 307 398
#     4  10  24  40  64  92 122 176 210 242 302 396
#     4  10  21  39  62  86 122 165 213 241 296 376
#     4  11  23  40  62  92 133 159 202 263 326 364
#     4  11  23  41  62  93 126 162 201 273 320 353
#     4  10  21  40  62  89 125 166 196 257 323 364
#
# _framework density 21.839607000000001
#
# number of rings (size 3 to 8) (size 9 to 14) (size 15 to 20)
#    0.000    1.455    0.000    7.636    0.000    8.000 
#    0.000    5.455    0.000    0.000    0.000    0.000 
#    0.000    0.000    0.000    0.000    0.000    0.000 
#
# Total GULP energy -545306.874812 kJ/mol
# GULP energy per Si atom -12393.338064 kJ/mol
# Density = 2.178990 g / cm^3
# Si number density = 21.839607 Si / 1000 Ang^3
#
#
#
# Elastic Constant Matrix: (Units=GPa)
#
#
# Indices 1 2 3 4 5 6 
#
# 1 148.7291 40.6925 35.9328 0.0000 0.0000 0.0000
# 2 40.6925 112.6933 55.2347 0.0000 0.0000 0.0000
# 3 35.9328 55.2347 73.3409 0.0000 0.0000 0.0000
# 4 0.0000 0.0000 0.0000 21.2786 0.0000 0.0000
# 5 0.0000 0.0000 0.0000 0.0000 21.0470 0.0000
# 6 0.0000 0.0000 0.0000 0.0000 0.0000 38.1110
#
#
#
# Elastic Compliance Matrix: (Units=1/GPa)
#
#
# Indices 1 2 3 4 5 6 
#
# 1 0.007781 -0.001492 -0.002689 0.000000 0.000000 0.000000
# 2 -0.001492 0.014352 -0.010078 0.000000 0.000000 0.000000
# 3 -0.002689 -0.010078 0.022542 0.000000 0.000000 0.000000
# 4 0.000000 0.000000 0.000000 0.046996 0.000000 0.000000
# 5 0.000000 0.000000 0.000000 0.000000 0.047513 0.000000
# 6 0.000000 0.000000 0.000000 0.000000 0.000000 0.026239
#
#
# Mechanical properties :
#
#
# Convention : Reuss Voigt Hill
#
# Bulk Modulus (GPa) = 61.88744 66.49814 64.19279
# Shear Modulus (GPa) = 25.08457 29.61421 27.34939
#
# Velocity S-wave (km/s) = 3.39275 3.68637 3.54260
# Velocity P-wave (km/s) = 6.61411 6.97378 6.79632
#
# Compressibility (1/GPa) = 0.01615837
#
# Stress axis : x y z
#
# Youngs Moduli (GPa) = 128.51078 69.67784 44.36147
#
# Poissons Ratio (x) = 0.10395 0.11928
# Poissons Ratio (y) = 0.19173 0.44706
# Poissons Ratio (z) = 0.34555 0.70219
#
# Static dielectric constant tensor:
#      x y z
#    x 4.059740 0.000000 0.000000 
#    y 0.000000 4.717350 0.000000 
#    z 0.000000 0.000000 4.266890 
# 
# 
# High freq. dielectric constant tensor:
#      x y z
#    x 1.880400 0.000000 0.000000 
#    y 0.000000 1.868840 0.000000 
#    z 0.000000 0.000000 1.833740 
# 
# From -- ./inp_files/24824.got.cif
#   From: 2010.03.12/outbox.cif.g09.slc.cpg/sg60_13_cif.got.tgz:24824.got - 2010.04.10 18:46:24.
