data_PCOD8247532
_publ_section_title
;
Structure prediction by ZEFSAII (Michael W. Deem and Ramdas Pophale) SiO2 
 PCOD8247532
Probable space group: P B C N
;
_chemical_formula_sum "Si O2"
_cell_formula_units_Z 48
_cell_length_a 10.331351
_cell_length_b 25.629187
_cell_length_c 8.193232
_cell_angle_alpha 90.000000
_cell_angle_beta 90.000000
_cell_angle_gamma 90.000000
_cell_volume 2169.437780
_symmetry_space_group_name_H-M "P B C N"
_symmetry_group_IT_number 60
_symmetry_cell_setting 'orthorhombic'
loop_
_space_group_symop_operation_xyz
x,y,z
1/2-x,1/2-y,1/2+z
1/2+x,1/2-y,-z
-x,y,1/2-z
-x,-y,-z
1/2+x,1/2+y,1/2-z
1/2-x,1/2+y,z
x,-y,1/2+z
loop_
_atom_site_type_symbol
_atom_site_label
_atom_site_fract_x
_atom_site_fract_y
_atom_site_fract_z
Si Si1 0.500000 0.355268 0.750000
Si Si2 0.000000 0.914543 0.250000
Si Si3 0.601476 0.851953 0.544457
Si Si4 0.247721 0.424111 0.728598
Si Si5 0.500000 0.086722 0.750000
Si Si6 0.000000 0.738302 0.250000
Si Si7 0.378602 0.325203 0.058645
Si Si8 0.255149 0.031554 0.875070
O O1 0.380017 0.392471 0.702986
O O2 0.550609 0.314399 0.613440
O O3 0.951320 0.878073 0.393870
O O4 0.884131 0.949419 0.183530
O O5 0.633074 0.885744 0.708160
O O6 0.504532 0.879001 0.416131
O O7 0.546370 0.796512 0.600146
O O8 0.729876 0.839313 0.445358
O O9 0.210712 0.450901 0.558180
O O10 0.256329 0.468870 0.867063
O O11 0.371069 0.051502 0.758629
O O12 0.888480 0.776556 0.318278
#
# Coordination Sequence:
#
# PCOD8247532 Si02
#       8
#     4   4   8   8   4   4   8   8
#     4  10  21  41  69 100 138 169 229 291 342 392
#     4  11  21  44  70 101 135 176 222 292 326 412
#     4  11  25  46  66  99 135 178 232 286 348 407
#     4  11  25  41  67 101 139 185 226 284 336 420
#     4  12  26  44  70  97 137 190 220 294 340 422
#     4  11  26  43  69  96 136 175 227 285 348 416
#     4  10  23  44  69 101 132 175 233 289 344 404
#     4  12  25  41  70  99 142 182 232 269 349 408
#
# _framework density 22.125547999999998
#
# number of rings (size 3 to 8) (size 9 to 14) (size 15 to 20)
#    0.000    1.000    3.333    2.500    2.333    9.333 
#    0.000    0.000    0.000    0.000    0.000    0.000 
#    0.000    0.000    0.000    0.000    0.000    0.000 
#
# Total GULP energy -595141.441149 kJ/mol
# GULP energy per Si atom -12398.780024 kJ/mol
# Density = 2.207519 g / cm^3
# Si number density = 22.125548 Si / 1000 Ang^3
#
#
#
# Elastic Constant Matrix: (Units=GPa)
#
#
# Indices 1 2 3 4 5 6 
#
# 1 90.2980 23.8049 6.3981 0.0000 0.0000 0.0000
# 2 23.8049 102.1247 16.5754 0.0000 0.0000 0.0000
# 3 6.3981 16.5754 77.7099 0.0000 0.0000 0.0000
# 4 0.0000 0.0000 0.0000 51.5277 0.0000 0.0000
# 5 0.0000 0.0000 0.0000 0.0000 35.9251 0.0000
# 6 0.0000 0.0000 0.0000 0.0000 0.0000 22.4973
#
#
#
# Elastic Compliance Matrix: (Units=1/GPa)
#
#
# Indices 1 2 3 4 5 6 
#
# 1 0.011811 -0.002688 -0.000399 0.000000 0.000000 0.000000
# 2 -0.002688 0.010755 -0.002073 0.000000 0.000000 0.000000
# 3 -0.000399 -0.002073 0.013343 0.000000 0.000000 0.000000
# 4 0.000000 0.000000 0.000000 0.019407 0.000000 0.000000
# 5 0.000000 0.000000 0.000000 0.000000 0.027836 0.000000
# 6 0.000000 0.000000 0.000000 0.000000 0.000000 0.044450
#
#
# Mechanical properties :
#
#
# Convention : Reuss Voigt Hill
#
# Bulk Modulus (GPa) = 39.07855 40.40994 39.74425
# Shear Modulus (GPa) = 34.14076 36.88028 35.51052
#
# Velocity S-wave (km/s) = 3.93243 4.08715 4.01054
# Velocity P-wave (km/s) = 6.19025 6.36998 6.28076
#
# Compressibility (1/GPa) = 0.02558949
#
# Stress axis : x y z
#
# Youngs Moduli (GPa) = 84.66355 92.97984 74.94379
#
# Poissons Ratio (x) = 0.24997 0.02991
# Poissons Ratio (y) = 0.22761 0.15533
# Poissons Ratio (z) = 0.03378 0.19272
#
# Static dielectric constant tensor:
#      x y z
#    x 3.741440 0.000000 0.000000 
#    y 0.000000 3.929900 0.000000 
#    z 0.000000 0.000000 4.117710 
# 
# 
# High freq. dielectric constant tensor:
#      x y z
#    x 1.875170 0.000000 0.000000 
#    y 0.000000 1.868970 0.000000 
#    z 0.000000 0.000000 1.880090 
# 
# From -- ./inp_files/5140.got.cif
#   From: 2010.03.12/outbox.cif.g09.slc.cpg/sg60_3_cif.got.tgz:5140.got - 2010.04.10 18:46:24.
