data_PCOD8247983
_publ_section_title
;
Structure prediction by ZEFSAII (Michael W. Deem and Ramdas Pophale) SiO2 
 PCOD8247983
Probable space group: P B C N
;
_chemical_formula_sum "Si O2"
_cell_formula_units_Z 40
_cell_length_a 9.146309
_cell_length_b 22.673983
_cell_length_c 8.755899
_cell_angle_alpha 90.000000
_cell_angle_beta 90.000000
_cell_angle_gamma 90.000000
_cell_volume 1815.826833
_symmetry_space_group_name_H-M "P B C N"
_symmetry_group_IT_number 60
_symmetry_cell_setting 'orthorhombic'
loop_
_space_group_symop_operation_xyz
x,y,z
1/2-x,1/2-y,1/2+z
1/2+x,1/2-y,-z
-x,y,1/2-z
-x,-y,-z
1/2+x,1/2+y,1/2-z
1/2-x,1/2+y,z
x,-y,1/2+z
loop_
_atom_site_type_symbol
_atom_site_label
_atom_site_fract_x
_atom_site_fract_y
_atom_site_fract_z
Si Si1 0.929945 0.446867 0.084504
Si Si2 0.827373 0.793462 0.497997
Si Si3 0.500862 0.817843 0.068147
Si Si4 0.500000 0.630832 0.250000
Si Si5 0.892931 0.944283 0.005757
Si Si6 0.000000 0.853760 0.250000
O O1 0.960156 0.383311 0.007447
O O2 0.760916 0.464574 0.073199
O O3 0.000000 0.445163 0.250000
O O4 0.000000 0.500000 0.000000
O O5 0.871841 0.725193 0.509432
O O6 0.652622 0.798034 0.506279
O O7 0.903467 0.829367 0.636047
O O8 0.873668 0.814759 0.328422
O O9 0.500000 0.815980 0.250000
O O10 0.611039 0.587350 0.340494
O O11 0.940168 0.893883 0.118652
O O12 0.000000 0.000000 0.000000
#
# Coordination Sequence:
#
# PCOD8247983 Si02
#       6
#     8   8   8   4   8   4
#     4  11  28  47  69  99 145 189 241 296 361 431
#     4  11  25  44  75 106 147 189 242 308 365 438
#     4  11  26  47  72 104 149 189 246 295 371 431
#     4  10  25  44  74 108 143 182 252 302 370 432
#     4  11  25  44  75 101 144 190 247 295 359 437
#     4  10  23  42  70 102 141 188 238 292 370 418
#
# _framework density 22.028532999999999
#
# number of rings (size 3 to 8) (size 9 to 14) (size 15 to 20)
#    0.000    1.200    1.000    3.000   19.600    0.000 
#    1.800    0.000    0.000    0.000    0.000    0.000 
#    0.000    0.000    0.000    0.000    0.000    0.000 
#
# Total GULP energy -495844.593912 kJ/mol
# GULP energy per Si atom -12396.114848 kJ/mol
# Density = 2.197839 g / cm^3
# Si number density = 22.028533 Si / 1000 Ang^3
#
#
#
# Elastic Constant Matrix: (Units=GPa)
#
#
# Indices 1 2 3 4 5 6 
#
# 1 157.3019 64.1831 26.1626 0.0000 0.0000 0.0000
# 2 64.1831 194.1702 49.1901 0.0000 0.0000 0.0000
# 3 26.1626 49.1901 89.6820 0.0000 0.0000 0.0000
# 4 0.0000 0.0000 0.0000 33.7516 0.0000 0.0000
# 5 0.0000 0.0000 0.0000 0.0000 35.4777 0.0000
# 6 0.0000 0.0000 0.0000 0.0000 0.0000 32.0194
#
#
#
# Elastic Compliance Matrix: (Units=1/GPa)
#
#
# Indices 1 2 3 4 5 6 
#
# 1 0.007418 -0.002211 -0.000951 0.000000 0.000000 0.000000
# 2 -0.002211 0.006640 -0.002997 0.000000 0.000000 0.000000
# 3 -0.000951 -0.002997 0.013072 0.000000 0.000000 0.000000
# 4 0.000000 0.000000 0.000000 0.029628 0.000000 0.000000
# 5 0.000000 0.000000 0.000000 0.000000 0.028187 0.000000
# 6 0.000000 0.000000 0.000000 0.000000 0.000000 0.031231
#
#
# Mechanical properties :
#
#
# Convention : Reuss Voigt Hill
#
# Bulk Modulus (GPa) = 67.51678 80.02509 73.77094
# Shear Modulus (GPa) = 37.47246 40.35761 38.91503
#
# Velocity S-wave (km/s) = 4.12890 4.28490 4.20762
# Velocity P-wave (km/s) = 7.31072 7.80303 7.56088
#
# Compressibility (1/GPa) = 0.01481113
#
# Stress axis : x y z
#
# Youngs Moduli (GPa) = 134.81622 150.59759 76.49980
#
# Poissons Ratio (x) = 0.33295 0.07277
# Poissons Ratio (y) = 0.29806 0.22928
# Poissons Ratio (z) = 0.12824 0.45136
#
# Static dielectric constant tensor:
#      x y z
#    x 3.438820 0.000000 0.000000 
#    y 0.000000 4.087300 0.000000 
#    z 0.000000 0.000000 4.028910 
# 
# 
# High freq. dielectric constant tensor:
#      x y z
#    x 1.866520 0.000000 0.000000 
#    y 0.000000 1.890310 0.000000 
#    z 0.000000 0.000000 1.870150 
# 
# From -- ./inp_files/3912.got.cif
#   From: 2010.03.12/outbox.cif.g09.slc.cpg/sg60_2_cif.got.tgz:3912.got - 2010.04.10 18:46:24.
