data_PCOD8247157
_publ_section_title
;
Structure prediction by ZEFSAII (Michael W. Deem and Ramdas Pophale) SiO2 
 PCOD8247157
Probable space group: P B C N
;
_chemical_formula_sum "Si O2"
_cell_formula_units_Z 40
_cell_length_a 7.490066
_cell_length_b 8.887947
_cell_length_c 22.915700
_cell_angle_alpha 90.000000
_cell_angle_beta 90.000000
_cell_angle_gamma 90.000000
_cell_volume 1525.528160
_symmetry_space_group_name_H-M "P B C N"
_symmetry_group_IT_number 60
_symmetry_cell_setting 'orthorhombic'
loop_
_space_group_symop_operation_xyz
x,y,z
1/2-x,1/2-y,1/2+z
1/2+x,1/2-y,-z
-x,y,1/2-z
-x,-y,-z
1/2+x,1/2+y,1/2-z
1/2-x,1/2+y,z
x,-y,1/2+z
loop_
_atom_site_type_symbol
_atom_site_label
_atom_site_fract_x
_atom_site_fract_y
_atom_site_fract_z
Si Si1 0.466740 0.955631 0.922836
Si Si2 0.916222 0.206538 0.077260
Si Si3 0.434050 0.796292 0.686094
Si Si4 0.209427 0.103962 0.995667
Si Si5 0.054547 0.939707 0.685501
O O1 0.435677 0.873066 0.861178
O O2 0.521571 0.132753 0.915433
O O3 0.265015 0.958508 0.954958
O O4 0.618628 0.875329 0.961246
O O5 0.908935 0.125658 0.140248
O O6 0.719355 0.255172 0.049884
O O7 0.027970 0.097501 0.032249
O O8 0.500000 0.845570 0.750000
O O9 0.242420 0.864626 0.671050
O O10 0.433103 0.618092 0.678951
O O11 0.000000 0.889913 0.750000
#
# Coordination Sequence:
#
# PCOD8247157 Si02
#       5
#     8   8   8   8   8
#     4   9  20  39  66  91 134 176 214 257 344 382
#     4  10  20  41  68  93 139 172 222 269 325 401
#     4  11  24  44  71  96 134 174 223 284 332 397
#     4   9  20  38  67  97 128 179 212 268 329 391
#     4  11  25  44  70 100 130 177 228 275 341 395
#
# _framework density 26.220427000000001
#
# number of rings (size 3 to 8) (size 9 to 14) (size 15 to 20)
#    1.200    0.800    2.000    1.200    0.000    3.200 
#    3.600    6.000    0.000    0.000    0.000    0.000 
#    0.000    0.000    0.000    0.000    0.000    0.000 
#
# Total GULP energy -495692.494662 kJ/mol
# GULP energy per Si atom -12392.312367 kJ/mol
# Density = 2.616075 g / cm^3
# Si number density = 26.220427 Si / 1000 Ang^3
#
#
#
# Elastic Constant Matrix: (Units=GPa)
#
#
# Indices 1 2 3 4 5 6 
#
# 1 100.3937 -4.7802 35.1715 0.0000 0.0000 0.0000
# 2 -4.7802 115.0743 59.0014 0.0000 0.0000 0.0000
# 3 35.1715 59.0014 216.0906 0.0000 0.0000 0.0000
# 4 0.0000 0.0000 0.0000 59.9447 0.0000 0.0000
# 5 0.0000 0.0000 0.0000 0.0000 38.5109 0.0000
# 6 0.0000 0.0000 0.0000 0.0000 0.0000 30.2585
#
#
#
# Elastic Compliance Matrix: (Units=1/GPa)
#
#
# Indices 1 2 3 4 5 6 
#
# 1 0.010802 0.001570 -0.002187 0.000000 0.000000 0.000000
# 2 0.001570 0.010333 -0.003077 0.000000 0.000000 0.000000
# 3 -0.002187 -0.003077 0.005824 0.000000 0.000000 0.000000
# 4 0.000000 0.000000 0.000000 0.016682 0.000000 0.000000
# 5 0.000000 0.000000 0.000000 0.000000 0.025967 0.000000
# 6 0.000000 0.000000 0.000000 0.000000 0.000000 0.033049
#
#
# Mechanical properties :
#
#
# Convention : Reuss Voigt Hill
#
# Bulk Modulus (GPa) = 51.09643 67.81601 59.45622
# Shear Modulus (GPa) = 42.89404 48.55387 45.72396
#
# Velocity S-wave (km/s) = 4.04902 4.30787 4.18045
# Velocity P-wave (km/s) = 6.43342 7.11784 6.78427
#
# Compressibility (1/GPa) = 0.01957084
#
# Stress axis : x y z
#
# Youngs Moduli (GPa) = 92.57862 96.77928 171.71233
#
# Poissons Ratio (x) = -0.15193 0.37549
# Poissons Ratio (y) = -0.14534 0.52832
# Poissons Ratio (z) = 0.20245 0.29777
#
# Static dielectric constant tensor:
#      x y z
#    x 4.606820 0.000000 0.000000 
#    y 0.000000 4.987180 0.000000 
#    z 0.000000 0.000000 5.049530 
# 
# 
# High freq. dielectric constant tensor:
#      x y z
#    x 2.061050 0.000000 0.000000 
#    y 0.000000 2.107150 0.000000 
#    z 0.000000 0.000000 2.056930 
# 
# From -- ./inp_files/23844.got.cif
#   From: 2010.03.12/outbox.cif.g09.slc.cpg/sg60_12_cif.got.tgz:23844.got - 2010.04.10 18:46:24.
