data_PCOD8247114
_publ_section_title
;
Structure prediction by ZEFSAII (Michael W. Deem and Ramdas Pophale) SiO2 
 PCOD8247114
Probable space group: P B C N
;
_chemical_formula_sum "Si O2"
_cell_formula_units_Z 56
_cell_length_a 22.297172
_cell_length_b 10.390650
_cell_length_c 12.813653
_cell_angle_alpha 90.000000
_cell_angle_beta 90.000000
_cell_angle_gamma 90.000000
_cell_volume 2968.694167
_symmetry_space_group_name_H-M "P B C N"
_symmetry_group_IT_number 60
_symmetry_cell_setting 'orthorhombic'
loop_
_space_group_symop_operation_xyz
x,y,z
1/2-x,1/2-y,1/2+z
1/2+x,1/2-y,-z
-x,y,1/2-z
-x,-y,-z
1/2+x,1/2+y,1/2-z
1/2-x,1/2+y,z
x,-y,1/2+z
loop_
_atom_site_type_symbol
_atom_site_label
_atom_site_fract_x
_atom_site_fract_y
_atom_site_fract_z
Si Si1 0.500000 0.493726 0.250000
Si Si2 0.316332 0.865086 0.299740
Si Si3 0.577712 0.697911 0.131120
Si Si4 0.293415 0.944171 0.522713
Si Si5 0.223496 0.830965 0.124323
Si Si6 0.896583 0.456668 0.835878
Si Si7 0.500000 0.890851 0.250000
Si Si8 0.910817 0.826980 0.382153
O O1 0.551117 0.572015 0.187516
O O2 0.463994 0.412270 0.164426
O O3 0.356853 0.738462 0.324126
O O4 0.286732 0.922967 0.401625
O O5 0.260388 0.822281 0.230695
O O6 0.352199 0.984997 0.250862
O O7 0.533984 0.812370 0.161850
O O8 0.579419 0.683292 0.006666
O O9 0.273880 0.813695 0.580812
O O10 0.362953 0.975194 0.552773
O O11 0.252476 0.066209 0.546748
O O12 0.155606 0.882394 0.140597
O O13 0.959088 0.528497 0.828409
O O14 0.912300 0.307701 0.820547
#
# Coordination Sequence:
#
# PCOD8247114 Si02
#       8
#     4   8   8   8   8   8   4   8
#     4  11  25  38  62  90 125 165 208 244 312 377
#     4  10  20  40  64  84 125 157 201 259 313 362
#     4  10  21  41  62  83 124 161 199 250 307 361
#     4  10  21  40  57  91 123 158 203 260 309 370
#     4  10  23  36  64  88 119 163 208 251 309 377
#     4   9  19  37  58  89 117 153 205 247 305 362
#     4   9  19  36  64  88 107 165 196 242 300 367
#     4  11  22  42  57  90 125 157 202 260 298 370
#
# _framework density 18.863513000000001
#
# number of rings (size 3 to 8) (size 9 to 14) (size 15 to 20)
#    0.000    2.000    2.857    0.857    2.000    5.143 
#    2.571    0.000    0.000    0.000    0.000    0.000 
#    0.000    0.000    0.000    0.000    0.000    0.000 
#
# Total GULP energy -693950.186721 kJ/mol
# GULP energy per Si atom -12391.967620 kJ/mol
# Density = 1.882058 g / cm^3
# Si number density = 18.863513 Si / 1000 Ang^3
#
#
#
# Elastic Constant Matrix: (Units=GPa)
#
#
# Indices 1 2 3 4 5 6 
#
# 1 125.6927 45.7800 63.7417 0.0000 0.0000 0.0000
# 2 45.7800 84.6014 45.3407 0.0000 0.0000 0.0000
# 3 63.7417 45.3407 142.4868 0.0000 0.0000 0.0000
# 4 0.0000 0.0000 0.0000 65.5016 0.0000 0.0000
# 5 0.0000 0.0000 0.0000 0.0000 23.2239 0.0000
# 6 0.0000 0.0000 0.0000 0.0000 0.0000 18.3228
#
#
#
# Elastic Compliance Matrix: (Units=1/GPa)
#
#
# Indices 1 2 3 4 5 6 
#
# 1 0.011375 -0.004133 -0.003773 0.000000 0.000000 0.000000
# 2 -0.004133 0.015752 -0.003164 0.000000 0.000000 0.000000
# 3 -0.003773 -0.003164 0.009713 0.000000 0.000000 0.000000
# 4 0.000000 0.000000 0.000000 0.015267 0.000000 0.000000
# 5 0.000000 0.000000 0.000000 0.000000 0.043059 0.000000
# 6 0.000000 0.000000 0.000000 0.000000 0.000000 0.054577
#
#
# Mechanical properties :
#
#
# Convention : Reuss Voigt Hill
#
# Bulk Modulus (GPa) = 68.02745 73.61175 70.81960
# Shear Modulus (GPa) = 28.28342 34.60423 31.44382
#
# Velocity S-wave (km/s) = 3.87637 4.28770 4.08721
# Velocity P-wave (km/s) = 7.49508 7.97625 7.73941
#
# Compressibility (1/GPa) = 0.01469995
#
# Stress axis : x y z
#
# Youngs Moduli (GPa) = 87.91379 63.48391 102.95562
#
# Poissons Ratio (x) = 0.26237 0.38849
# Poissons Ratio (y) = 0.36334 0.32571
# Poissons Ratio (z) = 0.33173 0.20084
#
# Static dielectric constant tensor:
#      x y z
#    x 3.967350 0.000000 0.000000 
#    y 0.000000 3.674460 0.000000 
#    z 0.000000 0.000000 3.602830 
# 
# 
# High freq. dielectric constant tensor:
#      x y z
#    x 1.743780 0.000000 0.000000 
#    y 0.000000 1.736140 0.000000 
#    z 0.000000 0.000000 1.731100 
# 
# From -- ./inp_files/13134.got.cif
#   From: 2010.03.12/outbox.cif.g09.slc.cpg/sg60_7_cif.got.tgz:13134.got - 2010.04.10 18:46:24.
