data_PCOD8247682
_publ_section_title
;
Structure prediction by ZEFSAII (Michael W. Deem and Ramdas Pophale) SiO2 
 PCOD8247682
Probable space group: P B C N
;
_chemical_formula_sum "Si O2"
_cell_formula_units_Z 64
_cell_length_a 8.817640
_cell_length_b 10.556249
_cell_length_c 32.748075
_cell_angle_alpha 90.000000
_cell_angle_beta 90.000000
_cell_angle_gamma 90.000000
_cell_volume 3048.230231
_symmetry_space_group_name_H-M "P B C N"
_symmetry_group_IT_number 60
_symmetry_cell_setting 'orthorhombic'
loop_
_space_group_symop_operation_xyz
x,y,z
1/2-x,1/2-y,1/2+z
1/2+x,1/2-y,-z
-x,y,1/2-z
-x,-y,-z
1/2+x,1/2+y,1/2-z
1/2-x,1/2+y,z
x,-y,1/2+z
loop_
_atom_site_type_symbol
_atom_site_label
_atom_site_fract_x
_atom_site_fract_y
_atom_site_fract_z
Si Si1 0.676321 0.031737 0.331898
Si Si2 0.733922 0.960116 0.420896
Si Si3 0.591667 0.979218 0.568049
Si Si4 0.813545 0.272425 0.291028
Si Si5 0.677874 0.010248 0.156833
Si Si6 0.667464 0.249327 0.697347
Si Si7 0.722238 0.392444 0.000624
Si Si8 0.440914 0.272966 0.041090
O O1 0.751181 0.022154 0.376560
O O2 0.736304 0.913370 0.305006
O O3 0.495950 0.031568 0.332275
O O4 0.717922 0.166338 0.313648
O O5 0.837704 0.835692 0.423632
O O6 0.555446 0.927829 0.428901
O O7 0.800060 0.053742 0.455284
O O8 0.527109 0.838085 0.564449
O O9 0.698120 0.990598 0.607787
O O10 0.689644 0.006707 0.528297
O O11 0.774447 0.259292 0.243529
O O12 0.986765 0.248864 0.302819
O O13 0.732177 0.873571 0.173551
O O14 0.777160 0.121784 0.176288
O O15 0.560786 0.366823 0.020675
O O16 0.829736 0.269386 0.995941
#
# Coordination Sequence:
#
# PCOD8247682 Si02
#       8
#     8   8   8   8   8   8   8   8
#     4  10  23  40  65  94 126 161 212 255 315 369
#     4  10  22  39  60  86 121 161 207 256 305 364
#     4  10  23  40  58  90 125 160 208 256 312 367
#     4  10  22  41  64  94 122 162 200 257 308 378
#     4  10  23  41  64  93 126 168 203 261 310 374
#     4  10  22  42  64  90 127 158 206 250 314 372
#     4  11  22  39  59  90 121 163 208 251 313 368
#     4  11  22  38  63  85 123 164 206 261 306 375
#
# _framework density 20.995788999999998
#
# number of rings (size 3 to 8) (size 9 to 14) (size 15 to 20)
#    0.000    1.750    0.000    4.125    7.000    3.500 
#    2.250    0.000    0.000    0.000    0.000    0.000 
#    0.000    0.000    0.000    0.000    0.000    0.000 
#
# Total GULP energy -793599.160971 kJ/mol
# GULP energy per Si atom -12399.986890 kJ/mol
# Density = 2.094800 g / cm^3
# Si number density = 20.995789 Si / 1000 Ang^3
#
#
#
# Elastic Constant Matrix: (Units=GPa)
#
#
# Indices 1 2 3 4 5 6 
#
# 1 43.2031 25.5069 26.6757 0.0000 0.0000 0.0000
# 2 25.5069 87.8456 17.9431 0.0000 0.0000 0.0000
# 3 26.6757 17.9431 100.0593 0.0000 0.0000 0.0000
# 4 0.0000 0.0000 0.0000 29.9454 0.0000 0.0000
# 5 0.0000 0.0000 0.0000 0.0000 29.0372 0.0000
# 6 0.0000 0.0000 0.0000 0.0000 0.0000 40.9487
#
#
#
# Elastic Compliance Matrix: (Units=1/GPa)
#
#
# Indices 1 2 3 4 5 6 
#
# 1 0.032241 -0.007895 -0.007180 0.000000 0.000000 0.000000
# 2 -0.007895 0.013750 -0.000361 0.000000 0.000000 0.000000
# 3 -0.007180 -0.000361 0.011973 0.000000 0.000000 0.000000
# 4 0.000000 0.000000 0.000000 0.033394 0.000000 0.000000
# 5 0.000000 0.000000 0.000000 0.000000 0.034439 0.000000
# 6 0.000000 0.000000 0.000000 0.000000 0.000000 0.024421
#
#
# Mechanical properties :
#
#
# Convention : Reuss Voigt Hill
#
# Bulk Modulus (GPa) = 36.91066 41.26214 39.08640
# Shear Modulus (GPa) = 26.29941 30.71839 28.50890
#
# Velocity S-wave (km/s) = 3.54305 3.82916 3.68888
# Velocity P-wave (km/s) = 5.86139 6.26460 6.06635
#
# Compressibility (1/GPa) = 0.02709244
#
# Stress axis : x y z
#
# Youngs Moduli (GPa) = 31.01677 72.72885 83.52231
#
# Poissons Ratio (x) = 0.57419 0.59965
# Poissons Ratio (y) = 0.24488 0.03014
# Poissons Ratio (z) = 0.22269 0.02625
#
# Static dielectric constant tensor:
#      x y z
#    x 3.784250 0.000000 0.000000 
#    y 0.000000 3.883260 0.000000 
#    z 0.000000 0.000000 4.006510 
# 
# 
# High freq. dielectric constant tensor:
#      x y z
#    x 1.813920 0.000000 0.000000 
#    y 0.000000 1.826760 0.000000 
#    z 0.000000 0.000000 1.830900 
# 
# From -- ./inp_files/26017.got.cif
#   From: 2010.03.12/outbox.cif.g09.slc.cpg/sg60_14_cif.got.tgz:26017.got - 2010.04.10 18:46:24.
