data_PCOD8247892
_publ_section_title
;
Structure prediction by ZEFSAII (Michael W. Deem and Ramdas Pophale) SiO2 
 PCOD8247892
Probable space group: P B C N
;
_chemical_formula_sum "Si O2"
_cell_formula_units_Z 32
_cell_length_a 4.859376
_cell_length_b 12.805090
_cell_length_c 23.140019
_cell_angle_alpha 90.000000
_cell_angle_beta 90.000000
_cell_angle_gamma 90.000000
_cell_volume 1439.881828
_symmetry_space_group_name_H-M "P B C N"
_symmetry_group_IT_number 60
_symmetry_cell_setting 'orthorhombic'
loop_
_space_group_symop_operation_xyz
x,y,z
1/2-x,1/2-y,1/2+z
1/2+x,1/2-y,-z
-x,y,1/2-z
-x,-y,-z
1/2+x,1/2+y,1/2-z
1/2-x,1/2+y,z
x,-y,1/2+z
loop_
_atom_site_type_symbol
_atom_site_label
_atom_site_fract_x
_atom_site_fract_y
_atom_site_fract_z
Si Si1 0.000000 0.888015 0.250000
Si Si2 0.565806 0.116919 0.014361
Si Si3 0.500000 0.031764 0.250000
Si Si4 0.699896 0.710162 0.195393
Si Si5 0.936067 0.794826 0.927243
O O1 0.250094 0.959821 0.226356
O O2 0.106998 0.813708 0.302305
O O3 0.873968 0.123281 0.038301
O O4 0.374148 0.164206 0.065310
O O5 0.524436 0.180899 0.955187
O O6 0.500000 0.000000 0.000000
O O7 0.389304 0.105760 0.302031
O O8 0.500000 0.711117 0.250000
O O9 0.510346 0.711540 0.139563
#
# Coordination Sequence:
#
# PCOD8247892 Si02
#       5
#     4   8   4   8   8
#     4  11  24  43  66  94 142 179 228 269 336 422
#     4  10  22  45  68  98 127 173 228 278 333 389
#     4  11  24  43  62  96 138 181 224 275 336 416
#     4  11  25  44  68 100 142 181 224 282 346 416
#     4  10  24  42  68  96 134 170 222 279 333 401
#
# _framework density 22.224045
#
# number of rings (size 3 to 8) (size 9 to 14) (size 15 to 20)
#    0.000    1.500    2.500    0.750    7.000    2.000 
#    4.500    0.000    0.000    0.000    0.000    0.000 
#    0.000    0.000    0.000    0.000    0.000    0.000 
#
# Total GULP energy -396844.399611 kJ/mol
# GULP energy per Si atom -12401.387488 kJ/mol
# Density = 2.217346 g / cm^3
# Si number density = 22.224045 Si / 1000 Ang^3
#
#
#
# Elastic Constant Matrix: (Units=GPa)
#
#
# Indices 1 2 3 4 5 6 
#
# 1 89.5361 32.2267 7.5291 0.0000 0.0000 0.0000
# 2 32.2267 142.6313 20.8919 0.0000 0.0000 0.0000
# 3 7.5291 20.8919 115.4154 0.0000 0.0000 0.0000
# 4 0.0000 0.0000 0.0000 11.5730 0.0000 0.0000
# 5 0.0000 0.0000 0.0000 0.0000 25.2059 0.0000
# 6 0.0000 0.0000 0.0000 0.0000 0.0000 45.2209
#
#
#
# Elastic Compliance Matrix: (Units=1/GPa)
#
#
# Indices 1 2 3 4 5 6 
#
# 1 0.012168 -0.002705 -0.000304 0.000000 0.000000 0.000000
# 2 -0.002705 0.007803 -0.001236 0.000000 0.000000 0.000000
# 3 -0.000304 -0.001236 0.008908 0.000000 0.000000 0.000000
# 4 0.000000 0.000000 0.000000 0.086408 0.000000 0.000000
# 5 0.000000 0.000000 0.000000 0.000000 0.039673 0.000000
# 6 0.000000 0.000000 0.000000 0.000000 0.000000 0.022114
#
#
# Mechanical properties :
#
#
# Convention : Reuss Voigt Hill
#
# Bulk Modulus (GPa) = 49.04581 52.09758 50.57170
# Shear Modulus (GPa) = 25.99288 35.52897 30.76092
#
# Velocity S-wave (km/s) = 3.42363 4.00268 3.72442
# Velocity P-wave (km/s) = 6.14370 6.69737 6.42650
#
# Compressibility (1/GPa) = 0.02038910
#
# Stress axis : x y z
#
# Youngs Moduli (GPa) = 82.18450 128.15184 112.25937
#
# Poissons Ratio (x) = 0.34661 0.03415
# Poissons Ratio (y) = 0.22228 0.13876
# Poissons Ratio (z) = 0.02500 0.15840
#
# Static dielectric constant tensor:
#      x y z
#    x 4.491770 0.000000 0.000000 
#    y 0.000000 4.229440 0.000000 
#    z 0.000000 0.000000 3.568800 
# 
# 
# High freq. dielectric constant tensor:
#      x y z
#    x 1.902650 0.000000 0.000000 
#    y 0.000000 1.884670 0.000000 
#    z 0.000000 0.000000 1.839020 
# 
# From -- ./inp_files/21410.got.cif
#   From: 2010.03.12/outbox.cif.g09.slc.cpg/sg60_11_cif.got.tgz:21410.got - 2010.04.10 18:46:24.
