data_PCOD8247728
_publ_section_title
;
Structure prediction by ZEFSAII (Michael W. Deem and Ramdas Pophale) SiO2 
 PCOD8247728
Probable space group: P B C N
;
_chemical_formula_sum "Si O2"
_cell_formula_units_Z 48
_cell_length_a 12.314067
_cell_length_b 21.415773
_cell_length_c 8.620311
_cell_angle_alpha 90.000000
_cell_angle_beta 90.000000
_cell_angle_gamma 90.000000
_cell_volume 2273.307587
_symmetry_space_group_name_H-M "P B C N"
_symmetry_group_IT_number 60
_symmetry_cell_setting 'orthorhombic'
loop_
_space_group_symop_operation_xyz
x,y,z
1/2-x,1/2-y,1/2+z
1/2+x,1/2-y,-z
-x,y,1/2-z
-x,-y,-z
1/2+x,1/2+y,1/2-z
1/2-x,1/2+y,z
x,-y,1/2+z
loop_
_atom_site_type_symbol
_atom_site_label
_atom_site_fract_x
_atom_site_fract_y
_atom_site_fract_z
Si Si1 0.584736 0.396117 0.030494
Si Si2 0.349944 0.386687 0.137997
Si Si3 0.375213 0.071587 0.280645
Si Si4 0.886126 0.219229 0.329828
Si Si5 0.746647 0.994305 0.968565
Si Si6 0.785805 0.695681 0.078906
O O1 0.456522 0.406624 0.042380
O O2 0.626694 0.363041 0.188489
O O3 0.610320 0.353386 0.880915
O O4 0.639687 0.464116 0.022105
O O5 0.271436 0.446834 0.142425
O O6 0.297020 0.329601 0.048599
O O7 0.500000 0.058936 0.250000
O O8 0.315706 0.061797 0.117097
O O9 0.356871 0.141153 0.343458
O O10 0.328535 0.018394 0.392931
O O11 0.786734 0.229981 0.210140
O O12 0.868125 0.258762 0.487807
O O13 0.000000 0.239299 0.250000
#
# Coordination Sequence:
#
# PCOD8247728 Si02
#       6
#     8   8   8   8   8   8
#     4  11  21  40  68  99 135 173 214 275 340 405
#     4  10  22  40  65 103 132 170 216 273 344 403
#     4  11  24  43  65  96 132 183 226 274 335 404
#     4  12  25  46  71 100 135 182 230 284 340 403
#     4  11  21  41  66  98 137 171 219 277 333 404
#     4  11  25  45  67  96 139 172 229 283 336 396
#
# _framework density 21.114609999999999
#
# number of rings (size 3 to 8) (size 9 to 14) (size 15 to 20)
#    0.000    1.000    5.000    2.000    0.000    1.333 
#    9.000    1.667    0.000    0.000    0.000    0.000 
#    0.000    0.000    0.000    0.000    0.000    0.000 
#
# Total GULP energy -595191.652268 kJ/mol
# GULP energy per Si atom -12399.826089 kJ/mol
# Density = 2.106655 g / cm^3
# Si number density = 21.114610 Si / 1000 Ang^3
#
#
#
# Elastic Constant Matrix: (Units=GPa)
#
#
# Indices 1 2 3 4 5 6 
#
# 1 109.8191 29.0554 28.3477 0.0000 0.0000 0.0000
# 2 29.0554 76.2309 30.7216 0.0000 0.0000 0.0000
# 3 28.3477 30.7216 71.8948 0.0000 0.0000 0.0000
# 4 0.0000 0.0000 0.0000 39.0923 0.0000 0.0000
# 5 0.0000 0.0000 0.0000 0.0000 37.9274 0.0000
# 6 0.0000 0.0000 0.0000 0.0000 0.0000 23.7843
#
#
#
# Elastic Compliance Matrix: (Units=1/GPa)
#
#
# Indices 1 2 3 4 5 6 
#
# 1 0.010628 -0.002853 -0.002971 0.000000 0.000000 0.000000
# 2 -0.002853 0.016613 -0.005974 0.000000 0.000000 0.000000
# 3 -0.002971 -0.005974 0.017633 0.000000 0.000000 0.000000
# 4 0.000000 0.000000 0.000000 0.025580 0.000000 0.000000
# 5 0.000000 0.000000 0.000000 0.000000 0.026366 0.000000
# 6 0.000000 0.000000 0.000000 0.000000 0.000000 0.042044
#
#
# Mechanical properties :
#
#
# Convention : Reuss Voigt Hill
#
# Bulk Modulus (GPa) = 46.99823 48.24378 47.62100
# Shear Modulus (GPa) = 29.48897 31.48215 30.48556
#
# Velocity S-wave (km/s) = 3.74118 3.86555 3.80388
# Velocity P-wave (km/s) = 6.40070 6.54381 6.47265
#
# Compressibility (1/GPa) = 0.02127740
#
# Stress axis : x y z
#
# Youngs Moduli (GPa) = 94.09312 60.19335 56.71030
#
# Poissons Ratio (x) = 0.17175 0.16850
# Poissons Ratio (y) = 0.26848 0.33878
# Poissons Ratio (z) = 0.27957 0.35959
#
# Static dielectric constant tensor:
#      x y z
#    x 3.701720 0.000000 0.000000 
#    y 0.000000 3.532670 0.000000 
#    z 0.000000 0.000000 3.890380 
# 
# 
# High freq. dielectric constant tensor:
#      x y z
#    x 1.826850 0.000000 0.000000 
#    y 0.000000 1.814910 0.000000 
#    z 0.000000 0.000000 1.839490 
# 
# From -- ./inp_files/5095.got.cif
#   From: 2010.03.12/outbox.cif.g09.slc.cpg/sg60_3_cif.got.tgz:5095.got - 2010.04.10 18:46:24.
