data_PCOD8247408
_publ_section_title
;
Structure prediction by ZEFSAII (Michael W. Deem and Ramdas Pophale) SiO2 
 PCOD8247408
Probable space group: P B C N
;
_chemical_formula_sum "Si O2"
_cell_formula_units_Z 48
_cell_length_a 8.800438
_cell_length_b 20.010628
_cell_length_c 13.753858
_cell_angle_alpha 90.000000
_cell_angle_beta 90.000000
_cell_angle_gamma 90.000000
_cell_volume 2422.085905
_symmetry_space_group_name_H-M "P B C N"
_symmetry_group_IT_number 60
_symmetry_cell_setting 'orthorhombic'
loop_
_space_group_symop_operation_xyz
x,y,z
1/2-x,1/2-y,1/2+z
1/2+x,1/2-y,-z
-x,y,1/2-z
-x,-y,-z
1/2+x,1/2+y,1/2-z
1/2-x,1/2+y,z
x,-y,1/2+z
loop_
_atom_site_type_symbol
_atom_site_label
_atom_site_fract_x
_atom_site_fract_y
_atom_site_fract_z
Si Si1 0.676400 0.194026 0.560166
Si Si2 0.823561 0.991694 0.763569
Si Si3 0.682780 0.934326 0.945981
Si Si4 0.817130 0.318503 0.455589
Si Si5 0.344388 0.944401 0.916473
Si Si6 0.318808 0.643204 0.743814
O O1 0.734416 0.137466 0.485533
O O2 0.743347 0.263468 0.524414
O O3 0.494260 0.195307 0.562376
O O4 0.741059 0.180995 0.666991
O O5 0.756938 0.066901 0.758839
O O6 0.000000 0.995495 0.750000
O O7 0.804245 0.959731 0.869176
O O8 0.747019 0.943240 0.684247
O O9 0.520373 0.931227 0.892315
O O10 0.677339 0.982611 0.038455
O O11 0.785449 0.388873 0.508563
O O12 0.731992 0.318526 0.353025
O O13 0.500000 0.646914 0.750000
#
# Coordination Sequence:
#
# PCOD8247408 Si02
#       6
#     8   8   8   8   8   8
#     4  11  24  42  65  92 125 165 206 256 310 368
#     4  11  23  36  61  96 127 159 201 260 311 356
#     4  10  21  39  63  89 119 159 206 250 300 366
#     4  11  24  42  65  92 125 165 206 256 310 368
#     4  10  21  39  63  89 119 159 206 250 300 366
#     4  11  23  40  63  92 125 163 205 252 311 374
#
# _framework density 19.817629
#
# number of rings (size 3 to 8) (size 9 to 14) (size 15 to 20)
#    0.000    1.333    3.333    2.000    0.000    6.000 
#    0.000    1.667    0.000    0.000    0.000    0.000 
#    0.000    0.000    0.000    0.000    0.000    0.000 
#
# Total GULP energy -595441.836014 kJ/mol
# GULP energy per Si atom -12405.038250 kJ/mol
# Density = 1.977252 g / cm^3
# Si number density = 19.817629 Si / 1000 Ang^3
#
#
#
# Elastic Constant Matrix: (Units=GPa)
#
#
# Indices 1 2 3 4 5 6 
#
# 1 57.7116 31.6861 27.7374 0.0000 0.0000 0.0000
# 2 31.6861 84.1995 27.6923 0.0000 0.0000 0.0000
# 3 27.7374 27.6923 98.3953 0.0000 0.0000 0.0000
# 4 0.0000 0.0000 0.0000 31.2586 0.0000 0.0000
# 5 0.0000 0.0000 0.0000 0.0000 34.2441 0.0000
# 6 0.0000 0.0000 0.0000 0.0000 0.0000 29.1041
#
#
#
# Elastic Compliance Matrix: (Units=1/GPa)
#
#
# Indices 1 2 3 4 5 6 
#
# 1 0.023569 -0.007366 -0.004571 0.000000 0.000000 0.000000
# 2 -0.007366 0.015390 -0.002255 0.000000 0.000000 0.000000
# 3 -0.004571 -0.002255 0.012086 0.000000 0.000000 0.000000
# 4 0.000000 0.000000 0.000000 0.031991 0.000000 0.000000
# 5 0.000000 0.000000 0.000000 0.000000 0.029202 0.000000
# 6 0.000000 0.000000 0.000000 0.000000 0.000000 0.034359
#
#
# Mechanical properties :
#
#
# Convention : Reuss Voigt Hill
#
# Bulk Modulus (GPa) = 44.12797 46.05978 45.09388
# Shear Modulus (GPa) = 27.39197 29.13409 28.26303
#
# Velocity S-wave (km/s) = 3.72183 3.83836 3.78054
# Velocity P-wave (km/s) = 6.38629 6.55258 6.46997
#
# Compressibility (1/GPa) = 0.02266136
#
# Stress axis : x y z
#
# Youngs Moduli (GPa) = 42.42920 64.97637 82.73885
#
# Poissons Ratio (x) = 0.47862 0.37819
# Poissons Ratio (y) = 0.31254 0.18657
# Poissons Ratio (z) = 0.19394 0.14652
#
# Static dielectric constant tensor:
#      x y z
#    x 3.575590 0.000000 0.000000 
#    y 0.000000 3.667840 0.000000 
#    z 0.000000 0.000000 3.569400 
# 
# 
# High freq. dielectric constant tensor:
#      x y z
#    x 1.775250 0.000000 0.000000 
#    y 0.000000 1.771850 0.000000 
#    z 0.000000 0.000000 1.782120 
# 
# From -- ./inp_files/10096.got.cif
#   From: 2010.03.12/outbox.cif.g09.slc.cpg/sg60_6_cif.got.tgz:10096.got - 2010.04.10 18:46:24.
