data_PCOD8247473
_publ_section_title
;
Structure prediction by ZEFSAII (Michael W. Deem and Ramdas Pophale) SiO2 
 PCOD8247473
Probable space group: P B C N
;
_chemical_formula_sum "Si O2"
_cell_formula_units_Z 48
_cell_length_a 5.255053
_cell_length_b 20.021129
_cell_length_c 19.149378
_cell_angle_alpha 90.000000
_cell_angle_beta 90.000000
_cell_angle_gamma 90.000000
_cell_volume 2014.746158
_symmetry_space_group_name_H-M "P B C N"
_symmetry_group_IT_number 60
_symmetry_cell_setting 'orthorhombic'
loop_
_space_group_symop_operation_xyz
x,y,z
1/2-x,1/2-y,1/2+z
1/2+x,1/2-y,-z
-x,y,1/2-z
-x,-y,-z
1/2+x,1/2+y,1/2-z
1/2-x,1/2+y,z
x,-y,1/2+z
loop_
_atom_site_type_symbol
_atom_site_label
_atom_site_fract_x
_atom_site_fract_y
_atom_site_fract_z
Si Si1 0.254326 0.933854 0.920772
Si Si2 0.197632 0.188719 0.944399
Si Si3 0.347290 0.876071 0.682377
Si Si4 0.526408 0.698399 0.408536
Si Si5 0.424000 0.489898 0.177151
Si Si6 0.803253 0.601793 0.929541
O O1 0.494648 0.900642 0.884269
O O2 0.035341 0.878759 0.922546
O O3 0.156892 0.999288 0.878362
O O4 0.298148 0.947941 0.003175
O O5 0.280380 0.253638 0.897774
O O6 0.925121 0.156791 0.924068
O O7 0.424433 0.136716 0.931358
O O8 0.192472 0.219023 0.023300
O O9 0.500000 0.853758 0.750000
O O10 0.196352 0.807719 0.661500
O O11 0.174656 0.938629 0.704081
O O12 0.500000 0.452997 0.250000
O O13 0.210640 0.445514 0.138441
#
# Coordination Sequence:
#
# PCOD8247473 Si02
#       6
#     8   8   8   8   8   8
#     4  10  21  40  64  98 125 168 223 281 332 389
#     4  11  23  41  67  98 129 173 215 268 333 397
#     4  11  22  39  68  98 132 173 227 286 350 394
#     4  10  22  39  67  98 131 167 222 282 339 401
#     4  11  24  41  63  91 135 180 217 278 340 405
#     4  11  25  41  66 100 132 173 224 269 325 414
#
# _framework density 23.824342000000001
#
# number of rings (size 3 to 8) (size 9 to 14) (size 15 to 20)
#    0.000    1.333    3.333    2.500    4.667    0.667 
#    0.000    0.833    3.667    0.000    0.000    0.000 
#    0.000    0.000    0.000    0.000    0.000    0.000 
#
# Total GULP energy -594739.648469 kJ/mol
# GULP energy per Si atom -12390.409343 kJ/mol
# Density = 2.377012 g / cm^3
# Si number density = 23.824342 Si / 1000 Ang^3
#
#
#
# Elastic Constant Matrix: (Units=GPa)
#
#
# Indices 1 2 3 4 5 6 
#
# 1 80.9349 9.8397 8.5915 0.0000 0.0000 0.0000
# 2 9.8397 59.6773 16.1013 0.0000 0.0000 0.0000
# 3 8.5915 16.1013 118.8103 0.0000 0.0000 0.0000
# 4 0.0000 0.0000 0.0000 19.9999 0.0000 0.0000
# 5 0.0000 0.0000 0.0000 0.0000 28.1459 0.0000
# 6 0.0000 0.0000 0.0000 0.0000 0.0000 32.1049
#
#
#
# Elastic Compliance Matrix: (Units=1/GPa)
#
#
# Indices 1 2 3 4 5 6 
#
# 1 0.012657 -0.001910 -0.000656 0.000000 0.000000 0.000000
# 2 -0.001910 0.017681 -0.002258 0.000000 0.000000 0.000000
# 3 -0.000656 -0.002258 0.008770 0.000000 0.000000 0.000000
# 4 0.000000 0.000000 0.000000 0.050000 0.000000 0.000000
# 5 0.000000 0.000000 0.000000 0.000000 0.035529 0.000000
# 6 0.000000 0.000000 0.000000 0.000000 0.000000 0.031148
#
#
# Mechanical properties :
#
#
# Convention : Reuss Voigt Hill
#
# Bulk Modulus (GPa) = 33.94440 36.49860 35.22150
# Shear Modulus (GPa) = 28.52992 31.04282 29.78637
#
# Velocity S-wave (km/s) = 3.46426 3.61361 3.53972
# Velocity P-wave (km/s) = 5.50274 5.72399 5.61446
#
# Compressibility (1/GPa) = 0.02945994
#
# Stress axis : x y z
#
# Youngs Moduli (GPa) = 79.00461 56.55815 114.02170
#
# Poissons Ratio (x) = 0.10802 0.07485
# Poissons Ratio (y) = 0.15089 0.25746
# Poissons Ratio (z) = 0.05186 0.12771
#
# Static dielectric constant tensor:
#      x y z
#    x 4.408180 0.000000 0.000000 
#    y 0.000000 4.213230 0.000000 
#    z 0.000000 0.000000 4.387240 
# 
# 
# High freq. dielectric constant tensor:
#      x y z
#    x 1.955680 0.000000 0.000000 
#    y 0.000000 1.921180 0.000000 
#    z 0.000000 0.000000 1.929700 
# 
# From -- ./inp_files/21602.got.cif
#   From: 2010.03.12/outbox.cif.g09.slc.cpg/sg60_11_cif.got.tgz:21602.got - 2010.04.10 18:46:24.
