data_PCOD8247479
_publ_section_title
;
Structure prediction by ZEFSAII (Michael W. Deem and Ramdas Pophale) SiO2 
 PCOD8247479
Probable space group: P B C N
;
_chemical_formula_sum "Si O2"
_cell_formula_units_Z 48
_cell_length_a 8.255085
_cell_length_b 32.209462
_cell_length_c 8.304066
_cell_angle_alpha 90.000000
_cell_angle_beta 90.000000
_cell_angle_gamma 90.000000
_cell_volume 2207.983443
_symmetry_space_group_name_H-M "P B C N"
_symmetry_group_IT_number 60
_symmetry_cell_setting 'orthorhombic'
loop_
_space_group_symop_operation_xyz
x,y,z
1/2-x,1/2-y,1/2+z
1/2+x,1/2-y,-z
-x,y,1/2-z
-x,-y,-z
1/2+x,1/2+y,1/2-z
1/2-x,1/2+y,z
x,-y,1/2+z
loop_
_atom_site_type_symbol
_atom_site_label
_atom_site_fract_x
_atom_site_fract_y
_atom_site_fract_z
Si Si1 0.590204 0.795489 0.015657
Si Si2 0.652657 0.529401 0.012489
Si Si3 0.257156 0.776184 0.144626
Si Si4 0.267935 0.377718 0.492805
Si Si5 0.500000 0.593720 0.250000
Si Si6 0.000000 0.164175 0.750000
Si Si7 0.178514 0.459215 0.315498
O O1 0.396984 0.787532 0.014331
O O2 0.666423 0.778622 0.179924
O O3 0.621862 0.844573 0.990026
O O4 0.683500 0.769832 0.877821
O O5 0.604163 0.567819 0.122367
O O6 0.797174 0.503237 0.094887
O O7 0.500000 0.500000 0.000000
O O8 0.699912 0.545622 0.835532
O O9 0.107194 0.807992 0.127759
O O10 0.368285 0.378314 0.658426
O O11 0.383954 0.364983 0.349420
O O12 0.200471 0.422993 0.447504
O O13 0.000000 0.457003 0.250000
#
# Coordination Sequence:
#
# PCOD8247479 Si02
#       7
#     8   8   8   8   4   4   8
#     4  10  22  39  64  92 132 166 223 264 325 380
#     4  12  22  44  70  97 125 180 223 265 320 412
#     4  10  21  40  65  93 123 176 219 262 315 398
#     4  11  24  40  61 100 132 173 214 279 333 385
#     4  12  24  41  68  94 134 168 230 268 334 391
#     4  10  22  39  66  90 128 172 224 262 336 377
#     4  12  25  41  70  97 137 168 221 275 337 390
#
# _framework density 21.739293
#
# number of rings (size 3 to 8) (size 9 to 14) (size 15 to 20)
#    0.000    1.000    3.333    3.500    4.667    2.667 
#    0.000    0.000    0.000    0.000    0.000    0.000 
#    0.000    0.000    0.000    0.000    0.000    0.000 
#
# Total GULP energy -595295.523063 kJ/mol
# GULP energy per Si atom -12401.990064 kJ/mol
# Density = 2.168981 g / cm^3
# Si number density = 21.739293 Si / 1000 Ang^3
#
#
#
# Elastic Constant Matrix: (Units=GPa)
#
#
# Indices 1 2 3 4 5 6 
#
# 1 115.3165 28.9048 12.2077 0.0000 0.0000 0.0000
# 2 28.9048 85.1962 23.5459 0.0000 0.0000 0.0000
# 3 12.2077 23.5459 70.9932 0.0000 0.0000 0.0000
# 4 0.0000 0.0000 0.0000 38.1656 0.0000 0.0000
# 5 0.0000 0.0000 0.0000 0.0000 32.7471 0.0000
# 6 0.0000 0.0000 0.0000 0.0000 0.0000 18.1481
#
#
#
# Elastic Compliance Matrix: (Units=1/GPa)
#
#
# Indices 1 2 3 4 5 6 
#
# 1 0.009503 -0.003052 -0.000622 0.000000 0.000000 0.000000
# 2 -0.003052 0.013902 -0.004086 0.000000 0.000000 0.000000
# 3 -0.000622 -0.004086 0.015548 0.000000 0.000000 0.000000
# 4 0.000000 0.000000 0.000000 0.026202 0.000000 0.000000
# 5 0.000000 0.000000 0.000000 0.000000 0.030537 0.000000
# 6 0.000000 0.000000 0.000000 0.000000 0.000000 0.055102
#
#
# Mechanical properties :
#
#
# Convention : Reuss Voigt Hill
#
# Bulk Modulus (GPa) = 42.67477 44.53584 43.60530
# Shear Modulus (GPa) = 28.71500 31.60198 30.15849
#
# Velocity S-wave (km/s) = 3.63833 3.81685 3.72866
# Velocity P-wave (km/s) = 6.10924 6.32102 6.21603
#
# Compressibility (1/GPa) = 0.02343305
#
# Stress axis : x y z
#
# Youngs Moduli (GPa) = 105.23376 71.92992 64.31705
#
# Poissons Ratio (x) = 0.21954 0.03999
# Poissons Ratio (y) = 0.32119 0.26281
# Poissons Ratio (z) = 0.06543 0.29391
#
# Static dielectric constant tensor:
#      x y z
#    x 4.082440 0.000000 0.000000 
#    y 0.000000 4.565340 0.000000 
#    z 0.000000 0.000000 2.945680 
# 
# 
# High freq. dielectric constant tensor:
#      x y z
#    x 1.862590 0.000000 0.000000 
#    y 0.000000 1.851600 0.000000 
#    z 0.000000 0.000000 1.851760 
# 
# From -- ./inp_files/4286.got.cif
#   From: 2010.03.12/outbox.cif.g09.slc.cpg/sg60_3_cif.got.tgz:4286.got - 2010.04.10 18:46:24.
