data_PCOD8247786
_publ_section_title
;
Structure prediction by ZEFSAII (Michael W. Deem and Ramdas Pophale) SiO2 
 PCOD8247786
Probable space group: P B C N
;
_chemical_formula_sum "Si O2"
_cell_formula_units_Z 52
_cell_length_a 18.007337
_cell_length_b 14.088349
_cell_length_c 10.542239
_cell_angle_alpha 90.000000
_cell_angle_beta 90.000000
_cell_angle_gamma 90.000000
_cell_volume 2674.499072
_symmetry_space_group_name_H-M "P B C N"
_symmetry_group_IT_number 60
_symmetry_cell_setting 'orthorhombic'
loop_
_space_group_symop_operation_xyz
x,y,z
1/2-x,1/2-y,1/2+z
1/2+x,1/2-y,-z
-x,y,1/2-z
-x,-y,-z
1/2+x,1/2+y,1/2-z
1/2-x,1/2+y,z
x,-y,1/2+z
loop_
_atom_site_type_symbol
_atom_site_label
_atom_site_fract_x
_atom_site_fract_y
_atom_site_fract_z
Si Si1 0.500000 0.032254 0.750000
Si Si2 0.648782 0.531766 0.908799
Si Si3 0.209092 0.943189 0.823829
Si Si4 0.541819 0.821566 0.456477
Si Si5 0.060068 0.784343 0.149294
Si Si6 0.376215 0.117018 0.304649
Si Si7 0.580040 0.643004 0.308533
O O1 0.497445 0.096843 0.625164
O O2 0.573595 0.967796 0.750459
O O3 0.696718 0.528521 0.778057
O O4 0.604693 0.629568 0.911079
O O5 0.593266 0.440622 0.912662
O O6 0.701549 0.522122 0.031531
O O7 0.290107 0.904216 0.798164
O O8 0.145599 0.863150 0.797166
O O9 0.477239 0.768819 0.532091
O O10 0.601811 0.867123 0.549665
O O11 0.585302 0.747072 0.368450
O O12 0.113167 0.711050 0.221387
O O13 0.000000 0.823843 0.250000
O O14 0.500000 0.624116 0.250000
#
# Coordination Sequence:
#
# PCOD8247786 Si02
#       7
#     4   8   8   8   8   8   8
#     4  12  24  44  68  94 126 182 226 290 320 400
#     4  10  24  42  67 100 139 175 217 275 344 403
#     4  10  26  42  64 103 137 183 215 278 343 403
#     4  11  23  39  70  99 131 175 227 282 337 395
#     4  10  22  41  69 101 126 179 220 282 335 400
#     4  11  25  45  66  95 135 173 239 272 343 398
#     4  10  22  42  66 103 133 175 223 272 337 415
#
# _framework density 19.442893000000002
#
# number of rings (size 3 to 8) (size 9 to 14) (size 15 to 20)
#    0.923    0.615    3.077    1.846    6.462    2.462 
#    0.000    0.000    0.000    0.000    0.000    0.000 
#    0.000    0.000    0.000    0.000    0.000    0.000 
#
# Total GULP energy -644644.449519 kJ/mol
# GULP energy per Si atom -12397.008645 kJ/mol
# Density = 1.939864 g / cm^3
# Si number density = 19.442893 Si / 1000 Ang^3
#
#
#
# Elastic Constant Matrix: (Units=GPa)
#
#
# Indices 1 2 3 4 5 6 
#
# 1 133.8576 34.2575 36.4538 0.0000 0.0000 0.0000
# 2 34.2575 82.0459 29.2208 0.0000 0.0000 0.0000
# 3 36.4538 29.2208 104.5940 0.0000 0.0000 0.0000
# 4 0.0000 0.0000 0.0000 12.8062 0.0000 0.0000
# 5 0.0000 0.0000 0.0000 0.0000 23.1617 0.0000
# 6 0.0000 0.0000 0.0000 0.0000 0.0000 14.0210
#
#
#
# Elastic Compliance Matrix: (Units=1/GPa)
#
#
# Indices 1 2 3 4 5 6 
#
# 1 0.008825 -0.002876 -0.002273 0.000000 0.000000 0.000000
# 2 -0.002876 0.014472 -0.003041 0.000000 0.000000 0.000000
# 3 -0.002273 -0.003041 0.011202 0.000000 0.000000 0.000000
# 4 0.000000 0.000000 0.000000 0.078087 0.000000 0.000000
# 5 0.000000 0.000000 0.000000 0.000000 0.043175 0.000000
# 6 0.000000 0.000000 0.000000 0.000000 0.000000 0.071322
#
#
# Mechanical properties :
#
#
# Convention : Reuss Voigt Hill
#
# Bulk Modulus (GPa) = 55.18225 57.81797 56.50011
# Shear Modulus (GPa) = 20.03991 24.70214 22.37103
#
# Velocity S-wave (km/s) = 3.21394 3.56827 3.39573
# Velocity P-wave (km/s) = 6.49738 6.83949 6.67063
#
# Compressibility (1/GPa) = 0.01812177
#
# Stress axis : x y z
#
# Youngs Moduli (GPa) = 113.30865 69.09899 89.26689
#
# Poissons Ratio (x) = 0.19870 0.20286
# Poissons Ratio (y) = 0.32583 0.27145
# Poissons Ratio (z) = 0.25750 0.21012
#
# Static dielectric constant tensor:
#      x y z
#    x 3.349130 0.000000 0.000000 
#    y 0.000000 3.530880 0.000000 
#    z 0.000000 0.000000 3.749000 
# 
# 
# High freq. dielectric constant tensor:
#      x y z
#    x 1.744700 0.000000 0.000000 
#    y 0.000000 1.755840 0.000000 
#    z 0.000000 0.000000 1.770630 
# 
# From -- ./inp_files/12490.got.cif
#   From: 2010.03.12/outbox.cif.g09.slc.cpg/sg60_7_cif.got.tgz:12490.got - 2010.04.10 18:46:24.
