data_PCOD8247968
_publ_section_title
;
Structure prediction by ZEFSAII (Michael W. Deem and Ramdas Pophale) SiO2 
 PCOD8247968
Probable space group: P B C N
;
_chemical_formula_sum "Si O2"
_cell_formula_units_Z 64
_cell_length_a 7.713517
_cell_length_b 12.295054
_cell_length_c 32.981071
_cell_angle_alpha 90.000000
_cell_angle_beta 90.000000
_cell_angle_gamma 90.000000
_cell_volume 3127.862375
_symmetry_space_group_name_H-M "P B C N"
_symmetry_group_IT_number 60
_symmetry_cell_setting 'orthorhombic'
loop_
_space_group_symop_operation_xyz
x,y,z
1/2-x,1/2-y,1/2+z
1/2+x,1/2-y,-z
-x,y,1/2-z
-x,-y,-z
1/2+x,1/2+y,1/2-z
1/2-x,1/2+y,z
x,-y,1/2+z
loop_
_atom_site_type_symbol
_atom_site_label
_atom_site_fract_x
_atom_site_fract_y
_atom_site_fract_z
Si Si1 0.744746 0.943439 0.927845
Si Si2 0.477712 0.343190 0.295393
Si Si3 0.287750 0.585738 0.497447
Si Si4 0.457806 0.906378 0.705280
Si Si5 0.129023 0.023378 0.161717
Si Si6 0.382229 0.952082 0.428960
Si Si7 0.753948 0.014778 0.657999
Si Si8 0.059508 0.247201 0.038109
O O1 0.812641 0.974977 0.884089
O O2 0.538733 0.961223 0.927512
O O3 0.789755 0.816307 0.936788
O O4 0.831471 0.026610 0.960107
O O5 0.500000 0.389239 0.250000
O O6 0.484649 0.216172 0.296007
O O7 0.630141 0.397522 0.322813
O O8 0.291568 0.377945 0.314696
O O9 0.232810 0.489847 0.466957
O O10 0.453549 0.649403 0.481699
O O11 0.137270 0.675545 0.503271
O O12 0.500000 0.954177 0.750000
O O13 0.256164 0.911719 0.692170
O O14 0.572859 0.966051 0.671977
O O15 0.925746 0.063597 0.164103
O O16 0.264084 0.956198 0.389181
O O17 0.445045 0.826521 0.433334
#
# Coordination Sequence:
#
# PCOD8247968 Si02
#       8
#     8   8   8   8   8   8   8   8
#     4  11  22  41  61  92 129 171 217 266 324 389
#     4   9  22  43  66  97 130 166 216 262 324 393
#     4  11  23  40  63  91 130 168 222 268 323 389
#     4  11  22  43  70  97 131 173 213 267 329 389
#     4  10  23  42  66  95 133 168 215 268 322 382
#     4  11  23  43  61  93 133 167 225 270 321 391
#     4  10  23  43  65  96 133 169 211 274 316 384
#     4  11  23  39  64  91 124 180 214 270 332 379
#
# _framework density 20.461257
#
# number of rings (size 3 to 8) (size 9 to 14) (size 15 to 20)
#    0.750    0.750    1.250    4.875    0.000    5.000 
#    4.500    0.000    0.000    0.000    0.000    0.000 
#    0.000    0.000    0.000    0.000    0.000    0.000 
#
# Total GULP energy -793024.688028 kJ/mol
# GULP energy per Si atom -12391.010750 kJ/mol
# Density = 2.041469 g / cm^3
# Si number density = 20.461257 Si / 1000 Ang^3
#
#
#
# Elastic Constant Matrix: (Units=GPa)
#
#
# Indices 1 2 3 4 5 6 
#
# 1 85.1490 30.5657 31.6990 0.0000 0.0000 0.0000
# 2 30.5657 79.7560 37.0091 0.0000 0.0000 0.0000
# 3 31.6990 37.0091 116.6207 0.0000 0.0000 0.0000
# 4 0.0000 0.0000 0.0000 8.3485 0.0000 0.0000
# 5 0.0000 0.0000 0.0000 0.0000 37.6209 0.0000
# 6 0.0000 0.0000 0.0000 0.0000 0.0000 22.8595
#
#
#
# Elastic Compliance Matrix: (Units=1/GPa)
#
#
# Indices 1 2 3 4 5 6 
#
# 1 0.014215 -0.004286 -0.002504 0.000000 0.000000 0.000000
# 2 -0.004286 0.015996 -0.003911 0.000000 0.000000 0.000000
# 3 -0.002504 -0.003911 0.010497 0.000000 0.000000 0.000000
# 4 0.000000 0.000000 0.000000 0.119781 0.000000 0.000000
# 5 0.000000 0.000000 0.000000 0.000000 0.026581 0.000000
# 6 0.000000 0.000000 0.000000 0.000000 0.000000 0.043746
#
#
# Mechanical properties :
#
#
# Convention : Reuss Voigt Hill
#
# Bulk Modulus (GPa) = 51.79883 53.34148 52.57015
# Shear Modulus (GPa) = 19.33104 25.91590 22.62347
#
# Velocity S-wave (km/s) = 3.07703 3.56277 3.32877
# Velocity P-wave (km/s) = 6.16399 6.56129 6.36574
#
# Compressibility (1/GPa) = 0.01930546
#
# Stress axis : x y z
#
# Youngs Moduli (GPa) = 70.34999 62.51694 95.26955
#
# Poissons Ratio (x) = 0.26794 0.23852
# Poissons Ratio (y) = 0.30151 0.37262
# Poissons Ratio (z) = 0.17613 0.24452
#
# Static dielectric constant tensor:
#      x y z
#    x 4.376070 0.000000 0.000000 
#    y 0.000000 3.559130 0.000000 
#    z 0.000000 0.000000 3.933260 
# 
# 
# High freq. dielectric constant tensor:
#      x y z
#    x 1.801060 0.000000 0.000000 
#    y 0.000000 1.784580 0.000000 
#    z 0.000000 0.000000 1.810510 
# 
# From -- ./inp_files/26007.got.cif
#   From: 2010.03.12/outbox.cif.g09.slc.cpg/sg60_14_cif.got.tgz:26007.got - 2010.04.10 18:46:24.
