data_PCOD8247980
_publ_section_title
;
Structure prediction by ZEFSAII (Michael W. Deem and Ramdas Pophale) SiO2 
 PCOD8247980
Probable space group: P B C N
;
_chemical_formula_sum "Si O2"
_cell_formula_units_Z 60
_cell_length_a 18.161320
_cell_length_b 17.279506
_cell_length_c 8.928372
_cell_angle_alpha 90.000000
_cell_angle_beta 90.000000
_cell_angle_gamma 90.000000
_cell_volume 2801.889540
_symmetry_space_group_name_H-M "P B C N"
_symmetry_group_IT_number 60
_symmetry_cell_setting 'orthorhombic'
loop_
_space_group_symop_operation_xyz
x,y,z
1/2-x,1/2-y,1/2+z
1/2+x,1/2-y,-z
-x,y,1/2-z
-x,-y,-z
1/2+x,1/2+y,1/2-z
1/2-x,1/2+y,z
x,-y,1/2+z
loop_
_atom_site_type_symbol
_atom_site_label
_atom_site_fract_x
_atom_site_fract_y
_atom_site_fract_z
Si Si1 0.895312 0.631668 0.134066
Si Si2 0.771244 0.095836 0.203901
Si Si3 0.155884 0.236162 0.686649
Si Si4 0.299376 0.234859 0.862939
Si Si5 0.585154 0.416273 0.263285
Si Si6 0.576696 0.855347 0.306706
Si Si7 0.000000 0.493493 0.750000
Si Si8 0.660207 0.525990 0.480791
O O1 0.814559 0.599109 0.165813
O O2 0.904470 0.701511 0.253531
O O3 0.957923 0.564888 0.137786
O O4 0.901246 0.671491 0.971991
O O5 0.814640 0.177147 0.189532
O O6 0.779654 0.068844 0.376648
O O7 0.801671 0.039026 0.079081
O O8 0.217118 0.213942 0.811108
O O9 0.196915 0.270912 0.542303
O O10 0.114317 0.157808 0.645950
O O11 0.357752 0.172360 0.800676
O O12 0.500000 0.408206 0.250000
O O13 0.602102 0.491549 0.362019
O O14 0.618921 0.417237 0.095571
O O15 0.500000 0.816360 0.250000
O O16 0.564479 0.949634 0.313657
#
# Coordination Sequence:
#
# PCOD8247980 Si02
#       8
#     8   8   8   8   8   8   4   8
#     4  11  25  43  68 102 140 181 228 281 346 407
#     4  10  23  42  69 100 134 180 232 284 336 409
#     4  11  26  41  74  97 139 179 234 284 337 417
#     4  11  23  47  65 100 136 179 231 284 337 405
#     4  11  24  43  67  98 136 175 224 281 348 407
#     4  10  26  43  70  99 137 186 226 281 350 410
#     4  10  26  46  68 100 148 176 232 280 352 420
#     4  10  23  43  68 100 130 174 228 282 346 399
#
# _framework density 21.41412
#
# number of rings (size 3 to 8) (size 9 to 14) (size 15 to 20)
#    0.400    1.067    1.333    2.400   10.267    1.067 
#    0.000    0.667    0.000    0.000    0.000    0.000 
#    0.000    0.000    0.000    0.000    0.000    0.000 
#
# Total GULP energy -743534.715237 kJ/mol
# GULP energy per Si atom -12392.245254 kJ/mol
# Density = 2.136538 g / cm^3
# Si number density = 21.414120 Si / 1000 Ang^3
#
#
#
# Elastic Constant Matrix: (Units=GPa)
#
#
# Indices 1 2 3 4 5 6 
#
# 1 98.7063 42.5207 34.6775 0.0000 0.0000 0.0000
# 2 42.5207 91.3139 25.6575 0.0000 0.0000 0.0000
# 3 34.6775 25.6575 126.0486 0.0000 0.0000 0.0000
# 4 0.0000 0.0000 0.0000 26.5907 0.0000 0.0000
# 5 0.0000 0.0000 0.0000 0.0000 27.6617 0.0000
# 6 0.0000 0.0000 0.0000 0.0000 0.0000 38.4201
#
#
#
# Elastic Compliance Matrix: (Units=1/GPa)
#
#
# Indices 1 2 3 4 5 6 
#
# 1 0.013412 -0.005525 -0.002565 0.000000 0.000000 0.000000
# 2 -0.005525 0.013891 -0.001308 0.000000 0.000000 0.000000
# 3 -0.002565 -0.001308 0.008905 0.000000 0.000000 0.000000
# 4 0.000000 0.000000 0.000000 0.037607 0.000000 0.000000
# 5 0.000000 0.000000 0.000000 0.000000 0.036151 0.000000
# 6 0.000000 0.000000 0.000000 0.000000 0.000000 0.026028
#
#
# Mechanical properties :
#
#
# Convention : Reuss Voigt Hill
#
# Bulk Modulus (GPa) = 57.42658 57.97556 57.70107
# Shear Modulus (GPa) = 31.13422 32.74869 31.94146
#
# Velocity S-wave (km/s) = 3.81715 3.91487 3.86632
# Velocity P-wave (km/s) = 6.80463 6.89690 6.85092
#
# Compressibility (1/GPa) = 0.01741354
#
# Stress axis : x y z
#
# Youngs Moduli (GPa) = 74.55887 71.98777 112.29164
#
# Poissons Ratio (x) = 0.39771 0.28806
# Poissons Ratio (y) = 0.41191 0.14684
# Poissons Ratio (z) = 0.19127 0.09414
#
# Static dielectric constant tensor:
#      x y z
#    x 3.773470 0.000000 0.000000 
#    y 0.000000 3.975040 0.000000 
#    z 0.000000 0.000000 4.028040 
# 
# 
# High freq. dielectric constant tensor:
#      x y z
#    x 1.831780 0.000000 0.000000 
#    y 0.000000 1.840710 0.000000 
#    z 0.000000 0.000000 1.849990 
# 
# From -- ./inp_files/6907.got.cif
#   From: 2010.03.12/outbox.cif.g09.slc.cpg/sg60_4_cif.got.tgz:6907.got - 2010.04.10 18:46:24.
