data_PCOD8247008
_publ_section_title
;
Structure prediction by ZEFSAII (Michael W. Deem and Ramdas Pophale) SiO2 
 PCOD8247008
Probable space group: P B C N
;
_chemical_formula_sum "Si O2"
_cell_formula_units_Z 36
_cell_length_a 15.248782
_cell_length_b 8.989651
_cell_length_c 13.342166
_cell_angle_alpha 90.000000
_cell_angle_beta 90.000000
_cell_angle_gamma 90.000000
_cell_volume 1828.960504
_symmetry_space_group_name_H-M "P B C N"
_symmetry_group_IT_number 60
_symmetry_cell_setting 'orthorhombic'
loop_
_space_group_symop_operation_xyz
x,y,z
1/2-x,1/2-y,1/2+z
1/2+x,1/2-y,-z
-x,y,1/2-z
-x,-y,-z
1/2+x,1/2+y,1/2-z
1/2-x,1/2+y,z
x,-y,1/2+z
loop_
_atom_site_type_symbol
_atom_site_label
_atom_site_fract_x
_atom_site_fract_y
_atom_site_fract_z
Si Si1 0.762844 0.449977 0.141164
Si Si2 0.863053 0.279883 0.718063
Si Si3 0.528546 0.672956 0.886701
Si Si4 0.626057 0.311793 0.587821
Si Si5 0.500000 0.406243 0.750000
O O1 0.714777 0.341021 0.219429
O O2 0.827909 0.555389 0.201854
O O3 0.821651 0.342500 0.070272
O O4 0.693309 0.549307 0.078969
O O5 0.907825 0.284685 0.826677
O O6 0.929357 0.231453 0.628372
O O7 0.541086 0.510392 0.836909
O O8 0.552472 0.668673 0.002927
O O9 0.576415 0.309021 0.696414
#
# Coordination Sequence:
#
# PCOD8247008 Si02
#       5
#     8   8   8   8   4
#     4  10  21  38  56  86 118 144 186 247 278 332
#     4   9  20  38  58  81 117 151 187 235 289 328
#     4  10  20  38  62  82 114 158 188 231 283 351
#     4  11  22  39  61  85 115 149 198 227 289 339
#     4  10  20  38  60  82 112 160 184 238 274 350
#
# _framework density 19.683311
#
# number of rings (size 3 to 8) (size 9 to 14) (size 15 to 20)
#    0.000    2.222    4.444    0.667    0.000    4.444 
#    0.000    0.000    0.000    0.000    0.000    0.000 
#    0.000    0.000    0.000    0.000    0.000    0.000 
#
# Total GULP energy -446195.881063 kJ/mol
# GULP energy per Si atom -12394.330030 kJ/mol
# Density = 1.963851 g / cm^3
# Si number density = 19.683311 Si / 1000 Ang^3
#
#
#
# Elastic Constant Matrix: (Units=GPa)
#
#
# Indices 1 2 3 4 5 6 
#
# 1 102.4110 47.3319 47.6038 0.0000 0.0000 0.0000
# 2 47.3319 120.7648 32.6658 0.0000 0.0000 0.0000
# 3 47.6038 32.6658 79.6517 0.0000 0.0000 0.0000
# 4 0.0000 0.0000 0.0000 13.4842 0.0000 0.0000
# 5 0.0000 0.0000 0.0000 0.0000 23.3620 0.0000
# 6 0.0000 0.0000 0.0000 0.0000 0.0000 23.7768
#
#
#
# Elastic Compliance Matrix: (Units=1/GPa)
#
#
# Indices 1 2 3 4 5 6 
#
# 1 0.014980 -0.003880 -0.007361 0.000000 0.000000 0.000000
# 2 -0.003880 0.010319 -0.001913 0.000000 0.000000 0.000000
# 3 -0.007361 -0.001913 0.017739 0.000000 0.000000 0.000000
# 4 0.000000 0.000000 0.000000 0.074161 0.000000 0.000000
# 5 0.000000 0.000000 0.000000 0.000000 0.042805 0.000000
# 6 0.000000 0.000000 0.000000 0.000000 0.000000 0.042058
#
#
# Mechanical properties :
#
#
# Convention : Reuss Voigt Hill
#
# Bulk Modulus (GPa) = 59.77809 62.00340 60.89074
# Shear Modulus (GPa) = 21.37259 23.80634 22.58946
#
# Velocity S-wave (km/s) = 3.29876 3.48151 3.39137
# Velocity P-wave (km/s) = 6.70410 6.90870 6.80717
#
# Compressibility (1/GPa) = 0.01672854
#
# Stress axis : x y z
#
# Youngs Moduli (GPa) = 66.75784 96.91208 56.37390
#
# Poissons Ratio (x) = 0.37600 0.41499
# Poissons Ratio (y) = 0.25901 0.10784
# Poissons Ratio (z) = 0.49143 0.18539
#
# Static dielectric constant tensor:
#      x y z
#    x 3.842680 0.000000 0.000000 
#    y 0.000000 3.601150 0.000000 
#    z 0.000000 0.000000 3.253140 
# 
# 
# High freq. dielectric constant tensor:
#      x y z
#    x 1.782090 0.000000 0.000000 
#    y 0.000000 1.764990 0.000000 
#    z 0.000000 0.000000 1.728680 
# 
# From -- ./inp_files/16539.got.cif
#   From: 2010.03.12/outbox.cif.g09.slc.cpg/sg60_9_cif.got.tgz:16539.got - 2010.04.10 18:46:24.
