data_PCOD8247295
_publ_section_title
;
Structure prediction by ZEFSAII (Michael W. Deem and Ramdas Pophale) SiO2 
 PCOD8247295
Probable space group: P B C N
;
_chemical_formula_sum "Si O2"
_cell_formula_units_Z 48
_cell_length_a 12.875359
_cell_length_b 11.626424
_cell_length_c 16.779983
_cell_angle_alpha 90.000000
_cell_angle_beta 90.000000
_cell_angle_gamma 90.000000
_cell_volume 2511.869200
_symmetry_space_group_name_H-M "P B C N"
_symmetry_group_IT_number 60
_symmetry_cell_setting 'orthorhombic'
loop_
_space_group_symop_operation_xyz
x,y,z
1/2-x,1/2-y,1/2+z
1/2+x,1/2-y,-z
-x,y,1/2-z
-x,-y,-z
1/2+x,1/2+y,1/2-z
1/2-x,1/2+y,z
x,-y,1/2+z
loop_
_atom_site_type_symbol
_atom_site_label
_atom_site_fract_x
_atom_site_fract_y
_atom_site_fract_z
Si Si1 0.135467 0.344464 0.364090
Si Si2 0.056211 0.000460 0.323897
Si Si3 0.058417 0.811206 0.592021
Si Si4 0.897268 0.596482 0.196956
Si Si5 0.348594 0.699069 0.918812
Si Si6 0.695044 0.316951 0.764901
O O1 0.117041 0.479801 0.353384
O O2 0.222976 0.306122 0.429946
O O3 0.186655 0.304416 0.280533
O O4 0.027177 0.285662 0.388125
O O5 0.115207 0.103662 0.281795
O O6 0.000000 0.933910 0.250000
O O7 0.980503 0.059497 0.389021
O O8 0.130885 0.916231 0.369598
O O9 0.091532 0.801427 0.501357
O O10 0.161840 0.791705 0.644701
O O11 0.894660 0.693423 0.129106
O O12 0.807316 0.623652 0.261243
O O13 0.000000 0.593865 0.250000
#
# Coordination Sequence:
#
# PCOD8247295 Si02
#       6
#     8   8   8   8   8   8
#     4  10  21  40  62  80 120 161 194 242 304 355
#     4   9  17  36  61  84 111 153 206 243 283 351
#     4  10  21  37  62  87 115 158 201 244 295 363
#     4  11  22  37  62  86 119 156 196 250 300 357
#     4  11  22  36  57  89 123 151 193 251 310 345
#     4   9  19  38  61  83 108 158 208 232 282 366
#
# _framework density 19.109275
#
# number of rings (size 3 to 8) (size 9 to 14) (size 15 to 20)
#    0.000    2.000    1.667    3.500    0.000    2.000 
#    0.000    1.667    0.000    0.000    0.000    0.000 
#    0.000    0.000    0.000    0.000    0.000    0.000 
#
# Total GULP energy -594856.222214 kJ/mol
# GULP energy per Si atom -12392.837963 kJ/mol
# Density = 1.906578 g / cm^3
# Si number density = 19.109275 Si / 1000 Ang^3
#
#
#
# Elastic Constant Matrix: (Units=GPa)
#
#
# Indices 1 2 3 4 5 6 
#
# 1 112.2944 22.5927 49.1653 0.0000 0.0000 0.0000
# 2 22.5927 86.0843 41.5087 0.0000 0.0000 0.0000
# 3 49.1653 41.5087 95.7893 0.0000 0.0000 0.0000
# 4 0.0000 0.0000 0.0000 25.2725 0.0000 0.0000
# 5 0.0000 0.0000 0.0000 0.0000 34.0122 0.0000
# 6 0.0000 0.0000 0.0000 0.0000 0.0000 -9.2185
#
#
#
# Elastic Compliance Matrix: (Units=1/GPa)
#
#
# Indices 1 2 3 4 5 6 
#
# 1 0.011490 -0.000217 -0.005803 0.000000 0.000000 0.000000
# 2 -0.000217 0.014689 -0.006254 0.000000 0.000000 0.000000
# 3 -0.005803 -0.006254 0.016128 0.000000 0.000000 0.000000
# 4 0.000000 0.000000 0.000000 0.039569 0.000000 0.000000
# 5 0.000000 0.000000 0.000000 0.000000 0.029401 0.000000
# 6 0.000000 0.000000 0.000000 0.000000 0.000000 -0.108477
#
#
# Mechanical properties :
#
#
# Convention : Reuss Voigt Hill
#
# Bulk Modulus (GPa) = 56.31093 57.85570 57.08332
# Shear Modulus (GPa) = 150.29845 22.07332 86.18588
#
# Velocity S-wave (km/s) = 8.87822 3.40238 6.72306
# Velocity P-wave (km/s) = 11.60297 6.76586 9.49752
#
# Compressibility (1/GPa) = 0.01775854
#
# Stress axis : x y z
#
# Youngs Moduli (GPa) = 87.03516 68.07816 62.00379
#
# Poissons Ratio (x) = 0.01479 0.35981
# Poissons Ratio (y) = 0.01891 0.38775
# Poissons Ratio (z) = 0.50507 0.42574
#
# Static dielectric constant tensor:
#      x y z
#    x 3.831630 0.000000 0.000000 
#    y 0.000000 3.515900 0.000000 
#    z 0.000000 0.000000 3.431100 
# 
# 
# High freq. dielectric constant tensor:
#      x y z
#    x 1.752540 0.000000 0.000000 
#    y 0.000000 1.747700 0.000000 
#    z 0.000000 0.000000 1.725760 
# 
# From -- ./inp_files/20017.got.cif
#   From: 2010.03.12/outbox.cif.g09.slc.cpg/sg60_11_cif.got.tgz:20017.got - 2010.04.10 18:46:24.
