data_PCOD8247272
_publ_section_title
;
Structure prediction by ZEFSAII (Michael W. Deem and Ramdas Pophale) SiO2 
 PCOD8247272
Probable space group: P B C N
;
_chemical_formula_sum "Si O2"
_cell_formula_units_Z 64
_cell_length_a 18.917366
_cell_length_b 18.672795
_cell_length_c 9.513596
_cell_angle_alpha 90.000000
_cell_angle_beta 90.000000
_cell_angle_gamma 90.000000
_cell_volume 3360.583576
_symmetry_space_group_name_H-M "P B C N"
_symmetry_group_IT_number 60
_symmetry_cell_setting 'orthorhombic'
loop_
_space_group_symop_operation_xyz
x,y,z
1/2-x,1/2-y,1/2+z
1/2+x,1/2-y,-z
-x,y,1/2-z
-x,-y,-z
1/2+x,1/2+y,1/2-z
1/2-x,1/2+y,z
x,-y,1/2+z
loop_
_atom_site_type_symbol
_atom_site_label
_atom_site_fract_x
_atom_site_fract_y
_atom_site_fract_z
Si Si1 0.770299 0.955123 0.534872
Si Si2 0.895422 0.581682 0.344373
Si Si3 0.731651 0.418420 0.845564
Si Si4 0.459873 0.235031 0.113023
Si Si5 0.192760 0.235105 0.218355
Si Si6 0.948644 0.688251 0.874962
Si Si7 0.893415 0.549888 0.026308
Si Si8 0.686117 0.697112 0.963509
O O1 0.779164 0.961945 0.701487
O O2 0.689242 0.942382 0.492319
O O3 0.814489 0.888753 0.474335
O O4 0.796980 0.029972 0.468587
O O5 0.813637 0.602341 0.366186
O O6 0.940730 0.652175 0.365735
O O7 0.921706 0.523960 0.458983
O O8 0.909305 0.547975 0.191536
O O9 0.687976 0.344793 0.846017
O O10 0.500000 0.264630 0.250000
O O11 0.391225 0.282381 0.087996
O O12 0.511954 0.242992 0.980054
O O13 0.119957 0.274179 0.187640
O O14 0.257291 0.278326 0.151533
O O15 0.205840 0.232003 0.385938
O O16 0.930738 0.617275 0.958798
O O17 0.000000 0.666056 0.750000
#
# Coordination Sequence:
#
# PCOD8247272 Si02
#       8
#     8   8   8   8   8   8   8   8
#     4   9  19  37  60  88 117 149 197 251 294 350
#     4  10  21  37  57  85 119 163 203 243 295 357
#     4   9  19  37  60  88 118 149 197 250 298 348
#     4  12  25  41  59  87 127 162 202 252 303 359
#     4  11  23  40  65  90 120 160 206 250 301 356
#     4  12  25  41  57  88 124 163 203 247 306 362
#     4  10  21  37  57  83 121 162 203 243 293 361
#     4  11  23  40  65  91 119 160 205 252 299 358
#
# _framework density 19.044312000000001
#
# number of rings (size 3 to 8) (size 9 to 14) (size 15 to 20)
#    0.000    1.500    5.000    0.000    3.500    2.000 
#    0.000    0.000    0.000    1.500    0.000    0.000 
#    0.000    0.000    0.000    0.000    0.000    0.000 
#
# Total GULP energy -793851.632685 kJ/mol
# GULP energy per Si atom -12403.931761 kJ/mol
# Density = 1.900097 g / cm^3
# Si number density = 19.044312 Si / 1000 Ang^3
#
#
#
# Elastic Constant Matrix: (Units=GPa)
#
#
# Indices 1 2 3 4 5 6 
#
# 1 55.5473 11.9391 7.4842 0.0000 0.0000 0.0000
# 2 11.9391 39.5727 0.8471 0.0000 0.0000 0.0000
# 3 7.4842 0.8471 54.8955 0.0000 0.0000 0.0000
# 4 0.0000 0.0000 0.0000 127.0945 0.0000 0.0000
# 5 0.0000 0.0000 0.0000 0.0000 24.7064 0.0000
# 6 0.0000 0.0000 0.0000 0.0000 0.0000 10.5190
#
#
#
# Elastic Compliance Matrix: (Units=1/GPa)
#
#
# Indices 1 2 3 4 5 6 
#
# 1 0.019610 -0.005861 -0.002583 0.000000 0.000000 0.000000
# 2 -0.005861 0.027030 0.000382 0.000000 0.000000 0.000000
# 3 -0.002583 0.000382 0.018563 0.000000 0.000000 0.000000
# 4 0.000000 0.000000 0.000000 0.007868 0.000000 0.000000
# 5 0.000000 0.000000 0.000000 0.000000 0.040475 0.000000
# 6 0.000000 0.000000 0.000000 0.000000 0.000000 0.095066
#
#
# Mechanical properties :
#
#
# Convention : Reuss Voigt Hill
#
# Bulk Modulus (GPa) = 20.37551 21.17292 20.77422
# Shear Modulus (GPa) = 20.73851 41.11365 30.92608
#
# Velocity S-wave (km/s) = 3.30352 4.65137 4.03414
# Velocity P-wave (km/s) = 5.02725 6.32368 5.71236
#
# Compressibility (1/GPa) = 0.04907853
#
# Stress axis : x y z
#
# Youngs Moduli (GPa) = 50.99313 36.99587 53.87142
#
# Poissons Ratio (x) = 0.21684 0.13916
# Poissons Ratio (y) = 0.29888 -0.02058
# Poissons Ratio (z) = 0.13172 -0.01413
#
# Static dielectric constant tensor:
#      x y z
#    x 3.432110 0.000000 0.000000 
#    y 0.000000 3.431760 0.000000 
#    z 0.000000 0.000000 4.091640 
# 
# 
# High freq. dielectric constant tensor:
#      x y z
#    x 1.728190 0.000000 0.000000 
#    y 0.000000 1.729490 0.000000 
#    z 0.000000 0.000000 1.755630 
# 
# From -- ./inp_files/7554.got.cif
#   From: 2010.03.12/outbox.cif.g09.slc.cpg/sg60_4_cif.got.tgz:7554.got - 2010.04.10 18:46:24.
