data_PCOD8247605
_publ_section_title
;
Structure prediction by ZEFSAII (Michael W. Deem and Ramdas Pophale) SiO2 
 PCOD8247605
Probable space group: P B C N
;
_chemical_formula_sum "Si O2"
_cell_formula_units_Z 56
_cell_length_a 27.484304
_cell_length_b 17.401834
_cell_length_c 5.442416
_cell_angle_alpha 90.000000
_cell_angle_beta 90.000000
_cell_angle_gamma 90.000000
_cell_volume 2602.984007
_symmetry_space_group_name_H-M "P B C N"
_symmetry_group_IT_number 60
_symmetry_cell_setting 'orthorhombic'
loop_
_space_group_symop_operation_xyz
x,y,z
1/2-x,1/2-y,1/2+z
1/2+x,1/2-y,-z
-x,y,1/2-z
-x,-y,-z
1/2+x,1/2+y,1/2-z
1/2-x,1/2+y,z
x,-y,1/2+z
loop_
_atom_site_type_symbol
_atom_site_label
_atom_site_fract_x
_atom_site_fract_y
_atom_site_fract_z
Si Si1 0.366256 0.254588 0.498522
Si Si2 0.240178 0.543767 0.049949
Si Si3 0.794680 0.678839 0.683648
Si Si4 0.655539 0.416481 0.802211
Si Si5 0.027864 0.214577 0.003632
Si Si6 0.304158 0.327400 0.086615
Si Si7 0.051838 0.960986 0.602771
O O1 0.339787 0.180840 0.624967
O O2 0.362867 0.329156 0.668405
O O3 0.423197 0.235210 0.472550
O O4 0.342649 0.277055 0.238788
O O5 0.228172 0.510301 0.317832
O O6 0.298225 0.565688 0.026105
O O7 0.201815 0.616791 0.037659
O O8 0.744779 0.642967 0.790692
O O9 0.784274 0.767279 0.616446
O O10 0.672496 0.407732 0.516114
O O11 0.610573 0.472569 0.868018
O O12 0.039116 0.124636 0.029438
O O13 0.000000 0.242828 0.250000
O O14 0.000000 0.229067 0.750000
O O15 0.032227 0.017758 0.381175
#
# Coordination Sequence:
#
# PCOD8247605 Si02
#       7
#     8   8   8   8   8   8   8
#     4  10  23  37  65  86 115 157 203 263 315 355
#     4  12  25  37  54  82 127 172 197 236 290 360
#     4  11  21  36  58  90 121 156 208 247 300 377
#     4  10  22  35  54  84 119 157 215 251 299 347
#     4  11  26  44  62  86 119 153 203 270 328 372
#     4  11  19  35  63  87 116 159 200 267 300 352
#     4  11  24  38  60  82 112 162 212 257 302 353
#
# _framework density 21.513769
#
# number of rings (size 3 to 8) (size 9 to 14) (size 15 to 20)
#    0.000    1.143    2.857    3.429   12.000    1.714 
#    0.000    0.000    0.000    0.000    0.000    0.000 
#    0.000    3.429    0.000    0.000    0.000    0.000 
#
# Total GULP energy -693772.290712 kJ/mol
# GULP energy per Si atom -12388.790906 kJ/mol
# Density = 2.146480 g / cm^3
# Si number density = 21.513769 Si / 1000 Ang^3
#
#
#
# Elastic Constant Matrix: (Units=GPa)
#
#
# Indices 1 2 3 4 5 6 
#
# 1 115.3815 26.7297 62.1398 0.0000 0.0000 0.0000
# 2 26.7297 34.2477 19.5383 0.0000 0.0000 0.0000
# 3 62.1398 19.5383 133.5529 0.0000 0.0000 0.0000
# 4 0.0000 0.0000 0.0000 22.8699 0.0000 0.0000
# 5 0.0000 0.0000 0.0000 0.0000 35.2030 0.0000
# 6 0.0000 0.0000 0.0000 0.0000 0.0000 25.1088
#
#
#
# Elastic Compliance Matrix: (Units=1/GPa)
#
#
# Indices 1 2 3 4 5 6 
#
# 1 0.013062 -0.007340 -0.005004 0.000000 0.000000 0.000000
# 2 -0.007340 0.035983 -0.001849 0.000000 0.000000 0.000000
# 3 -0.005004 -0.001849 0.010086 0.000000 0.000000 0.000000
# 4 0.000000 0.000000 0.000000 0.043726 0.000000 0.000000
# 5 0.000000 0.000000 0.000000 0.000000 0.028407 0.000000
# 6 0.000000 0.000000 0.000000 0.000000 0.000000 0.039827
#
#
# Mechanical properties :
#
#
# Convention : Reuss Voigt Hill
#
# Bulk Modulus (GPa) = 32.52498 55.55529 44.04014
# Shear Modulus (GPa) = 23.84083 28.28796 26.06439
#
# Velocity S-wave (km/s) = 3.33252 3.63006 3.48447
# Velocity P-wave (km/s) = 5.47345 6.59158 6.05837
#
# Compressibility (1/GPa) = 0.03074560
#
# Stress axis : x y z
#
# Youngs Moduli (GPa) = 76.55707 27.79112 99.14424
#
# Poissons Ratio (x) = 0.20399 0.49609
# Poissons Ratio (y) = 0.56194 0.18331
# Poissons Ratio (z) = 0.38307 0.05138
#
# Static dielectric constant tensor:
#      x y z
#    x 4.430920 0.000000 0.000000 
#    y 0.000000 3.644150 0.000000 
#    z 0.000000 0.000000 4.265250 
# 
# 
# High freq. dielectric constant tensor:
#      x y z
#    x 1.837590 0.000000 0.000000 
#    y 0.000000 1.796820 0.000000 
#    z 0.000000 0.000000 1.869270 
# 
# From -- ./inp_files/2390.got.cif
#   From: 2010.03.12/outbox.cif.g09.slc.cpg/sg60_2_cif.got.tgz:2390.got - 2010.04.10 18:46:24.
