data_PCOD8247140
_publ_section_title
;
Structure prediction by ZEFSAII (Michael W. Deem and Ramdas Pophale) SiO2 
 PCOD8247140
Probable space group: P B C N
;
_chemical_formula_sum "Si O2"
_cell_formula_units_Z 40
_cell_length_a 12.407831
_cell_length_b 14.741885
_cell_length_c 8.909366
_cell_angle_alpha 90.000000
_cell_angle_beta 90.000000
_cell_angle_gamma 90.000000
_cell_volume 1629.655058
_symmetry_space_group_name_H-M "P B C N"
_symmetry_group_IT_number 60
_symmetry_cell_setting 'orthorhombic'
loop_
_space_group_symop_operation_xyz
x,y,z
1/2-x,1/2-y,1/2+z
1/2+x,1/2-y,-z
-x,y,1/2-z
-x,-y,-z
1/2+x,1/2+y,1/2-z
1/2-x,1/2+y,z
x,-y,1/2+z
loop_
_atom_site_type_symbol
_atom_site_label
_atom_site_fract_x
_atom_site_fract_y
_atom_site_fract_z
Si Si1 0.349791 0.555047 0.000075
Si Si2 0.715066 0.871727 0.542676
Si Si3 0.774195 0.712329 0.353757
Si Si4 0.460337 0.885719 0.541857
Si Si5 0.500000 0.965156 0.250000
Si Si6 0.000000 0.982838 0.250000
O O1 0.275857 0.641272 0.027703
O O2 0.430218 0.545975 0.140216
O O3 0.277876 0.465816 0.970656
O O4 0.419996 0.577969 0.851312
O O5 0.736232 0.813818 0.391268
O O6 0.758592 0.814192 0.685072
O O7 0.588233 0.882965 0.564304
O O8 0.902621 0.703242 0.391273
O O9 0.431782 0.902309 0.365661
O O10 0.421389 0.972262 0.645114
#
# Coordination Sequence:
#
# PCOD8247140 Si02
#       6
#     8   8   8   8   4   4
#     4  11  24  49  76 102 144 187 244 285 358 418
#     4  12  28  47  73 109 142 189 239 291 354 428
#     4  12  28  47  73 109 142 189 239 291 354 428
#     4  11  24  44  72 106 145 177 237 296 360 414
#     4  10  20  40  74 102 130 188 220 288 360 414
#     4  10  24  44  74 106 140 196 234 296 338 422
#
# _framework density 24.545069999999999
#
# number of rings (size 3 to 8) (size 9 to 14) (size 15 to 20)
#    0.000    0.800    4.000    2.400    5.600    3.200 
#    0.000    0.000    0.000    0.000    0.000    0.000 
#    0.000    0.000    0.000    0.000    0.000    0.000 
#
# Total GULP energy -495779.211402 kJ/mol
# GULP energy per Si atom -12394.480285 kJ/mol
# Density = 2.448920 g / cm^3
# Si number density = 24.545070 Si / 1000 Ang^3
#
#
#
# Elastic Constant Matrix: (Units=GPa)
#
#
# Indices 1 2 3 4 5 6 
#
# 1 106.0552 14.9402 20.5668 0.0000 0.0000 0.0000
# 2 14.9402 53.2600 1.7667 0.0000 0.0000 0.0000
# 3 20.5668 1.7667 138.4178 0.0000 0.0000 0.0000
# 4 0.0000 0.0000 0.0000 34.8384 0.0000 0.0000
# 5 0.0000 0.0000 0.0000 0.0000 32.7655 0.0000
# 6 0.0000 0.0000 0.0000 0.0000 0.0000 10.1592
#
#
#
# Elastic Compliance Matrix: (Units=1/GPa)
#
#
# Indices 1 2 3 4 5 6 
#
# 1 0.010106 -0.002786 -0.001466 0.000000 0.000000 0.000000
# 2 -0.002786 0.019552 0.000164 0.000000 0.000000 0.000000
# 3 -0.001466 0.000164 0.007440 0.000000 0.000000 0.000000
# 4 0.000000 0.000000 0.000000 0.028704 0.000000 0.000000
# 5 0.000000 0.000000 0.000000 0.000000 0.030520 0.000000
# 6 0.000000 0.000000 0.000000 0.000000 0.000000 0.098433
#
#
# Mechanical properties :
#
#
# Convention : Reuss Voigt Hill
#
# Bulk Modulus (GPa) = 34.57523 41.36449 37.96986
# Shear Modulus (GPa) = 23.52157 32.91659 28.21908
#
# Velocity S-wave (km/s) = 3.09900 3.66603 3.39438
# Velocity P-wave (km/s) = 5.18865 5.89990 5.55567
#
# Compressibility (1/GPa) = 0.02892244
#
# Stress axis : x y z
#
# Youngs Moduli (GPa) = 98.95260 51.14587 134.40441
#
# Poissons Ratio (x) = 0.14250 0.19704
# Poissons Ratio (y) = 0.27570 -0.02210
# Poissons Ratio (z) = 0.14507 -0.00841
#
# Static dielectric constant tensor:
#      x y z
#    x 4.463850 0.000000 0.000000 
#    y 0.000000 4.050850 0.000000 
#    z 0.000000 0.000000 5.162570 
# 
# 
# High freq. dielectric constant tensor:
#      x y z
#    x 1.971750 0.000000 0.000000 
#    y 0.000000 1.940790 0.000000 
#    z 0.000000 0.000000 2.006780 
# 
# From -- ./inp_files/4811.got.cif
#   From: 2010.03.12/outbox.cif.g09.slc.cpg/sg60_3_cif.got.tgz:4811.got - 2010.04.10 18:46:24.
