data_PCOD8247948
_publ_section_title
;
Structure prediction by ZEFSAII (Michael W. Deem and Ramdas Pophale) SiO2 
 PCOD8247948
Probable space group: P B C N
;
_chemical_formula_sum "Si O2"
_cell_formula_units_Z 48
_cell_length_a 11.987995
_cell_length_b 25.187190
_cell_length_c 7.600569
_cell_angle_alpha 90.000000
_cell_angle_beta 90.000000
_cell_angle_gamma 90.000000
_cell_volume 2294.945505
_symmetry_space_group_name_H-M "P B C N"
_symmetry_group_IT_number 60
_symmetry_cell_setting 'orthorhombic'
loop_
_space_group_symop_operation_xyz
x,y,z
1/2-x,1/2-y,1/2+z
1/2+x,1/2-y,-z
-x,y,1/2-z
-x,-y,-z
1/2+x,1/2+y,1/2-z
1/2-x,1/2+y,z
x,-y,1/2+z
loop_
_atom_site_type_symbol
_atom_site_label
_atom_site_fract_x
_atom_site_fract_y
_atom_site_fract_z
Si Si1 0.765911 0.814397 0.752962
Si Si2 0.093440 0.664169 0.534092
Si Si3 0.749573 0.521267 0.579012
Si Si4 0.630931 0.572336 0.265613
Si Si5 0.645767 0.208141 0.610704
Si Si6 0.602565 0.047832 0.868434
O O1 0.652263 0.815752 0.641656
O O2 0.832417 0.868313 0.722185
O O3 0.844777 0.768998 0.672645
O O4 0.735806 0.805062 0.958536
O O5 0.166127 0.673679 0.712034
O O6 0.073231 0.600883 0.522476
O O7 0.977954 0.696287 0.540566
O O8 0.671861 0.558168 0.460919
O O9 0.683610 0.467715 0.625849
O O10 0.866430 0.502399 0.490202
O O11 0.786324 0.556186 0.746584
O O12 0.500000 0.567377 0.250000
O O13 0.500000 0.030117 0.750000
#
# Coordination Sequence:
#
# PCOD8247948 Si02
#       6
#     8   8   8   8   8   8
#     4  12  24  43  67  96 128 174 223 266 327 395
#     4  11  23  43  65  93 135 173 210 266 332 384
#     4  10  23  41  62  94 132 169 210 272 322 387
#     4  11  24  41  67  91 126 170 222 268 328 385
#     4  11  24  41  67  91 134 171 213 270 325 383
#     4  11  20  39  64  95 131 168 209 259 329 392
#
# _framework density 20.915528999999999
#
# number of rings (size 3 to 8) (size 9 to 14) (size 15 to 20)
#    0.000    1.000    5.000    2.500    2.333    0.000 
#    0.000    0.000    0.000    0.000    0.000    0.000 
#    0.000    0.000    0.000    0.000    0.000    0.000 
#
# Total GULP energy -595114.492326 kJ/mol
# GULP energy per Si atom -12398.218590 kJ/mol
# Density = 2.086792 g / cm^3
# Si number density = 20.915529 Si / 1000 Ang^3
#
#
#
# Elastic Constant Matrix: (Units=GPa)
#
#
# Indices 1 2 3 4 5 6 
#
# 1 82.8432 36.2807 12.1374 0.0000 0.0000 0.0000
# 2 36.2807 107.8448 9.8158 0.0000 0.0000 0.0000
# 3 12.1374 9.8158 72.7358 0.0000 0.0000 0.0000
# 4 0.0000 0.0000 0.0000 44.3906 0.0000 0.0000
# 5 0.0000 0.0000 0.0000 0.0000 28.7942 0.0000
# 6 0.0000 0.0000 0.0000 0.0000 0.0000 -213.1210
#
#
#
# Elastic Compliance Matrix: (Units=1/GPa)
#
#
# Indices 1 2 3 4 5 6 
#
# 1 0.014378 -0.004676 -0.001768 0.000000 0.000000 0.000000
# 2 -0.004676 0.010909 -0.000692 0.000000 0.000000 0.000000
# 3 -0.001768 -0.000692 0.014137 0.000000 0.000000 0.000000
# 4 0.000000 0.000000 0.000000 0.022527 0.000000 0.000000
# 5 0.000000 0.000000 0.000000 0.000000 0.034729 0.000000
# 6 0.000000 0.000000 0.000000 0.000000 0.000000 -0.004692
#
#
# Mechanical properties :
#
#
# Convention : Reuss Voigt Hill
#
# Bulk Modulus (GPa) = 39.75949 42.21016 40.98483
# Shear Modulus (GPa) = 43.61346 -14.30790 14.65278
#
# Velocity S-wave (km/s) = 4.57137 -2.61833 2.64970
# Velocity P-wave (km/s) = 6.84939 3.32929 5.38509
#
# Compressibility (1/GPa) = 0.02515123
#
# Stress axis : x y z
#
# Youngs Moduli (GPa) = 69.55122 91.67043 70.73727
#
# Poissons Ratio (x) = 0.42865 0.12508
# Poissons Ratio (y) = 0.32522 0.04894
# Poissons Ratio (z) = 0.12298 0.06342
#
# Static dielectric constant tensor:
#      x y z
#    x 3.615180 0.000000 0.000000 
#    y 0.000000 3.728060 0.000000 
#    z 0.000000 0.000000 4.216060 
# 
# 
# High freq. dielectric constant tensor:
#      x y z
#    x 1.808070 0.000000 0.000000 
#    y 0.000000 1.822570 0.000000 
#    z 0.000000 0.000000 1.830850 
# 
# From -- ./inp_files/5073.got.cif
#   From: 2010.03.12/outbox.cif.g09.slc.cpg/sg60_3_cif.got.tgz:5073.got - 2010.04.10 18:46:24.
