data_PCOD8247567
_publ_section_title
;
Structure prediction by ZEFSAII (Michael W. Deem and Ramdas Pophale) SiO2 
 PCOD8247567
Probable space group: P B C N
;
_chemical_formula_sum "Si O2"
_cell_formula_units_Z 28
_cell_length_a 14.238195
_cell_length_b 16.999350
_cell_length_c 5.047191
_cell_angle_alpha 90.000000
_cell_angle_beta 90.000000
_cell_angle_gamma 90.000000
_cell_volume 1221.622413
_symmetry_space_group_name_H-M "P B C N"
_symmetry_group_IT_number 60
_symmetry_cell_setting 'orthorhombic'
loop_
_space_group_symop_operation_xyz
x,y,z
1/2-x,1/2-y,1/2+z
1/2+x,1/2-y,-z
-x,y,1/2-z
-x,-y,-z
1/2+x,1/2+y,1/2-z
1/2-x,1/2+y,z
x,-y,1/2+z
loop_
_atom_site_type_symbol
_atom_site_label
_atom_site_fract_x
_atom_site_fract_y
_atom_site_fract_z
Si Si1 0.686507 0.772375 0.912864
Si Si2 0.681477 0.050710 0.493409
Si Si3 0.000000 0.183885 0.750000
Si Si4 0.899798 0.050543 0.512217
O O1 0.744687 0.735688 0.158886
O O2 0.645429 0.860542 0.960693
O O3 0.587273 0.729645 0.876496
O O4 0.790990 0.068118 0.499355
O O5 0.647775 0.992402 0.260270
O O6 0.956363 0.132249 0.510331
O O7 0.929262 0.994586 0.277193
#
# Coordination Sequence:
#
# PCOD8247567 Si02
#       4
#     8   8   4   8
#     4  12  27  46  69 103 143 180 230 286 344 411
#     4  10  21  43  68  96 134 184 225 279 337 406
#     4  12  26  44  70 102 142 180 228 282 352 404
#     4  10  22  39  65 102 135 172 215 280 353 424
#
# _framework density 22.920337
#
# number of rings (size 3 to 8) (size 9 to 14) (size 15 to 20)
#    0.000    1.143    2.857    2.571    8.000    3.429 
#    0.000    1.429    0.000    0.000    0.000    0.000 
#    0.000    0.000    0.000    0.000    0.000    0.000 
#
# Total GULP energy -346903.485672 kJ/mol
# GULP energy per Si atom -12389.410203 kJ/mol
# Density = 2.286817 g / cm^3
# Si number density = 22.920337 Si / 1000 Ang^3
#
#
#
# Elastic Constant Matrix: (Units=GPa)
#
#
# Indices 1 2 3 4 5 6 
#
# 1 74.7907 41.7961 38.4190 0.0000 0.0000 0.0000
# 2 41.7961 179.2566 61.2978 0.0000 0.0000 0.0000
# 3 38.4190 61.2978 171.7459 0.0000 0.0000 0.0000
# 4 0.0000 0.0000 0.0000 37.3367 0.0000 0.0000
# 5 0.0000 0.0000 0.0000 0.0000 18.8257 0.0000
# 6 0.0000 0.0000 0.0000 0.0000 0.0000 51.5392
#
#
#
# Elastic Compliance Matrix: (Units=1/GPa)
#
#
# Indices 1 2 3 4 5 6 
#
# 1 0.016344 -0.002917 -0.002615 0.000000 0.000000 0.000000
# 2 -0.002917 0.006875 -0.001801 0.000000 0.000000 0.000000
# 3 -0.002615 -0.001801 0.007050 0.000000 0.000000 0.000000
# 4 0.000000 0.000000 0.000000 0.026783 0.000000 0.000000
# 5 0.000000 0.000000 0.000000 0.000000 0.053119 0.000000
# 6 0.000000 0.000000 0.000000 0.000000 0.000000 0.019403
#
#
# Mechanical properties :
#
#
# Convention : Reuss Voigt Hill
#
# Bulk Modulus (GPa) = 64.08960 78.75767 71.42363
# Shear Modulus (GPa) = 33.45816 40.49235 36.97525
#
# Velocity S-wave (km/s) = 3.82482 4.20772 4.02083
# Velocity P-wave (km/s) = 6.89408 7.61857 7.26536
#
# Compressibility (1/GPa) = 0.01560316
#
# Stress axis : x y z
#
# Youngs Moduli (GPa) = 61.18492 145.46424 141.83578
#
# Poissons Ratio (x) = 0.42425 0.37092
# Poissons Ratio (y) = 0.17845 0.25547
# Poissons Ratio (z) = 0.16001 0.26201
#
# Static dielectric constant tensor:
#      x y z
#    x 4.046770 0.000000 0.000000 
#    y 0.000000 4.361470 0.000000 
#    z 0.000000 0.000000 4.311240 
# 
# 
# High freq. dielectric constant tensor:
#      x y z
#    x 1.905360 0.000000 0.000000 
#    y 0.000000 1.919000 0.000000 
#    z 0.000000 0.000000 1.910780 
# 
# From -- ./inp_files/1003.got.cif
#   From: 2010.03.12/outbox.cif.g09.slc.cpg/sg60_1_cif.got.tgz:1003.got - 2010.04.10 18:46:24.
