data_PCOD8247731
_publ_section_title
;
Structure prediction by ZEFSAII (Michael W. Deem and Ramdas Pophale) SiO2 
 PCOD8247731
Probable space group: P B C N
;
_chemical_formula_sum "Si O2"
_cell_formula_units_Z 48
_cell_length_a 8.703954
_cell_length_b 22.014724
_cell_length_c 11.614769
_cell_angle_alpha 90.000000
_cell_angle_beta 90.000000
_cell_angle_gamma 90.000000
_cell_volume 2225.565646
_symmetry_space_group_name_H-M "P B C N"
_symmetry_group_IT_number 60
_symmetry_cell_setting 'orthorhombic'
loop_
_space_group_symop_operation_xyz
x,y,z
1/2-x,1/2-y,1/2+z
1/2+x,1/2-y,-z
-x,y,1/2-z
-x,-y,-z
1/2+x,1/2+y,1/2-z
1/2-x,1/2+y,z
x,-y,1/2+z
loop_
_atom_site_type_symbol
_atom_site_label
_atom_site_fract_x
_atom_site_fract_y
_atom_site_fract_z
Si Si1 0.143166 0.961713 0.457354
Si Si2 0.655927 0.347990 0.196274
Si Si3 0.855027 0.286023 0.007956
Si Si4 0.179333 0.603594 0.144370
Si Si5 0.654061 0.071068 0.106521
Si Si6 0.314435 0.173586 0.574957
O O1 0.113576 0.915007 0.352573
O O2 0.184663 0.923965 0.570322
O O3 0.279250 0.004584 0.413760
O O4 0.000000 0.000000 0.500000
O O5 0.500000 0.319949 0.250000
O O6 0.720319 0.305626 0.095212
O O7 0.785706 0.349327 0.295293
O O8 0.021532 0.292203 0.068085
O O9 0.852590 0.327118 0.892872
O O10 0.822327 0.217581 0.968346
O O11 0.225129 0.601609 0.278231
O O12 0.028101 0.563289 0.120417
O O13 0.695764 0.113397 0.000235
#
# Coordination Sequence:
#
# PCOD8247731 Si02
#       6
#     8   8   8   8   8   8
#     4  11  24  40  64  93 131 165 216 270 324 379
#     4  11  24  42  64  94 131 172 216 270 327 385
#     4  10  23  43  66  97 130 170 214 273 324 397
#     4   9  22  43  61  92 124 169 213 256 323 392
#     4  10  22  40  66  89 125 171 210 259 321 396
#     4  11  23  41  68  97 130 167 220 265 334 390
#
# _framework density 21.567550000000001
#
# number of rings (size 3 to 8) (size 9 to 14) (size 15 to 20)
#    0.000    1.667    0.000    3.000    7.000    1.333 
#    6.000    0.000    0.000    0.000    0.000    0.000 
#    0.000    0.000    0.000    0.000    0.000    0.000 
#
# Total GULP energy -595278.451914 kJ/mol
# GULP energy per Si atom -12401.634415 kJ/mol
# Density = 2.151846 g / cm^3
# Si number density = 21.567550 Si / 1000 Ang^3
#
#
#
# Elastic Constant Matrix: (Units=GPa)
#
#
# Indices 1 2 3 4 5 6 
#
# 1 75.7671 13.6954 11.2588 0.0000 0.0000 0.0000
# 2 13.6954 53.1973 19.2104 0.0000 0.0000 0.0000
# 3 11.2588 19.2104 104.2524 0.0000 0.0000 0.0000
# 4 0.0000 0.0000 0.0000 26.5972 0.0000 0.0000
# 5 0.0000 0.0000 0.0000 0.0000 37.2527 0.0000
# 6 0.0000 0.0000 0.0000 0.0000 0.0000 33.9393
#
#
#
# Elastic Compliance Matrix: (Units=1/GPa)
#
#
# Indices 1 2 3 4 5 6 
#
# 1 0.013921 -0.003258 -0.000903 0.000000 0.000000 0.000000
# 2 -0.003258 0.020900 -0.003499 0.000000 0.000000 0.000000
# 3 -0.000903 -0.003499 0.010334 0.000000 0.000000 0.000000
# 4 0.000000 0.000000 0.000000 0.037598 0.000000 0.000000
# 5 0.000000 0.000000 0.000000 0.000000 0.026844 0.000000
# 6 0.000000 0.000000 0.000000 0.000000 0.000000 0.029464
#
#
# Mechanical properties :
#
#
# Convention : Reuss Voigt Hill
#
# Bulk Modulus (GPa) = 33.51721 35.72731 34.62226
# Shear Modulus (GPa) = 30.42688 32.16130 31.29409
#
# Velocity S-wave (km/s) = 3.76010 3.86578 3.81331
# Velocity P-wave (km/s) = 5.86732 6.04375 5.95619
#
# Compressibility (1/GPa) = 0.02983542
#
# Stress axis : x y z
#
# Youngs Moduli (GPa) = 71.83170 47.84601 96.76356
#
# Poissons Ratio (x) = 0.15588 0.08739
# Poissons Ratio (y) = 0.23402 0.33862
# Poissons Ratio (z) = 0.06487 0.16743
#
# Static dielectric constant tensor:
#      x y z
#    x 3.881770 0.000000 0.000000 
#    y 0.000000 3.731110 0.000000 
#    z 0.000000 0.000000 4.064130 
# 
# 
# High freq. dielectric constant tensor:
#      x y z
#    x 1.848340 0.000000 0.000000 
#    y 0.000000 1.839100 0.000000 
#    z 0.000000 0.000000 1.859870 
# 
# From -- ./inp_files/10126.got.cif
#   From: 2010.03.12/outbox.cif.g09.slc.cpg/sg60_6_cif.got.tgz:10126.got - 2010.04.10 18:46:24.
