data_PCOD8247987
_publ_section_title
;
Structure prediction by ZEFSAII (Michael W. Deem and Ramdas Pophale) SiO2 
 PCOD8247987
Probable space group: P B C N
;
_chemical_formula_sum "Si O2"
_cell_formula_units_Z 32
_cell_length_a 18.847942
_cell_length_b 5.297826
_cell_length_c 13.090444
_cell_angle_alpha 90.000000
_cell_angle_beta 90.000000
_cell_angle_gamma 90.000000
_cell_volume 1307.121639
_symmetry_space_group_name_H-M "P B C N"
_symmetry_group_IT_number 60
_symmetry_cell_setting 'orthorhombic'
loop_
_space_group_symop_operation_xyz
x,y,z
1/2-x,1/2-y,1/2+z
1/2+x,1/2-y,-z
-x,y,1/2-z
-x,-y,-z
1/2+x,1/2+y,1/2-z
1/2-x,1/2+y,z
x,-y,1/2+z
loop_
_atom_site_type_symbol
_atom_site_label
_atom_site_fract_x
_atom_site_fract_y
_atom_site_fract_z
Si Si1 0.928199 0.459429 0.810531
Si Si2 0.571386 0.461720 0.939723
Si Si3 0.219933 0.886150 0.481664
Si Si4 0.278215 0.083963 0.755131
O O1 0.938265 0.701358 0.880744
O O2 0.861176 0.513501 0.736852
O O3 0.000000 0.413818 0.750000
O O4 0.912013 0.202053 0.869914
O O5 0.500000 0.500000 0.000000
O O6 0.636031 0.434607 0.019080
O O7 0.237952 0.617742 0.536771
O O8 0.246967 0.846116 0.366235
O O9 0.266124 0.356884 0.698702
#
# Coordination Sequence:
#
# PCOD8247987 Si02
#       4
#     8   8   8   8
#     4  12  28  46  75 109 148 189 241 294 363 431
#     4  12  28  46  75 109 148 189 241 294 363 431
#     4  10  23  42  73 100 142 187 238 288 363 413
#     4  10  23  42  73 100 142 187 238 288 363 413
#
# _framework density 24.481269999999999
#
# number of rings (size 3 to 8) (size 9 to 14) (size 15 to 20)
#    0.000    1.000    0.000    4.500   14.000    6.000 
#    0.000    0.000    0.000    0.000    0.000    0.000 
#    0.000    0.000    0.000    0.000    0.000    0.000 
#
# Total GULP energy -396811.133137 kJ/mol
# GULP energy per Si atom -12400.347911 kJ/mol
# Density = 2.442555 g / cm^3
# Si number density = 24.481270 Si / 1000 Ang^3
#
#
#
# Elastic Constant Matrix: (Units=GPa)
#
#
# Indices 1 2 3 4 5 6 
#
# 1 204.3760 36.9249 28.4296 0.0000 0.0000 0.0000
# 2 36.9249 243.3429 36.9111 0.0000 0.0000 0.0000
# 3 28.4296 36.9111 44.5503 0.0000 0.0000 0.0000
# 4 0.0000 0.0000 0.0000 191.6011 0.0000 0.0000
# 5 0.0000 0.0000 0.0000 0.0000 103.1326 0.0000
# 6 0.0000 0.0000 0.0000 0.0000 0.0000 45.9219
#
#
#
# Elastic Compliance Matrix: (Units=1/GPa)
#
#
# Indices 1 2 3 4 5 6 
#
# 1 0.005394 -0.000339 -0.003161 0.000000 0.000000 0.000000
# 2 -0.000339 0.004721 -0.003696 0.000000 0.000000 0.000000
# 3 -0.003161 -0.003696 0.027526 0.000000 0.000000 0.000000
# 4 0.000000 0.000000 0.000000 0.005219 0.000000 0.000000
# 5 0.000000 0.000000 0.000000 0.000000 0.009696 0.000000
# 6 0.000000 0.000000 0.000000 0.000000 0.000000 0.021776
#
#
# Mechanical properties :
#
#
# Convention : Reuss Voigt Hill
#
# Bulk Modulus (GPa) = 43.01154 77.42228 60.21691
# Shear Modulus (GPa) = 51.82744 94.13136 72.97940
#
# Velocity S-wave (km/s) = 4.60610 6.20756 5.46580
# Velocity P-wave (km/s) = 6.77463 9.11440 8.03019
#
# Compressibility (1/GPa) = 0.02324958
#
# Stress axis : x y z
#
# Youngs Moduli (GPa) = 185.39348 211.80115 36.32961
#
# Poissons Ratio (x) = 0.07179 0.11485
# Poissons Ratio (y) = 0.06284 0.13426
# Poissons Ratio (z) = 0.58608 0.78271
#
# Static dielectric constant tensor:
#      x y z
#    x 4.637240 0.000000 0.000000 
#    y 0.000000 5.608710 0.000000 
#    z 0.000000 0.000000 4.383430 
# 
# 
# High freq. dielectric constant tensor:
#      x y z
#    x 1.981360 0.000000 0.000000 
#    y 0.000000 2.027030 0.000000 
#    z 0.000000 0.000000 1.967900 
# 
# From -- ./inp_files/17115.got.cif
#   From: 2010.03.12/outbox.cif.g09.slc.cpg/sg60_9_cif.got.tgz:17115.got - 2010.04.10 18:46:24.
