data_PCOD8247623
_publ_section_title
;
Structure prediction by ZEFSAII (Michael W. Deem and Ramdas Pophale) SiO2 
 PCOD8247623
Probable space group: P B C N
;
_chemical_formula_sum "Si O2"
_cell_formula_units_Z 52
_cell_length_a 6.826614
_cell_length_b 19.991153
_cell_length_c 18.266450
_cell_angle_alpha 90.000000
_cell_angle_beta 90.000000
_cell_angle_gamma 90.000000
_cell_volume 2492.856863
_symmetry_space_group_name_H-M "P B C N"
_symmetry_group_IT_number 60
_symmetry_cell_setting 'orthorhombic'
loop_
_space_group_symop_operation_xyz
x,y,z
1/2-x,1/2-y,1/2+z
1/2+x,1/2-y,-z
-x,y,1/2-z
-x,-y,-z
1/2+x,1/2+y,1/2-z
1/2-x,1/2+y,z
x,-y,1/2+z
loop_
_atom_site_type_symbol
_atom_site_label
_atom_site_fract_x
_atom_site_fract_y
_atom_site_fract_z
Si Si1 0.500000 0.910974 0.250000
Si Si2 0.877970 0.872751 0.677444
Si Si3 0.168603 0.957217 0.459206
Si Si4 0.380464 0.628005 0.817566
Si Si5 0.759197 0.625299 0.408209
Si Si6 0.535740 0.221956 0.165494
Si Si7 0.566035 0.024695 0.142538
O O1 0.329702 0.862047 0.278013
O O2 0.472046 0.960117 0.180861
O O3 0.743470 0.812019 0.647770
O O4 0.000000 0.854940 0.750000
O O5 0.033584 0.881164 0.613129
O O6 0.742910 0.939013 0.687968
O O7 0.097869 0.925709 0.382215
O O8 0.257839 0.895979 0.506649
O O9 0.347330 0.006617 0.437802
O O10 0.000000 0.000000 0.500000
O O11 0.500000 0.597933 0.750000
O O12 0.455873 0.698885 0.847127
O O13 0.861337 0.696652 0.389270
O O14 0.884429 0.573467 0.361739
O O15 0.500000 0.203280 0.250000
#
# Coordination Sequence:
#
# PCOD8247623 Si02
#       7
#     4   8   8   8   8   8   8
#     4  10  22  36  64  98 122 168 214 270 322 380
#     4  11  20  34  64  92 126 167 218 275 317 387
#     4  11  23  43  63  95 133 172 213 270 345 398
#     4  10  25  45  66  94 129 175 224 269 329 402
#     4  11  22  39  62  92 129 172 210 275 323 389
#     4  10  22  41  62  91 122 168 223 268 326 385
#     4  10  22  37  60  94 131 166 216 260 336 389
#
# _framework density 20.859601000000001
#
# number of rings (size 3 to 8) (size 9 to 14) (size 15 to 20)
#    0.000    1.538    3.077    1.385    5.385    2.462 
#    2.769    0.000    0.000    0.000    0.000    0.000 
#    0.000    0.000    0.000    0.000    0.000    0.000 
#
# Total GULP energy -644236.511930 kJ/mol
# GULP energy per Si atom -12389.163691 kJ/mol
# Density = 2.081212 g / cm^3
# Si number density = 20.859601 Si / 1000 Ang^3
#
#
#
# Elastic Constant Matrix: (Units=GPa)
#
#
# Indices 1 2 3 4 5 6 
#
# 1 97.9989 35.0416 40.1922 0.0000 0.0000 0.0000
# 2 35.0416 86.4320 33.9279 0.0000 0.0000 0.0000
# 3 40.1922 33.9279 95.4789 0.0000 0.0000 0.0000
# 4 0.0000 0.0000 0.0000 24.2290 0.0000 0.0000
# 5 0.0000 0.0000 0.0000 0.0000 40.2454 0.0000
# 6 0.0000 0.0000 0.0000 0.0000 0.0000 21.0017
#
#
#
# Elastic Compliance Matrix: (Units=1/GPa)
#
#
# Indices 1 2 3 4 5 6 
#
# 1 0.013283 -0.003707 -0.004274 0.000000 0.000000 0.000000
# 2 -0.003707 0.014480 -0.003585 0.000000 0.000000 0.000000
# 3 -0.004274 -0.003585 0.013546 0.000000 0.000000 0.000000
# 4 0.000000 0.000000 0.000000 0.041273 0.000000 0.000000
# 5 0.000000 0.000000 0.000000 0.000000 0.024848 0.000000
# 6 0.000000 0.000000 0.000000 0.000000 0.000000 0.047615
#
#
# Mechanical properties :
#
#
# Convention : Reuss Voigt Hill
#
# Bulk Modulus (GPa) = 55.01485 55.35925 55.18705
# Shear Modulus (GPa) = 27.13906 28.47842 27.80874
#
# Velocity S-wave (km/s) = 3.61090 3.69893 3.65518
# Velocity P-wave (km/s) = 6.61936 6.69622 6.65790
#
# Compressibility (1/GPa) = 0.01817691
#
# Stress axis : x y z
#
# Youngs Moduli (GPa) = 75.28554 69.06061 73.81982
#
# Poissons Ratio (x) = 0.25604 0.31551
# Poissons Ratio (y) = 0.27912 0.26463
# Poissons Ratio (z) = 0.32177 0.24756
#
# Static dielectric constant tensor:
#      x y z
#    x 3.852870 0.000000 0.000000 
#    y 0.000000 3.688140 0.000000 
#    z 0.000000 0.000000 4.105550 
# 
# 
# High freq. dielectric constant tensor:
#      x y z
#    x 1.824490 0.000000 0.000000 
#    y 0.000000 1.809040 0.000000 
#    z 0.000000 0.000000 1.806950 
# 
# From -- ./inp_files/21657.got.cif
#   From: 2010.03.12/outbox.cif.g09.slc.cpg/sg60_11_cif.got.tgz:21657.got - 2010.04.10 18:46:24.
