data_PCOD8247487
_publ_section_title
;
Structure prediction by ZEFSAII (Michael W. Deem and Ramdas Pophale) SiO2 
 PCOD8247487
Probable space group: P B C N
;
_chemical_formula_sum "Si O2"
_cell_formula_units_Z 52
_cell_length_a 8.228335
_cell_length_b 20.439255
_cell_length_c 14.401915
_cell_angle_alpha 90.000000
_cell_angle_beta 90.000000
_cell_angle_gamma 90.000000
_cell_volume 2422.129004
_symmetry_space_group_name_H-M "P B C N"
_symmetry_group_IT_number 60
_symmetry_cell_setting 'orthorhombic'
loop_
_space_group_symop_operation_xyz
x,y,z
1/2-x,1/2-y,1/2+z
1/2+x,1/2-y,-z
-x,y,1/2-z
-x,-y,-z
1/2+x,1/2+y,1/2-z
1/2-x,1/2+y,z
x,-y,1/2+z
loop_
_atom_site_type_symbol
_atom_site_label
_atom_site_fract_x
_atom_site_fract_y
_atom_site_fract_z
Si Si1 0.829830 0.041494 0.713516
Si Si2 0.701446 0.335926 0.500755
Si Si3 0.693514 0.960290 0.410829
Si Si4 0.000000 0.345293 0.750000
Si Si5 0.540816 0.794153 0.948755
Si Si6 0.160181 0.894374 0.804177
Si Si7 0.666512 0.081129 0.533526
O O1 0.704274 0.034761 0.799378
O O2 0.764672 0.086675 0.630194
O O3 0.000000 0.070730 0.750000
O O4 0.859009 0.970153 0.668636
O O5 0.682519 0.403320 0.443432
O O6 0.583653 0.281011 0.462010
O O7 0.659644 0.348769 0.606868
O O8 0.882461 0.308296 0.490304
O O9 0.513922 0.941664 0.442069
O O10 0.742243 0.028964 0.460131
O O11 0.992936 0.300217 0.839959
O O12 0.834165 0.388229 0.748784
O O13 0.673270 0.847538 0.984683
O O14 0.000000 0.870399 0.750000
#
# Coordination Sequence:
#
# PCOD8247487 Si02
#       7
#     8   8   8   4   8   8   8
#     4  11  23  38  60  98 132 164 214 273 331 391
#     4  10  22  43  62  93 129 168 215 276 332 399
#     4  10  21  40  67  89 128 166 219 276 324 392
#     4  10  22  42  66  96 120 176 228 262 332 398
#     4  10  23  41  67  94 127 171 220 269 337 399
#     4  10  22  40  64  96 129 170 222 270 329 402
#     4  10  21  41  66  96 120 173 219 268 331 395
#
# _framework density 21.468715
#
# number of rings (size 3 to 8) (size 9 to 14) (size 15 to 20)
#    0.000    1.846    1.538    1.385    6.462    1.846 
#    6.923    0.000    0.000    0.000    0.000    0.000 
#    0.000    0.000    0.000    0.000    0.000    0.000 
#
# Total GULP energy -644666.812471 kJ/mol
# GULP energy per Si atom -12397.438701 kJ/mol
# Density = 2.141985 g / cm^3
# Si number density = 21.468715 Si / 1000 Ang^3
#
#
#
# Elastic Constant Matrix: (Units=GPa)
#
#
# Indices 1 2 3 4 5 6 
#
# 1 78.7754 25.4628 24.1500 0.0000 0.0000 0.0000
# 2 25.4628 95.5012 31.6620 0.0000 0.0000 0.0000
# 3 24.1500 31.6620 110.0672 0.0000 0.0000 0.0000
# 4 0.0000 0.0000 0.0000 24.2881 0.0000 0.0000
# 5 0.0000 0.0000 0.0000 0.0000 30.9846 0.0000
# 6 0.0000 0.0000 0.0000 0.0000 0.0000 29.2024
#
#
#
# Elastic Compliance Matrix: (Units=1/GPa)
#
#
# Indices 1 2 3 4 5 6 
#
# 1 0.014387 -0.003083 -0.002270 0.000000 0.000000 0.000000
# 2 -0.003083 0.012236 -0.002843 0.000000 0.000000 0.000000
# 3 -0.002270 -0.002843 0.010401 0.000000 0.000000 0.000000
# 4 0.000000 0.000000 0.000000 0.041172 0.000000 0.000000
# 5 0.000000 0.000000 0.000000 0.000000 0.032274 0.000000
# 6 0.000000 0.000000 0.000000 0.000000 0.000000 0.034244
#
#
# Mechanical properties :
#
#
# Convention : Reuss Voigt Hill
#
# Bulk Modulus (GPa) = 48.47007 49.65481 49.06244
# Shear Modulus (GPa) = 29.76481 30.43297 30.09889
#
# Velocity S-wave (km/s) = 3.72752 3.76912 3.74838
# Velocity P-wave (km/s) = 6.41498 6.49006 6.45262
#
# Compressibility (1/GPa) = 0.02063129
#
# Stress axis : x y z
#
# Youngs Moduli (GPa) = 69.50832 81.72742 96.14240
#
# Poissons Ratio (x) = 0.25200 0.21821
# Poissons Ratio (y) = 0.21432 0.27335
# Poissons Ratio (z) = 0.15776 0.23237
#
# Static dielectric constant tensor:
#      x y z
#    x 3.984050 0.000000 0.000000 
#    y 0.000000 3.753440 0.000000 
#    z 0.000000 0.000000 3.874190 
# 
# 
# High freq. dielectric constant tensor:
#      x y z
#    x 1.840640 0.000000 0.000000 
#    y 0.000000 1.827030 0.000000 
#    z 0.000000 0.000000 1.846880 
# 
# From -- ./inp_files/15200.got.cif
#   From: 2010.03.12/outbox.cif.g09.slc.cpg/sg60_8_cif.got.tgz:15200.got - 2010.04.10 18:46:24.
