data_PCOD8247734
_publ_section_title
;
Structure prediction by ZEFSAII (Michael W. Deem and Ramdas Pophale) SiO2 
 PCOD8247734
Probable space group: P B C N
;
_chemical_formula_sum "Si O2"
_cell_formula_units_Z 64
_cell_length_a 16.455633
_cell_length_b 14.356285
_cell_length_c 13.325385
_cell_angle_alpha 90.000000
_cell_angle_beta 90.000000
_cell_angle_gamma 90.000000
_cell_volume 3148.012368
_symmetry_space_group_name_H-M "P B C N"
_symmetry_group_IT_number 60
_symmetry_cell_setting 'orthorhombic'
loop_
_space_group_symop_operation_xyz
x,y,z
1/2-x,1/2-y,1/2+z
1/2+x,1/2-y,-z
-x,y,1/2-z
-x,-y,-z
1/2+x,1/2+y,1/2-z
1/2-x,1/2+y,z
x,-y,1/2+z
loop_
_atom_site_type_symbol
_atom_site_label
_atom_site_fract_x
_atom_site_fract_y
_atom_site_fract_z
Si Si1 0.181907 0.947986 0.908140
Si Si2 0.178363 0.637487 0.123949
Si Si3 0.351607 0.383971 0.545759
Si Si4 0.411494 0.495122 0.713591
Si Si5 0.559350 0.074809 0.543913
Si Si6 0.362828 0.074926 0.341852
Si Si7 0.543706 0.773197 0.531993
Si Si8 0.888253 0.832773 0.412637
O O1 0.276651 0.922074 0.898873
O O2 0.142300 0.946047 0.798417
O O3 0.140222 0.870889 0.979009
O O4 0.167018 0.052042 0.949702
O O5 0.273340 0.619559 0.116425
O O6 0.144331 0.591146 0.224359
O O7 0.166816 0.747793 0.122759
O O8 0.133671 0.589928 0.031421
O O9 0.420948 0.427290 0.617231
O O10 0.379797 0.281492 0.513101
O O11 0.500000 0.519689 0.750000
O O12 0.372181 0.590813 0.673311
O O13 0.508005 0.171222 0.554791
O O14 0.500000 0.000000 0.500000
O O15 0.597471 0.028979 0.644675
O O16 0.422435 0.153975 0.386613
O O17 0.482869 0.698608 0.583128
#
# Coordination Sequence:
#
# PCOD8247734 Si02
#       8
#     8   8   8   8   8   8   8   8
#     4  11  22  41  65  92 131 166 207 267 331 378
#     4  11  22  40  67  93 125 163 220 263 311 392
#     4  11  22  40  64  93 128 170 206 266 322 383
#     4  11  23  39  64  90 129 164 211 256 323 391
#     4   9  21  41  65  89 128 164 209 269 317 372
#     4  11  22  40  69  93 125 168 217 267 323 385
#     4  10  22  40  66  90 130 170 211 268 319 379
#     4  10  24  40  62  96 122 164 215 263 312 388
#
# _framework density 20.330289
#
# number of rings (size 3 to 8) (size 9 to 14) (size 15 to 20)
#    0.000    1.500    2.500    2.250    3.500    6.000 
#    0.000    0.000   24.750    0.000    0.000    0.000 
#    0.000    0.000    0.000    0.000    0.000    0.000 
#
# Total GULP energy -793423.462710 kJ/mol
# GULP energy per Si atom -12397.241605 kJ/mol
# Density = 2.028402 g / cm^3
# Si number density = 20.330289 Si / 1000 Ang^3
#
#
#
# Elastic Constant Matrix: (Units=GPa)
#
#
# Indices 1 2 3 4 5 6 
#
# 1 64.3411 22.5044 5.1170 0.0000 0.0000 0.0000
# 2 22.5044 93.5888 35.6713 0.0000 0.0000 0.0000
# 3 5.1170 35.6713 70.0841 0.0000 0.0000 0.0000
# 4 0.0000 0.0000 0.0000 29.9761 0.0000 0.0000
# 5 0.0000 0.0000 0.0000 0.0000 26.7946 0.0000
# 6 0.0000 0.0000 0.0000 0.0000 0.0000 37.4208
#
#
#
# Elastic Compliance Matrix: (Units=1/GPa)
#
#
# Indices 1 2 3 4 5 6 
#
# 1 0.017031 -0.004493 0.001043 0.000000 0.000000 0.000000
# 2 -0.004493 0.014442 -0.007023 0.000000 0.000000 0.000000
# 3 0.001043 -0.007023 0.017767 0.000000 0.000000 0.000000
# 4 0.000000 0.000000 0.000000 0.033360 0.000000 0.000000
# 5 0.000000 0.000000 0.000000 0.000000 0.037321 0.000000
# 6 0.000000 0.000000 0.000000 0.000000 0.000000 0.026723
#
#
# Mechanical properties :
#
#
# Convention : Reuss Voigt Hill
#
# Bulk Modulus (GPa) = 35.34183 39.39994 37.37088
# Shear Modulus (GPa) = 28.24546 29.81972 29.03259
#
# Velocity S-wave (km/s) = 3.73141 3.83399 3.78305
# Velocity P-wave (km/s) = 5.99885 6.24670 6.12403
#
# Compressibility (1/GPa) = 0.02829508
#
# Stress axis : x y z
#
# Youngs Moduli (GPa) = 58.71770 69.24208 56.28482
#
# Poissons Ratio (x) = 0.31109 -0.05872
# Poissons Ratio (y) = 0.26381 0.39527
# Poissons Ratio (z) = -0.06126 0.48626
#
# Static dielectric constant tensor:
#      x y z
#    x 3.887860 0.000000 0.000000 
#    y 0.000000 3.937940 0.000000 
#    z 0.000000 0.000000 3.553130 
# 
# 
# High freq. dielectric constant tensor:
#      x y z
#    x 1.807650 0.000000 0.000000 
#    y 0.000000 1.800620 0.000000 
#    z 0.000000 0.000000 1.779940 
# 
# From -- ./inp_files/12551.got.cif
#   From: 2010.03.12/outbox.cif.g09.slc.cpg/sg60_7_cif.got.tgz:12551.got - 2010.04.10 18:46:24.
