data_PCOD8247863
_publ_section_title
;
Structure prediction by ZEFSAII (Michael W. Deem and Ramdas Pophale) SiO2 
 PCOD8247863
Probable space group: P B C N
;
_chemical_formula_sum "Si O2"
_cell_formula_units_Z 40
_cell_length_a 17.131774
_cell_length_b 10.462727
_cell_length_c 9.171608
_cell_angle_alpha 90.000000
_cell_angle_beta 90.000000
_cell_angle_gamma 90.000000
_cell_volume 1643.965558
_symmetry_space_group_name_H-M "P B C N"
_symmetry_group_IT_number 60
_symmetry_cell_setting 'orthorhombic'
loop_
_space_group_symop_operation_xyz
x,y,z
1/2-x,1/2-y,1/2+z
1/2+x,1/2-y,-z
-x,y,1/2-z
-x,-y,-z
1/2+x,1/2+y,1/2-z
1/2-x,1/2+y,z
x,-y,1/2+z
loop_
_atom_site_type_symbol
_atom_site_label
_atom_site_fract_x
_atom_site_fract_y
_atom_site_fract_z
Si Si1 0.193423 0.501034 0.421298
Si Si2 0.301381 0.551833 0.163205
Si Si3 0.452468 0.130220 0.980795
Si Si4 0.390779 0.230375 0.551700
Si Si5 0.585542 0.676325 0.767917
O O1 0.230933 0.562570 0.278191
O O2 0.264231 0.432516 0.503473
O O3 0.123806 0.399956 0.380717
O O4 0.158019 0.598988 0.541669
O O5 0.355583 0.677141 0.175862
O O6 0.353283 0.423985 0.165475
O O7 0.422775 0.196633 0.130872
O O8 0.517479 0.219120 0.903887
O O9 0.500000 0.000000 0.000000
O O10 0.383110 0.284263 0.388445
O O11 0.500000 0.611583 0.750000
#
# Coordination Sequence:
#
# PCOD8247863 Si02
#       5
#     8   8   8   8   8
#     4  11  25  43  73 103 143 184 248 303 369 428
#     4  12  25  43  70 109 147 187 240 310 377 436
#     4   9  21  45  73 101 138 193 248 302 360 442
#     4  10  23  45  69 102 143 199 241 302 371 451
#     4  10  22  43  71  97 150 190 246 299 367 444
#
# _framework density 24.331410999999999
#
# number of rings (size 3 to 8) (size 9 to 14) (size 15 to 20)
#    0.000    1.600    2.000    1.200    5.600    4.800 
#    0.000    3.000    0.000    0.000    0.000    0.000 
#    0.000    0.000    0.000    0.000    0.000    0.000 
#
# Total GULP energy -495644.634415 kJ/mol
# GULP energy per Si atom -12391.115860 kJ/mol
# Density = 2.427603 g / cm^3
# Si number density = 24.331411 Si / 1000 Ang^3
#
#
#
# Elastic Constant Matrix: (Units=GPa)
#
#
# Indices 1 2 3 4 5 6 
#
# 1 184.8363 69.7347 53.0482 0.0000 0.0000 0.0000
# 2 69.7347 106.3549 24.7540 0.0000 0.0000 0.0000
# 3 53.0482 24.7540 60.0444 0.0000 0.0000 0.0000
# 4 0.0000 0.0000 0.0000 26.7411 0.0000 0.0000
# 5 0.0000 0.0000 0.0000 0.0000 36.8330 0.0000
# 6 0.0000 0.0000 0.0000 0.0000 0.0000 51.8422
#
#
#
# Elastic Compliance Matrix: (Units=1/GPa)
#
#
# Indices 1 2 3 4 5 6 
#
# 1 0.008761 -0.004361 -0.005942 0.000000 0.000000 0.000000
# 2 -0.004361 0.012572 -0.001330 0.000000 0.000000 0.000000
# 3 -0.005942 -0.001330 0.022452 0.000000 0.000000 0.000000
# 4 0.000000 0.000000 0.000000 0.037396 0.000000 0.000000
# 5 0.000000 0.000000 0.000000 0.000000 0.027150 0.000000
# 6 0.000000 0.000000 0.000000 0.000000 0.000000 0.019289
#
#
# Mechanical properties :
#
#
# Convention : Reuss Voigt Hill
#
# Bulk Modulus (GPa) = 48.73620 71.81216 60.27418
# Shear Modulus (GPa) = 31.70063 36.66315 34.18189
#
# Velocity S-wave (km/s) = 3.61344 3.88599 3.75219
# Velocity P-wave (km/s) = 6.12233 7.05073 6.60287
#
# Compressibility (1/GPa) = 0.02051863
#
# Stress axis : x y z
#
# Youngs Moduli (GPa) = 114.14115 79.54419 44.53879
#
# Poissons Ratio (x) = 0.34692 0.26466
# Poissons Ratio (y) = 0.49782 0.05922
# Poissons Ratio (z) = 0.67825 0.10576
#
# Static dielectric constant tensor:
#      x y z
#    x 4.976460 0.000000 0.000000 
#    y 0.000000 4.344140 0.000000 
#    z 0.000000 0.000000 3.950900 
# 
# 
# High freq. dielectric constant tensor:
#      x y z
#    x 2.000230 0.000000 0.000000 
#    y 0.000000 1.951870 0.000000 
#    z 0.000000 0.000000 1.945530 
# 
# From -- ./inp_files/6516.got.cif
#   From: 2010.03.12/outbox.cif.g09.slc.cpg/sg60_4_cif.got.tgz:6516.got - 2010.04.10 18:46:24.
