data_PCOD8247599
_publ_section_title
;
Structure prediction by ZEFSAII (Michael W. Deem and Ramdas Pophale) SiO2 
 PCOD8247599
Probable space group: P B C N
;
_chemical_formula_sum "Si O2"
_cell_formula_units_Z 56
_cell_length_a 19.295034
_cell_length_b 13.237119
_cell_length_c 10.215721
_cell_angle_alpha 90.000000
_cell_angle_beta 90.000000
_cell_angle_gamma 90.000000
_cell_volume 2609.204055
_symmetry_space_group_name_H-M "P B C N"
_symmetry_group_IT_number 60
_symmetry_cell_setting 'orthorhombic'
loop_
_space_group_symop_operation_xyz
x,y,z
1/2-x,1/2-y,1/2+z
1/2+x,1/2-y,-z
-x,y,1/2-z
-x,-y,-z
1/2+x,1/2+y,1/2-z
1/2-x,1/2+y,z
x,-y,1/2+z
loop_
_atom_site_type_symbol
_atom_site_label
_atom_site_fract_x
_atom_site_fract_y
_atom_site_fract_z
Si Si1 0.250190 0.877832 0.986576
Si Si2 0.126914 0.016855 0.373897
Si Si3 0.043929 0.178489 0.875974
Si Si4 0.836557 0.305967 0.731544
Si Si5 0.174403 0.324259 0.478122
Si Si6 0.756965 0.096834 0.739389
Si Si7 0.454133 0.287578 0.870280
O O1 0.176047 0.935076 0.984822
O O2 0.300627 0.891927 0.860734
O O3 0.234159 0.758956 0.991515
O O4 0.285546 0.914236 0.123615
O O5 0.072159 0.100882 0.327738
O O6 0.087971 0.917503 0.426721
O O7 0.180347 0.984197 0.259372
O O8 0.090800 0.273850 0.834248
O O9 0.000000 0.143043 0.750000
O O10 0.995630 0.211417 0.994444
O O11 0.788730 0.208661 0.746248
O O12 0.848338 0.357106 0.875012
O O13 0.209390 0.415140 0.391988
O O14 0.110008 0.286971 0.391199
O O15 0.500000 0.246065 0.750000
#
# Coordination Sequence:
#
# PCOD8247599 Si02
#       7
#     8   8   8   8   8   8   8
#     4   9  19  33  53  74 102 141 185 226 266 316
#     4  10  22  34  52  82 117 144 176 222 276 330
#     4  11  21  36  55  77 113 153 181 219 270 329
#     4   9  18  35  52  73 100 142 188 225 266 313
#     4   9  18  36  50  73 103 140 187 227 263 312
#     4   9  19  33  53  73 104 141 181 230 268 312
#     4  11  23  34  53  81 113 150 184 216 267 334
#
# _framework density 21.462484
#
# number of rings (size 3 to 8) (size 9 to 14) (size 15 to 20)
#    0.000    2.286    1.429    0.857    6.000    1.143 
#    5.143    0.000    0.000    0.000    0.000    2.000 
#    0.000    0.000    0.000    0.000    0.000    0.000 
#
# Total GULP energy -693845.738341 kJ/mol
# GULP energy per Si atom -12390.102470 kJ/mol
# Density = 2.141363 g / cm^3
# Si number density = 21.462484 Si / 1000 Ang^3
#
#
#
# Elastic Constant Matrix: (Units=GPa)
#
#
# Indices 1 2 3 4 5 6 
#
# 1 83.5396 16.4837 46.8871 0.0000 0.0000 0.0000
# 2 16.4837 15.5760 16.6703 0.0000 0.0000 0.0000
# 3 46.8871 16.6703 172.2408 0.0000 0.0000 0.0000
# 4 0.0000 0.0000 0.0000 7.4475 0.0000 0.0000
# 5 0.0000 0.0000 0.0000 0.0000 32.3571 0.0000
# 6 0.0000 0.0000 0.0000 0.0000 0.0000 33.9421
#
#
#
# Elastic Compliance Matrix: (Units=1/GPa)
#
#
# Indices 1 2 3 4 5 6 
#
# 1 0.016514 -0.014128 -0.003128 0.000000 0.000000 0.000000
# 2 -0.014128 0.083707 -0.004256 0.000000 0.000000 0.000000
# 3 -0.003128 -0.004256 0.007069 0.000000 0.000000 0.000000
# 4 0.000000 0.000000 0.000000 0.134273 0.000000 0.000000
# 5 0.000000 0.000000 0.000000 0.000000 0.030905 0.000000
# 6 0.000000 0.000000 0.000000 0.000000 0.000000 0.029462
#
#
# Mechanical properties :
#
#
# Convention : Reuss Voigt Hill
#
# Bulk Modulus (GPa) = 15.56020 47.93763 31.74892
# Shear Modulus (GPa) = 13.64716 27.50370 20.57543
#
# Velocity S-wave (km/s) = 2.52436 3.58366 3.09960
# Velocity P-wave (km/s) = 3.97017 6.28550 5.25689
#
# Compressibility (1/GPa) = 0.06426652
#
# Stress axis : x y z
#
# Youngs Moduli (GPa) = 60.55577 11.94636 141.45910
#
# Poissons Ratio (x) = 0.16878 0.44247
# Poissons Ratio (y) = 0.85555 0.60200
# Poissons Ratio (z) = 0.18941 0.05084
#
# Static dielectric constant tensor:
#      x y z
#    x 3.816630 0.000000 0.000000 
#    y 0.000000 3.600440 0.000000 
#    z 0.000000 0.000000 4.193280 
# 
# 
# High freq. dielectric constant tensor:
#      x y z
#    x 1.823320 0.000000 0.000000 
#    y 0.000000 1.810810 0.000000 
#    z 0.000000 0.000000 1.852500 
# 
# From -- ./inp_files/7392.got.cif
#   From: 2010.03.12/outbox.cif.g09.slc.cpg/sg60_4_cif.got.tgz:7392.got - 2010.04.10 18:46:24.
