data_PCOD8247366
_publ_section_title
;
Structure prediction by ZEFSAII (Michael W. Deem and Ramdas Pophale) SiO2 
 PCOD8247366
Probable space group: P B C N
;
_chemical_formula_sum "Si O2"
_cell_formula_units_Z 64
_cell_length_a 15.731327
_cell_length_b 20.522800
_cell_length_c 7.922410
_cell_angle_alpha 90.000000
_cell_angle_beta 90.000000
_cell_angle_gamma 90.000000
_cell_volume 2557.757022
_symmetry_space_group_name_H-M "P B C N"
_symmetry_group_IT_number 60
_symmetry_cell_setting 'orthorhombic'
loop_
_space_group_symop_operation_xyz
x,y,z
1/2-x,1/2-y,1/2+z
1/2+x,1/2-y,-z
-x,y,1/2-z
-x,-y,-z
1/2+x,1/2+y,1/2-z
1/2-x,1/2+y,z
x,-y,1/2+z
loop_
_atom_site_type_symbol
_atom_site_label
_atom_site_fract_x
_atom_site_fract_y
_atom_site_fract_z
Si Si1 0.775469 0.523681 0.430000
Si Si2 0.485758 0.805527 0.443964
Si Si3 0.827712 0.711429 0.928627
Si Si4 0.574092 0.570120 0.625106
Si Si5 0.116298 0.928252 0.744908
Si Si6 0.454121 0.939934 0.586517
Si Si7 0.747877 0.595778 0.754398
Si Si8 0.650793 0.706125 0.122157
O O1 0.709099 0.570214 0.337133
O O2 0.865435 0.533982 0.342388
O O3 0.789149 0.544971 0.623059
O O4 0.744279 0.448013 0.426066
O O5 0.500000 0.792464 0.250000
O O6 0.581559 0.799926 0.527775
O O7 0.446424 0.876951 0.467121
O O8 0.415105 0.750026 0.490711
O O9 0.809147 0.656670 0.784527
O O10 0.839930 0.776604 0.820031
O O11 0.746095 0.712402 0.048401
O O12 0.500000 0.592642 0.750000
O O13 0.553430 0.578925 0.422488
O O14 0.596453 0.493668 0.650079
O O15 0.653968 0.614931 0.686413
O O16 0.113623 0.867481 0.874778
O O17 0.500000 0.912836 0.750000
O O18 0.500000 0.000000 0.500000
#
# Coordination Sequence:
#
# PCOD8247366 Si02
#       8
#     8   8   8   8   8   8   8   8
#     4  10  21  38  65  96 140 174 232 283 361 431
#     4  10  24  48  67  98 139 185 240 296 359 441
#     4  11  26  46  70  94 139 184 242 290 367 435
#     4  10  22  42  68 109 143 184 234 304 361 445
#     4  10  24  41  73  99 144 187 238 296 379 432
#     4  12  24  37  69 106 139 183 233 300 365 432
#     4  10  22  40  66  98 135 184 226 293 354 435
#     4  11  27  46  74 101 139 198 245 307 370 447
#
# _framework density 25.021925
#
# number of rings (size 3 to 8) (size 9 to 14) (size 15 to 20)
#    0.000    1.500    0.000    3.750   14.000    1.500 
#    6.750    0.000    0.000    0.000    0.000    0.000 
#    0.000    0.000    0.000    0.000    0.000    0.000 
#
# Total GULP energy -793037.555922 kJ/mol
# GULP energy per Si atom -12391.211811 kJ/mol
# Density = 2.496497 g / cm^3
# Si number density = 25.021925 Si / 1000 Ang^3
#
#
#
# Elastic Constant Matrix: (Units=GPa)
#
#
# Indices 1 2 3 4 5 6 
#
# 1 115.7341 28.1022 -14.5906 0.0000 0.0000 0.0000
# 2 28.1022 102.3476 10.7760 0.0000 0.0000 0.0000
# 3 -14.5906 10.7760 31.3370 0.0000 0.0000 0.0000
# 4 0.0000 0.0000 0.0000 29.3471 0.0000 0.0000
# 5 0.0000 0.0000 0.0000 0.0000 32.6084 0.0000
# 6 0.0000 0.0000 0.0000 0.0000 0.0000 33.2019
#
#
#
# Elastic Compliance Matrix: (Units=1/GPa)
#
#
# Indices 1 2 3 4 5 6 
#
# 1 0.010223 -0.003432 0.005940 0.000000 0.000000 0.000000
# 2 -0.003432 0.011290 -0.005480 0.000000 0.000000 0.000000
# 3 0.005940 -0.005480 0.036561 0.000000 0.000000 0.000000
# 4 0.000000 0.000000 0.000000 0.034075 0.000000 0.000000
# 5 0.000000 0.000000 0.000000 0.000000 0.030667 0.000000
# 6 0.000000 0.000000 0.000000 0.000000 0.000000 0.030119
#
#
# Mechanical properties :
#
#
# Convention : Reuss Voigt Hill
#
# Bulk Modulus (GPa) = 19.18326 33.11044 26.14685
# Shear Modulus (GPa) = 28.36770 34.04022 31.20396
#
# Velocity S-wave (km/s) = 3.37072 3.69238 3.53521
# Velocity P-wave (km/s) = 4.77831 5.60710 5.20921
#
# Compressibility (1/GPa) = 0.05212879
#
# Stress axis : x y z
#
# Youngs Moduli (GPa) = 97.82063 88.57323 27.35119
#
# Poissons Ratio (x) = 0.30401 -0.16247
# Poissons Ratio (y) = 0.33575 0.14990
# Poissons Ratio (z) = -0.58106 0.48543
#
# Static dielectric constant tensor:
#      x y z
#    x 5.312880 0.000000 0.000000 
#    y 0.000000 4.375990 0.000000 
#    z 0.000000 0.000000 4.396000 
# 
# 
# High freq. dielectric constant tensor:
#      x y z
#    x 2.020750 0.000000 0.000000 
#    y 0.000000 1.983760 0.000000 
#    z 0.000000 0.000000 1.980980 
# 
# From -- ./inp_files/7006.got.cif
#   From: 2010.03.12/outbox.cif.g09.slc.cpg/sg60_4_cif.got.tgz:7006.got - 2010.04.10 18:46:24.
