data_PCOD8247112
_publ_section_title
;
Structure prediction by ZEFSAII (Michael W. Deem and Ramdas Pophale) SiO2 
 PCOD8247112
Probable space group: P B C N
;
_chemical_formula_sum "Si O2"
_cell_formula_units_Z 60
_cell_length_a 18.460315
_cell_length_b 16.808320
_cell_length_c 8.724954
_cell_angle_alpha 90.000000
_cell_angle_beta 90.000000
_cell_angle_gamma 90.000000
_cell_volume 2707.238771
_symmetry_space_group_name_H-M "P B C N"
_symmetry_group_IT_number 60
_symmetry_cell_setting 'orthorhombic'
loop_
_space_group_symop_operation_xyz
x,y,z
1/2-x,1/2-y,1/2+z
1/2+x,1/2-y,-z
-x,y,1/2-z
-x,-y,-z
1/2+x,1/2+y,1/2-z
1/2-x,1/2+y,z
x,-y,1/2+z
loop_
_atom_site_type_symbol
_atom_site_label
_atom_site_fract_x
_atom_site_fract_y
_atom_site_fract_z
Si Si1 0.190472 0.778775 0.335770
Si Si2 0.814344 0.983715 0.876954
Si Si3 0.809559 0.805476 0.814202
Si Si4 0.439658 0.264205 0.880407
Si Si5 0.426736 0.373612 0.162240
Si Si6 0.000000 0.514755 0.250000
Si Si7 0.577919 0.091222 0.507192
Si Si8 0.730571 0.066433 0.651112
O O1 0.225882 0.702543 0.247657
O O2 0.180929 0.765719 0.517611
O O3 0.115230 0.805268 0.258446
O O4 0.252680 0.843465 0.304976
O O5 0.833769 0.897369 0.809126
O O6 0.879435 0.046252 0.855406
O O7 0.737230 0.014717 0.805611
O O8 0.798306 0.969842 0.055164
O O9 0.861613 0.760172 0.698269
O O10 0.500000 0.272301 0.750000
O O11 0.444501 0.182742 0.974992
O O12 0.446765 0.338473 0.996077
O O13 0.500000 0.397160 0.250000
O O14 0.972223 0.458566 0.118011
O O15 0.937850 0.569470 0.329003
O O16 0.658314 0.065049 0.553206
#
# Coordination Sequence:
#
# PCOD8247112 Si02
#       8
#     8   8   8   8   8   4   8   8
#     4  10  22  40  67  98 137 175 235 291 355 421
#     4  10  23  41  69  99 133 176 234 287 360 426
#     4  11  22  43  66 102 136 181 232 302 351 432
#     4  12  25  43  68 101 140 186 241 290 361 437
#     4  11  25  46  69 102 142 190 238 302 365 447
#     4  10  24  42  64  92 144 178 230 290 360 436
#     4  11  22  43  64  98 136 184 229 295 356 432
#     4  10  20  40  63  97 127 168 224 285 349 418
#
# _framework density 22.162803
#
# number of rings (size 3 to 8) (size 9 to 14) (size 15 to 20)
#    0.000    1.333    2.000    3.200    2.800    1.600 
#    2.400    7.333    0.000    0.000    0.000    0.000 
#    0.000    0.000    0.000    0.000    0.000    0.000 
#
# Total GULP energy -743658.859087 kJ/mol
# GULP energy per Si atom -12394.314318 kJ/mol
# Density = 2.211236 g / cm^3
# Si number density = 22.162803 Si / 1000 Ang^3
#
#
#
# Elastic Constant Matrix: (Units=GPa)
#
#
# Indices 1 2 3 4 5 6 
#
# 1 102.1024 35.2410 14.8406 0.0000 0.0000 0.0000
# 2 35.2410 106.4252 41.4222 0.0000 0.0000 0.0000
# 3 14.8406 41.4222 73.1302 0.0000 0.0000 0.0000
# 4 0.0000 0.0000 0.0000 48.8833 0.0000 0.0000
# 5 0.0000 0.0000 0.0000 0.0000 41.7179 0.0000
# 6 0.0000 0.0000 0.0000 0.0000 0.0000 41.1925
#
#
#
# Elastic Compliance Matrix: (Units=1/GPa)
#
#
# Indices 1 2 3 4 5 6 
#
# 1 0.011061 -0.003578 -0.000218 0.000000 0.000000 0.000000
# 2 -0.003578 0.013211 -0.006757 0.000000 0.000000 0.000000
# 3 -0.000218 -0.006757 0.017546 0.000000 0.000000 0.000000
# 4 0.000000 0.000000 0.000000 0.020457 0.000000 0.000000
# 5 0.000000 0.000000 0.000000 0.000000 0.023971 0.000000
# 6 0.000000 0.000000 0.000000 0.000000 0.000000 0.024276
#
#
# Mechanical properties :
#
#
# Convention : Reuss Voigt Hill
#
# Bulk Modulus (GPa) = 48.28134 51.62949 49.95541
# Shear Modulus (GPa) = 36.09330 39.03567 37.56448
#
# Velocity S-wave (km/s) = 4.03991 4.20136 4.12142
# Velocity P-wave (km/s) = 6.60252 6.84699 6.72587
#
# Compressibility (1/GPa) = 0.02071194
#
# Stress axis : x y z
#
# Youngs Moduli (GPa) = 90.41070 75.69573 56.99417
#
# Poissons Ratio (x) = 0.27081 0.01243
# Poissons Ratio (y) = 0.32346 0.38510
# Poissons Ratio (z) = 0.01972 0.51146
#
# Static dielectric constant tensor:
#      x y z
#    x 3.959130 0.000000 0.000000 
#    y 0.000000 4.060860 0.000000 
#    z 0.000000 0.000000 4.260150 
# 
# 
# High freq. dielectric constant tensor:
#      x y z
#    x 1.864420 0.000000 0.000000 
#    y 0.000000 1.873390 0.000000 
#    z 0.000000 0.000000 1.887270 
# 
# From -- ./inp_files/6930.got.cif
#   From: 2010.03.12/outbox.cif.g09.slc.cpg/sg60_4_cif.got.tgz:6930.got - 2010.04.10 18:46:24.
