data_PCOD8247536
_publ_section_title
;
Structure prediction by ZEFSAII (Michael W. Deem and Ramdas Pophale) SiO2 
 PCOD8247536
Probable space group: P B C N
;
_chemical_formula_sum "Si O2"
_cell_formula_units_Z 48
_cell_length_a 8.047037
_cell_length_b 29.116807
_cell_length_c 9.271183
_cell_angle_alpha 90.000000
_cell_angle_beta 90.000000
_cell_angle_gamma 90.000000
_cell_volume 2172.275477
_symmetry_space_group_name_H-M "P B C N"
_symmetry_group_IT_number 60
_symmetry_cell_setting 'orthorhombic'
loop_
_space_group_symop_operation_xyz
x,y,z
1/2-x,1/2-y,1/2+z
1/2+x,1/2-y,-z
-x,y,1/2-z
-x,-y,-z
1/2+x,1/2+y,1/2-z
1/2-x,1/2+y,z
x,-y,1/2+z
loop_
_atom_site_type_symbol
_atom_site_label
_atom_site_fract_x
_atom_site_fract_y
_atom_site_fract_z
Si Si1 0.827768 0.037117 0.666074
Si Si2 0.872588 0.794541 0.623415
Si Si3 0.396660 0.279307 0.384291
Si Si4 0.830152 0.474572 0.457452
Si Si5 0.161560 0.369284 0.045401
Si Si6 0.295052 0.134325 0.884283
O O1 0.688124 0.023577 0.784283
O O2 0.784811 0.084712 0.584998
O O3 0.000000 0.040701 0.750000
O O4 0.823335 0.998971 0.540519
O O5 0.727273 0.760072 0.672604
O O6 0.782997 0.838995 0.554452
O O7 0.000000 0.809148 0.750000
O O8 0.977862 0.763632 0.510027
O O9 0.500000 0.296507 0.250000
O O10 0.313152 0.324904 0.450468
O O11 0.817071 0.421709 0.504385
O O12 0.000000 0.500000 0.500000
O O13 0.200309 0.359897 0.212043
O O14 0.966689 0.358951 0.029529
#
# Coordination Sequence:
#
# PCOD8247536 Si02
#       6
#     8   8   8   8   8   8
#     4  11  23  40  66 101 133 173 230 282 339 404
#     4  12  27  44  66 107 139 175 228 287 353 409
#     4  12  24  45  71  96 134 179 229 275 340 410
#     4  11  22  43  65  99 134 181 225 276 341 414
#     4  10  22  42  68  96 136 176 229 282 339 407
#     4  10  21  41  72  94 124 179 236 272 328 416
#
# _framework density 22.096646
#
# number of rings (size 3 to 8) (size 9 to 14) (size 15 to 20)
#    0.000    1.000    3.333    3.500    4.667    0.667 
#    3.000    1.667    0.000    0.000    0.000    0.000 
#    0.000    0.000    0.000    0.000    0.000    0.000 
#
# Total GULP energy -594954.577988 kJ/mol
# GULP energy per Si atom -12394.887041 kJ/mol
# Density = 2.204635 g / cm^3
# Si number density = 22.096646 Si / 1000 Ang^3
#
#
#
# Elastic Constant Matrix: (Units=GPa)
#
#
# Indices 1 2 3 4 5 6 
#
# 1 114.6678 48.3122 23.3801 0.0000 0.0000 0.0000
# 2 48.3122 137.7906 33.1985 0.0000 0.0000 0.0000
# 3 23.3801 33.1985 57.0842 0.0000 0.0000 0.0000
# 4 0.0000 0.0000 0.0000 29.3749 0.0000 0.0000
# 5 0.0000 0.0000 0.0000 0.0000 43.4098 0.0000
# 6 0.0000 0.0000 0.0000 0.0000 0.0000 27.7690
#
#
#
# Elastic Compliance Matrix: (Units=1/GPa)
#
#
# Indices 1 2 3 4 5 6 
#
# 1 0.010535 -0.003087 -0.002520 0.000000 0.000000 0.000000
# 2 -0.003087 0.009344 -0.004170 0.000000 0.000000 0.000000
# 3 -0.002520 -0.004170 0.020975 0.000000 0.000000 0.000000
# 4 0.000000 0.000000 0.000000 0.034043 0.000000 0.000000
# 5 0.000000 0.000000 0.000000 0.000000 0.023036 0.000000
# 6 0.000000 0.000000 0.000000 0.000000 0.000000 0.036011
#
#
# Mechanical properties :
#
#
# Convention : Reuss Voigt Hill
#
# Bulk Modulus (GPa) = 46.94512 57.70267 52.32389
# Shear Modulus (GPa) = 31.13346 33.75420 32.44383
#
# Velocity S-wave (km/s) = 3.75769 3.91266 3.83596
# Velocity P-wave (km/s) = 6.33392 6.82512 6.58410
#
# Compressibility (1/GPa) = 0.02130147
#
# Stress axis : x y z
#
# Youngs Moduli (GPa) = 94.92063 107.01595 47.67518
#
# Poissons Ratio (x) = 0.33033 0.12013
# Poissons Ratio (y) = 0.29299 0.19881
# Poissons Ratio (z) = 0.23917 0.44628
#
# Static dielectric constant tensor:
#      x y z
#    x 4.346360 0.000000 0.000000 
#    y 0.000000 3.951860 0.000000 
#    z 0.000000 0.000000 3.894970 
# 
# 
# High freq. dielectric constant tensor:
#      x y z
#    x 1.890670 0.000000 0.000000 
#    y 0.000000 1.873220 0.000000 
#    z 0.000000 0.000000 1.847910 
# 
# From -- ./inp_files/4222.got.cif
#   From: 2010.03.12/outbox.cif.g09.slc.cpg/sg60_3_cif.got.tgz:4222.got - 2010.04.10 18:46:24.
