data_PCOD8247746
_publ_section_title
;
Structure prediction by ZEFSAII (Michael W. Deem and Ramdas Pophale) SiO2 
 PCOD8247746
Probable space group: P B C N
;
_chemical_formula_sum "Si O2"
_cell_formula_units_Z 36
_cell_length_a 5.506801
_cell_length_b 19.575599
_cell_length_c 13.836063
_cell_angle_alpha 90.000000
_cell_angle_beta 90.000000
_cell_angle_gamma 90.000000
_cell_volume 1491.512761
_symmetry_space_group_name_H-M "P B C N"
_symmetry_group_IT_number 60
_symmetry_cell_setting 'orthorhombic'
loop_
_space_group_symop_operation_xyz
x,y,z
1/2-x,1/2-y,1/2+z
1/2+x,1/2-y,-z
-x,y,1/2-z
-x,-y,-z
1/2+x,1/2+y,1/2-z
1/2-x,1/2+y,z
x,-y,1/2+z
loop_
_atom_site_type_symbol
_atom_site_label
_atom_site_fract_x
_atom_site_fract_y
_atom_site_fract_z
Si Si1 0.000000 0.343781 0.250000
Si Si2 0.247279 0.045666 0.187790
Si Si3 0.769394 0.409768 0.417426
Si Si4 0.124509 0.202842 0.879200
Si Si5 0.581369 0.160683 0.438609
O O1 0.016819 0.391892 0.157065
O O2 0.236299 0.298534 0.275246
O O3 0.500000 0.039006 0.250000
O O4 0.240458 0.116895 0.129364
O O5 0.000000 0.041479 0.250000
O O6 0.218068 0.989349 0.101837
O O7 0.546028 0.362588 0.388245
O O8 0.866544 0.391311 0.524861
O O9 0.010802 0.277501 0.873617
O O10 0.298973 0.199655 0.971742
#
# Coordination Sequence:
#
# PCOD8247746 Si02
#       5
#     4   8   8   8   8
#     4  10  22  40  74 104 142 194 246 310 366 460
#     4  12  29  50  74 112 153 198 257 313 380 450
#     4  11  23  47  75 102 147 200 249 303 383 455
#     4  11  23  45  73 108 146 193 255 303 387 451
#     4  11  26  46  72 108 150 195 250 320 378 457
#
# _framework density 24.136571
#
# number of rings (size 3 to 8) (size 9 to 14) (size 15 to 20)
#    0.000    0.889    3.333    2.667    6.222    2.667 
#    4.000    0.000    0.000    0.000    0.000    0.000 
#    0.000    0.000    0.000    0.000    0.000    0.000 
#
# Total GULP energy -446090.317549 kJ/mol
# GULP energy per Si atom -12391.397710 kJ/mol
# Density = 2.408164 g / cm^3
# Si number density = 24.136571 Si / 1000 Ang^3
#
#
#
# Elastic Constant Matrix: (Units=GPa)
#
#
# Indices 1 2 3 4 5 6 
#
# 1 102.6370 32.5647 5.4053 0.0000 0.0000 0.0000
# 2 32.5647 164.5878 23.3832 0.0000 0.0000 0.0000
# 3 5.4053 23.3832 41.6238 0.0000 0.0000 0.0000
# 4 0.0000 0.0000 0.0000 31.5443 0.0000 0.0000
# 5 0.0000 0.0000 0.0000 0.0000 40.4316 0.0000
# 6 0.0000 0.0000 0.0000 0.0000 0.0000 28.5934
#
#
#
# Elastic Compliance Matrix: (Units=1/GPa)
#
#
# Indices 1 2 3 4 5 6 
#
# 1 0.010397 -0.002027 -0.000211 0.000000 0.000000 0.000000
# 2 -0.002027 0.006998 -0.003668 0.000000 0.000000 0.000000
# 3 -0.000211 -0.003668 0.026113 0.000000 0.000000 0.000000
# 4 0.000000 0.000000 0.000000 0.031701 0.000000 0.000000
# 5 0.000000 0.000000 0.000000 0.000000 0.024733 0.000000
# 6 0.000000 0.000000 0.000000 0.000000 0.000000 0.034973
#
#
# Mechanical properties :
#
#
# Convention : Reuss Voigt Hill
#
# Bulk Modulus (GPa) = 31.55077 47.95055 39.75066
# Shear Modulus (GPa) = 31.78761 36.61357 34.20059
#
# Velocity S-wave (km/s) = 3.63297 3.89901 3.76834
# Velocity P-wave (km/s) = 5.54059 6.33870 5.95304
#
# Compressibility (1/GPa) = 0.03169495
#
# Stress axis : x y z
#
# Youngs Moduli (GPa) = 96.17806 142.89808 38.29542
#
# Poissons Ratio (x) = 0.28968 0.00810
# Poissons Ratio (y) = 0.19497 0.14047
# Poissons Ratio (z) = 0.02033 0.52416
#
# Static dielectric constant tensor:
#      x y z
#    x 4.558640 0.000000 0.000000 
#    y 0.000000 4.309760 0.000000 
#    z 0.000000 0.000000 4.862240 
# 
# 
# High freq. dielectric constant tensor:
#      x y z
#    x 1.959190 0.000000 0.000000 
#    y 0.000000 1.962110 0.000000 
#    z 0.000000 0.000000 1.964520 
# 
# From -- ./inp_files/13743.got.cif
#   From: 2010.03.12/outbox.cif.g09.slc.cpg/sg60_7_cif.got.tgz:13743.got - 2010.04.10 18:46:24.
