data_PCOD8247350
_publ_section_title
;
Structure prediction by ZEFSAII (Michael W. Deem and Ramdas Pophale) SiO2 
 PCOD8247350
Probable space group: P B C N
;
_chemical_formula_sum "Si O2"
_cell_formula_units_Z 52
_cell_length_a 9.591112
_cell_length_b 20.451139
_cell_length_c 12.798417
_cell_angle_alpha 90.000000
_cell_angle_beta 90.000000
_cell_angle_gamma 90.000000
_cell_volume 2510.398804
_symmetry_space_group_name_H-M "P B C N"
_symmetry_group_IT_number 60
_symmetry_cell_setting 'orthorhombic'
loop_
_space_group_symop_operation_xyz
x,y,z
1/2-x,1/2-y,1/2+z
1/2+x,1/2-y,-z
-x,y,1/2-z
-x,-y,-z
1/2+x,1/2+y,1/2-z
1/2-x,1/2+y,z
x,-y,1/2+z
loop_
_atom_site_type_symbol
_atom_site_label
_atom_site_fract_x
_atom_site_fract_y
_atom_site_fract_z
Si Si1 0.149933 0.313482 0.899172
Si Si2 0.835272 0.362179 0.154403
Si Si3 0.945982 0.525352 0.891400
Si Si4 0.054708 0.824637 0.431493
Si Si5 0.553887 0.726738 0.135452
Si Si6 0.745217 0.137163 0.887335
Si Si7 0.500000 0.914081 0.750000
O O1 0.072147 0.245422 0.873547
O O2 0.305411 0.314387 0.857581
O O3 0.077124 0.371871 0.837270
O O4 0.161626 0.321635 0.025252
O O5 0.930188 0.427009 0.153054
O O6 0.685640 0.371974 0.095887
O O7 0.913912 0.301545 0.098110
O O8 0.809002 0.339682 0.274177
O O9 0.905826 0.464433 0.816920
O O10 0.798813 0.561958 0.904713
O O11 0.000000 0.500000 0.000000
O O12 0.049938 0.809836 0.555376
O O13 0.912001 0.857326 0.392110
O O14 0.500000 0.724026 0.250000
#
# Coordination Sequence:
#
# PCOD8247350 Si02
#       7
#     8   8   8   8   8   8   4
#     4  10  23  38  63  95 128 157 204 265 324 372
#     4  11  22  39  64  92 122 171 206 255 311 370
#     4  12  24  41  65  88 123 167 215 253 296 370
#     4  10  23  39  64  98 124 158 207 263 321 367
#     4  10  21  38  62  92 130 162 202 259 323 379
#     4  11  21  41  63  92 126 164 212 255 306 377
#     4  12  24  40  62  90 122 164 208 250 312 372
#
# _framework density 20.713840999999999
#
# number of rings (size 3 to 8) (size 9 to 14) (size 15 to 20)
#    0.000    1.231    3.077    3.231    4.308    1.231 
#    0.000    0.769    3.385    0.000    0.000    0.000 
#    0.000    0.000    0.000    0.000    0.000    0.000 
#
# Total GULP energy -644385.227470 kJ/mol
# GULP energy per Si atom -12392.023605 kJ/mol
# Density = 2.066670 g / cm^3
# Si number density = 20.713841 Si / 1000 Ang^3
#
#
#
# Elastic Constant Matrix: (Units=GPa)
#
#
# Indices 1 2 3 4 5 6 
#
# 1 123.6003 53.1675 55.1810 0.0000 0.0000 0.0000
# 2 53.1675 90.1595 21.0377 0.0000 0.0000 0.0000
# 3 55.1810 21.0377 89.6607 0.0000 0.0000 0.0000
# 4 0.0000 0.0000 0.0000 36.0422 0.0000 0.0000
# 5 0.0000 0.0000 0.0000 0.0000 28.5660 0.0000
# 6 0.0000 0.0000 0.0000 0.0000 0.0000 22.0444
#
#
#
# Elastic Compliance Matrix: (Units=1/GPa)
#
#
# Indices 1 2 3 4 5 6 
#
# 1 0.014153 -0.006679 -0.007143 0.000000 0.000000 0.000000
# 2 -0.006679 0.014886 0.000618 0.000000 0.000000 0.000000
# 3 -0.007143 0.000618 0.015404 0.000000 0.000000 0.000000
# 4 0.000000 0.000000 0.000000 0.027745 0.000000 0.000000
# 5 0.000000 0.000000 0.000000 0.000000 0.035007 0.000000
# 6 0.000000 0.000000 0.000000 0.000000 0.000000 0.045363
#
#
# Mechanical properties :
#
#
# Convention : Reuss Voigt Hill
#
# Bulk Modulus (GPa) = 55.44970 62.46587 58.95779
# Shear Modulus (GPa) = 27.03026 28.93280 27.98153
#
# Velocity S-wave (km/s) = 3.61631 3.74141 3.67939
# Velocity P-wave (km/s) = 6.65315 6.99187 6.82462
#
# Compressibility (1/GPa) = 0.01803436
#
# Stress axis : x y z
#
# Youngs Moduli (GPa) = 70.65823 67.17707 64.91708
#
# Poissons Ratio (x) = 0.44869 0.46370
# Poissons Ratio (y) = 0.47194 -0.04011
# Poissons Ratio (z) = 0.50471 -0.04150
#
# Static dielectric constant tensor:
#      x y z
#    x 5.045860 0.000000 0.000000 
#    y 0.000000 3.901710 0.000000 
#    z 0.000000 0.000000 4.031840 
# 
# 
# High freq. dielectric constant tensor:
#      x y z
#    x 1.806570 0.000000 0.000000 
#    y 0.000000 1.792950 0.000000 
#    z 0.000000 0.000000 1.828350 
# 
# From -- ./inp_files/15206.got.cif
#   From: 2010.03.12/outbox.cif.g09.slc.cpg/sg60_8_cif.got.tgz:15206.got - 2010.04.10 18:46:24.
