data_PCOD8247620
_publ_section_title
;
Structure prediction by ZEFSAII (Michael W. Deem and Ramdas Pophale) SiO2 
 PCOD8247620
Probable space group: P B C N
;
_chemical_formula_sum "Si O2"
_cell_formula_units_Z 36
_cell_length_a 5.397658
_cell_length_b 17.201574
_cell_length_c 19.086450
_cell_angle_alpha 90.000000
_cell_angle_beta 90.000000
_cell_angle_gamma 90.000000
_cell_volume 1772.142785
_symmetry_space_group_name_H-M "P B C N"
_symmetry_group_IT_number 60
_symmetry_cell_setting 'orthorhombic'
loop_
_space_group_symop_operation_xyz
x,y,z
1/2-x,1/2-y,1/2+z
1/2+x,1/2-y,-z
-x,y,1/2-z
-x,-y,-z
1/2+x,1/2+y,1/2-z
1/2-x,1/2+y,z
x,-y,1/2+z
loop_
_atom_site_type_symbol
_atom_site_label
_atom_site_fract_x
_atom_site_fract_y
_atom_site_fract_z
Si Si1 0.000000 0.794682 0.750000
Si Si2 0.500000 0.008138 0.750000
Si Si3 0.874228 0.075531 0.347262
Si Si4 0.829045 0.080127 0.643036
Si Si5 0.249492 0.549302 0.004256
Si Si6 0.500000 0.695715 0.750000
O O1 0.009179 0.846694 0.820667
O O2 0.749316 0.745296 0.749569
O O3 0.301574 0.950429 0.716298
O O4 0.588982 0.068923 0.691172
O O5 0.738985 0.095049 0.421431
O O6 0.061385 0.006126 0.361822
O O7 0.755219 0.106746 0.563914
O O8 0.010507 0.142035 0.679964
O O9 0.500000 0.500000 0.000000
O O10 0.000000 0.500000 0.000000
#
# Coordination Sequence:
#
# PCOD8247620 Si02
#       6
#     4   4   8   8   8   4
#     4  12  26  40  61  93 130 170 214 260 322 398
#     4  12  16  34  72  88 128 152 222 262 330 368
#     4  11  22  39  64  94 123 166 215 274 326 384
#     4  11  22  39  64  94 123 166 215 274 326 384
#     4  10  22  36  62  96 124 154 211 276 327 378
#     4  12  26  40  61  93 130 170 214 260 322 398
#
# _framework density 20.314392000000002
#
# number of rings (size 3 to 8) (size 9 to 14) (size 15 to 20)
#    0.000    0.889    6.667    1.333    0.000    0.000 
#    0.000    2.222    0.000    0.000    0.000    0.000 
#    0.000    0.000    0.000    0.000    0.000    0.000 
#
# Total GULP energy -446073.939897 kJ/mol
# GULP energy per Si atom -12390.942775 kJ/mol
# Density = 2.026816 g / cm^3
# Si number density = 20.314392 Si / 1000 Ang^3
#
#
#
# Elastic Constant Matrix: (Units=GPa)
#
#
# Indices 1 2 3 4 5 6 
#
# 1 114.4212 37.8949 28.8146 0.0000 0.0000 0.0000
# 2 37.8949 92.3813 51.1186 0.0000 0.0000 0.0000
# 3 28.8146 51.1186 187.9035 0.0000 0.0000 0.0000
# 4 0.0000 0.0000 0.0000 7.6941 0.0000 0.0000
# 5 0.0000 0.0000 0.0000 0.0000 29.6525 0.0000
# 6 0.0000 0.0000 0.0000 0.0000 0.0000 40.3316
#
#
#
# Elastic Compliance Matrix: (Units=1/GPa)
#
#
# Indices 1 2 3 4 5 6 
#
# 1 0.010153 -0.003889 -0.000499 0.000000 0.000000 0.000000
# 2 -0.003889 0.014232 -0.003276 0.000000 0.000000 0.000000
# 3 -0.000499 -0.003276 0.006290 0.000000 0.000000 0.000000
# 4 0.000000 0.000000 0.000000 0.129970 0.000000 0.000000
# 5 0.000000 0.000000 0.000000 0.000000 0.033724 0.000000
# 6 0.000000 0.000000 0.000000 0.000000 0.000000 0.024794
#
#
# Mechanical properties :
#
#
# Convention : Reuss Voigt Hill
#
# Bulk Modulus (GPa) = 65.15317 70.04025 67.59671
# Shear Modulus (GPa) = 20.86758 33.99417 27.43087
#
# Velocity S-wave (km/s) = 3.20852 4.09516 3.67865
# Velocity P-wave (km/s) = 6.77261 7.54410 7.16874
#
# Compressibility (1/GPa) = 0.01534845
#
# Stress axis : x y z
#
# Youngs Moduli (GPa) = 98.49104 70.26249 158.99483
#
# Poissons Ratio (x) = 0.27323 0.07935
# Poissons Ratio (y) = 0.38300 0.52079
# Poissons Ratio (z) = 0.04915 0.23015
#
# Static dielectric constant tensor:
#      x y z
#    x 3.595380 0.000000 0.000000 
#    y 0.000000 3.512780 0.000000 
#    z 0.000000 0.000000 5.063080 
# 
# 
# High freq. dielectric constant tensor:
#      x y z
#    x 1.803560 0.000000 0.000000 
#    y 0.000000 1.747540 0.000000 
#    z 0.000000 0.000000 1.819820 
# 
# From -- ./inp_files/18606.got.cif
#   From: 2010.03.12/outbox.cif.g09.slc.cpg/sg60_10_cif.got.tgz:18606.got - 2010.04.10 18:46:24.
