data_PCOD8247237
_publ_section_title
;
Structure prediction by ZEFSAII (Michael W. Deem and Ramdas Pophale) SiO2 
 PCOD8247237
Probable space group: P B C N
;
_chemical_formula_sum "Si O2"
_cell_formula_units_Z 48
_cell_length_a 11.787271
_cell_length_b 11.762879
_cell_length_c 18.098291
_cell_angle_alpha 90.000000
_cell_angle_beta 90.000000
_cell_angle_gamma 90.000000
_cell_volume 2509.368633
_symmetry_space_group_name_H-M "P B C N"
_symmetry_group_IT_number 60
_symmetry_cell_setting 'orthorhombic'
loop_
_space_group_symop_operation_xyz
x,y,z
1/2-x,1/2-y,1/2+z
1/2+x,1/2-y,-z
-x,y,1/2-z
-x,-y,-z
1/2+x,1/2+y,1/2-z
1/2-x,1/2+y,z
x,-y,1/2+z
loop_
_atom_site_type_symbol
_atom_site_label
_atom_site_fract_x
_atom_site_fract_y
_atom_site_fract_z
Si Si1 0.716143 0.832549 0.877012
Si Si2 0.842221 0.923560 0.013700
Si Si3 0.872748 0.748837 0.755285
Si Si4 0.862750 0.659008 0.601101
Si Si5 0.448596 0.020118 0.675914
Si Si6 0.913401 0.832315 0.473647
O O1 0.782760 0.824572 0.799475
O O2 0.627931 0.935110 0.870510
O O3 0.646044 0.719352 0.900094
O O4 0.809982 0.858907 0.938579
O O5 0.750152 0.904398 0.076522
O O6 0.959164 0.871561 0.044429
O O7 0.844497 0.058012 0.000257
O O8 0.828915 0.734727 0.671935
O O9 0.876752 0.628673 0.797533
O O10 0.000000 0.802756 0.750000
O O11 0.914196 0.737865 0.537350
O O12 0.953490 0.562071 0.620763
O O13 0.500000 0.960837 0.750000
#
# Coordination Sequence:
#
# PCOD8247237 Si02
#       6
#     8   8   8   8   8   8
#     4  11  21  35  59  82 111 147 184 234 283 338
#     4  10  21  36  53  79 111 145 186 230 277 334
#     4   9  19  37  57  80 108 142 181 222 280 337
#     4   9  20  37  58  78 109 147 182 229 283 334
#     4   9  20  36  54  81 109 138 185 231 274 331
#     4  10  22  36  53  80 111 145 187 229 276 335
#
# _framework density 19.128316999999999
#
# number of rings (size 3 to 8) (size 9 to 14) (size 15 to 20)
#    0.000    2.667    0.000    3.000    0.000   10.667 
#    0.000    0.000    0.000    2.000    0.000    0.000 
#    0.000    0.000    0.000    0.000    0.000    0.000 
#
# Total GULP energy -595154.385462 kJ/mol
# GULP energy per Si atom -12399.049697 kJ/mol
# Density = 1.908478 g / cm^3
# Si number density = 19.128317 Si / 1000 Ang^3
#
#
#
# Elastic Constant Matrix: (Units=GPa)
#
#
# Indices 1 2 3 4 5 6 
#
# 1 95.7407 48.6657 43.5130 0.0000 0.0000 0.0000
# 2 48.6657 63.8978 14.1196 0.0000 0.0000 0.0000
# 3 43.5130 14.1196 79.2700 0.0000 0.0000 0.0000
# 4 0.0000 0.0000 0.0000 19.6226 0.0000 0.0000
# 5 0.0000 0.0000 0.0000 0.0000 36.0828 0.0000
# 6 0.0000 0.0000 0.0000 0.0000 0.0000 28.0965
#
#
#
# Elastic Compliance Matrix: (Units=1/GPa)
#
#
# Indices 1 2 3 4 5 6 
#
# 1 0.022430 -0.014951 -0.009649 0.000000 0.000000 0.000000
# 2 -0.014951 0.026257 0.003530 0.000000 0.000000 0.000000
# 3 -0.009649 0.003530 0.017283 0.000000 0.000000 0.000000
# 4 0.000000 0.000000 0.000000 0.050962 0.000000 0.000000
# 5 0.000000 0.000000 0.000000 0.000000 0.027714 0.000000
# 6 0.000000 0.000000 0.000000 0.000000 0.000000 0.035592
#
#
# Mechanical properties :
#
#
# Convention : Reuss Voigt Hill
#
# Bulk Modulus (GPa) = 41.96469 50.16722 46.06596
# Shear Modulus (GPa) = 21.70888 25.60106 23.65497
#
# Velocity S-wave (km/s) = 3.37249 3.66236 3.52041
# Velocity P-wave (km/s) = 6.09517 6.64586 6.37646
#
# Compressibility (1/GPa) = 0.02382956
#
# Stress axis : x y z
#
# Youngs Moduli (GPa) = 44.58317 38.08538 57.86020
#
# Poissons Ratio (x) = 0.56941 0.55831
# Poissons Ratio (y) = 0.66656 -0.20425
# Poissons Ratio (z) = 0.43019 -0.13444
#
# Static dielectric constant tensor:
#      x y z
#    x 3.495510 0.000000 0.000000 
#    y 0.000000 3.343840 0.000000 
#    z 0.000000 0.000000 3.537170 
# 
# 
# High freq. dielectric constant tensor:
#      x y z
#    x 1.748580 0.000000 0.000000 
#    y 0.000000 1.731280 0.000000 
#    z 0.000000 0.000000 1.746130 
# 
# From -- ./inp_files/20022.got.cif
#   From: 2010.03.12/outbox.cif.g09.slc.cpg/sg60_11_cif.got.tgz:20022.got - 2010.04.10 18:46:24.
