data_PCOD8247733
_publ_section_title
;
Structure prediction by ZEFSAII (Michael W. Deem and Ramdas Pophale) SiO2 
 PCOD8247733
Probable space group: P B C N
;
_chemical_formula_sum "Si O2"
_cell_formula_units_Z 40
_cell_length_a 12.629908
_cell_length_b 10.668311
_cell_length_c 14.002801
_cell_angle_alpha 90.000000
_cell_angle_beta 90.000000
_cell_angle_gamma 90.000000
_cell_volume 1886.734416
_symmetry_space_group_name_H-M "P B C N"
_symmetry_group_IT_number 60
_symmetry_cell_setting 'orthorhombic'
loop_
_space_group_symop_operation_xyz
x,y,z
1/2-x,1/2-y,1/2+z
1/2+x,1/2-y,-z
-x,y,1/2-z
-x,-y,-z
1/2+x,1/2+y,1/2-z
1/2-x,1/2+y,z
x,-y,1/2+z
loop_
_atom_site_type_symbol
_atom_site_label
_atom_site_fract_x
_atom_site_fract_y
_atom_site_fract_z
Si Si1 0.063282 0.880795 0.036991
Si Si2 0.205815 0.446518 0.085263
Si Si3 0.158345 0.344612 0.442811
Si Si4 0.611611 0.985296 0.718412
Si Si5 0.634904 0.770829 0.582025
O O1 0.166540 0.929963 0.093163
O O2 0.981833 0.790170 0.094922
O O3 0.109492 0.793733 0.952847
O O4 0.000000 0.000000 0.000000
O O5 0.174792 0.449884 0.195987
O O6 0.163946 0.577767 0.041675
O O7 0.150388 0.335534 0.023303
O O8 0.088730 0.411061 0.362524
O O9 0.279959 0.339586 0.407237
O O10 0.500000 0.932017 0.750000
O O11 0.666752 0.868073 0.665825
#
# Coordination Sequence:
#
# PCOD8247733 Si02
#       5
#     8   8   8   8   8
#     4  11  21  40  70  93 126 176 214 259 328 378
#     4  10  22  42  68  93 126 170 214 261 326 385
#     4  10  22  41  63  92 128 162 212 268 312 378
#     4  11  23  40  63  93 123 166 214 260 323 384
#     4  10  22  40  66  90 129 163 210 270 311 375
#
# _framework density 21.200651000000001
#
# number of rings (size 3 to 8) (size 9 to 14) (size 15 to 20)
#    0.000    1.600    2.000    2.400    0.000    8.000 
#    3.600    0.000    0.000    0.000    0.000    0.000 
#    0.000    0.000    0.000    0.000    0.000    0.000 
#
# Total GULP energy -495605.281916 kJ/mol
# GULP energy per Si atom -12390.132048 kJ/mol
# Density = 2.115240 g / cm^3
# Si number density = 21.200651 Si / 1000 Ang^3
#
#
#
# Elastic Constant Matrix: (Units=GPa)
#
#
# Indices 1 2 3 4 5 6 
#
# 1 91.0467 22.3195 14.9624 0.0000 0.0000 0.0000
# 2 22.3195 93.3768 20.8299 0.0000 0.0000 0.0000
# 3 14.9624 20.8299 78.6179 0.0000 0.0000 0.0000
# 4 0.0000 0.0000 0.0000 10.0454 0.0000 0.0000
# 5 0.0000 0.0000 0.0000 0.0000 22.3131 0.0000
# 6 0.0000 0.0000 0.0000 0.0000 0.0000 46.7210
#
#
#
# Elastic Compliance Matrix: (Units=1/GPa)
#
#
# Indices 1 2 3 4 5 6 
#
# 1 0.011853 -0.002476 -0.001600 0.000000 0.000000 0.000000
# 2 -0.002476 0.011899 -0.002681 0.000000 0.000000 0.000000
# 3 -0.001600 -0.002681 0.013735 0.000000 0.000000 0.000000
# 4 0.000000 0.000000 0.000000 0.099548 0.000000 0.000000
# 5 0.000000 0.000000 0.000000 0.000000 0.044817 0.000000
# 6 0.000000 0.000000 0.000000 0.000000 0.000000 0.021404
#
#
# Mechanical properties :
#
#
# Convention : Reuss Voigt Hill
#
# Bulk Modulus (GPa) = 41.71505 42.14053 41.92779
# Shear Modulus (GPa) = 22.24579 29.47789 25.86184
#
# Velocity S-wave (km/s) = 3.24280 3.73288 3.49644
# Velocity P-wave (km/s) = 5.80862 6.20479 6.00997
#
# Compressibility (1/GPa) = 0.02397216
#
# Stress axis : x y z
#
# Youngs Moduli (GPa) = 84.36433 84.03800 72.80846
#
# Poissons Ratio (x) = 0.20811 0.11648
# Poissons Ratio (y) = 0.20892 0.19523
# Poissons Ratio (z) = 0.13496 0.22534
#
# Static dielectric constant tensor:
#      x y z
#    x 4.185270 0.000000 0.000000 
#    y 0.000000 3.889710 0.000000 
#    z 0.000000 0.000000 3.540550 
# 
# 
# High freq. dielectric constant tensor:
#      x y z
#    x 1.845500 0.000000 0.000000 
#    y 0.000000 1.839240 0.000000 
#    z 0.000000 0.000000 1.802650 
# 
# From -- ./inp_files/11700.got.cif
#   From: 2010.03.12/outbox.cif.g09.slc.cpg/sg60_6_cif.got.tgz:11700.got - 2010.04.10 18:46:24.
