data_PCOD8247580
_publ_section_title
;
Structure prediction by ZEFSAII (Michael W. Deem and Ramdas Pophale) SiO2 
 PCOD8247580
Probable space group: P B C N
;
_chemical_formula_sum "Si O2"
_cell_formula_units_Z 64
_cell_length_a 10.526522
_cell_length_b 9.048775
_cell_length_c 30.887924
_cell_angle_alpha 90.000000
_cell_angle_beta 90.000000
_cell_angle_gamma 90.000000
_cell_volume 2942.140525
_symmetry_space_group_name_H-M "P B C N"
_symmetry_group_IT_number 60
_symmetry_cell_setting 'orthorhombic'
loop_
_space_group_symop_operation_xyz
x,y,z
1/2-x,1/2-y,1/2+z
1/2+x,1/2-y,-z
-x,y,1/2-z
-x,-y,-z
1/2+x,1/2+y,1/2-z
1/2-x,1/2+y,z
x,-y,1/2+z
loop_
_atom_site_type_symbol
_atom_site_label
_atom_site_fract_x
_atom_site_fract_y
_atom_site_fract_z
Si Si1 0.287545 0.309649 0.061913
Si Si2 0.924600 0.102919 0.420793
Si Si3 0.876544 0.303514 0.775977
Si Si4 0.967890 0.329589 0.869341
Si Si5 0.832472 0.187067 0.035790
Si Si6 0.334985 0.988212 0.415046
Si Si7 0.599442 0.468095 0.144602
Si Si8 0.135682 0.976875 0.756701
O O1 0.142408 0.264014 0.074565
O O2 0.314269 0.483979 0.067395
O O3 0.374568 0.216935 0.093324
O O4 0.322558 0.259951 0.013378
O O5 0.040774 0.088359 0.455350
O O6 0.979292 0.067831 0.372290
O O7 0.889434 0.358996 0.825365
O O8 0.864939 0.125899 0.772505
O O9 0.749422 0.372048 0.756766
O O10 0.000000 0.360438 0.750000
O O11 0.039465 0.473459 0.887613
O O12 0.071366 0.204426 0.859935
O O13 0.850115 0.324482 0.067697
O O14 0.700185 0.100443 0.045674
O O15 0.217242 0.010339 0.383937
O O16 0.645533 0.492635 0.192890
O O17 0.000000 0.895127 0.750000
#
# Coordination Sequence:
#
# PCOD8247580 Si02
#       8
#     8   8   8   8   8   8   8   8
#     4  11  25  41  66  91 139 174 221 283 328 391
#     4  10  25  42  65  96 131 177 220 277 331 398
#     4  11  24  45  69 102 133 173 222 276 339 406
#     4  11  23  41  67  95 134 172 218 279 334 385
#     4  11  24  42  66  96 132 176 231 267 333 392
#     4  11  23  41  69  98 129 177 226 274 324 402
#     4  10  21  44  67  95 128 170 218 268 332 393
#     4  11  24  42  72  96 135 173 213 276 335 411
#
# _framework density 21.752867999999999
#
# number of rings (size 3 to 8) (size 9 to 14) (size 15 to 20)
#    0.000    1.250    3.750    1.875    5.250    1.000 
#    0.000    0.000    0.000    0.000    0.000    0.000 
#    0.000    0.000    0.000    0.000    0.000    0.000 
#
# Total GULP energy -793463.921761 kJ/mol
# GULP energy per Si atom -12397.873778 kJ/mol
# Density = 2.170336 g / cm^3
# Si number density = 21.752868 Si / 1000 Ang^3
#
#
#
# Elastic Constant Matrix: (Units=GPa)
#
#
# Indices 1 2 3 4 5 6 
#
# 1 101.8509 26.1306 16.4436 0.0000 0.0000 0.0000
# 2 26.1306 61.1906 11.8527 0.0000 0.0000 0.0000
# 3 16.4436 11.8527 86.0444 0.0000 0.0000 0.0000
# 4 0.0000 0.0000 0.0000 20.3694 0.0000 0.0000
# 5 0.0000 0.0000 0.0000 0.0000 23.1953 0.0000
# 6 0.0000 0.0000 0.0000 0.0000 0.0000 41.2952
#
#
#
# Elastic Compliance Matrix: (Units=1/GPa)
#
#
# Indices 1 2 3 4 5 6 
#
# 1 0.011218 -0.004495 -0.001525 0.000000 0.000000 0.000000
# 2 -0.004495 0.018592 -0.001702 0.000000 0.000000 0.000000
# 3 -0.001525 -0.001702 0.012148 0.000000 0.000000 0.000000
# 4 0.000000 0.000000 0.000000 0.049093 0.000000 0.000000
# 5 0.000000 0.000000 0.000000 0.000000 0.043112 0.000000
# 6 0.000000 0.000000 0.000000 0.000000 0.000000 0.024216
#
#
# Mechanical properties :
#
#
# Convention : Reuss Voigt Hill
#
# Bulk Modulus (GPa) = 37.71621 39.77107 38.74364
# Shear Modulus (GPa) = 27.37336 29.94925 28.66131
#
# Velocity S-wave (km/s) = 3.55121 3.71454 3.63380
# Velocity P-wave (km/s) = 5.84730 6.05970 5.95445
#
# Compressibility (1/GPa) = 0.02651380
#
# Stress axis : x y z
#
# Youngs Moduli (GPa) = 89.14526 53.78776 82.32000
#
# Poissons Ratio (x) = 0.24178 0.12550
# Poissons Ratio (y) = 0.40071 0.14011
# Poissons Ratio (z) = 0.13591 0.09155
#
# Static dielectric constant tensor:
#      x y z
#    x -52.267180 0.000000 0.000000 
#    y 0.000000 4.093510 0.000000 
#    z 0.000000 0.000000 4.153930 
# 
# 
# High freq. dielectric constant tensor:
#      x y z
#    x 1.863000 0.000000 0.000000 
#    y 0.000000 1.839290 0.000000 
#    z 0.000000 0.000000 1.863210 
# 
# From -- ./inp_files/26110.got.cif
#   From: 2010.03.12/outbox.cif.g09.slc.cpg/sg60_14_cif.got.tgz:26110.got - 2010.04.10 18:46:24.
