data_PCOD8247003
_publ_section_title
;
Structure prediction by ZEFSAII (Michael W. Deem and Ramdas Pophale) SiO2 
 PCOD8247003
Probable space group: P B C N
;
_chemical_formula_sum "Si O2"
_cell_formula_units_Z 60
_cell_length_a 29.392270
_cell_length_b 13.158039
_cell_length_c 9.029549
_cell_angle_alpha 90.000000
_cell_angle_beta 90.000000
_cell_angle_gamma 90.000000
_cell_volume 3492.129632
_symmetry_space_group_name_H-M "P B C N"
_symmetry_group_IT_number 60
_symmetry_cell_setting 'orthorhombic'
loop_
_space_group_symop_operation_xyz
x,y,z
1/2-x,1/2-y,1/2+z
1/2+x,1/2-y,-z
-x,y,1/2-z
-x,-y,-z
1/2+x,1/2+y,1/2-z
1/2-x,1/2+y,z
x,-y,1/2+z
loop_
_atom_site_type_symbol
_atom_site_label
_atom_site_fract_x
_atom_site_fract_y
_atom_site_fract_z
Si Si1 0.196398 0.594866 0.914591
Si Si2 0.788418 0.696988 0.876802
Si Si3 0.188193 0.111678 0.648981
Si Si4 0.361676 0.085530 0.421749
Si Si5 0.705203 0.415904 0.017678
Si Si6 0.134273 0.302298 0.627126
Si Si7 0.500000 0.986405 0.250000
Si Si8 0.062000 0.435565 0.500421
O O1 0.201421 0.687304 0.798157
O O2 0.163738 0.509329 0.843490
O O3 0.244358 0.542901 0.950184
O O4 0.177779 0.634510 0.070929
O O5 0.736952 0.657016 0.903315
O O6 0.826824 0.632669 0.960874
O O7 0.792682 0.813869 0.920995
O O8 0.181924 0.103475 0.825290
O O9 0.146170 0.184322 0.603472
O O10 0.179071 0.002735 0.574063
O O11 0.374824 0.168436 0.298209
O O12 0.407468 0.039328 0.496661
O O13 0.091467 0.333739 0.525546
O O14 0.527369 0.057548 0.363094
O O15 0.535006 0.918516 0.153662
#
# Coordination Sequence:
#
# PCOD8247003 Si02
#       8
#     8   8   8   8   8   8   4   8
#     4  10  21  31  52  72 104 148 194 237 269 319
#     4  11  22  35  51  74 109 152 204 239 271 318
#     4  11  24  36  52  73 108 152 203 245 274 315
#     4  11  20  36  53  81 110 154 190 223 275 334
#     4  11  23  35  50  72 103 151 201 247 271 303
#     4  11  21  35  52  79 109 151 188 224 278 335
#     4  10  20  38  58  88 116 146 172 220 300 360
#     4  10  21  36  59  85 120 146 175 228 284 367
#
# _framework density 17.181494000000001
#
# number of rings (size 3 to 8) (size 9 to 14) (size 15 to 20)
#    0.000    1.333    5.333    1.600    5.600    0.000 
#    0.000    0.000    0.000    0.000    0.000    0.000 
#    0.000   18.133    0.000    0.000    0.000    0.000 
#
# Total GULP energy -743686.866547 kJ/mol
# GULP energy per Si atom -12394.781109 kJ/mol
# Density = 1.714239 g / cm^3
# Si number density = 17.181494 Si / 1000 Ang^3
#
#
#
# Elastic Constant Matrix: (Units=GPa)
#
#
# Indices 1 2 3 4 5 6 
#
# 1 72.0027 32.6361 29.3406 0.0000 0.0000 0.0000
# 2 32.6361 109.1002 35.5718 0.0000 0.0000 0.0000
# 3 29.3406 35.5718 80.2044 0.0000 0.0000 0.0000
# 4 0.0000 0.0000 0.0000 26.2536 0.0000 0.0000
# 5 0.0000 0.0000 0.0000 0.0000 26.7482 0.0000
# 6 0.0000 0.0000 0.0000 0.0000 0.0000 19.8496
#
#
#
# Elastic Compliance Matrix: (Units=1/GPa)
#
#
# Indices 1 2 3 4 5 6 
#
# 1 0.017500 -0.003680 -0.004770 0.000000 0.000000 0.000000
# 2 -0.003680 0.011489 -0.003749 0.000000 0.000000 0.000000
# 3 -0.004770 -0.003749 0.015876 0.000000 0.000000 0.000000
# 4 0.000000 0.000000 0.000000 0.038090 0.000000 0.000000
# 5 0.000000 0.000000 0.000000 0.000000 0.037386 0.000000
# 6 0.000000 0.000000 0.000000 0.000000 0.000000 0.050379
#
#
# Mechanical properties :
#
#
# Convention : Reuss Voigt Hill
#
# Bulk Modulus (GPa) = 48.85919 50.71158 49.78539
# Shear Modulus (GPa) = 24.75981 25.48752 25.12367
#
# Velocity S-wave (km/s) = 3.80027 3.85571 3.82809
# Velocity P-wave (km/s) = 6.91049 7.02861 6.96980
#
# Compressibility (1/GPa) = 0.02046698
#
# Stress axis : x y z
#
# Youngs Moduli (GPa) = 57.14305 87.03880 62.98804
#
# Poissons Ratio (x) = 0.32028 0.30045
# Poissons Ratio (y) = 0.21027 0.23617
# Poissons Ratio (z) = 0.27257 0.32635
#
# Static dielectric constant tensor:
#      x y z
#    x 3.176420 0.000000 0.000000 
#    y 0.000000 3.085030 0.000000 
#    z 0.000000 0.000000 3.312760 
# 
# 
# High freq. dielectric constant tensor:
#      x y z
#    x 1.635820 0.000000 0.000000 
#    y 0.000000 1.638240 0.000000 
#    z 0.000000 0.000000 1.678400 
# 
# From -- ./inp_files/8462.got.cif
#   From: 2010.03.12/outbox.cif.g09.slc.cpg/sg60_5_cif.got.tgz:8462.got - 2010.04.10 18:46:24.
