data_PCOD8247077
_publ_section_title
;
Structure prediction by ZEFSAII (Michael W. Deem and Ramdas Pophale) SiO2 
 PCOD8247077
Probable space group: P B C N
;
_chemical_formula_sum "Si O2"
_cell_formula_units_Z 64
_cell_length_a 19.312951
_cell_length_b 9.132115
_cell_length_c 18.572889
_cell_angle_alpha 90.000000
_cell_angle_beta 90.000000
_cell_angle_gamma 90.000000
_cell_volume 3275.664950
_symmetry_space_group_name_H-M "P B C N"
_symmetry_group_IT_number 60
_symmetry_cell_setting 'orthorhombic'
loop_
_space_group_symop_operation_xyz
x,y,z
1/2-x,1/2-y,1/2+z
1/2+x,1/2-y,-z
-x,y,1/2-z
-x,-y,-z
1/2+x,1/2+y,1/2-z
1/2-x,1/2+y,z
x,-y,1/2+z
loop_
_atom_site_type_symbol
_atom_site_label
_atom_site_fract_x
_atom_site_fract_y
_atom_site_fract_z
Si Si1 0.680408 0.474638 0.360920
Si Si2 0.066134 0.948269 0.406446
Si Si3 0.193983 0.944913 0.303583
Si Si4 0.971837 0.335713 0.672383
Si Si5 0.561272 0.361670 0.935215
Si Si6 0.818195 0.629499 0.379377
Si Si7 0.052517 0.522011 0.566818
Si Si8 0.176605 0.387209 0.786355
O O1 0.678108 0.504950 0.275793
O O2 0.608671 0.543901 0.383764
O O3 0.743637 0.560883 0.398955
O O4 0.684009 0.305019 0.383794
O O5 0.023230 0.816403 0.370483
O O6 0.088369 0.891434 0.484453
O O7 0.133402 0.991194 0.359169
O O8 0.017677 0.090018 0.418471
O O9 0.268386 0.008920 0.326594
O O10 0.205556 0.773779 0.298443
O O11 0.895354 0.402825 0.672450
O O12 0.000000 0.294083 0.750000
O O13 0.017651 0.461347 0.638404
O O14 0.568916 0.190625 0.920020
O O15 0.874451 0.566914 0.437145
O O16 0.835660 0.577614 0.297953
O O17 0.000000 0.500000 0.500000
#
# Coordination Sequence:
#
# PCOD8247077 Si02
#       8
#     8   8   8   8   8   8   8   8
#     4  10  21  39  66  93 119 164 208 259 309 376
#     4  10  23  41  62  87 124 163 209 256 313 373
#     4   9  20  38  61  91 120 157 204 254 312 362
#     4  11  21  41  68  89 119 167 210 252 318 375
#     4  11  24  40  60  89 129 164 205 256 311 376
#     4  10  20  39  63  89 124 160 208 256 312 372
#     4  12  24  41  61  91 127 165 208 261 314 373
#     4   9  19  36  63  89 118 155 200 260 308 367
#
# _framework density 19.538017
#
# number of rings (size 3 to 8) (size 9 to 14) (size 15 to 20)
#    0.000    1.750    2.500    1.500    5.250    2.000 
#    4.500    1.250    0.000    0.000    0.000    0.000 
#    0.000    0.000    0.000    0.000    0.000    0.000 
#
# Total GULP energy -793461.852235 kJ/mol
# GULP energy per Si atom -12397.841441 kJ/mol
# Density = 1.949355 g / cm^3
# Si number density = 19.538017 Si / 1000 Ang^3
#
#
#
# Elastic Constant Matrix: (Units=GPa)
#
#
# Indices 1 2 3 4 5 6 
#
# 1 103.5795 40.2003 28.5869 0.0000 0.0000 0.0000
# 2 40.2003 88.2012 11.9754 0.0000 0.0000 0.0000
# 3 28.5869 11.9754 56.5580 0.0000 0.0000 0.0000
# 4 0.0000 0.0000 0.0000 70.2425 0.0000 0.0000
# 5 0.0000 0.0000 0.0000 0.0000 37.3067 0.0000
# 6 0.0000 0.0000 0.0000 0.0000 0.0000 38.6671
#
#
#
# Elastic Compliance Matrix: (Units=1/GPa)
#
#
# Indices 1 2 3 4 5 6 
#
# 1 0.013242 -0.005278 -0.005575 0.000000 0.000000 0.000000
# 2 -0.005278 0.013777 -0.000249 0.000000 0.000000 0.000000
# 3 -0.005575 -0.000249 0.020552 0.000000 0.000000 0.000000
# 4 0.000000 0.000000 0.000000 0.014236 0.000000 0.000000
# 5 0.000000 0.000000 0.000000 0.000000 0.026805 0.000000
# 6 0.000000 0.000000 0.000000 0.000000 0.000000 0.025862
#
#
# Mechanical properties :
#
#
# Convention : Reuss Voigt Hill
#
# Bulk Modulus (GPa) = 39.42452 45.54047 42.48249
# Shear Modulus (GPa) = 34.45077 40.41501 37.43289
#
# Velocity S-wave (km/s) = 4.20368 4.55305 4.38185
# Velocity P-wave (km/s) = 6.61691 7.14140 6.88415
#
# Compressibility (1/GPa) = 0.02536493
#
# Stress axis : x y z
#
# Youngs Moduli (GPa) = 75.51881 72.58310 48.65764
#
# Poissons Ratio (x) = 0.38312 0.27128
# Poissons Ratio (y) = 0.39861 0.01213
# Poissons Ratio (z) = 0.42104 0.01809
#
# Static dielectric constant tensor:
#      x y z
#    x 3.778550 0.000000 0.000000 
#    y 0.000000 3.583050 0.000000 
#    z 0.000000 0.000000 3.574750 
# 
# 
# High freq. dielectric constant tensor:
#      x y z
#    x 1.773020 0.000000 0.000000 
#    y 0.000000 1.762170 0.000000 
#    z 0.000000 0.000000 1.747560 
# 
# From -- ./inp_files/23098.got.cif
#   From: 2010.03.12/outbox.cif.g09.slc.cpg/sg60_12_cif.got.tgz:23098.got - 2010.04.10 18:46:24.
