data_PCOD8247448
_publ_section_title
;
Structure prediction by ZEFSAII (Michael W. Deem and Ramdas Pophale) SiO2 
 PCOD8247448
Probable space group: P B C N
;
_chemical_formula_sum "Si O2"
_cell_formula_units_Z 36
_cell_length_a 5.278930
_cell_length_b 21.450813
_cell_length_c 14.355047
_cell_angle_alpha 90.000000
_cell_angle_beta 90.000000
_cell_angle_gamma 90.000000
_cell_volume 1625.527342
_symmetry_space_group_name_H-M "P B C N"
_symmetry_group_IT_number 60
_symmetry_cell_setting 'orthorhombic'
loop_
_space_group_symop_operation_xyz
x,y,z
1/2-x,1/2-y,1/2+z
1/2+x,1/2-y,-z
-x,y,1/2-z
-x,-y,-z
1/2+x,1/2+y,1/2-z
1/2-x,1/2+y,z
x,-y,1/2+z
loop_
_atom_site_type_symbol
_atom_site_label
_atom_site_fract_x
_atom_site_fract_y
_atom_site_fract_z
Si Si1 0.225658 0.451853 0.640840
Si Si2 0.190233 0.187676 0.579913
Si Si3 0.000000 0.117965 0.750000
Si Si4 0.809239 0.671926 0.465823
Si Si5 0.226931 0.003262 0.841943
O O1 0.181053 0.380651 0.613032
O O2 0.485856 0.479965 0.597044
O O3 0.249012 0.457827 0.752210
O O4 0.990597 0.494604 0.602580
O O5 0.173059 0.160889 0.684141
O O6 0.184266 0.262370 0.587152
O O7 0.450546 0.164514 0.533823
O O8 0.949336 0.163296 0.522525
O O9 0.189691 0.074693 0.810440
#
# Coordination Sequence:
#
# PCOD8247448 Si02
#       5
#     8   8   4   8   8
#     4   9  17  35  57  78 114 146 179 238 273 313
#     4  10  23  38  60  83 116 149 188 236 283 347
#     4  10  22  42  58  82 116 154 184 232 292 340
#     4  10  21  40  58  87 114 146 192 238 285 333
#     4   9  20  34  55  85 113 147 194 227 265 340
#
# _framework density 22.146657999999999
#
# number of rings (size 3 to 8) (size 9 to 14) (size 15 to 20)
#    0.000    2.667    0.000    1.333    0.000    9.778 
#    0.000   20.000    0.000    0.000    0.000    0.000 
#    0.000    0.000    0.000    0.000    0.000    0.000 
#
# Total GULP energy -446157.456893 kJ/mol
# GULP energy per Si atom -12393.262691 kJ/mol
# Density = 2.209625 g / cm^3
# Si number density = 22.146658 Si / 1000 Ang^3
#
#
#
# Elastic Constant Matrix: (Units=GPa)
#
#
# Indices 1 2 3 4 5 6 
#
# 1 190.6554 33.3531 8.9329 0.0000 0.0000 0.0000
# 2 33.3531 116.9978 53.7845 0.0000 0.0000 0.0000
# 3 8.9329 53.7845 52.6126 0.0000 0.0000 0.0000
# 4 0.0000 0.0000 0.0000 35.8748 0.0000 0.0000
# 5 0.0000 0.0000 0.0000 0.0000 12.4063 0.0000
# 6 0.0000 0.0000 0.0000 0.0000 0.0000 39.7155
#
#
#
# Elastic Compliance Matrix: (Units=1/GPa)
#
#
# Indices 1 2 3 4 5 6 
#
# 1 0.005565 -0.002174 0.001277 0.000000 0.000000 0.000000
# 2 -0.002174 0.016974 -0.016983 0.000000 0.000000 0.000000
# 3 0.001277 -0.016983 0.036151 0.000000 0.000000 0.000000
# 4 0.000000 0.000000 0.000000 0.027875 0.000000 0.000000
# 5 0.000000 0.000000 0.000000 0.000000 0.080604 0.000000
# 6 0.000000 0.000000 0.000000 0.000000 0.000000 0.025179
#
#
# Mechanical properties :
#
#
# Convention : Reuss Voigt Hill
#
# Bulk Modulus (GPa) = 43.60773 61.37853 52.49313
# Shear Modulus (GPa) = 21.20873 35.21233 28.21053
#
# Velocity S-wave (km/s) = 3.09795 3.99176 3.57291
# Velocity P-wave (km/s) = 5.70347 7.00145 6.38552
#
# Compressibility (1/GPa) = 0.02293171
#
# Stress axis : x y z
#
# Youngs Moduli (GPa) = 179.67874 58.91346 27.66146
#
# Poissons Ratio (x) = 0.12806 -0.03533
# Poissons Ratio (y) = 0.39057 0.46978
# Poissons Ratio (z) = -0.22948 1.00053
#
# Static dielectric constant tensor:
#      x y z
#    x 5.692720 0.000000 0.000000 
#    y 0.000000 3.929020 0.000000 
#    z 0.000000 0.000000 3.489600 
# 
# 
# High freq. dielectric constant tensor:
#      x y z
#    x 1.904060 0.000000 0.000000 
#    y 0.000000 1.869200 0.000000 
#    z 0.000000 0.000000 1.835490 
# 
# From -- ./inp_files/13714.got.cif
#   From: 2010.03.12/outbox.cif.g09.slc.cpg/sg60_7_cif.got.tgz:13714.got - 2010.04.10 18:46:24.
