data_PCOD8247131
_publ_section_title
;
Structure prediction by ZEFSAII (Michael W. Deem and Ramdas Pophale) SiO2 
 PCOD8247131
Probable space group: P B C N
;
_chemical_formula_sum "Si O2"
_cell_formula_units_Z 60
_cell_length_a 10.713429
_cell_length_b 8.840993
_cell_length_c 27.537429
_cell_angle_alpha 90.000000
_cell_angle_beta 90.000000
_cell_angle_gamma 90.000000
_cell_volume 2608.272323
_symmetry_space_group_name_H-M "P B C N"
_symmetry_group_IT_number 60
_symmetry_cell_setting 'orthorhombic'
loop_
_space_group_symop_operation_xyz
x,y,z
1/2-x,1/2-y,1/2+z
1/2+x,1/2-y,-z
-x,y,1/2-z
-x,-y,-z
1/2+x,1/2+y,1/2-z
1/2-x,1/2+y,z
x,-y,1/2+z
loop_
_atom_site_type_symbol
_atom_site_label
_atom_site_fract_x
_atom_site_fract_y
_atom_site_fract_z
Si Si1 0.138672 0.300427 0.254466
Si Si2 0.159647 0.022097 0.799341
Si Si3 0.199963 0.308347 0.674320
Si Si4 0.000000 0.729345 0.250000
Si Si5 0.753163 0.265659 0.044267
Si Si6 0.857974 0.509533 0.985481
Si Si7 0.410635 0.473633 0.907304
Si Si8 0.812074 0.048206 0.894112
O O1 0.199288 0.413274 0.294537
O O2 0.208994 0.308145 0.202829
O O3 0.000000 0.362377 0.250000
O O4 0.142085 0.121917 0.265463
O O5 0.119933 0.965462 0.851276
O O6 0.077268 0.165062 0.785582
O O7 0.273764 0.449485 0.652523
O O8 0.091345 0.363743 0.712898
O O9 0.152405 0.213104 0.627461
O O10 0.664783 0.381521 0.072975
O O11 0.869198 0.192902 0.073997
O O12 0.801878 0.344420 0.995373
O O13 0.677710 0.121753 0.028121
O O14 0.804635 0.557851 0.932425
O O15 0.000000 0.500000 0.000000
O O16 0.559304 0.487732 0.918731
#
# Coordination Sequence:
#
# PCOD8247131 Si02
#       8
#     8   8   8   4   8   8   8   8
#     4  11  23  42  64  96 144 183 230 284 358 418
#     4  11  21  42  66  95 136 187 228 290 343 416
#     4  11  24  44  68 107 131 194 234 295 346 422
#     4  10  20  40  68  94 144 174 228 288 346 406
#     4  10  26  46  70 107 137 188 225 303 377 418
#     4  11  27  46  72 106 145 180 239 302 367 441
#     4  11  24  46  74 102 142 184 244 294 364 439
#     4  12  26  45  76 103 142 190 247 293 363 438
#
# _framework density 23.003733
#
# number of rings (size 3 to 8) (size 9 to 14) (size 15 to 20)
#    0.000    1.067    2.000    4.000    7.467    1.067 
#   13.200    0.000    0.000    0.000    0.000    0.000 
#    0.000    0.000    0.000    0.000    0.000    0.000 
#
# Total GULP energy -743330.659016 kJ/mol
# GULP energy per Si atom -12388.844317 kJ/mol
# Density = 2.295138 g / cm^3
# Si number density = 23.003733 Si / 1000 Ang^3
#
#
#
# Elastic Constant Matrix: (Units=GPa)
#
#
# Indices 1 2 3 4 5 6 
#
# 1 158.7752 16.4164 36.9178 0.0000 0.0000 0.0000
# 2 16.4164 59.0804 10.3119 0.0000 0.0000 0.0000
# 3 36.9178 10.3119 85.3044 0.0000 0.0000 0.0000
# 4 0.0000 0.0000 0.0000 29.0851 0.0000 0.0000
# 5 0.0000 0.0000 0.0000 0.0000 36.3005 0.0000
# 6 0.0000 0.0000 0.0000 0.0000 0.0000 0.0643
#
#
#
# Elastic Compliance Matrix: (Units=1/GPa)
#
#
# Indices 1 2 3 4 5 6 
#
# 1 0.007126 -0.001473 -0.002906 0.000000 0.000000 0.000000
# 2 -0.001473 0.017595 -0.001490 0.000000 0.000000 0.000000
# 3 -0.002906 -0.001490 0.013160 0.000000 0.000000 0.000000
# 4 0.000000 0.000000 0.000000 0.034382 0.000000 0.000000
# 5 0.000000 0.000000 0.000000 0.000000 0.027548 0.000000
# 6 0.000000 0.000000 0.000000 0.000000 0.000000 15.548850
#
#
# Mechanical properties :
#
#
# Convention : Reuss Voigt Hill
#
# Bulk Modulus (GPa) = 38.24814 47.82801 43.03807
# Shear Modulus (GPa) = 0.31910 29.05758 14.68834
#
# Velocity S-wave (km/s) = 0.37285 3.55796 2.52964
# Velocity P-wave (km/s) = 4.10468 6.14128 5.22320
#
# Compressibility (1/GPa) = 0.02614506
#
# Stress axis : x y z
#
# Youngs Moduli (GPa) = 140.32734 56.83319 75.98533
#
# Poissons Ratio (x) = 0.08371 0.22081
# Poissons Ratio (y) = 0.20669 0.11318
# Poissons Ratio (z) = 0.40779 0.08466
#
# Static dielectric constant tensor:
#      x y z
#    x 4.788190 0.000000 0.000000 
#    y 0.000000 4.196600 0.000000 
#    z 0.000000 0.000000 4.082990 
# 
# 
# High freq. dielectric constant tensor:
#      x y z
#    x 1.913380 0.000000 0.000000 
#    y 0.000000 1.922220 0.000000 
#    z 0.000000 0.000000 1.903510 
# 
# From -- ./inp_files/26073.got.cif
#   From: 2010.03.12/outbox.cif.g09.slc.cpg/sg60_14_cif.got.tgz:26073.got - 2010.04.10 18:46:24.
