data_PCOD8247979
_publ_section_title
;
Structure prediction by ZEFSAII (Michael W. Deem and Ramdas Pophale) SiO2 
 PCOD8247979
Probable space group: P B C N
;
_chemical_formula_sum "Si O2"
_cell_formula_units_Z 28
_cell_length_a 7.283595
_cell_length_b 17.604197
_cell_length_c 10.642518
_cell_angle_alpha 90.000000
_cell_angle_beta 90.000000
_cell_angle_gamma 90.000000
_cell_volume 1364.603253
_symmetry_space_group_name_H-M "P B C N"
_symmetry_group_IT_number 60
_symmetry_cell_setting 'orthorhombic'
loop_
_space_group_symop_operation_xyz
x,y,z
1/2-x,1/2-y,1/2+z
1/2+x,1/2-y,-z
-x,y,1/2-z
-x,-y,-z
1/2+x,1/2+y,1/2-z
1/2-x,1/2+y,z
x,-y,1/2+z
loop_
_atom_site_type_symbol
_atom_site_label
_atom_site_fract_x
_atom_site_fract_y
_atom_site_fract_z
Si Si1 0.807623 0.921415 0.697735
Si Si2 0.362355 0.789386 0.646266
Si Si3 0.000000 0.539435 0.750000
Si Si4 0.845460 0.647802 0.961836
O O1 0.760671 0.854849 0.794153
O O2 0.808373 0.887930 0.555490
O O3 0.000000 0.954589 0.750000
O O4 0.657940 0.987512 0.691321
O O5 0.500000 0.755117 0.750000
O O6 0.470812 0.828101 0.533139
O O7 0.234274 0.722277 0.601841
O O8 0.904684 0.588601 0.856932
#
# Coordination Sequence:
#
# PCOD8247979 Si02
#       4
#     8   8   4   8
#     4  11  24  46  68  99 139 182 230 284 343 414
#     4  10  23  42  69 100 132 179 234 278 339 407
#     4  12  26  44  68 104 144 176 224 288 358 406
#     4  11  24  43  71  98 144 177 231 291 340 410
#
# _framework density 20.518785000000001
#
# number of rings (size 3 to 8) (size 9 to 14) (size 15 to 20)
#    0.000    1.143    4.286    2.571   10.000    2.286 
#    0.000    0.000    0.000    0.000    0.000    0.000 
#    0.000    0.000    0.000    0.000    0.000    0.000 
#
# Total GULP energy -347229.063483 kJ/mol
# GULP energy per Si atom -12401.037982 kJ/mol
# Density = 2.047208 g / cm^3
# Si number density = 20.518785 Si / 1000 Ang^3
#
#
#
# Elastic Constant Matrix: (Units=GPa)
#
#
# Indices 1 2 3 4 5 6 
#
# 1 51.6342 -11.7111 9.6433 0.0000 0.0000 0.0000
# 2 -11.7111 60.9274 30.4081 0.0000 0.0000 0.0000
# 3 9.6433 30.4081 91.8115 0.0000 0.0000 0.0000
# 4 0.0000 0.0000 0.0000 6.5934 0.0000 0.0000
# 5 0.0000 0.0000 0.0000 0.0000 17.9546 0.0000
# 6 0.0000 0.0000 0.0000 0.0000 0.0000 3.3661
#
#
#
# Elastic Compliance Matrix: (Units=1/GPa)
#
#
# Indices 1 2 3 4 5 6 
#
# 1 0.021620 0.006336 -0.004369 0.000000 0.000000 0.000000
# 2 0.006336 0.021520 -0.007793 0.000000 0.000000 0.000000
# 3 -0.004369 -0.007793 0.013932 0.000000 0.000000 0.000000
# 4 0.000000 0.000000 0.000000 0.151667 0.000000 0.000000
# 5 0.000000 0.000000 0.000000 0.000000 0.055696 0.000000
# 6 0.000000 0.000000 0.000000 0.000000 0.000000 0.297076
#
#
# Mechanical properties :
#
#
# Convention : Reuss Voigt Hill
#
# Bulk Modulus (GPa) = 22.01663 29.00597 25.51130
# Shear Modulus (GPa) = 8.49900 17.31833 12.90867
#
# Velocity S-wave (km/s) = 2.03741 2.90836 2.51094
# Velocity P-wave (km/s) = 4.03584 5.04431 4.56799
#
# Compressibility (1/GPa) = 0.04542021
#
# Stress axis : x y z
#
# Youngs Moduli (GPa) = 46.25299 46.46752 71.77756
#
# Poissons Ratio (x) = -0.29444 0.31363
# Poissons Ratio (y) = -0.29308 0.55937
# Poissons Ratio (z) = 0.20210 0.36213
#
# Static dielectric constant tensor:
#      x y z
#    x 3.828490 0.000000 0.000000 
#    y 0.000000 3.781660 0.000000 
#    z 0.000000 0.000000 5.438100 
# 
# 
# High freq. dielectric constant tensor:
#      x y z
#    x 1.802330 0.000000 0.000000 
#    y 0.000000 1.809530 0.000000 
#    z 0.000000 0.000000 1.817370 
# 
# From -- ./inp_files/3472.got.cif
#   From: 2010.03.12/outbox.cif.g09.slc.cpg/sg60_2_cif.got.tgz:3472.got - 2010.04.10 18:46:24.
