data_PCOD8247241
_publ_section_title
;
Structure prediction by ZEFSAII (Michael W. Deem and Ramdas Pophale) SiO2 
 PCOD8247241
Probable space group: P B C N
;
_chemical_formula_sum "Si O2"
_cell_formula_units_Z 48
_cell_length_a 7.381699
_cell_length_b 13.239432
_cell_length_c 21.055311
_cell_angle_alpha 90.000000
_cell_angle_beta 90.000000
_cell_angle_gamma 90.000000
_cell_volume 2057.725058
_symmetry_space_group_name_H-M "P B C N"
_symmetry_group_IT_number 60
_symmetry_cell_setting 'orthorhombic'
loop_
_space_group_symop_operation_xyz
x,y,z
1/2-x,1/2-y,1/2+z
1/2+x,1/2-y,-z
-x,y,1/2-z
-x,-y,-z
1/2+x,1/2+y,1/2-z
1/2-x,1/2+y,z
x,-y,1/2+z
loop_
_atom_site_type_symbol
_atom_site_label
_atom_site_fract_x
_atom_site_fract_y
_atom_site_fract_z
Si Si1 0.500000 0.764902 0.250000
Si Si2 0.717413 0.865518 0.349762
Si Si3 0.045027 0.201358 0.074068
Si Si4 0.315392 0.603442 0.320494
Si Si5 0.321784 0.131393 0.984177
Si Si6 0.500000 0.569118 0.750000
Si Si7 0.483241 0.033050 0.404416
O O1 0.543795 0.837871 0.307598
O O2 0.327548 0.694316 0.269159
O O3 0.712696 0.774656 0.402044
O O4 0.898121 0.866680 0.305762
O O5 0.665135 0.973941 0.380874
O O6 0.974217 0.124136 0.127624
O O7 0.873157 0.264882 0.050562
O O8 0.121580 0.138304 0.014145
O O9 0.349978 0.497999 0.285039
O O10 0.113365 0.597608 0.349040
O O11 0.329959 0.043034 0.931760
O O12 0.464403 0.109934 0.040345
#
# Coordination Sequence:
#
# PCOD8247241 Si02
#       7
#     4   8   8   8   8   4   8
#     4   9  20  38  54  79 112 144 184 229 276 334
#     4  10  21  37  56  80 113 145 185 234 278 331
#     4  10  21  37  56  82 114 146 184 232 278 336
#     4  10  21  36  56  80 110 145 185 228 278 334
#     4  10  21  36  56  82 111 145 186 229 280 334
#     4  11  22  36  56  83 108 144 188 227 278 336
#     4  10  21  37  57  81 110 147 186 231 281 333
#
# _framework density 23.326732
#
# number of rings (size 3 to 8) (size 9 to 14) (size 15 to 20)
#    0.000    2.000    0.000    3.000    0.000    3.333 
#    0.000    0.000    0.000    0.000    0.000    0.000 
#    0.000    0.000    0.000    0.000    0.000    0.000 
#
# Total GULP energy -594938.200387 kJ/mol
# GULP energy per Si atom -12394.545841 kJ/mol
# Density = 2.327364 g / cm^3
# Si number density = 23.326732 Si / 1000 Ang^3
#
#
#
# Elastic Constant Matrix: (Units=GPa)
#
#
# Indices 1 2 3 4 5 6 
#
# 1 40.6932 3.3942 7.8453 0.0000 0.0000 0.0000
# 2 3.3942 34.7106 4.6398 0.0000 0.0000 0.0000
# 3 7.8453 4.6398 75.8250 0.0000 0.0000 0.0000
# 4 0.0000 0.0000 0.0000 20.3947 0.0000 0.0000
# 5 0.0000 0.0000 0.0000 0.0000 58.1916 0.0000
# 6 0.0000 0.0000 0.0000 0.0000 0.0000 7.6201
#
#
#
# Elastic Compliance Matrix: (Units=1/GPa)
#
#
# Indices 1 2 3 4 5 6 
#
# 1 0.025230 -0.002136 -0.002480 0.000000 0.000000 0.000000
# 2 -0.002136 0.029228 -0.001568 0.000000 0.000000 0.000000
# 3 -0.002480 -0.001568 0.013541 0.000000 0.000000 0.000000
# 4 0.000000 0.000000 0.000000 0.049032 0.000000 0.000000
# 5 0.000000 0.000000 0.000000 0.000000 0.017185 0.000000
# 6 0.000000 0.000000 0.000000 0.000000 0.000000 0.131232
#
#
# Mechanical properties :
#
#
# Convention : Reuss Voigt Hill
#
# Bulk Modulus (GPa) = 17.97490 20.33192 19.15341
# Shear Modulus (GPa) = 16.87148 26.26458 21.56803
#
# Velocity S-wave (km/s) = 2.69228 3.35915 3.04403
# Velocity P-wave (km/s) = 4.16977 4.87650 4.53691
#
# Compressibility (1/GPa) = 0.05563313
#
# Stress axis : x y z
#
# Youngs Moduli (GPa) = 39.63479 34.21374 73.85110
#
# Poissons Ratio (x) = 0.07307 0.18314
# Poissons Ratio (y) = 0.08465 0.11576
# Poissons Ratio (z) = 0.09829 0.05363
#
# Static dielectric constant tensor:
#      x y z
#    x 3.533890 0.000000 0.000000 
#    y 0.000000 4.168780 0.000000 
#    z 0.000000 0.000000 4.480470 
# 
# 
# High freq. dielectric constant tensor:
#      x y z
#    x 1.878880 0.000000 0.000000 
#    y 0.000000 1.917270 0.000000 
#    z 0.000000 0.000000 1.941280 
# 
# From -- ./inp_files/23952.got.cif
#   From: 2010.03.12/outbox.cif.g09.slc.cpg/sg60_12_cif.got.tgz:23952.got - 2010.04.10 18:46:24.
