data_PCOD8247375
_publ_section_title
;
Structure prediction by ZEFSAII (Michael W. Deem and Ramdas Pophale) SiO2 
 PCOD8247375
Probable space group: P B C N
;
_chemical_formula_sum "Si O2"
_cell_formula_units_Z 32
_cell_length_a 16.585506
_cell_length_b 17.192708
_cell_length_c 5.223408
_cell_angle_alpha 90.000000
_cell_angle_beta 90.000000
_cell_angle_gamma 90.000000
_cell_volume 1489.453546
_symmetry_space_group_name_H-M "P B C N"
_symmetry_group_IT_number 60
_symmetry_cell_setting 'orthorhombic'
loop_
_space_group_symop_operation_xyz
x,y,z
1/2-x,1/2-y,1/2+z
1/2+x,1/2-y,-z
-x,y,1/2-z
-x,-y,-z
1/2+x,1/2+y,1/2-z
1/2-x,1/2+y,z
x,-y,1/2+z
loop_
_atom_site_type_symbol
_atom_site_label
_atom_site_fract_x
_atom_site_fract_y
_atom_site_fract_z
Si Si1 0.535364 0.412532 0.497965
Si Si2 0.194063 0.667838 0.022736
Si Si3 0.794537 0.846221 0.481206
Si Si4 0.593873 0.037675 0.294957
O O1 0.500000 0.369586 0.750000
O O2 0.500000 0.500000 0.500000
O O3 0.632131 0.407908 0.476120
O O4 0.500000 0.368490 0.250000
O O5 0.254446 0.641293 0.245206
O O6 0.171756 0.758301 0.032630
O O7 0.111287 0.623104 0.089648
O O8 0.232650 0.641172 0.753025
O O9 0.500000 0.025318 0.250000
O O10 0.631397 0.979111 0.513013
#
# Coordination Sequence:
#
# PCOD8247375 Si02
#       4
#     8   8   8   8
#     4  10  21  39  56  83 122 158 194 245 299 359
#     4  10  21  39  60  89 114 161 202 246 304 355
#     4  10  21  39  61  84 124 153 205 250 289 370
#     4  10  21  39  58  86 120 147 195 249 300 359
#
# _framework density 21.484390000000001
#
# number of rings (size 3 to 8) (size 9 to 14) (size 15 to 20)
#    0.000    2.000    0.000    3.000    0.000    1.000 
#   27.000    3.750    0.000    0.000    0.000    0.000 
#    0.000    0.000    0.000    0.000    0.000    0.000 
#
# Total GULP energy -396424.046245 kJ/mol
# GULP energy per Si atom -12388.251445 kJ/mol
# Density = 2.143549 g / cm^3
# Si number density = 21.484390 Si / 1000 Ang^3
#
#
#
# Elastic Constant Matrix: (Units=GPa)
#
#
# Indices 1 2 3 4 5 6 
#
# 1 38.5488 23.2550 27.8322 0.0000 0.0000 0.0000
# 2 23.2550 63.1884 20.1718 0.0000 0.0000 0.0000
# 3 27.8322 20.1718 177.6294 0.0000 0.0000 0.0000
# 4 0.0000 0.0000 0.0000 22.2742 0.0000 0.0000
# 5 0.0000 0.0000 0.0000 0.0000 30.6690 0.0000
# 6 0.0000 0.0000 0.0000 0.0000 0.0000 37.9288
#
#
#
# Elastic Compliance Matrix: (Units=1/GPa)
#
#
# Indices 1 2 3 4 5 6 
#
# 1 0.036288 -0.011974 -0.004326 0.000000 0.000000 0.000000
# 2 -0.011974 0.020372 -0.000437 0.000000 0.000000 0.000000
# 3 -0.004326 -0.000437 0.006357 0.000000 0.000000 0.000000
# 4 0.000000 0.000000 0.000000 0.044895 0.000000 0.000000
# 5 0.000000 0.000000 0.000000 0.000000 0.032606 0.000000
# 6 0.000000 0.000000 0.000000 0.000000 0.000000 0.026365
#
#
# Mechanical properties :
#
#
# Convention : Reuss Voigt Hill
#
# Bulk Modulus (GPa) = 33.84946 46.87608 40.36277
# Shear Modulus (GPa) = 23.78622 32.04823 27.91723
#
# Velocity S-wave (km/s) = 3.33098 3.86644 3.60866
# Velocity P-wave (km/s) = 5.53023 6.46518 6.01590
#
# Compressibility (1/GPa) = 0.02954257
#
# Stress axis : x y z
#
# Youngs Moduli (GPa) = 27.55738 49.08694 157.30192
#
# Poissons Ratio (x) = 0.58776 0.68050
# Poissons Ratio (y) = 0.32997 0.06879
# Poissons Ratio (z) = 0.11922 0.02147
#
# Static dielectric constant tensor:
#      x y z
#    x 3.570160 0.000000 0.000000 
#    y 0.000000 3.746850 0.000000 
#    z 0.000000 0.000000 5.999420 
# 
# 
# High freq. dielectric constant tensor:
#      x y z
#    x 1.821690 0.000000 0.000000 
#    y 0.000000 1.814090 0.000000 
#    z 0.000000 0.000000 1.886190 
# 
# From -- ./inp_files/648.got.cif
#   From: 2010.03.12/outbox.cif.g09.slc.cpg/sg60_1_cif.got.tgz:648.got - 2010.04.10 18:46:24.
