data_PCOD8247233
_publ_section_title
;
Structure prediction by ZEFSAII (Michael W. Deem and Ramdas Pophale) SiO2 
 PCOD8247233
Probable space group: P B C N
;
_chemical_formula_sum "Si O2"
_cell_formula_units_Z 32
_cell_length_a 16.575627
_cell_length_b 5.058536
_cell_length_c 20.239554
_cell_angle_alpha 90.000000
_cell_angle_beta 90.000000
_cell_angle_gamma 90.000000
_cell_volume 1697.054339
_symmetry_space_group_name_H-M "P B C N"
_symmetry_group_IT_number 60
_symmetry_cell_setting 'orthorhombic'
loop_
_space_group_symop_operation_xyz
x,y,z
1/2-x,1/2-y,1/2+z
1/2+x,1/2-y,-z
-x,y,1/2-z
-x,-y,-z
1/2+x,1/2+y,1/2-z
1/2-x,1/2+y,z
x,-y,1/2+z
loop_
_atom_site_type_symbol
_atom_site_label
_atom_site_fract_x
_atom_site_fract_y
_atom_site_fract_z
Si Si1 0.199232 0.104913 0.996701
Si Si2 0.032868 0.715173 0.551784
Si Si3 0.903302 0.015499 0.619613
Si Si4 0.465233 0.027907 0.821961
O O1 0.270431 0.310515 0.013056
O O2 0.177098 0.108679 0.918392
O O3 0.122336 0.180831 0.040023
O O4 0.035596 0.569862 0.623598
O O5 0.000000 0.500000 0.500000
O O6 0.969797 0.963863 0.559907
O O7 0.894556 0.744714 0.661843
O O8 0.929071 0.236661 0.671857
O O9 0.500000 0.074938 0.750000
#
# Coordination Sequence:
#
# PCOD8247233 Si02
#       4
#     8   8   8   8
#     4  12  23  34  57  91 122 151 188 243 306 351
#     4  10  21  38  62  87 118 151 202 252 294 350
#     4  10  21  37  59  83 121 147 202 243 293 344
#     4  10  21  35  63  88 111 151 205 250 292 345
#
# _framework density 18.856203000000001
#
# number of rings (size 3 to 8) (size 9 to 14) (size 15 to 20)
#    1.500    0.000    2.500    4.500    3.500    0.000 
#    0.000    0.000    0.000    9.000    0.000    0.000 
#    0.000    0.000    0.000    0.000    0.000    0.000 
#
# Total GULP energy -396459.310876 kJ/mol
# GULP energy per Si atom -12389.353465 kJ/mol
# Density = 1.881329 g / cm^3
# Si number density = 18.856203 Si / 1000 Ang^3
#
#
#
# Elastic Constant Matrix: (Units=GPa)
#
#
# Indices 1 2 3 4 5 6 
#
# 1 54.3297 22.6362 20.5664 0.0000 0.0000 0.0000
# 2 22.6362 121.5004 24.9361 0.0000 0.0000 0.0000
# 3 20.5664 24.9361 104.9688 0.0000 0.0000 0.0000
# 4 0.0000 0.0000 0.0000 28.3742 0.0000 0.0000
# 5 0.0000 0.0000 0.0000 0.0000 22.1455 0.0000
# 6 0.0000 0.0000 0.0000 0.0000 0.0000 32.0091
#
#
#
# Elastic Compliance Matrix: (Units=1/GPa)
#
#
# Indices 1 2 3 4 5 6 
#
# 1 0.021020 -0.003228 -0.003351 0.000000 0.000000 0.000000
# 2 -0.003228 0.009148 -0.001541 0.000000 0.000000 0.000000
# 3 -0.003351 -0.001541 0.010549 0.000000 0.000000 0.000000
# 4 0.000000 0.000000 0.000000 0.035243 0.000000 0.000000
# 5 0.000000 0.000000 0.000000 0.000000 0.045156 0.000000
# 6 0.000000 0.000000 0.000000 0.000000 0.000000 0.031241
#
#
# Mechanical properties :
#
#
# Convention : Reuss Voigt Hill
#
# Bulk Modulus (GPa) = 40.85577 46.34181 43.59879
# Shear Modulus (GPa) = 28.28740 30.68312 29.48526
#
# Velocity S-wave (km/s) = 3.87740 4.03825 3.95864
# Velocity P-wave (km/s) = 6.46217 6.80978 6.63825
#
# Compressibility (1/GPa) = 0.02447635
#
# Stress axis : x y z
#
# Youngs Moduli (GPa) = 47.57398 109.31258 94.79304
#
# Poissons Ratio (x) = 0.35289 0.31770
# Poissons Ratio (y) = 0.15358 0.14605
# Poissons Ratio (z) = 0.15944 0.16842
#
# Static dielectric constant tensor:
#      x y z
#    x 3.180080 0.000000 0.000000 
#    y 0.000000 3.635130 0.000000 
#    z 0.000000 0.000000 3.236860 
# 
# 
# High freq. dielectric constant tensor:
#      x y z
#    x 1.696670 0.000000 0.000000 
#    y 0.000000 1.759340 0.000000 
#    z 0.000000 0.000000 1.712500 
# 
# From -- ./inp_files/22759.got.cif
#   From: 2010.03.12/outbox.cif.g09.slc.cpg/sg60_12_cif.got.tgz:22759.got - 2010.04.10 18:46:24.
