data_PCOD8247194
_publ_section_title
;
Structure prediction by ZEFSAII (Michael W. Deem and Ramdas Pophale) SiO2 
 PCOD8247194
Probable space group: P B C N
;
_chemical_formula_sum "Si O2"
_cell_formula_units_Z 32
_cell_length_a 7.386069
_cell_length_b 30.705221
_cell_length_c 5.658493
_cell_angle_alpha 90.000000
_cell_angle_beta 90.000000
_cell_angle_gamma 90.000000
_cell_volume 1283.294612
_symmetry_space_group_name_H-M "P B C N"
_symmetry_group_IT_number 60
_symmetry_cell_setting 'orthorhombic'
loop_
_space_group_symop_operation_xyz
x,y,z
1/2-x,1/2-y,1/2+z
1/2+x,1/2-y,-z
-x,y,1/2-z
-x,-y,-z
1/2+x,1/2+y,1/2-z
1/2-x,1/2+y,z
x,-y,1/2+z
loop_
_atom_site_type_symbol
_atom_site_label
_atom_site_fract_x
_atom_site_fract_y
_atom_site_fract_z
Si Si1 0.695442 0.389122 0.863626
Si Si2 0.000000 0.262614 0.250000
Si Si3 0.797993 0.515800 0.283710
Si Si4 0.267047 0.805943 0.899739
Si Si5 0.500000 0.348062 0.250000
O O1 0.500000 0.395833 0.750000
O O2 0.809252 0.432600 0.825611
O O3 0.805736 0.348385 0.757593
O O4 0.656667 0.378745 0.138420
O O5 0.813088 0.235345 0.241795
O O6 0.958898 0.293863 0.476087
O O7 0.704304 0.495090 0.524664
O O8 0.000000 0.496740 0.250000
O O9 0.097540 0.816376 0.068403
#
# Coordination Sequence:
#
# PCOD8247194 Si02
#       5
#     8   4   8   8   4
#     4  10  23  42  67  99 135 179 230 285 360 422
#     4  12  24  44  68  95 140 182 237 290 356 418
#     4  10  24  45  68 100 140 181 233 295 354 434
#     4  11  24  43  64 100 136 183 229 291 348 426
#     4  10  20  44  64  95 138 180 229 292 346 430
#
# _framework density 24.935817
#
# number of rings (size 3 to 8) (size 9 to 14) (size 15 to 20)
#    0.000    1.500    3.750    1.500    7.000    3.000 
#    2.250    0.000    0.000    0.000    0.000    0.000 
#    0.000    0.000    0.000    0.000    0.000    0.000 
#
# Total GULP energy -396522.682234 kJ/mol
# GULP energy per Si atom -12391.333820 kJ/mol
# Density = 2.487906 g / cm^3
# Si number density = 24.935817 Si / 1000 Ang^3
#
#
#
# Elastic Constant Matrix: (Units=GPa)
#
#
# Indices 1 2 3 4 5 6 
#
# 1 45.2743 19.6726 -2.7846 0.0000 0.0000 0.0000
# 2 19.6726 163.0327 66.1115 0.0000 0.0000 0.0000
# 3 -2.7846 66.1115 141.7513 0.0000 0.0000 0.0000
# 4 0.0000 0.0000 0.0000 23.5944 0.0000 0.0000
# 5 0.0000 0.0000 0.0000 0.0000 35.9975 0.0000
# 6 0.0000 0.0000 0.0000 0.0000 0.0000 32.9687
#
#
#
# Elastic Compliance Matrix: (Units=1/GPa)
#
#
# Indices 1 2 3 4 5 6 
#
# 1 0.023870 -0.003787 0.002235 0.000000 0.000000 0.000000
# 2 -0.003787 0.008165 -0.003882 0.000000 0.000000 0.000000
# 3 0.002235 -0.003882 0.008909 0.000000 0.000000 0.000000
# 4 0.000000 0.000000 0.000000 0.042383 0.000000 0.000000
# 5 0.000000 0.000000 0.000000 0.000000 0.027780 0.000000
# 6 0.000000 0.000000 0.000000 0.000000 0.000000 0.030332
#
#
# Mechanical properties :
#
#
# Convention : Reuss Voigt Hill
#
# Bulk Modulus (GPa) = 33.24866 57.33969 45.29418
# Shear Modulus (GPa) = 30.80088 36.31604 33.55846
#
# Velocity S-wave (km/s) = 3.51836 3.82040 3.67249
# Velocity P-wave (km/s) = 5.46515 6.51962 6.01553
#
# Compressibility (1/GPa) = 0.03007640
#
# Stress axis : x y z
#
# Youngs Moduli (GPa) = 41.89285 122.47317 112.24262
#
# Poissons Ratio (x) = 0.46377 -0.25086
# Poissons Ratio (y) = 0.15863 0.43578
# Poissons Ratio (z) = -0.09363 0.47550
#
# Static dielectric constant tensor:
#      x y z
#    x 3.920000 0.000000 0.000000 
#    y 0.000000 4.387750 0.000000 
#    z 0.000000 0.000000 5.383580 
# 
# 
# High freq. dielectric constant tensor:
#      x y z
#    x 1.966480 0.000000 0.000000 
#    y 0.000000 1.991050 0.000000 
#    z 0.000000 0.000000 2.007040 
# 
# From -- ./inp_files/409.got.cif
#   From: 2010.03.12/outbox.cif.g09.slc.cpg/sg60_1_cif.got.tgz:409.got - 2010.04.10 18:46:24.
