data_PCOD8247697
_publ_section_title
;
Structure prediction by ZEFSAII (Michael W. Deem and Ramdas Pophale) SiO2 
 PCOD8247697
Probable space group: P B C N
;
_chemical_formula_sum "Si O2"
_cell_formula_units_Z 56
_cell_length_a 8.862887
_cell_length_b 20.627074
_cell_length_c 14.959817
_cell_angle_alpha 90.000000
_cell_angle_beta 90.000000
_cell_angle_gamma 90.000000
_cell_volume 2734.885318
_symmetry_space_group_name_H-M "P B C N"
_symmetry_group_IT_number 60
_symmetry_cell_setting 'orthorhombic'
loop_
_space_group_symop_operation_xyz
x,y,z
1/2-x,1/2-y,1/2+z
1/2+x,1/2-y,-z
-x,y,1/2-z
-x,-y,-z
1/2+x,1/2+y,1/2-z
1/2-x,1/2+y,z
x,-y,1/2+z
loop_
_atom_site_type_symbol
_atom_site_label
_atom_site_fract_x
_atom_site_fract_y
_atom_site_fract_z
Si Si1 0.664192 0.097911 0.992185
Si Si2 0.207096 0.174854 0.950948
Si Si3 0.479311 0.788041 0.572072
Si Si4 0.484395 0.565665 0.556337
Si Si5 0.000000 0.355975 0.750000
Si Si6 0.295996 0.036356 0.324196
Si Si7 0.000000 0.990185 0.250000
Si Si8 0.431873 0.900302 0.337713
O O1 0.835265 0.107774 0.961607
O O2 0.554199 0.076779 0.911711
O O3 0.601974 0.165125 0.028353
O O4 0.676493 0.043276 0.069405
O O5 0.063651 0.219140 0.925819
O O6 0.315500 0.154889 0.869330
O O7 0.129925 0.106440 0.977830
O O8 0.315653 0.209226 0.023867
O O9 0.443167 0.809525 0.671970
O O10 0.500000 0.500000 0.500000
O O11 0.471786 0.554593 0.663029
O O12 0.135414 0.402707 0.774708
O O13 0.355655 0.965428 0.299629
O O14 0.128981 0.038977 0.283984
O O15 0.500000 0.866263 0.250000
#
# Coordination Sequence:
#
# PCOD8247697 Si02
#       8
#     8   8   8   8   4   8   4   8
#     4  10  22  39  65  90 131 172 222 264 337 392
#     4  11  24  45  65  93 133 169 228 268 340 401
#     4  10  24  46  68  91 124 181 219 279 322 396
#     4  12  24  39  64 101 133 175 215 278 339 399
#     4  10  24  41  70  94 127 170 228 262 326 408
#     4  11  21  39  61  98 134 171 213 272 331 407
#     4  12  24  37  60  98 137 170 212 264 340 396
#     4  11  21  40  64  97 130 169 213 279 342 393
#
# _framework density 20.476178000000001
#
# number of rings (size 3 to 8) (size 9 to 14) (size 15 to 20)
#    0.000    1.143    3.571    2.143    2.000    1.714 
#    5.143    0.000    1.571    0.000    0.000    0.000 
#    0.000    0.000    0.000    0.000    0.000    0.000 
#
# Total GULP energy -693754.239593 kJ/mol
# GULP energy per Si atom -12388.468564 kJ/mol
# Density = 2.042957 g / cm^3
# Si number density = 20.476178 Si / 1000 Ang^3
#
#
#
# Elastic Constant Matrix: (Units=GPa)
#
#
# Indices 1 2 3 4 5 6 
#
# 1 129.7155 37.6329 55.7356 0.0000 0.0000 0.0000
# 2 37.6329 80.8479 44.6039 0.0000 0.0000 0.0000
# 3 55.7356 44.6039 136.3751 0.0000 0.0000 0.0000
# 4 0.0000 0.0000 0.0000 13.2401 0.0000 0.0000
# 5 0.0000 0.0000 0.0000 0.0000 32.7440 0.0000
# 6 0.0000 0.0000 0.0000 0.0000 0.0000 288.8575
#
#
#
# Elastic Compliance Matrix: (Units=1/GPa)
#
#
# Indices 1 2 3 4 5 6 
#
# 1 0.009876 -0.002892 -0.003090 0.000000 0.000000 0.000000
# 2 -0.002892 0.015939 -0.004031 0.000000 0.000000 0.000000
# 3 -0.003090 -0.004031 0.009914 0.000000 0.000000 0.000000
# 4 0.000000 0.000000 0.000000 0.075528 0.000000 0.000000
# 5 0.000000 0.000000 0.000000 0.000000 0.030540 0.000000
# 6 0.000000 0.000000 0.000000 0.000000 0.000000 0.003462
#
#
# Mechanical properties :
#
#
# Convention : Reuss Voigt Hill
#
# Bulk Modulus (GPa) = 63.68594 69.20927 66.44760
# Shear Modulus (GPa) = 29.32189 80.89939 55.11064
#
# Velocity S-wave (km/s) = 3.78828 6.29244 5.19355
# Velocity P-wave (km/s) = 7.09258 9.30948 8.27560
#
# Compressibility (1/GPa) = 0.01570205
#
# Stress axis : x y z
#
# Youngs Moduli (GPa) = 101.25454 62.73868 100.86542
#
# Poissons Ratio (x) = 0.18145 0.31171
# Poissons Ratio (y) = 0.29284 0.40661
# Poissons Ratio (z) = 0.31291 0.25291
#
# Static dielectric constant tensor:
#      x y z
#    x 3.987370 0.000000 0.000000 
#    y 0.000000 3.463200 0.000000 
#    z 0.000000 0.000000 4.374950 
# 
# 
# High freq. dielectric constant tensor:
#      x y z
#    x 1.816060 0.000000 0.000000 
#    y 0.000000 1.787490 0.000000 
#    z 0.000000 0.000000 1.803560 
# 
# From -- ./inp_files/15302.got.cif
#   From: 2010.03.12/outbox.cif.g09.slc.cpg/sg60_8_cif.got.tgz:15302.got - 2010.04.10 18:46:24.
