data_PCOD8247399
_publ_section_title
;
Structure prediction by ZEFSAII (Michael W. Deem and Ramdas Pophale) SiO2 
 PCOD8247399
Probable space group: P B C N
;
_chemical_formula_sum "Si O2"
_cell_formula_units_Z 48
_cell_length_a 13.255718
_cell_length_b 30.191436
_cell_length_c 5.235574
_cell_angle_alpha 90.000000
_cell_angle_beta 90.000000
_cell_angle_gamma 90.000000
_cell_volume 2095.324681
_symmetry_space_group_name_H-M "P B C N"
_symmetry_group_IT_number 60
_symmetry_cell_setting 'orthorhombic'
loop_
_space_group_symop_operation_xyz
x,y,z
1/2-x,1/2-y,1/2+z
1/2+x,1/2-y,-z
-x,y,1/2-z
-x,-y,-z
1/2+x,1/2+y,1/2-z
1/2-x,1/2+y,z
x,-y,1/2+z
loop_
_atom_site_type_symbol
_atom_site_label
_atom_site_fract_x
_atom_site_fract_y
_atom_site_fract_z
Si Si1 0.434871 0.110266 0.505252
Si Si2 0.356734 0.017625 0.410029
Si Si3 0.802694 0.694931 0.879857
Si Si4 0.629964 0.479924 0.121322
Si Si5 0.000000 0.097350 0.750000
Si Si6 0.500000 0.352627 0.750000
Si Si7 0.678219 0.705161 0.377413
O O1 0.500000 0.095561 0.750000
O O2 0.353414 0.070760 0.454093
O O3 0.383273 0.156472 0.577445
O O4 0.500000 0.117489 0.250000
O O5 0.414206 0.992765 0.643263
O O6 0.248519 0.992696 0.373267
O O7 0.753722 0.689799 0.600806
O O8 0.853725 0.743374 0.898655
O O9 0.720897 0.692733 0.101426
O O10 0.577759 0.503846 0.362336
O O11 0.601086 0.428570 0.155609
O O12 0.043287 0.120978 0.494665
O O13 0.421298 0.322964 0.595929
#
# Coordination Sequence:
#
# PCOD8247399 Si02
#       7
#     8   8   8   8   4   4   8
#     4  12  26  43  69 105 129 174 233 293 341 404
#     4  10  23  41  63  91 128 176 218 274 349 400
#     4  10  23  46  70  99 137 179 227 279 342 427
#     4  10  21  39  62  89 126 182 223 273 332 400
#     4  12  24  39  60 100 142 174 238 271 332 412
#     4  12  26  41  68 106 140 180 222 293 326 406
#     4  10  23  44  69 100 139 181 221 274 353 404
#
# _framework density 22.908145000000001
#
# number of rings (size 3 to 8) (size 9 to 14) (size 15 to 20)
#    0.000    1.333    0.000    4.500    1.167   10.000 
#    1.500    0.000    0.000    0.000    0.000    0.000 
#    0.000    0.000    0.000    0.000    0.000    0.000 
#
# Total GULP energy -594713.162106 kJ/mol
# GULP energy per Si atom -12389.857544 kJ/mol
# Density = 2.285600 g / cm^3
# Si number density = 22.908145 Si / 1000 Ang^3
#
#
#
# Elastic Constant Matrix: (Units=GPa)
#
#
# Indices 1 2 3 4 5 6 
#
# 1 60.3889 57.7499 24.7594 0.0000 0.0000 0.0000
# 2 57.7499 145.2335 56.2090 0.0000 0.0000 0.0000
# 3 24.7594 56.2090 187.9666 0.0000 0.0000 0.0000
# 4 0.0000 0.0000 0.0000 36.3387 0.0000 0.0000
# 5 0.0000 0.0000 0.0000 0.0000 23.2355 0.0000
# 6 0.0000 0.0000 0.0000 0.0000 0.0000 23.6758
#
#
#
# Elastic Compliance Matrix: (Units=1/GPa)
#
#
# Indices 1 2 3 4 5 6 
#
# 1 0.026745 -0.010485 -0.000388 0.000000 0.000000 0.000000
# 2 -0.010485 0.011897 -0.002177 0.000000 0.000000 0.000000
# 3 -0.000388 -0.002177 0.006022 0.000000 0.000000 0.000000
# 4 0.000000 0.000000 0.000000 0.027519 0.000000 0.000000
# 5 0.000000 0.000000 0.000000 0.000000 0.043038 0.000000
# 6 0.000000 0.000000 0.000000 0.000000 0.000000 0.042237
#
#
# Mechanical properties :
#
#
# Convention : Reuss Voigt Hill
#
# Bulk Modulus (GPa) = 53.86166 74.55839 64.21002
# Shear Modulus (GPa) = 26.35138 33.64139 29.99638
#
# Velocity S-wave (km/s) = 3.39530 3.83630 3.62252
# Velocity P-wave (km/s) = 6.23969 7.22774 6.75182
#
# Compressibility (1/GPa) = 0.01856608
#
# Stress axis : x y z
#
# Youngs Moduli (GPa) = 37.39066 84.05570 166.05728
#
# Poissons Ratio (x) = 0.88129 0.06436
# Poissons Ratio (y) = 0.39203 0.36143
# Poissons Ratio (z) = 0.01449 0.18295
#
# Static dielectric constant tensor:
#      x y z
#    x 3.962930 0.000000 0.000000 
#    y 0.000000 4.255690 0.000000 
#    z 0.000000 0.000000 5.418370 
# 
# 
# High freq. dielectric constant tensor:
#      x y z
#    x 1.887000 0.000000 0.000000 
#    y 0.000000 1.906490 0.000000 
#    z 0.000000 0.000000 1.949970 
# 
# From -- ./inp_files/1345.got.cif
#   From: 2010.03.12/outbox.cif.g09.slc.cpg/sg60_1_cif.got.tgz:1345.got - 2010.04.10 18:46:24.
