data_PCOD8247884
_publ_section_title
;
Structure prediction by ZEFSAII (Michael W. Deem and Ramdas Pophale) SiO2 
 PCOD8247884
Probable space group: P B C N
;
_chemical_formula_sum "Si O2"
_cell_formula_units_Z 40
_cell_length_a 8.104730
_cell_length_b 26.662171
_cell_length_c 8.305582
_cell_angle_alpha 90.000000
_cell_angle_beta 90.000000
_cell_angle_gamma 90.000000
_cell_volume 1794.750699
_symmetry_space_group_name_H-M "P B C N"
_symmetry_group_IT_number 60
_symmetry_cell_setting 'orthorhombic'
loop_
_space_group_symop_operation_xyz
x,y,z
1/2-x,1/2-y,1/2+z
1/2+x,1/2-y,-z
-x,y,1/2-z
-x,-y,-z
1/2+x,1/2+y,1/2-z
1/2-x,1/2+y,z
x,-y,1/2+z
loop_
_atom_site_type_symbol
_atom_site_label
_atom_site_fract_x
_atom_site_fract_y
_atom_site_fract_z
Si Si1 0.068368 0.129280 0.573583
Si Si2 0.299513 0.304362 0.561683
Si Si3 0.500000 0.985842 0.250000
Si Si4 0.000000 0.351868 0.750000
Si Si5 0.664371 0.934783 0.546770
Si Si6 0.173088 0.701511 0.713835
O O1 0.145106 0.079030 0.492285
O O2 0.214073 0.170193 0.591298
O O3 0.000000 0.115000 0.750000
O O4 0.931867 0.149982 0.447602
O O5 0.377706 0.254772 0.637378
O O6 0.268239 0.289849 0.378347
O O7 0.138650 0.318137 0.664776
O O8 0.575079 0.950159 0.383183
O O9 0.352758 0.020522 0.322948
O O10 0.923931 0.385123 0.609570
O O11 0.000000 0.672968 0.750000
#
# Coordination Sequence:
#
# PCOD8247884 Si02
#       6
#     8   8   4   4   8   8
#     4  10  24  41  65 100 136 176 225 279 330 405
#     4  11  26  41  63  99 137 184 233 274 331 383
#     4   9  22  44  78  96 126 172 216 284 354 427
#     4  11  26  40  70  96 130 182 224 276 328 407
#     4  10  22  44  71  99 128 168 223 273 345 416
#     4  11  24  40  64  92 136 189 226 276 322 391
#
# _framework density 22.287217999999999
#
# number of rings (size 3 to 8) (size 9 to 14) (size 15 to 20)
#    0.000    1.600    0.000    2.400   19.600    0.000 
#    0.000    1.000    0.000    0.000    0.000    0.000 
#    0.000    0.000    0.000    0.000    0.000    0.000 
#
# Total GULP energy -495946.960291 kJ/mol
# GULP energy per Si atom -12398.674007 kJ/mol
# Density = 2.223649 g / cm^3
# Si number density = 22.287218 Si / 1000 Ang^3
#
#
#
# Elastic Constant Matrix: (Units=GPa)
#
#
# Indices 1 2 3 4 5 6 
#
# 1 107.1096 21.6814 23.1027 0.0000 0.0000 0.0000
# 2 21.6814 56.4220 34.5126 0.0000 0.0000 0.0000
# 3 23.1027 34.5126 98.4456 0.0000 0.0000 0.0000
# 4 0.0000 0.0000 0.0000 16.9298 0.0000 0.0000
# 5 0.0000 0.0000 0.0000 0.0000 41.3442 0.0000
# 6 0.0000 0.0000 0.0000 0.0000 0.0000 35.9660
#
#
#
# Elastic Compliance Matrix: (Units=1/GPa)
#
#
# Indices 1 2 3 4 5 6 
#
# 1 0.010254 -0.003142 -0.001305 0.000000 0.000000 0.000000
# 2 -0.003142 0.023525 -0.007510 0.000000 0.000000 0.000000
# 3 -0.001305 -0.007510 0.013097 0.000000 0.000000 0.000000
# 4 0.000000 0.000000 0.000000 0.059067 0.000000 0.000000
# 5 0.000000 0.000000 0.000000 0.000000 0.024187 0.000000
# 6 0.000000 0.000000 0.000000 0.000000 0.000000 0.027804
#
#
# Mechanical properties :
#
#
# Convention : Reuss Voigt Hill
#
# Bulk Modulus (GPa) = 43.55043 46.73007 45.14025
# Shear Modulus (GPa) = 26.38508 31.02671 28.70590
#
# Velocity S-wave (km/s) = 3.44447 3.73517 3.59276
# Velocity P-wave (km/s) = 5.94997 6.29403 6.12441
#
# Compressibility (1/GPa) = 0.02296189
#
# Stress axis : x y z
#
# Youngs Moduli (GPa) = 97.52594 42.50860 76.35434
#
# Poissons Ratio (x) = 0.13357 0.09962
# Poissons Ratio (y) = 0.30644 0.57341
# Poissons Ratio (z) = 0.12725 0.31923
#
# Static dielectric constant tensor:
#      x y z
#    x 4.136360 0.000000 0.000000 
#    y 0.000000 3.916840 0.000000 
#    z 0.000000 0.000000 4.191730 
# 
# 
# High freq. dielectric constant tensor:
#      x y z
#    x 1.873060 0.000000 0.000000 
#    y 0.000000 1.861400 0.000000 
#    z 0.000000 0.000000 1.899030 
# 
# From -- ./inp_files/3894.got.cif
#   From: 2010.03.12/outbox.cif.g09.slc.cpg/sg60_2_cif.got.tgz:3894.got - 2010.04.10 18:46:24.
