data_PCOD8247525
_publ_section_title
;
Structure prediction by ZEFSAII (Michael W. Deem and Ramdas Pophale) SiO2 
 PCOD8247525
Probable space group: P B C N
;
_chemical_formula_sum "Si O2"
_cell_formula_units_Z 48
_cell_length_a 10.627404
_cell_length_b 13.496797
_cell_length_c 15.771282
_cell_angle_alpha 90.000000
_cell_angle_beta 90.000000
_cell_angle_gamma 90.000000
_cell_volume 2262.168255
_symmetry_space_group_name_H-M "P B C N"
_symmetry_group_IT_number 60
_symmetry_cell_setting 'orthorhombic'
loop_
_space_group_symop_operation_xyz
x,y,z
1/2-x,1/2-y,1/2+z
1/2+x,1/2-y,-z
-x,y,1/2-z
-x,-y,-z
1/2+x,1/2+y,1/2-z
1/2-x,1/2+y,z
x,-y,1/2+z
loop_
_atom_site_type_symbol
_atom_site_label
_atom_site_fract_x
_atom_site_fract_y
_atom_site_fract_z
Si Si1 0.161247 0.817667 0.175938
Si Si2 0.500000 0.839883 0.750000
Si Si3 0.497748 0.337116 0.017624
Si Si4 0.368231 0.481474 0.908008
Si Si5 0.907703 0.640622 0.933697
Si Si6 0.000000 0.976662 0.250000
Si Si7 0.405822 0.978245 0.894016
O O1 0.297973 0.838592 0.135676
O O2 0.131592 0.722355 0.236234
O O3 0.124951 0.912524 0.231527
O O4 0.056906 0.796149 0.104398
O O5 0.482324 0.905267 0.833880
O O6 0.379621 0.385134 0.967499
O O7 0.557870 0.249142 0.964971
O O8 0.602945 0.420539 0.036169
O O9 0.470584 0.460418 0.833789
O O10 0.235250 0.494935 0.861471
O O11 0.025270 0.585050 0.889791
O O12 0.878704 0.566386 0.011705
#
# Coordination Sequence:
#
# PCOD8247525 Si02
#       7
#     8   4   8   8   8   4   8
#     4  10  21  43  66  91 130 172 225 268 333 402
#     4  11  24  44  67  98 136 184 213 290 355 382
#     4  10  21  41  66  96 121 177 221 271 325 395
#     4  10  22  40  66  93 132 165 221 271 325 400
#     4  11  24  41  66  97 129 176 226 271 331 409
#     4   9  22  40  63  92 128 172 207 270 341 380
#     4  11  25  40  65  99 135 172 220 278 341 395
#
# _framework density 21.218581
#
# number of rings (size 3 to 8) (size 9 to 14) (size 15 to 20)
#    0.000    1.667    3.333    0.000    4.667    1.333 
#    0.000    0.833    0.000    0.000    0.000    0.000 
#    0.000    0.000    0.000    0.000    0.000    0.000 
#
# Total GULP energy -594692.640489 kJ/mol
# GULP energy per Si atom -12389.430010 kJ/mol
# Density = 2.117029 g / cm^3
# Si number density = 21.218581 Si / 1000 Ang^3
#
#
#
# Elastic Constant Matrix: (Units=GPa)
#
#
# Indices 1 2 3 4 5 6 
#
# 1 87.1410 25.6881 7.1480 0.0000 0.0000 0.0000
# 2 25.6881 86.9109 17.5001 0.0000 0.0000 0.0000
# 3 7.1480 17.5001 64.5777 0.0000 0.0000 0.0000
# 4 0.0000 0.0000 0.0000 8.6507 0.0000 0.0000
# 5 0.0000 0.0000 0.0000 0.0000 37.8858 0.0000
# 6 0.0000 0.0000 0.0000 0.0000 0.0000 19.2061
#
#
#
# Elastic Compliance Matrix: (Units=1/GPa)
#
#
# Indices 1 2 3 4 5 6 
#
# 1 0.012581 -0.003637 -0.000407 0.000000 0.000000 0.000000
# 2 -0.003637 0.013221 -0.003180 0.000000 0.000000 0.000000
# 3 -0.000407 -0.003180 0.016392 0.000000 0.000000 0.000000
# 4 0.000000 0.000000 0.000000 0.115597 0.000000 0.000000
# 5 0.000000 0.000000 0.000000 0.000000 0.026395 0.000000
# 6 0.000000 0.000000 0.000000 0.000000 0.000000 0.052067
#
#
# Mechanical properties :
#
#
# Convention : Reuss Voigt Hill
#
# Bulk Modulus (GPa) = 36.04065 37.70020 36.87042
# Shear Modulus (GPa) = 19.23443 25.70142 22.46792
#
# Velocity S-wave (km/s) = 3.01406 3.48411 3.25757
# Velocity P-wave (km/s) = 5.39769 5.83022 5.61812
#
# Compressibility (1/GPa) = 0.02774645
#
# Stress axis : x y z
#
# Youngs Moduli (GPa) = 79.48446 75.63560 61.00493
#
# Poissons Ratio (x) = 0.27506 0.02483
# Poissons Ratio (y) = 0.28905 0.19402
# Poissons Ratio (z) = 0.03236 0.24055
#
# Static dielectric constant tensor:
#      x y z
#    x 3.685670 0.000000 0.000000 
#    y 0.000000 3.676310 0.000000 
#    z 0.000000 0.000000 3.995210 
# 
# 
# High freq. dielectric constant tensor:
#      x y z
#    x 1.818760 0.000000 0.000000 
#    y 0.000000 1.823610 0.000000 
#    z 0.000000 0.000000 1.842050 
# 
# From -- ./inp_files/16097.got.cif
#   From: 2010.03.12/outbox.cif.g09.slc.cpg/sg60_9_cif.got.tgz:16097.got - 2010.04.10 18:46:24.
