data_PCOD8247546
_publ_section_title
;
Structure prediction by ZEFSAII (Michael W. Deem and Ramdas Pophale) SiO2 
 PCOD8247546
Probable space group: P B C N
;
_chemical_formula_sum "Si O2"
_cell_formula_units_Z 60
_cell_length_a 9.450334
_cell_length_b 10.717054
_cell_length_c 27.215467
_cell_angle_alpha 90.000000
_cell_angle_beta 90.000000
_cell_angle_gamma 90.000000
_cell_volume 2756.375416
_symmetry_space_group_name_H-M "P B C N"
_symmetry_group_IT_number 60
_symmetry_cell_setting 'orthorhombic'
loop_
_space_group_symop_operation_xyz
x,y,z
1/2-x,1/2-y,1/2+z
1/2+x,1/2-y,-z
-x,y,1/2-z
-x,-y,-z
1/2+x,1/2+y,1/2-z
1/2-x,1/2+y,z
x,-y,1/2+z
loop_
_atom_site_type_symbol
_atom_site_label
_atom_site_fract_x
_atom_site_fract_y
_atom_site_fract_z
Si Si1 0.285248 0.677378 0.454851
Si Si2 0.524008 0.048986 0.874267
Si Si3 0.284787 0.820253 0.195718
Si Si4 0.462378 0.471953 0.171473
Si Si5 0.217469 0.074460 0.893359
Si Si6 0.500000 0.329072 0.750000
Si Si7 0.581833 0.768528 0.463035
Si Si8 0.245041 0.875435 0.610160
O O1 0.312874 0.547324 0.426802
O O2 0.235228 0.795588 0.422240
O O3 0.434368 0.708724 0.481822
O O4 0.160640 0.653781 0.494460
O O5 0.597796 0.080804 0.822438
O O6 0.358289 0.037208 0.863347
O O7 0.543735 0.151910 0.915734
O O8 0.593296 0.922198 0.895225
O O9 0.133227 0.885404 0.208509
O O10 0.355290 0.751205 0.242599
O O11 0.253578 0.731559 0.150259
O O12 0.593143 0.402017 0.146096
O O13 0.524557 0.589395 0.201267
O O14 0.356740 0.512610 0.127968
O O15 0.691892 0.663964 0.443778
#
# Coordination Sequence:
#
# PCOD8247546 Si02
#       8
#     8   8   8   8   8   4   8   8
#     4  11  26  40  61  94 130 176 224 281 333 393
#     4   9  21  37  62  86 123 170 213 270 327 389
#     4   9  20  39  65  94 123 168 209 259 336 398
#     4  10  21  42  64  94 127 170 213 267 334 401
#     4  11  25  42  62  95 133 172 223 271 338 391
#     4  10  22  40  70  96 134 154 216 280 326 402
#     4  10  22  38  57  88 128 168 220 280 327 380
#     4   9  18  38  62  84 123 170 216 261 324 391
#
# _framework density 21.767716
#
# number of rings (size 3 to 8) (size 9 to 14) (size 15 to 20)
#    0.000    2.133    1.333    0.000    7.467    4.800 
#    0.000    0.000    0.000    3.200    0.000    0.000 
#    0.000    0.000    0.000    0.000    0.000    0.000 
#
# Total GULP energy -743565.665567 kJ/mol
# GULP energy per Si atom -12392.761093 kJ/mol
# Density = 2.171817 g / cm^3
# Si number density = 21.767716 Si / 1000 Ang^3
#
#
#
# Elastic Constant Matrix: (Units=GPa)
#
#
# Indices 1 2 3 4 5 6 
#
# 1 140.7554 28.4871 38.3921 0.0000 0.0000 0.0000
# 2 28.4871 68.6585 8.7906 0.0000 0.0000 0.0000
# 3 38.3921 8.7906 50.6297 0.0000 0.0000 0.0000
# 4 0.0000 0.0000 0.0000 20.6486 0.0000 0.0000
# 5 0.0000 0.0000 0.0000 0.0000 35.8565 0.0000
# 6 0.0000 0.0000 0.0000 0.0000 0.0000 29.1445
#
#
#
# Elastic Compliance Matrix: (Units=1/GPa)
#
#
# Indices 1 2 3 4 5 6 
#
# 1 0.009565 -0.003109 -0.006713 0.000000 0.000000 0.000000
# 2 -0.003109 0.015907 -0.000404 0.000000 0.000000 0.000000
# 3 -0.006713 -0.000404 0.024912 0.000000 0.000000 0.000000
# 4 0.000000 0.000000 0.000000 0.048429 0.000000 0.000000
# 5 0.000000 0.000000 0.000000 0.000000 0.027889 0.000000
# 6 0.000000 0.000000 0.000000 0.000000 0.000000 0.034312
#
#
# Mechanical properties :
#
#
# Convention : Reuss Voigt Hill
#
# Bulk Modulus (GPa) = 33.41067 45.70923 39.55995
# Shear Modulus (GPa) = 26.11743 29.42151 27.76947
#
# Velocity S-wave (km/s) = 3.46761 3.68042 3.57559
# Velocity P-wave (km/s) = 5.60486 6.25339 5.93798
#
# Compressibility (1/GPa) = 0.02993056
#
# Stress axis : x y z
#
# Youngs Moduli (GPa) = 104.55007 62.86719 40.14142
#
# Poissons Ratio (x) = 0.19546 0.26947
# Poissons Ratio (y) = 0.32505 0.01623
# Poissons Ratio (z) = 0.70186 0.02541
#
# Static dielectric constant tensor:
#      x y z
#    x 4.300990 0.000000 0.000000 
#    y 0.000000 3.989990 0.000000 
#    z 0.000000 0.000000 3.541730 
# 
# 
# High freq. dielectric constant tensor:
#      x y z
#    x 1.869560 0.000000 0.000000 
#    y 0.000000 1.851900 0.000000 
#    z 0.000000 0.000000 1.823000 
# 
# From -- ./inp_files/25983.got.cif
#   From: 2010.03.12/outbox.cif.g09.slc.cpg/sg60_13_cif.got.tgz:25983.got - 2010.04.10 18:46:24.
