data_PCOD8247208
_publ_section_title
;
Structure prediction by ZEFSAII (Michael W. Deem and Ramdas Pophale) SiO2 
 PCOD8247208
Probable space group: P B C N
;
_chemical_formula_sum "Si O2"
_cell_formula_units_Z 60
_cell_length_a 11.630984
_cell_length_b 10.192753
_cell_length_c 22.331728
_cell_angle_alpha 90.000000
_cell_angle_beta 90.000000
_cell_angle_gamma 90.000000
_cell_volume 2647.465369
_symmetry_space_group_name_H-M "P B C N"
_symmetry_group_IT_number 60
_symmetry_cell_setting 'orthorhombic'
loop_
_space_group_symop_operation_xyz
x,y,z
1/2-x,1/2-y,1/2+z
1/2+x,1/2-y,-z
-x,y,1/2-z
-x,-y,-z
1/2+x,1/2+y,1/2-z
1/2-x,1/2+y,z
x,-y,1/2+z
loop_
_atom_site_type_symbol
_atom_site_label
_atom_site_fract_x
_atom_site_fract_y
_atom_site_fract_z
Si Si1 0.684459 0.811641 0.037072
Si Si2 0.212194 0.460449 0.583632
Si Si3 0.076397 0.106641 0.531345
Si Si4 0.364422 0.390396 0.264182
Si Si5 0.965836 0.525035 0.624429
Si Si6 0.725823 0.871935 0.786533
Si Si7 0.000000 0.484438 0.250000
Si Si8 0.398347 0.266549 0.386316
O O1 0.628196 0.916976 0.080509
O O2 0.804663 0.760614 0.061645
O O3 0.599959 0.690046 0.028715
O O4 0.700108 0.858948 0.969605
O O5 0.306635 0.563649 0.563032
O O6 0.254563 0.384010 0.643033
O O7 0.091019 0.534785 0.594252
O O8 0.014824 0.181534 0.585016
O O9 0.000000 0.000000 0.500000
O O10 0.500000 0.378283 0.250000
O O11 0.318485 0.537864 0.249776
O O12 0.280469 0.283239 0.230908
O O13 0.352330 0.363127 0.334766
O O14 0.925666 0.376890 0.639380
O O15 0.963123 0.598364 0.690302
O O16 0.599537 0.923697 0.774606
#
# Coordination Sequence:
#
# PCOD8247208 Si02
#       8
#     8   8   8   8   8   8   4   8
#     4  12  26  42  71 100 141 184 231 286 355 429
#     4  11  24  42  70  99 138 180 240 278 359 414
#     4  12  27  45  66 105 142 183 231 298 351 422
#     4  12  25  48  75 106 143 192 243 300 371 430
#     4  11  23  45  72 101 131 187 232 286 351 426
#     4  11  24  44  75 103 142 188 239 304 361 435
#     4  10  20  46  70 102 136 178 234 296 358 420
#     4  12  25  43  74  95 145 181 233 288 359 421
#
# _framework density 22.663184999999999
#
# number of rings (size 3 to 8) (size 9 to 14) (size 15 to 20)
#    0.000    0.533    4.667    3.600    3.733    0.000 
#    3.600    0.000    0.000    0.000    0.000    0.000 
#    0.000    0.000    0.000    0.000    0.000    0.000 
#
# Total GULP energy -743743.228446 kJ/mol
# GULP energy per Si atom -12395.720474 kJ/mol
# Density = 2.261160 g / cm^3
# Si number density = 22.663185 Si / 1000 Ang^3
#
#
#
# Elastic Constant Matrix: (Units=GPa)
#
#
# Indices 1 2 3 4 5 6 
#
# 1 93.1964 52.7673 51.9583 0.0000 0.0000 0.0000
# 2 52.7673 80.7968 29.9077 0.0000 0.0000 0.0000
# 3 51.9583 29.9077 153.6733 0.0000 0.0000 0.0000
# 4 0.0000 0.0000 0.0000 1.5940 0.0000 0.0000
# 5 0.0000 0.0000 0.0000 0.0000 58.4360 0.0000
# 6 0.0000 0.0000 0.0000 0.0000 0.0000 34.2247
#
#
#
# Elastic Compliance Matrix: (Units=1/GPa)
#
#
# Indices 1 2 3 4 5 6 
#
# 1 0.019470 -0.011077 -0.004427 0.000000 0.000000 0.000000
# 2 -0.011077 0.019639 -0.000077 0.000000 0.000000 0.000000
# 3 -0.004427 -0.000077 0.008019 0.000000 0.000000 0.000000
# 4 0.000000 0.000000 0.000000 0.627340 0.000000 0.000000
# 5 0.000000 0.000000 0.000000 0.000000 0.017113 0.000000
# 6 0.000000 0.000000 0.000000 0.000000 0.000000 0.029219
#
#
# Mechanical properties :
#
#
# Convention : Reuss Voigt Hill
#
# Bulk Modulus (GPa) = 62.63144 66.32590 64.47867
# Shear Modulus (GPa) = 6.60255 31.71982 19.16118
#
# Velocity S-wave (km/s) = 1.70870 3.74521 2.91086
# Velocity P-wave (km/s) = 5.62038 6.93048 6.30952
#
# Compressibility (1/GPa) = 0.01596642
#
# Stress axis : x y z
#
# Youngs Moduli (GPa) = 51.36147 50.91827 124.70109
#
# Poissons Ratio (x) = 0.56401 0.55208
# Poissons Ratio (y) = 0.56892 0.00961
# Poissons Ratio (z) = 0.22739 0.00392
#
# Static dielectric constant tensor:
#      x y z
#    x 4.240480 0.000000 0.000000 
#    y 0.000000 4.138170 0.000000 
#    z 0.000000 0.000000 5.009720 
# 
# 
# High freq. dielectric constant tensor:
#      x y z
#    x 1.905670 0.000000 0.000000 
#    y 0.000000 1.871570 0.000000 
#    z 0.000000 0.000000 1.919050 
# 
# From -- ./inp_files/22692.got.cif
#   From: 2010.03.12/outbox.cif.g09.slc.cpg/sg60_12_cif.got.tgz:22692.got - 2010.04.10 18:46:24.
