data_PCOD8247723
_publ_section_title
;
Structure prediction by ZEFSAII (Michael W. Deem and Ramdas Pophale) SiO2 
 PCOD8247723
Probable space group: P B C N
;
_chemical_formula_sum "Si O2"
_cell_formula_units_Z 40
_cell_length_a 9.323795
_cell_length_b 11.373479
_cell_length_c 14.873516
_cell_angle_alpha 90.000000
_cell_angle_beta 90.000000
_cell_angle_gamma 90.000000
_cell_volume 1577.246932
_symmetry_space_group_name_H-M "P B C N"
_symmetry_group_IT_number 60
_symmetry_cell_setting 'orthorhombic'
loop_
_space_group_symop_operation_xyz
x,y,z
1/2-x,1/2-y,1/2+z
1/2+x,1/2-y,-z
-x,y,1/2-z
-x,-y,-z
1/2+x,1/2+y,1/2-z
1/2-x,1/2+y,z
x,-y,1/2+z
loop_
_atom_site_type_symbol
_atom_site_label
_atom_site_fract_x
_atom_site_fract_y
_atom_site_fract_z
Si Si1 0.759855 0.074724 0.349373
Si Si2 0.500000 0.422106 0.411595
Si Si3 0.000000 0.733665 0.849589
Si Si4 0.259855 0.574724 0.349373
Si Si5 0.000000 0.350152 0.538832
O O1 0.860387 0.187201 0.361421
O O2 0.690093 0.074066 0.250000
O O3 0.638590 0.081889 0.424862
O O4 0.854660 0.955614 0.358224
O O5 0.500000 0.500000 0.500000
O O6 0.354660 0.455614 0.358224
O O7 0.500000 0.284529 0.430211
O O8 0.000000 0.673147 0.750000
O O9 0.139613 0.812799 0.861421
O O10 0.000000 0.637839 0.929843
O O11 0.138590 0.581889 0.424862
#
# Coordination Sequence:
#
# PCOD8247723 Si02
#       5
#     8   8   8   8   8
#     4  10  22  40  63 101 138 167 221 284 320 391
#     4  11  23  41  70  94 131 179 223 267 334 397
#     4   9  19  37  62  92 134 172 217 281 325 380
#     4  10  22  40  63 101 138 167 221 284 320 391
#     4  12  22  41  75  94 130 186 221 260 350 400
#
# _framework density 25.360645999999999
#
# number of rings (size 3 to 8) (size 9 to 14) (size 15 to 20)
#    0.000    1.600    4.000    3.600    0.000    3.200 
#    0.000    5.000    0.000   12.000    0.000    0.000 
#    0.000    0.000    0.000    0.000    0.000    0.000 
#
# Total GULP energy -495973.927007 kJ/mol
# GULP energy per Si atom -12399.348175 kJ/mol
# Density = 2.530292 g / cm^3
# Si number density = 25.360646 Si / 1000 Ang^3
#
#
#
# Elastic Constant Matrix: (Units=GPa)
#
#
# Indices 1 2 3 4 5 6 
#
# 1 137.0546 43.7980 60.9672 0.0000 0.0000 0.0000
# 2 43.7980 113.1518 31.1416 0.0000 0.0000 0.0000
# 3 60.9672 31.1416 203.2567 0.0000 0.0000 0.0000
# 4 0.0000 0.0000 0.0000 20.7915 0.0000 0.0000
# 5 0.0000 0.0000 0.0000 0.0000 34.2328 0.0000
# 6 0.0000 0.0000 0.0000 0.0000 0.0000 5.6398
#
#
#
# Elastic Compliance Matrix: (Units=1/GPa)
#
#
# Indices 1 2 3 4 5 6 
#
# 1 0.009275 -0.002949 -0.002330 0.000000 0.000000 0.000000
# 2 -0.002949 0.010164 -0.000673 0.000000 0.000000 0.000000
# 3 -0.002330 -0.000673 0.005722 0.000000 0.000000 0.000000
# 4 0.000000 0.000000 0.000000 0.048096 0.000000 0.000000
# 5 0.000000 0.000000 0.000000 0.000000 0.029212 0.000000
# 6 0.000000 0.000000 0.000000 0.000000 0.000000 0.177311
#
#
# Mechanical properties :
#
#
# Convention : Reuss Voigt Hill
#
# Bulk Modulus (GPa) = 75.42860 80.58630 78.00745
# Shear Modulus (GPa) = 16.88593 33.30325 25.09459
#
# Velocity S-wave (km/s) = 2.58317 3.62772 3.14906
# Velocity P-wave (km/s) = 6.22125 7.02796 6.63688
#
# Compressibility (1/GPa) = 0.01325757
#
# Stress axis : x y z
#
# Youngs Moduli (GPa) = 107.81258 98.38374 174.76529
#
# Poissons Ratio (x) = 0.29012 0.40726
# Poissons Ratio (y) = 0.31793 0.11758
# Poissons Ratio (z) = 0.25124 0.06619
#
# Static dielectric constant tensor:
#      x y z
#    x 4.659850 0.000000 0.000000 
#    y 0.000000 4.452080 0.000000 
#    z 0.000000 0.000000 5.061910 
# 
# 
# High freq. dielectric constant tensor:
#      x y z
#    x 2.014080 0.000000 0.000000 
#    y 0.000000 1.996760 0.000000 
#    z 0.000000 0.000000 2.027410 
# 
# From -- ./inp_files/14674.got.cif
#   From: 2010.03.12/outbox.cif.g09.slc.cpg/sg60_8_cif.got.tgz:14674.got - 2010.04.10 18:46:24.
