data_PCOD8247374
_publ_section_title
;
Structure prediction by ZEFSAII (Michael W. Deem and Ramdas Pophale) SiO2 
 PCOD8247374
Probable space group: P B C N
;
_chemical_formula_sum "Si O2"
_cell_formula_units_Z 64
_cell_length_a 8.535890
_cell_length_b 23.523146
_cell_length_c 14.388308
_cell_angle_alpha 90.000000
_cell_angle_beta 90.000000
_cell_angle_gamma 90.000000
_cell_volume 2889.042560
_symmetry_space_group_name_H-M "P B C N"
_symmetry_group_IT_number 60
_symmetry_cell_setting 'orthorhombic'
loop_
_space_group_symop_operation_xyz
x,y,z
1/2-x,1/2-y,1/2+z
1/2+x,1/2-y,-z
-x,y,1/2-z
-x,-y,-z
1/2+x,1/2+y,1/2-z
1/2-x,1/2+y,z
x,-y,1/2+z
loop_
_atom_site_type_symbol
_atom_site_label
_atom_site_fract_x
_atom_site_fract_y
_atom_site_fract_z
Si Si1 0.685276 0.801388 0.349682
Si Si2 0.691571 0.381084 0.010712
Si Si3 0.333749 0.210587 0.868989
Si Si4 0.145043 0.926244 0.948541
Si Si5 0.801536 0.325629 0.648832
Si Si6 0.663241 0.815405 0.856002
Si Si7 0.328611 0.538351 0.841235
Si Si8 0.329576 0.422576 0.146856
O O1 0.689477 0.797733 0.239597
O O2 0.511858 0.806856 0.394293
O O3 0.763353 0.744296 0.391368
O O4 0.780186 0.858021 0.373813
O O5 0.519726 0.395660 0.970475
O O6 0.799253 0.368464 0.922436
O O7 0.702853 0.325531 0.076596
O O8 0.766960 0.432544 0.073610
O O9 0.308346 0.276653 0.893866
O O10 0.270660 0.882233 0.909001
O O11 0.130523 0.973757 0.867791
O O12 0.206444 0.953577 0.047073
O O13 0.763643 0.334330 0.757562
O O14 0.979350 0.305770 0.642911
O O15 0.485003 0.576290 0.837106
O O16 0.249045 0.546387 0.737789
#
# Coordination Sequence:
#
# PCOD8247374 Si02
#       8
#     8   8   8   8   8   8   8   8
#     4  10  21  40  63  99 134 175 218 273 342 406
#     4  11  22  39  65  98 129 171 219 275 329 392
#     4  10  22  38  65  99 138 166 220 274 339 407
#     4  11  25  42  69  97 132 178 235 270 334 401
#     4  10  24  43  61  97 135 182 219 276 333 408
#     4  10  24  39  66  94 140 179 218 272 344 405
#     4  10  23  43  65  98 129 173 228 277 326 397
#     4  10  21  38  68  95 125 170 219 280 327 390
#
# _framework density 22.152668999999999
#
# number of rings (size 3 to 8) (size 9 to 14) (size 15 to 20)
#    0.000    1.750    1.250    2.250    7.000    5.500 
#    0.000    0.625    8.250    0.000    0.000    0.000 
#    0.000    0.000    0.000    0.000    0.000    0.000 
#
# Total GULP energy -792864.943090 kJ/mol
# GULP energy per Si atom -12388.514736 kJ/mol
# Density = 2.210225 g / cm^3
# Si number density = 22.152669 Si / 1000 Ang^3
#
#
#
# Elastic Constant Matrix: (Units=GPa)
#
#
# Indices 1 2 3 4 5 6 
#
# 1 60.7034 47.8585 20.9221 0.0000 0.0000 0.0000
# 2 47.8585 108.4457 56.7730 0.0000 0.0000 0.0000
# 3 20.9221 56.7730 125.3019 0.0000 0.0000 0.0000
# 4 0.0000 0.0000 0.0000 36.2988 0.0000 0.0000
# 5 0.0000 0.0000 0.0000 0.0000 21.0978 0.0000
# 6 0.0000 0.0000 0.0000 0.0000 0.0000 20.3955
#
#
#
# Elastic Compliance Matrix: (Units=1/GPa)
#
#
# Indices 1 2 3 4 5 6 
#
# 1 0.025378 -0.011774 0.001097 0.000000 0.000000 0.000000
# 2 -0.011774 0.017551 -0.005986 0.000000 0.000000 0.000000
# 3 0.001097 -0.005986 0.010510 0.000000 0.000000 0.000000
# 4 0.000000 0.000000 0.000000 0.027549 0.000000 0.000000
# 5 0.000000 0.000000 0.000000 0.000000 0.047398 0.000000
# 6 0.000000 0.000000 0.000000 0.000000 0.000000 0.049030
#
#
# Mechanical properties :
#
#
# Convention : Reuss Voigt Hill
#
# Bulk Modulus (GPa) = 49.71955 60.61757 55.16856
# Shear Modulus (GPa) = 22.99405 26.81825 24.90615
#
# Velocity S-wave (km/s) = 3.22527 3.48316 3.35669
# Velocity P-wave (km/s) = 6.03014 6.60299 6.32305
#
# Compressibility (1/GPa) = 0.02011281
#
# Stress axis : x y z
#
# Youngs Moduli (GPa) = 39.40412 56.97618 95.14887
#
# Poissons Ratio (x) = 0.67084 -0.10440
# Poissons Ratio (y) = 0.46395 0.56959
# Poissons Ratio (z) = -0.04324 0.34108
#
# Static dielectric constant tensor:
#      x y z
#    x 3.682600 0.000000 0.000000 
#    y 0.000000 3.884950 0.000000 
#    z 0.000000 0.000000 4.808510 
# 
# 
# High freq. dielectric constant tensor:
#      x y z
#    x 1.836980 0.000000 0.000000 
#    y 0.000000 1.858620 0.000000 
#    z 0.000000 0.000000 1.901300 
# 
# From -- ./inp_files/15406.got.cif
#   From: 2010.03.12/outbox.cif.g09.slc.cpg/sg60_8_cif.got.tgz:15406.got - 2010.04.10 18:46:24.
