data_PCOD8247118
_publ_section_title
;
Structure prediction by ZEFSAII (Michael W. Deem and Ramdas Pophale) SiO2 
 PCOD8247118
Probable space group: P B C N
;
_chemical_formula_sum "Si O2"
_cell_formula_units_Z 40
_cell_length_a 8.865395
_cell_length_b 7.901661
_cell_length_c 24.366017
_cell_angle_alpha 90.000000
_cell_angle_beta 90.000000
_cell_angle_gamma 90.000000
_cell_volume 1706.872286
_symmetry_space_group_name_H-M "P B C N"
_symmetry_group_IT_number 60
_symmetry_cell_setting 'orthorhombic'
loop_
_space_group_symop_operation_xyz
x,y,z
1/2-x,1/2-y,1/2+z
1/2+x,1/2-y,-z
-x,y,1/2-z
-x,-y,-z
1/2+x,1/2+y,1/2-z
1/2-x,1/2+y,z
x,-y,1/2+z
loop_
_atom_site_type_symbol
_atom_site_label
_atom_site_fract_x
_atom_site_fract_y
_atom_site_fract_z
Si Si1 0.641878 0.777503 0.778775
Si Si2 0.553664 0.024886 0.061127
Si Si3 0.104789 0.608352 0.663435
Si Si4 0.328269 0.344140 0.393168
Si Si5 0.866534 0.867953 0.683552
O O1 0.500000 0.677939 0.750000
O O2 0.720170 0.652976 0.823472
O O3 0.761125 0.865464 0.737107
O O4 0.558270 0.931476 0.809210
O O5 0.437256 0.916620 0.099514
O O6 0.726467 0.958517 0.066011
O O7 0.548582 0.228037 0.074809
O O8 0.500000 0.000000 0.000000
O O9 0.017750 0.761528 0.693532
O O10 0.401486 0.443982 0.340716
O O11 0.214706 0.211851 0.367826
#
# Coordination Sequence:
#
# PCOD8247118 Si02
#       5
#     8   8   8   8   8
#     4  12  23  38  61  94 134 167 206 269 330 399
#     4  10  22  43  66  94 130 172 229 293 341 386
#     4  11  26  41  61  94 128 174 228 262 324 412
#     4   9  19  38  67  92 122 168 222 273 328 394
#     4  10  20  40  64  90 124 171 211 253 320 399
#
# _framework density 23.434678000000002
#
# number of rings (size 3 to 8) (size 9 to 14) (size 15 to 20)
#    0.000    1.600    0.000    6.600    0.000    6.400 
#    0.000    9.000    0.000    0.000    0.000    0.000 
#    0.000    0.000    0.000    0.000    0.000    0.000 
#
# Total GULP energy -495523.196616 kJ/mol
# GULP energy per Si atom -12388.079915 kJ/mol
# Density = 2.338134 g / cm^3
# Si number density = 23.434678 Si / 1000 Ang^3
#
#
#
# Elastic Constant Matrix: (Units=GPa)
#
#
# Indices 1 2 3 4 5 6 
#
# 1 102.3384 34.3244 59.2835 0.0000 0.0000 0.0000
# 2 34.3244 81.7018 31.9292 0.0000 0.0000 0.0000
# 3 59.2835 31.9292 142.3449 0.0000 0.0000 0.0000
# 4 0.0000 0.0000 0.0000 33.0983 0.0000 0.0000
# 5 0.0000 0.0000 0.0000 0.0000 36.2961 0.0000
# 6 0.0000 0.0000 0.0000 0.0000 0.0000 35.7460
#
#
#
# Elastic Compliance Matrix: (Units=1/GPa)
#
#
# Indices 1 2 3 4 5 6 
#
# 1 0.013944 -0.003933 -0.004925 0.000000 0.000000 0.000000
# 2 -0.003933 0.014525 -0.001620 0.000000 0.000000 0.000000
# 3 -0.004925 -0.001620 0.009440 0.000000 0.000000 0.000000
# 4 0.000000 0.000000 0.000000 0.030213 0.000000 0.000000
# 5 0.000000 0.000000 0.000000 0.000000 0.027551 0.000000
# 6 0.000000 0.000000 0.000000 0.000000 0.000000 0.027975
#
#
# Mechanical properties :
#
#
# Convention : Reuss Voigt Hill
#
# Bulk Modulus (GPa) = 58.98988 64.16213 61.57600
# Shear Modulus (GPa) = 33.27671 34.41795 33.84733
#
# Velocity S-wave (km/s) = 3.77235 3.83649 3.80455
# Velocity P-wave (km/s) = 6.64837 6.86028 6.75516
#
# Compressibility (1/GPa) = 0.01695206
#
# Stress axis : x y z
#
# Youngs Moduli (GPa) = 71.71688 68.84595 105.93552
#
# Poissons Ratio (x) = 0.27079 0.52173
# Poissons Ratio (y) = 0.28209 0.17161
# Poissons Ratio (z) = 0.35320 0.11153
#
# Static dielectric constant tensor:
#      x y z
#    x 4.663140 0.000000 0.000000 
#    y 0.000000 4.982490 0.000000 
#    z 0.000000 0.000000 3.876900 
# 
# 
# High freq. dielectric constant tensor:
#      x y z
#    x 1.914990 0.000000 0.000000 
#    y 0.000000 1.940950 0.000000 
#    z 0.000000 0.000000 1.905220 
# 
# From -- ./inp_files/25119.got.cif
#   From: 2010.03.12/outbox.cif.g09.slc.cpg/sg60_13_cif.got.tgz:25119.got - 2010.04.10 18:46:24.
