data_PCOD8247885
_publ_section_title
;
Structure prediction by ZEFSAII (Michael W. Deem and Ramdas Pophale) SiO2 
 PCOD8247885
Probable space group: P B C N
;
_chemical_formula_sum "Si O2"
_cell_formula_units_Z 36
_cell_length_a 10.835736
_cell_length_b 16.213511
_cell_length_c 9.400914
_cell_angle_alpha 90.000000
_cell_angle_beta 90.000000
_cell_angle_gamma 90.000000
_cell_volume 1651.602630
_symmetry_space_group_name_H-M "P B C N"
_symmetry_group_IT_number 60
_symmetry_cell_setting 'orthorhombic'
loop_
_space_group_symop_operation_xyz
x,y,z
1/2-x,1/2-y,1/2+z
1/2+x,1/2-y,-z
-x,y,1/2-z
-x,-y,-z
1/2+x,1/2+y,1/2-z
1/2-x,1/2+y,z
x,-y,1/2+z
loop_
_atom_site_type_symbol
_atom_site_label
_atom_site_fract_x
_atom_site_fract_y
_atom_site_fract_z
Si Si1 0.000000 0.981150 0.750000
Si Si2 0.380106 0.088280 0.156088
Si Si3 0.890527 0.335228 0.146061
Si Si4 0.820137 0.148999 0.134643
Si Si5 0.730301 0.426431 0.350758
O O1 0.077777 0.922875 0.855039
O O2 0.091455 0.039787 0.661928
O O3 0.500000 0.074349 0.250000
O O4 0.280645 0.142658 0.241031
O O5 0.324464 0.000069 0.116403
O O6 0.417739 0.134873 0.012670
O O7 0.882915 0.237114 0.145321
O O8 0.765949 0.378111 0.205657
O O9 0.000000 0.363302 0.250000
O O10 0.757711 0.137728 0.980638
#
# Coordination Sequence:
#
# PCOD8247885 Si02
#       5
#     4   8   8   8   8
#     4  10  22  44  72  98 130 180 220 276 320 406
#     4  11  24  43  68  97 132 178 225 271 331 399
#     4  12  25  44  66  98 139 174 220 280 335 390
#     4  11  23  44  66  99 136 173 222 276 334 392
#     4  11  24  44  70  99 131 178 225 270 328 401
#
# _framework density 21.797011000000001
#
# number of rings (size 3 to 8) (size 9 to 14) (size 15 to 20)
#    0.000    0.889    1.111    6.667    0.000    4.444 
#   12.000    0.000    0.000    0.000    0.000    0.000 
#    0.000    0.000    0.000    0.000    0.000    0.000 
#
# Total GULP energy -446634.667052 kJ/mol
# GULP energy per Si atom -12406.518529 kJ/mol
# Density = 2.174740 g / cm^3
# Si number density = 21.797011 Si / 1000 Ang^3
#
#
#
# Elastic Constant Matrix: (Units=GPa)
#
#
# Indices 1 2 3 4 5 6 
#
# 1 124.7363 33.2028 54.0139 0.0000 0.0000 0.0000
# 2 33.2028 84.5568 33.2167 0.0000 0.0000 0.0000
# 3 54.0139 33.2167 135.2949 0.0000 0.0000 0.0000
# 4 0.0000 0.0000 0.0000 27.8136 0.0000 0.0000
# 5 0.0000 0.0000 0.0000 0.0000 24.1233 0.0000
# 6 0.0000 0.0000 0.0000 0.0000 0.0000 18.2136
#
#
#
# Elastic Compliance Matrix: (Units=1/GPa)
#
#
# Indices 1 2 3 4 5 6 
#
# 1 0.010207 -0.002664 -0.003421 0.000000 0.000000 0.000000
# 2 -0.002664 0.013784 -0.002321 0.000000 0.000000 0.000000
# 3 -0.003421 -0.002321 0.009327 0.000000 0.000000 0.000000
# 4 0.000000 0.000000 0.000000 0.035954 0.000000 0.000000
# 5 0.000000 0.000000 0.000000 0.000000 0.041454 0.000000
# 6 0.000000 0.000000 0.000000 0.000000 0.000000 0.054904
#
#
# Mechanical properties :
#
#
# Convention : Reuss Voigt Hill
#
# Bulk Modulus (GPa) = 60.58138 65.05054 62.81596
# Shear Modulus (GPa) = 26.60374 28.97376 27.78875
#
# Velocity S-wave (km/s) = 3.49739 3.64985 3.57443
# Velocity P-wave (km/s) = 6.64550 6.90438 6.77618
#
# Compressibility (1/GPa) = 0.01650672
#
# Stress axis : x y z
#
# Youngs Moduli (GPa) = 97.96737 72.54727 107.21837
#
# Poissons Ratio (x) = 0.19328 0.36680
# Poissons Ratio (y) = 0.26101 0.24880
# Poissons Ratio (z) = 0.33515 0.16835
#
# Static dielectric constant tensor:
#      x y z
#    x 4.040040 0.000000 0.000000 
#    y 0.000000 3.872400 0.000000 
#    z 0.000000 0.000000 3.942590 
# 
# 
# High freq. dielectric constant tensor:
#      x y z
#    x 1.862120 0.000000 0.000000 
#    y 0.000000 1.860500 0.000000 
#    z 0.000000 0.000000 1.865550 
# 
# From -- ./inp_files/3685.got.cif
#   From: 2010.03.12/outbox.cif.g09.slc.cpg/sg60_2_cif.got.tgz:3685.got - 2010.04.10 18:46:24.
