data_PCOD8247874
_publ_section_title
;
Structure prediction by ZEFSAII (Michael W. Deem and Ramdas Pophale) SiO2 
 PCOD8247874
Probable space group: P B C N
;
_chemical_formula_sum "Si O2"
_cell_formula_units_Z 40
_cell_length_a 18.486601
_cell_length_b 14.715536
_cell_length_c 5.681873
_cell_angle_alpha 90.000000
_cell_angle_beta 90.000000
_cell_angle_gamma 90.000000
_cell_volume 1545.698109
_symmetry_space_group_name_H-M "P B C N"
_symmetry_group_IT_number 60
_symmetry_cell_setting 'orthorhombic'
loop_
_space_group_symop_operation_xyz
x,y,z
1/2-x,1/2-y,1/2+z
1/2+x,1/2-y,-z
-x,y,1/2-z
-x,-y,-z
1/2+x,1/2+y,1/2-z
1/2-x,1/2+y,z
x,-y,1/2+z
loop_
_atom_site_type_symbol
_atom_site_label
_atom_site_fract_x
_atom_site_fract_y
_atom_site_fract_z
Si Si1 0.583228 0.549010 0.734783
Si Si2 0.923295 0.522306 0.618238
Si Si3 0.819577 0.810281 0.421492
Si Si4 0.176372 0.359876 0.866073
Si Si5 0.582881 0.783914 0.247669
O O1 0.500000 0.578675 0.750000
O O2 0.601344 0.500030 0.486243
O O3 0.634173 0.637494 0.723742
O O4 0.962705 0.479338 0.382322
O O5 0.851811 0.462179 0.696004
O O6 0.905552 0.628208 0.572292
O O7 0.799314 0.707336 0.343683
O O8 0.746873 0.867806 0.467875
O O9 0.869971 0.800250 0.653212
O O10 0.108680 0.311664 0.994002
O O11 0.500000 0.751631 0.250000
#
# Coordination Sequence:
#
# PCOD8247874 Si02
#       5
#     8   8   8   8   8
#     4  10  26  48  74 107 144 191 251 315 376 442
#     4  10  22  44  68 102 146 190 237 290 361 436
#     4  12  25  46  72 106 145 194 253 307 374 446
#     4  11  25  44  71 102 149 191 248 302 366 441
#     4  11  26  44  72 109 149 193 242 308 371 448
#
# _framework density 25.878273
#
# number of rings (size 3 to 8) (size 9 to 14) (size 15 to 20)
#    0.000    1.200    4.000    0.000    5.600    7.200 
#    0.000    0.000    0.000    0.000    0.000    0.000 
#    0.000    0.000    0.000    0.000    0.000    0.000 
#
# Total GULP energy -495722.907327 kJ/mol
# GULP energy per Si atom -12393.072683 kJ/mol
# Density = 2.581937 g / cm^3
# Si number density = 25.878273 Si / 1000 Ang^3
#
#
#
# Elastic Constant Matrix: (Units=GPa)
#
#
# Indices 1 2 3 4 5 6 
#
# 1 145.1383 44.6368 19.3358 0.0000 0.0000 0.0000
# 2 44.6368 82.5145 22.0070 0.0000 0.0000 0.0000
# 3 19.3358 22.0070 99.1954 0.0000 0.0000 0.0000
# 4 0.0000 0.0000 0.0000 37.3456 0.0000 0.0000
# 5 0.0000 0.0000 0.0000 0.0000 34.8417 0.0000
# 6 0.0000 0.0000 0.0000 0.0000 0.0000 38.4445
#
#
#
# Elastic Compliance Matrix: (Units=1/GPa)
#
#
# Indices 1 2 3 4 5 6 
#
# 1 0.008306 -0.004317 -0.000661 0.000000 0.000000 0.000000
# 2 -0.004317 0.015125 -0.002514 0.000000 0.000000 0.000000
# 3 -0.000661 -0.002514 0.010768 0.000000 0.000000 0.000000
# 4 0.000000 0.000000 0.000000 0.026777 0.000000 0.000000
# 5 0.000000 0.000000 0.000000 0.000000 0.028701 0.000000
# 6 0.000000 0.000000 0.000000 0.000000 0.000000 0.026012
#
#
# Mechanical properties :
#
#
# Convention : Reuss Voigt Hill
#
# Bulk Modulus (GPa) = 52.04513 55.42306 53.73410
# Shear Modulus (GPa) = 36.47599 38.18428 37.33013
#
# Velocity S-wave (km/s) = 3.75843 3.84544 3.80218
# Velocity P-wave (km/s) = 6.24416 6.41715 6.33125
#
# Compressibility (1/GPa) = 0.01921409
#
# Stress axis : x y z
#
# Youngs Moduli (GPa) = 120.40003 66.11700 92.86968
#
# Poissons Ratio (x) = 0.28540 0.06142
# Poissons Ratio (y) = 0.51972 0.23348
# Poissons Ratio (z) = 0.07962 0.16622
#
# Static dielectric constant tensor:
#      x y z
#    x 4.674590 0.000000 0.000000 
#    y 0.000000 4.560510 0.000000 
#    z 0.000000 0.000000 4.787760 
# 
# 
# High freq. dielectric constant tensor:
#      x y z
#    x 2.049290 0.000000 0.000000 
#    y 0.000000 2.016900 0.000000 
#    z 0.000000 0.000000 2.056680 
# 
# From -- ./inp_files/1638.got.cif
#   From: 2010.03.12/outbox.cif.g09.slc.cpg/sg60_1_cif.got.tgz:1638.got - 2010.04.10 18:46:24.
