data_PCOD8247514
_publ_section_title
;
Structure prediction by ZEFSAII (Michael W. Deem and Ramdas Pophale) SiO2 
 PCOD8247514
Probable space group: P B C N
;
_chemical_formula_sum "Si O2"
_cell_formula_units_Z 56
_cell_length_a 12.366381
_cell_length_b 13.921818
_cell_length_c 12.230577
_cell_angle_alpha 90.000000
_cell_angle_beta 90.000000
_cell_angle_gamma 90.000000
_cell_volume 2105.646781
_symmetry_space_group_name_H-M "P B C N"
_symmetry_group_IT_number 60
_symmetry_cell_setting 'orthorhombic'
loop_
_space_group_symop_operation_xyz
x,y,z
1/2-x,1/2-y,1/2+z
1/2+x,1/2-y,-z
-x,y,1/2-z
-x,-y,-z
1/2+x,1/2+y,1/2-z
1/2-x,1/2+y,z
x,-y,1/2+z
loop_
_atom_site_type_symbol
_atom_site_label
_atom_site_fract_x
_atom_site_fract_y
_atom_site_fract_z
Si Si1 0.539913 0.076514 0.858776
Si Si2 0.157640 0.114192 0.275137
Si Si3 0.304679 0.716855 0.941354
Si Si4 0.532963 0.866886 0.597488
Si Si5 0.976486 0.903731 0.934251
Si Si6 0.323942 0.756679 0.656029
Si Si7 0.755604 0.917531 0.241131
O O1 0.500000 0.133527 0.750000
O O2 0.666274 0.061781 0.835083
O O3 0.468235 0.978224 0.865871
O O4 0.520529 0.139295 0.965910
O O5 0.097410 0.071777 0.169007
O O6 0.231893 0.202435 0.238336
O O7 0.083907 0.145297 0.379358
O O8 0.217900 0.018384 0.313747
O O9 0.353496 0.811419 0.875283
O O10 0.230946 0.647200 0.866648
O O11 0.416284 0.668847 0.984132
O O12 0.224964 0.749327 0.035749
O O13 0.432840 0.818236 0.660208
O O14 0.000000 0.000000 0.000000
O O15 0.347389 0.647033 0.695910
#
# Coordination Sequence:
#
# PCOD8247514 Si02
#       7
#     8   8   8   8   8   8   8
#     4  11  25  47  73 100 146 201 242 302 373 448
#     4  10  23  42  66  99 138 188 237 300 368 437
#     4  11  25  43  71 109 141 188 245 309 363 438
#     4  11  25  46  71 107 148 190 251 304 371 445
#     4  10  21  41  65  95 137 178 232 294 365 432
#     4  11  25  45  67 105 148 190 249 303 368 443
#     4  12  24  45  72 101 145 186 247 300 371 437
#
# _framework density 26.595151999999999
#
# number of rings (size 3 to 8) (size 9 to 14) (size 15 to 20)
#    0.000    1.143    4.286    0.857    4.000    2.286 
#    0.000    0.000    0.000    0.000    0.000    0.000 
#    0.000    0.000    0.000    0.000    0.000    0.000 
#
# Total GULP energy -693758.690105 kJ/mol
# GULP energy per Si atom -12388.548038 kJ/mol
# Density = 2.653462 g / cm^3
# Si number density = 26.595152 Si / 1000 Ang^3
#
#
#
# Elastic Constant Matrix: (Units=GPa)
#
#
# Indices 1 2 3 4 5 6 
#
# 1 47.9815 -2.6805 10.9039 0.0000 0.0000 0.0000
# 2 -2.6805 89.1019 7.5833 0.0000 0.0000 0.0000
# 3 10.9039 7.5833 113.5483 0.0000 0.0000 0.0000
# 4 0.0000 0.0000 0.0000 42.9134 0.0000 0.0000
# 5 0.0000 0.0000 0.0000 0.0000 61.4692 0.0000
# 6 0.0000 0.0000 0.0000 0.0000 0.0000 35.1971
#
#
#
# Elastic Compliance Matrix: (Units=1/GPa)
#
#
# Indices 1 2 3 4 5 6 
#
# 1 0.021366 0.000822 -0.002107 0.000000 0.000000 0.000000
# 2 0.000822 0.011319 -0.000835 0.000000 0.000000 0.000000
# 3 -0.002107 -0.000835 0.009065 0.000000 0.000000 0.000000
# 4 0.000000 0.000000 0.000000 0.023303 0.000000 0.000000
# 5 0.000000 0.000000 0.000000 0.000000 0.016268 0.000000
# 6 0.000000 0.000000 0.000000 0.000000 0.000000 0.028411
#
#
# Mechanical properties :
#
#
# Convention : Reuss Voigt Hill
#
# Bulk Modulus (GPa) = 26.65894 31.36056 29.00975
# Shear Modulus (GPa) = 39.53356 43.57095 41.55226
#
# Velocity S-wave (km/s) = 3.85969 4.05199 3.95701
# Velocity P-wave (km/s) = 5.46889 5.80594 5.63993
#
# Compressibility (1/GPa) = 0.03751087
#
# Stress axis : x y z
#
# Youngs Moduli (GPa) = 46.80329 88.34787 110.31582
#
# Poissons Ratio (x) = -0.07263 0.23240
# Poissons Ratio (y) = -0.03848 0.09210
# Poissons Ratio (z) = 0.09860 0.07376
#
# Static dielectric constant tensor:
#      x y z
#    x 4.845720 0.000000 0.000000 
#    y 0.000000 4.715820 0.000000 
#    z 0.000000 0.000000 5.258770 
# 
# 
# High freq. dielectric constant tensor:
#      x y z
#    x 2.054940 0.000000 0.000000 
#    y 0.000000 2.064010 0.000000 
#    z 0.000000 0.000000 2.101250 
# 
# From -- ./inp_files/16168.got.cif
#   From: 2010.03.12/outbox.cif.g09.slc.cpg/sg60_9_cif.got.tgz:16168.got - 2010.04.10 18:46:24.
