data_PCOD8247819
_publ_section_title
;
Structure prediction by ZEFSAII (Michael W. Deem and Ramdas Pophale) SiO2 
 PCOD8247819
Probable space group: P B C N
;
_chemical_formula_sum "Si O2"
_cell_formula_units_Z 52
_cell_length_a 15.059752
_cell_length_b 9.358795
_cell_length_c 17.346406
_cell_angle_alpha 90.000000
_cell_angle_beta 90.000000
_cell_angle_gamma 90.000000
_cell_volume 2444.822093
_symmetry_space_group_name_H-M "P B C N"
_symmetry_group_IT_number 60
_symmetry_cell_setting 'orthorhombic'
loop_
_space_group_symop_operation_xyz
x,y,z
1/2-x,1/2-y,1/2+z
1/2+x,1/2-y,-z
-x,y,1/2-z
-x,-y,-z
1/2+x,1/2+y,1/2-z
1/2-x,1/2+y,z
x,-y,1/2+z
loop_
_atom_site_type_symbol
_atom_site_label
_atom_site_fract_x
_atom_site_fract_y
_atom_site_fract_z
Si Si1 0.451442 0.824780 0.822655
Si Si2 0.742342 0.051795 0.154506
Si Si3 0.708914 0.158093 0.904289
Si Si4 0.072268 0.572653 0.050663
Si Si5 0.284339 0.788570 0.448295
Si Si6 0.500000 0.553267 0.750000
Si Si7 0.172442 0.949003 0.682463
O O1 0.500000 0.902478 0.750000
O O2 0.360981 0.902354 0.845726
O O3 0.523091 0.824777 0.890335
O O4 0.436682 0.656237 0.802630
O O5 0.804613 0.176725 0.120079
O O6 0.771455 0.017751 0.240718
O O7 0.757361 0.923970 0.094561
O O8 0.692754 0.289441 0.846522
O O9 0.628981 0.044977 0.902809
O O10 0.797410 0.070443 0.878806
O O11 0.715208 0.218714 0.991230
O O12 0.128717 0.674102 0.995707
O O13 0.000000 0.500000 0.000000
O O14 0.566701 0.457462 0.801212
#
# Coordination Sequence:
#
# PCOD8247819 Si02
#       7
#     8   8   8   8   8   4   8
#     4  10  22  42  67  96 136 180 228 285 348 406
#     4  12  24  43  68 102 134 185 228 288 349 415
#     4  12  24  45  71 101 137 192 233 280 356 430
#     4  12  23  42  67 101 135 179 231 285 348 425
#     4  12  23  42  67  97 138 175 230 279 345 417
#     4  10  24  42  64 100 138 168 228 296 346 390
#     4  12  25  45  71 100 140 185 237 290 348 419
#
# _framework density 21.269442000000002
#
# number of rings (size 3 to 8) (size 9 to 14) (size 15 to 20)
#    0.462    0.000    4.615    4.615    0.000    1.231 
#    4.154    0.000    0.000    7.385    0.000    0.000 
#    0.000    0.000    0.000    0.000    0.000    0.000 
#
# Total GULP energy -644637.471160 kJ/mol
# GULP energy per Si atom -12396.874445 kJ/mol
# Density = 2.122103 g / cm^3
# Si number density = 21.269442 Si / 1000 Ang^3
#
#
#
# Elastic Constant Matrix: (Units=GPa)
#
#
# Indices 1 2 3 4 5 6 
#
# 1 68.5181 21.7624 20.0471 0.0000 0.0000 0.0000
# 2 21.7624 96.4726 23.0230 0.0000 0.0000 0.0000
# 3 20.0471 23.0230 96.4559 0.0000 0.0000 0.0000
# 4 0.0000 0.0000 0.0000 35.5953 0.0000 0.0000
# 5 0.0000 0.0000 0.0000 0.0000 45.8176 0.0000
# 6 0.0000 0.0000 0.0000 0.0000 0.0000 16.1401
#
#
#
# Elastic Compliance Matrix: (Units=1/GPa)
#
#
# Indices 1 2 3 4 5 6 
#
# 1 0.016344 -0.003050 -0.002669 0.000000 0.000000 0.000000
# 2 -0.003050 0.011561 -0.002126 0.000000 0.000000 0.000000
# 3 -0.002669 -0.002126 0.011429 0.000000 0.000000 0.000000
# 4 0.000000 0.000000 0.000000 0.028094 0.000000 0.000000
# 5 0.000000 0.000000 0.000000 0.000000 0.021826 0.000000
# 6 0.000000 0.000000 0.000000 0.000000 0.000000 0.061958
#
#
# Mechanical properties :
#
#
# Convention : Reuss Voigt Hill
#
# Bulk Modulus (GPa) = 42.29106 43.45683 42.87395
# Shear Modulus (GPa) = 28.60699 32.61821 30.61260
#
# Velocity S-wave (km/s) = 3.67138 3.92033 3.79789
# Velocity P-wave (km/s) = 6.15619 6.40062 6.27959
#
# Compressibility (1/GPa) = 0.02364566
#
# Stress axis : x y z
#
# Youngs Moduli (GPa) = 61.18344 86.49825 87.49298
#
# Poissons Ratio (x) = 0.26382 0.23351
# Poissons Ratio (y) = 0.18661 0.18597
# Poissons Ratio (z) = 0.16329 0.18386
#
# Static dielectric constant tensor:
#      x y z
#    x 3.643440 0.000000 0.000000 
#    y 0.000000 3.286920 0.000000 
#    z 0.000000 0.000000 4.063330 
# 
# 
# High freq. dielectric constant tensor:
#      x y z
#    x 1.823760 0.000000 0.000000 
#    y 0.000000 1.837530 0.000000 
#    z 0.000000 0.000000 1.851350 
# 
# From -- ./inp_files/22848.got.cif
#   From: 2010.03.12/outbox.cif.g09.slc.cpg/sg60_12_cif.got.tgz:22848.got - 2010.04.10 18:46:24.
