data_PCOD8247422
_publ_section_title
;
Structure prediction by ZEFSAII (Michael W. Deem and Ramdas Pophale) SiO2 
 PCOD8247422
Probable space group: P B C N
;
_chemical_formula_sum "Si O2"
_cell_formula_units_Z 40
_cell_length_a 12.220028
_cell_length_b 17.177276
_cell_length_c 8.488498
_cell_angle_alpha 90.000000
_cell_angle_beta 90.000000
_cell_angle_gamma 90.000000
_cell_volume 1781.793398
_symmetry_space_group_name_H-M "P B C N"
_symmetry_group_IT_number 60
_symmetry_cell_setting 'orthorhombic'
loop_
_space_group_symop_operation_xyz
x,y,z
1/2-x,1/2-y,1/2+z
1/2+x,1/2-y,-z
-x,y,1/2-z
-x,-y,-z
1/2+x,1/2+y,1/2-z
1/2-x,1/2+y,z
x,-y,1/2+z
loop_
_atom_site_type_symbol
_atom_site_label
_atom_site_fract_x
_atom_site_fract_y
_atom_site_fract_z
Si Si1 0.704122 0.161918 0.558904
Si Si2 0.102870 0.092857 0.451646
Si Si3 0.790096 0.314682 0.425269
Si Si4 0.489644 0.911498 0.935404
Si Si5 0.631364 0.434079 0.896309
O O1 0.785329 0.224750 0.476135
O O2 0.688268 0.179618 0.741017
O O3 0.582502 0.148430 0.493855
O O4 0.770566 0.083836 0.517377
O O5 0.165959 0.162327 0.534894
O O6 0.164329 0.073763 0.286758
O O7 0.977116 0.118314 0.425873
O O8 0.102431 0.023309 0.576362
O O9 0.875360 0.370650 0.515754
O O10 0.500000 0.918437 0.750000
O O11 0.500000 0.000000 0.000000
#
# Coordination Sequence:
#
# PCOD8247422 Si02
#       5
#     8   8   8   8   8
#     4  12  26  44  67  97 135 176 223 277 338 401
#     4  10  21  39  64  94 129 169 216 266 323 390
#     4  12  26  44  67  97 135 176 223 277 338 401
#     4  12  26  48  74 102 137 182 233 284 344 412
#     4  10  21  39  64  94 129 169 216 266 323 390
#
# _framework density 22.449292
#
# number of rings (size 3 to 8) (size 9 to 14) (size 15 to 20)
#    0.000    0.800    0.000    7.800    2.800    2.400 
#    0.000    0.000    0.000    0.000    0.000    0.000 
#    0.000    0.000    0.000    0.000    0.000    0.000 
#
# Total GULP energy -495818.567923 kJ/mol
# GULP energy per Si atom -12395.464198 kJ/mol
# Density = 2.239820 g / cm^3
# Si number density = 22.449292 Si / 1000 Ang^3
#
#
#
# Elastic Constant Matrix: (Units=GPa)
#
#
# Indices 1 2 3 4 5 6 
#
# 1 93.1522 24.4519 33.3516 0.0000 0.0000 0.0000
# 2 24.4519 67.8033 30.0921 0.0000 0.0000 0.0000
# 3 33.3516 30.0921 171.0430 0.0000 0.0000 0.0000
# 4 0.0000 0.0000 0.0000 37.7647 0.0000 0.0000
# 5 0.0000 0.0000 0.0000 0.0000 38.2405 0.0000
# 6 0.0000 0.0000 0.0000 0.0000 0.0000 42.2210
#
#
#
# Elastic Compliance Matrix: (Units=1/GPa)
#
#
# Indices 1 2 3 4 5 6 
#
# 1 0.012327 -0.003665 -0.001759 0.000000 0.000000 0.000000
# 2 -0.003665 0.017087 -0.002292 0.000000 0.000000 0.000000
# 3 -0.001759 -0.002292 0.006593 0.000000 0.000000 0.000000
# 4 0.000000 0.000000 0.000000 0.026480 0.000000 0.000000
# 5 0.000000 0.000000 0.000000 0.000000 0.026150 0.000000
# 6 0.000000 0.000000 0.000000 0.000000 0.000000 0.023685
#
#
# Mechanical properties :
#
#
# Convention : Reuss Voigt Hill
#
# Bulk Modulus (GPa) = 48.60000 56.42108 52.51054
# Shear Modulus (GPa) = 37.14409 39.91876 38.53142
#
# Velocity S-wave (km/s) = 4.07206 4.22142 4.14741
# Velocity P-wave (km/s) = 6.61851 6.99626 6.81001
#
# Compressibility (1/GPa) = 0.02057613
#
# Stress axis : x y z
#
# Youngs Moduli (GPa) = 81.12374 58.52325 151.68513
#
# Poissons Ratio (x) = 0.21448 0.26679
# Poissons Ratio (y) = 0.29731 0.34760
# Poissons Ratio (z) = 0.14268 0.13411
#
# Static dielectric constant tensor:
#      x y z
#    x 4.433910 0.000000 0.000000 
#    y 0.000000 4.096840 0.000000 
#    z 0.000000 0.000000 4.062230 
# 
# 
# High freq. dielectric constant tensor:
#      x y z
#    x 1.896430 0.000000 0.000000 
#    y 0.000000 1.880650 0.000000 
#    z 0.000000 0.000000 1.897810 
# 
# From -- ./inp_files/4738.got.cif
#   From: 2010.03.12/outbox.cif.g09.slc.cpg/sg60_3_cif.got.tgz:4738.got - 2010.04.10 18:46:24.
