data_PCOD8247245
_publ_section_title
;
Structure prediction by ZEFSAII (Michael W. Deem and Ramdas Pophale) SiO2 
 PCOD8247245
Probable space group: P B C N
;
_chemical_formula_sum "Si O2"
_cell_formula_units_Z 48
_cell_length_a 8.307750
_cell_length_b 10.104482
_cell_length_c 22.792703
_cell_angle_alpha 90.000000
_cell_angle_beta 90.000000
_cell_angle_gamma 90.000000
_cell_volume 1913.345085
_symmetry_space_group_name_H-M "P B C N"
_symmetry_group_IT_number 60
_symmetry_cell_setting 'orthorhombic'
loop_
_space_group_symop_operation_xyz
x,y,z
1/2-x,1/2-y,1/2+z
1/2+x,1/2-y,-z
-x,y,1/2-z
-x,-y,-z
1/2+x,1/2+y,1/2-z
1/2-x,1/2+y,z
x,-y,1/2+z
loop_
_atom_site_type_symbol
_atom_site_label
_atom_site_fract_x
_atom_site_fract_y
_atom_site_fract_z
Si Si1 0.500000 0.404403 0.750000
Si Si2 0.142194 0.385500 0.065038
Si Si3 0.833559 0.894589 0.327199
Si Si4 0.000000 0.683123 0.250000
Si Si5 0.821839 0.340804 0.997580
Si Si6 0.136322 0.083084 0.898823
Si Si7 0.752067 0.160812 0.163712
O O1 0.645724 0.489958 0.779116
O O2 0.582370 0.318997 0.699538
O O3 0.163970 0.382343 0.136772
O O4 0.969718 0.325301 0.044358
O O5 0.285268 0.295541 0.036495
O O6 0.145860 0.539844 0.047176
O O7 0.874575 0.763738 0.291111
O O8 0.950985 0.929048 0.382188
O O9 0.889387 0.600493 0.205449
O O10 0.660210 0.375371 0.034123
O O11 0.209059 0.193576 0.856183
O O12 0.227789 0.943230 0.889077
#
# Coordination Sequence:
#
# PCOD8247245 Si02
#       7
#     4   8   8   4   8   8   8
#     4   9  20  37  58  90 124 158 210 258 312 378
#     4  11  25  42  65  93 125 165 210 258 317 378
#     4   9  20  40  61  84 122 168 202 249 314 375
#     4   9  20  37  58  86 122 156 200 254 306 366
#     4  11  25  43  63  95 128 163 213 262 311 381
#     4  10  21  38  59  84 119 160 202 251 311 367
#     4  10  21  36  58  85 117 160 202 254 312 367
#
# _framework density 25.086953999999999
#
# number of rings (size 3 to 8) (size 9 to 14) (size 15 to 20)
#    0.000    2.000    0.000    3.000    0.000   14.000 
#    0.000    0.000    0.000    0.000    0.000    0.000 
#    0.000    0.000    0.000    0.000    0.000    0.000 
#
# Total GULP energy -594679.352132 kJ/mol
# GULP energy per Si atom -12389.153169 kJ/mol
# Density = 2.502985 g / cm^3
# Si number density = 25.086954 Si / 1000 Ang^3
#
#
#
# Elastic Constant Matrix: (Units=GPa)
#
#
# Indices 1 2 3 4 5 6 
#
# 1 36.9713 19.5020 5.2639 0.0000 0.0000 0.0000
# 2 19.5020 53.2197 -5.9524 0.0000 0.0000 0.0000
# 3 5.2639 -5.9524 82.8224 0.0000 0.0000 0.0000
# 4 0.0000 0.0000 0.0000 7.0594 0.0000 0.0000
# 5 0.0000 0.0000 0.0000 0.0000 59.2557 0.0000
# 6 0.0000 0.0000 0.0000 0.0000 0.0000 8.1708
#
#
#
# Elastic Compliance Matrix: (Units=1/GPa)
#
#
# Indices 1 2 3 4 5 6 
#
# 1 0.034305 -0.012919 -0.003109 0.000000 0.000000 0.000000
# 2 -0.012919 0.023807 0.002532 0.000000 0.000000 0.000000
# 3 -0.003109 0.002532 0.012454 0.000000 0.000000 0.000000
# 4 0.000000 0.000000 0.000000 0.141656 0.000000 0.000000
# 5 0.000000 0.000000 0.000000 0.000000 0.016876 0.000000
# 6 0.000000 0.000000 0.000000 0.000000 0.000000 0.122386
#
#
# Mechanical properties :
#
#
# Convention : Reuss Voigt Hill
#
# Bulk Modulus (GPa) = 22.94877 23.40448 23.17662
# Shear Modulus (GPa) = 12.72267 25.17719 18.94993
#
# Velocity S-wave (km/s) = 2.25443 3.17140 2.75138
# Velocity P-wave (km/s) = 3.99301 4.77074 4.39909
#
# Compressibility (1/GPa) = 0.04357532
#
# Stress axis : x y z
#
# Youngs Moduli (GPa) = 29.15029 42.00421 80.29817
#
# Poissons Ratio (x) = 0.54263 0.24963
# Poissons Ratio (y) = 0.37658 -0.20332
# Poissons Ratio (z) = 0.09062 -0.10636
#
# Static dielectric constant tensor:
#      x y z
#    x 4.829780 0.000000 0.000000 
#    y 0.000000 4.165340 0.000000 
#    z 0.000000 0.000000 4.723970 
# 
# 
# High freq. dielectric constant tensor:
#      x y z
#    x 1.991720 0.000000 0.000000 
#    y 0.000000 1.979970 0.000000 
#    z 0.000000 0.000000 2.007710 
# 
# From -- ./inp_files/25155.got.cif
#   From: 2010.03.12/outbox.cif.g09.slc.cpg/sg60_13_cif.got.tgz:25155.got - 2010.04.10 18:46:24.
