data_PCOD8247059
_publ_section_title
;
Structure prediction by ZEFSAII (Michael W. Deem and Ramdas Pophale) SiO2 
 PCOD8247059
Probable space group: P B C N
;
_chemical_formula_sum "Si O2"
_cell_formula_units_Z 48
_cell_length_a 27.217400
_cell_length_b 9.606058
_cell_length_c 9.267834
_cell_angle_alpha 90.000000
_cell_angle_beta 90.000000
_cell_angle_gamma 90.000000
_cell_volume 2423.093021
_symmetry_space_group_name_H-M "P B C N"
_symmetry_group_IT_number 60
_symmetry_cell_setting 'orthorhombic'
loop_
_space_group_symop_operation_xyz
x,y,z
1/2-x,1/2-y,1/2+z
1/2+x,1/2-y,-z
-x,y,1/2-z
-x,-y,-z
1/2+x,1/2+y,1/2-z
1/2-x,1/2+y,z
x,-y,1/2+z
loop_
_atom_site_type_symbol
_atom_site_label
_atom_site_fract_x
_atom_site_fract_y
_atom_site_fract_z
Si Si1 0.976023 0.797466 0.393319
Si Si2 0.213157 0.648083 0.051875
Si Si3 0.727567 0.870113 0.285136
Si Si4 0.542448 0.603528 0.362706
Si Si5 0.117474 0.665761 0.677395
Si Si6 0.396272 0.087791 0.991853
O O1 0.942175 0.681077 0.462769
O O2 0.000000 0.734039 0.250000
O O3 0.023450 0.840045 0.485702
O O4 0.944808 0.939224 0.365773
O O5 0.230320 0.787680 0.130478
O O6 0.231990 0.526061 0.155992
O O7 0.154105 0.653567 0.051579
O O8 0.234414 0.633049 0.888744
O O9 0.675382 0.804496 0.331946
O O10 0.500000 0.637519 0.250000
O O11 0.591946 0.683985 0.320501
O O12 0.097925 0.570678 0.546219
O O13 0.104938 0.577986 0.820045
#
# Coordination Sequence:
#
# PCOD8247059 Si02
#       6
#     8   8   8   8   8   8
#     4  10  22  37  56  83 113 151 192 232 282 332
#     4  10  21  39  61  85 117 151 190 239 286 345
#     4  10  21  39  60  87 116 150 191 236 290 343
#     4  10  20  39  58  78 114 150 188 236 278 328
#     4  10  22  38  59  84 114 148 187 234 281 335
#     4  10  22  39  57  84 116 148 188 232 280 336
#
# _framework density 19.809391999999999
#
# number of rings (size 3 to 8) (size 9 to 14) (size 15 to 20)
#    0.000    2.000    1.667    1.000    2.333    4.000 
#    0.000    0.000    0.000    0.000    0.000    0.000 
#    0.000    0.000    0.000    0.000    0.000    0.000 
#
# Total GULP energy -595228.943716 kJ/mol
# GULP energy per Si atom -12400.602994 kJ/mol
# Density = 1.976430 g / cm^3
# Si number density = 19.809392 Si / 1000 Ang^3
#
#
#
# Elastic Constant Matrix: (Units=GPa)
#
#
# Indices 1 2 3 4 5 6 
#
# 1 38.3349 12.1478 -6.5216 0.0000 0.0000 0.0000
# 2 12.1478 39.1461 -6.7172 0.0000 0.0000 0.0000
# 3 -6.5216 -6.7172 79.5745 0.0000 0.0000 0.0000
# 4 0.0000 0.0000 0.0000 25.2431 0.0000 0.0000
# 5 0.0000 0.0000 0.0000 0.0000 25.7698 0.0000
# 6 0.0000 0.0000 0.0000 0.0000 0.0000 27.9740
#
#
#
# Elastic Compliance Matrix: (Units=1/GPa)
#
#
# Indices 1 2 3 4 5 6 
#
# 1 0.029142 -0.008761 0.001649 0.000000 0.000000 0.000000
# 2 -0.008761 0.028554 0.001692 0.000000 0.000000 0.000000
# 3 0.001649 0.001692 0.012845 0.000000 0.000000 0.000000
# 4 0.000000 0.000000 0.000000 0.039615 0.000000 0.000000
# 5 0.000000 0.000000 0.000000 0.000000 0.038805 0.000000
# 6 0.000000 0.000000 0.000000 0.000000 0.000000 0.035747
#
#
# Mechanical properties :
#
#
# Convention : Reuss Voigt Hill
#
# Bulk Modulus (GPa) = 16.74955 17.20817 16.97886
# Shear Modulus (GPa) = 23.20739 26.34048 24.77394
#
# Velocity S-wave (km/s) = 3.42648 3.65046 3.54024
# Velocity P-wave (km/s) = 4.91203 5.14524 5.02999
#
# Compressibility (1/GPa) = 0.05970311
#
# Stress axis : x y z
#
# Youngs Moduli (GPa) = 34.31416 35.02098 77.85223
#
# Poissons Ratio (x) = 0.30680 -0.12837
# Poissons Ratio (y) = 0.30061 -0.13176
# Poissons Ratio (z) = -0.05658 -0.05927
#
# Static dielectric constant tensor:
#      x y z
#    x 3.535270 0.000000 0.000000 
#    y 0.000000 3.460320 0.000000 
#    z 0.000000 0.000000 3.864080 
# 
# 
# High freq. dielectric constant tensor:
#      x y z
#    x 1.758930 0.000000 0.000000 
#    y 0.000000 1.765920 0.000000 
#    z 0.000000 0.000000 1.790230 
# 
# From -- ./inp_files/8379.got.cif
#   From: 2010.03.12/outbox.cif.g09.slc.cpg/sg60_5_cif.got.tgz:8379.got - 2010.04.10 18:46:24.
