data_PCOD8247919
_publ_section_title
;
Structure prediction by ZEFSAII (Michael W. Deem and Ramdas Pophale) SiO2 
 PCOD8247919
Probable space group: P B C N
;
_chemical_formula_sum "Si O2"
_cell_formula_units_Z 56
_cell_length_a 20.414699
_cell_length_b 14.528079
_cell_length_c 9.324540
_cell_angle_alpha 90.000000
_cell_angle_beta 90.000000
_cell_angle_gamma 90.000000
_cell_volume 2765.531376
_symmetry_space_group_name_H-M "P B C N"
_symmetry_group_IT_number 60
_symmetry_cell_setting 'orthorhombic'
loop_
_space_group_symop_operation_xyz
x,y,z
1/2-x,1/2-y,1/2+z
1/2+x,1/2-y,-z
-x,y,1/2-z
-x,-y,-z
1/2+x,1/2+y,1/2-z
1/2-x,1/2+y,z
x,-y,1/2+z
loop_
_atom_site_type_symbol
_atom_site_label
_atom_site_fract_x
_atom_site_fract_y
_atom_site_fract_z
Si Si1 0.483628 0.209452 0.593897
Si Si2 0.907906 0.344601 0.886692
Si Si3 0.120882 0.452941 0.093595
Si Si4 0.736651 0.190338 0.329725
Si Si5 0.796556 0.155015 0.613735
Si Si6 0.560156 0.691258 0.668139
Si Si7 0.209996 0.508648 0.329128
O O1 0.500000 0.248895 0.750000
O O2 0.552452 0.177034 0.529581
O O3 0.431134 0.128012 0.601414
O O4 0.456619 0.292751 0.497998
O O5 0.915781 0.453056 0.860654
O O6 0.832413 0.317440 0.914266
O O7 0.933804 0.290481 0.746997
O O8 0.178872 0.441693 0.208866
O O9 0.153403 0.457588 0.936821
O O10 0.792377 0.199789 0.453548
O O11 0.739978 0.278897 0.227140
O O12 0.745785 0.098291 0.235194
O O13 0.870981 0.138121 0.668761
O O14 0.764695 0.054467 0.596679
O O15 0.500000 0.637569 0.750000
#
# Coordination Sequence:
#
# PCOD8247919 Si02
#       7
#     8   8   8   8   8   8   8
#     4  11  21  29  54  83 117 160 193 236 289 355
#     4   9  18  36  47  77 117 157 190 229 284 359
#     4  11  20  33  53  81 124 161 192 233 284 367
#     4  10  23  36  58  88 118 157 203 246 300 368
#     4  11  22  39  65  85 119 164 197 252 311 353
#     4   9  21  39  56  77 114 151 201 247 301 358
#     4  11  22  38  56  87 127 152 204 250 293 355
#
# _framework density 20.249274
#
# number of rings (size 3 to 8) (size 9 to 14) (size 15 to 20)
#    0.000    1.714    2.857    3.857    4.000    1.714 
#    0.000    0.000    0.000    0.857    0.000    0.000 
#    0.000    0.000    0.000    0.000    0.000    0.000 
#
# Total GULP energy -694159.641723 kJ/mol
# GULP energy per Si atom -12395.707888 kJ/mol
# Density = 2.020319 g / cm^3
# Si number density = 20.249274 Si / 1000 Ang^3
#
#
#
# Elastic Constant Matrix: (Units=GPa)
#
#
# Indices 1 2 3 4 5 6 
#
# 1 71.0129 23.3251 28.0679 0.0000 0.0000 0.0000
# 2 23.3251 35.8762 14.0937 0.0000 0.0000 0.0000
# 3 28.0679 14.0937 117.0152 0.0000 0.0000 0.0000
# 4 0.0000 0.0000 0.0000 15.9966 0.0000 0.0000
# 5 0.0000 0.0000 0.0000 0.0000 33.7716 0.0000
# 6 0.0000 0.0000 0.0000 0.0000 0.0000 20.2999
#
#
#
# Elastic Compliance Matrix: (Units=1/GPa)
#
#
# Indices 1 2 3 4 5 6 
#
# 1 0.018996 -0.011085 -0.003221 0.000000 0.000000 0.000000
# 2 -0.011085 0.035726 -0.001644 0.000000 0.000000 0.000000
# 3 -0.003221 -0.001644 0.009517 0.000000 0.000000 0.000000
# 4 0.000000 0.000000 0.000000 0.062513 0.000000 0.000000
# 5 0.000000 0.000000 0.000000 0.000000 0.029611 0.000000
# 6 0.000000 0.000000 0.000000 0.000000 0.000000 0.049261
#
#
# Mechanical properties :
#
#
# Convention : Reuss Voigt Hill
#
# Bulk Modulus (GPa) = 30.92310 39.43085 35.17697
# Shear Modulus (GPa) = 20.13654 24.57481 22.35567
#
# Velocity S-wave (km/s) = 3.15688 3.48748 3.32629
# Velocity P-wave (km/s) = 5.34717 5.97760 5.67115
#
# Compressibility (1/GPa) = 0.03233829
#
# Stress axis : x y z
#
# Youngs Moduli (GPa) = 52.64203 27.99044 105.07928
#
# Poissons Ratio (x) = 0.31027 0.33850
# Poissons Ratio (y) = 0.58354 0.17276
# Poissons Ratio (z) = 0.16958 0.04602
#
# Static dielectric constant tensor:
#      x y z
#    x 3.776400 0.000000 0.000000 
#    y 0.000000 3.202780 0.000000 
#    z 0.000000 0.000000 3.842520 
# 
# 
# High freq. dielectric constant tensor:
#      x y z
#    x 1.788950 0.000000 0.000000 
#    y 0.000000 1.746030 0.000000 
#    z 0.000000 0.000000 1.804980 
# 
# From -- ./inp_files/7385.got.cif
#   From: 2010.03.12/outbox.cif.g09.slc.cpg/sg60_4_cif.got.tgz:7385.got - 2010.04.10 18:46:24.
