data_PCOD8247452
_publ_section_title
;
Structure prediction by ZEFSAII (Michael W. Deem and Ramdas Pophale) SiO2 
 PCOD8247452
Probable space group: P B C N
;
_chemical_formula_sum "Si O2"
_cell_formula_units_Z 56
_cell_length_a 14.433097
_cell_length_b 21.244986
_cell_length_c 8.937400
_cell_angle_alpha 90.000000
_cell_angle_beta 90.000000
_cell_angle_gamma 90.000000
_cell_volume 2740.483396
_symmetry_space_group_name_H-M "P B C N"
_symmetry_group_IT_number 60
_symmetry_cell_setting 'orthorhombic'
loop_
_space_group_symop_operation_xyz
x,y,z
1/2-x,1/2-y,1/2+z
1/2+x,1/2-y,-z
-x,y,1/2-z
-x,-y,-z
1/2+x,1/2+y,1/2-z
1/2-x,1/2+y,z
x,-y,1/2+z
loop_
_atom_site_type_symbol
_atom_site_label
_atom_site_fract_x
_atom_site_fract_y
_atom_site_fract_z
Si Si1 0.719239 0.510781 0.619268
Si Si2 0.500000 0.324133 0.750000
Si Si3 0.823162 0.570130 0.888715
Si Si4 0.500000 0.892148 0.250000
Si Si5 0.657346 0.586470 0.351160
Si Si6 0.720805 0.199804 0.336826
Si Si7 0.662977 0.794910 0.508808
Si Si8 0.951077 0.285848 0.045959
O O1 0.764335 0.557390 0.739495
O O2 0.800516 0.479538 0.519132
O O3 0.651053 0.548418 0.507461
O O4 0.658290 0.459073 0.706690
O O5 0.430386 0.368139 0.658154
O O6 0.556609 0.280030 0.634878
O O7 0.932938 0.564438 0.850562
O O8 0.798534 0.639392 0.946266
O O9 0.432931 0.845488 0.345200
O O10 0.753155 0.626284 0.352081
O O11 0.806804 0.240115 0.396933
O O12 0.625017 0.214673 0.418211
O O13 0.709519 0.219516 0.166160
O O14 0.552420 0.794676 0.525948
#
# Coordination Sequence:
#
# PCOD8247452 Si02
#       8
#     8   4   8   4   8   8   8   8
#     4  10  23  41  63  89 123 175 221 259 305 384
#     4  11  22  42  64  98 132 168 211 270 322 386
#     4  10  21  40  59  90 125 159 217 256 316 380
#     4   9  20  36  62  90 126 166 193 276 314 376
#     4  11  23  42  67  91 128 172 217 266 321 376
#     4  12  23  40  67  94 126 170 205 270 330 384
#     4  11  24  39  63  95 125 166 209 265 332 386
#     4  10  22  38  61  97 134 157 209 259 334 398
#
# _framework density 20.434352000000001
#
# number of rings (size 3 to 8) (size 9 to 14) (size 15 to 20)
#    0.000    1.429    2.857    2.143    6.000    1.143 
#    0.000    1.429    0.000    0.000    0.000    0.000 
#    0.000    0.000    0.000    0.000    0.000    0.000 
#
# Total GULP energy -694572.185728 kJ/mol
# GULP energy per Si atom -12403.074745 kJ/mol
# Density = 2.038784 g / cm^3
# Si number density = 20.434352 Si / 1000 Ang^3
#
#
#
# Elastic Constant Matrix: (Units=GPa)
#
#
# Indices 1 2 3 4 5 6 
#
# 1 80.2522 36.9574 35.9947 0.0000 0.0000 0.0000
# 2 36.9574 98.1397 49.2715 0.0000 0.0000 0.0000
# 3 35.9947 49.2715 130.4562 0.0000 0.0000 0.0000
# 4 0.0000 0.0000 0.0000 35.5170 0.0000 0.0000
# 5 0.0000 0.0000 0.0000 0.0000 29.6235 0.0000
# 6 0.0000 0.0000 0.0000 0.0000 0.0000 28.0802
#
#
#
# Elastic Compliance Matrix: (Units=1/GPa)
#
#
# Indices 1 2 3 4 5 6 
#
# 1 0.015759 -0.004629 -0.002600 0.000000 0.000000 0.000000
# 2 -0.004629 0.013934 -0.003985 0.000000 0.000000 0.000000
# 3 -0.002600 -0.003985 0.009888 0.000000 0.000000 0.000000
# 4 0.000000 0.000000 0.000000 0.028156 0.000000 0.000000
# 5 0.000000 0.000000 0.000000 0.000000 0.033757 0.000000
# 6 0.000000 0.000000 0.000000 0.000000 0.000000 0.035612
#
#
# Mechanical properties :
#
#
# Convention : Reuss Voigt Hill
#
# Bulk Modulus (GPa) = 58.30275 61.47725 59.89000
# Shear Modulus (GPa) = 30.25714 31.08577 30.67145
#
# Velocity S-wave (km/s) = 3.85216 3.90455 3.87845
# Velocity P-wave (km/s) = 6.95552 7.10478 7.03055
#
# Compressibility (1/GPa) = 0.01715185
#
# Stress axis : x y z
#
# Youngs Moduli (GPa) = 63.45775 71.76871 101.13405
#
# Poissons Ratio (x) = 0.33223 0.26291
# Poissons Ratio (y) = 0.29376 0.40305
# Poissons Ratio (z) = 0.16497 0.28602
#
# Static dielectric constant tensor:
#      x y z
#    x 3.452760 0.000000 0.000000 
#    y 0.000000 3.808180 0.000000 
#    z 0.000000 0.000000 3.772240 
# 
# 
# High freq. dielectric constant tensor:
#      x y z
#    x 1.785400 0.000000 0.000000 
#    y 0.000000 1.804190 0.000000 
#    z 0.000000 0.000000 1.807950 
# 
# From -- ./inp_files/6187.got.cif
#   From: 2010.03.12/outbox.cif.g09.slc.cpg/sg60_4_cif.got.tgz:6187.got - 2010.04.10 18:46:24.
