data_PCOD8247768
_publ_section_title
;
Structure prediction by ZEFSAII (Michael W. Deem and Ramdas Pophale) SiO2 
 PCOD8247768
Probable space group: P B C N
;
_chemical_formula_sum "Si O2"
_cell_formula_units_Z 56
_cell_length_a 8.998396
_cell_length_b 21.480455
_cell_length_c 14.313937
_cell_angle_alpha 90.000000
_cell_angle_beta 90.000000
_cell_angle_gamma 90.000000
_cell_volume 2766.735735
_symmetry_space_group_name_H-M "P B C N"
_symmetry_group_IT_number 60
_symmetry_cell_setting 'orthorhombic'
loop_
_space_group_symop_operation_xyz
x,y,z
1/2-x,1/2-y,1/2+z
1/2+x,1/2-y,-z
-x,y,1/2-z
-x,-y,-z
1/2+x,1/2+y,1/2-z
1/2-x,1/2+y,z
x,-y,1/2+z
loop_
_atom_site_type_symbol
_atom_site_label
_atom_site_fract_x
_atom_site_fract_y
_atom_site_fract_z
Si Si1 0.237628 0.073514 0.263447
Si Si2 0.390620 0.255624 0.098474
Si Si3 0.475309 0.388333 0.608503
Si Si4 0.991948 0.107840 0.608548
Si Si5 0.500000 0.154835 0.750000
Si Si6 0.232237 0.933266 0.243458
Si Si7 0.000000 0.661353 0.250000
Si Si8 0.459947 0.755230 0.090899
O O1 0.176422 0.093018 0.161078
O O2 0.374022 0.117136 0.294700
O O3 0.111888 0.077138 0.342498
O O4 0.293258 0.002568 0.259387
O O5 0.468386 0.320192 0.125745
O O6 0.418299 0.204417 0.176081
O O7 0.215943 0.266492 0.084732
O O8 0.464231 0.227614 0.006261
O O9 0.470654 0.408622 0.500253
O O10 0.499252 0.314883 0.619506
O O11 0.119176 0.065290 0.655644
O O12 0.839645 0.093171 0.661581
O O13 0.634809 0.112145 0.782455
O O14 0.459663 0.199486 0.836059
#
# Coordination Sequence:
#
# PCOD8247768 Si02
#       8
#     8   8   8   8   4   8   4   8
#     4  11  24  41  62  91 123 166 212 249 297 366
#     4  11  25  41  66  96 124 157 202 256 312 371
#     4  10  22  41  66  91 121 159 208 255 306 361
#     4  10  22  41  66  91 121 159 208 255 306 361
#     4  12  25  40  64  90 131 162 196 258 316 356
#     4  11  24  41  62  91 123 166 212 249 297 366
#     4  12  25  40  64  90 131 162 196 258 316 356
#     4  11  25  41  66  96 124 157 202 256 312 371
#
# _framework density 20.240458
#
# number of rings (size 3 to 8) (size 9 to 14) (size 15 to 20)
#    0.000    1.143    2.857    3.857    8.000    2.286 
#    0.000    0.000    0.000    5.143    0.000    0.000 
#    0.000    0.000    0.000    0.000    0.000    0.000 
#
# Total GULP energy -694611.813758 kJ/mol
# GULP energy per Si atom -12403.782389 kJ/mol
# Density = 2.019439 g / cm^3
# Si number density = 20.240458 Si / 1000 Ang^3
#
#
#
# Elastic Constant Matrix: (Units=GPa)
#
#
# Indices 1 2 3 4 5 6 
#
# 1 54.3081 1.5930 12.8859 0.0000 0.0000 0.0000
# 2 1.5930 92.3782 25.6610 0.0000 0.0000 0.0000
# 3 12.8859 25.6610 107.9318 0.0000 0.0000 0.0000
# 4 0.0000 0.0000 0.0000 -0.0234 0.0000 0.0000
# 5 0.0000 0.0000 0.0000 0.0000 21.9435 0.0000
# 6 0.0000 0.0000 0.0000 0.0000 0.0000 28.4762
#
#
#
# Elastic Compliance Matrix: (Units=1/GPa)
#
#
# Indices 1 2 3 4 5 6 
#
# 1 0.018959 0.000323 -0.002340 0.000000 0.000000 0.000000
# 2 0.000323 0.011596 -0.002796 0.000000 0.000000 0.000000
# 3 -0.002340 -0.002796 0.010209 0.000000 0.000000 0.000000
# 4 0.000000 0.000000 0.000000-42.673228 0.000000 0.000000
# 5 0.000000 0.000000 0.000000 0.000000 0.045572 0.000000
# 6 0.000000 0.000000 0.000000 0.000000 0.000000 0.035117
#
#
# Mechanical properties :
#
#
# Convention : Reuss Voigt Hill
#
# Bulk Modulus (GPa) = 32.11409 37.21087 34.66248
# Shear Modulus (GPa) = -0.11756 24.37780 12.13012
#
# Velocity S-wave (km/s) = -0.24126 3.47423 2.45072
# Velocity P-wave (km/s) = 3.97783 5.87520 5.01703
#
# Compressibility (1/GPa) = 0.03113898
#
# Stress axis : x y z
#
# Youngs Moduli (GPa) = 52.74459 86.23632 97.95108
#
# Poissons Ratio (x) = -0.02787 0.22924
# Poissons Ratio (y) = -0.01704 0.27383
# Poissons Ratio (z) = 0.12344 0.24108
#
# Static dielectric constant tensor:
#      x y z
#    x 3.664810 0.000000 0.000000 
#    y 0.000000 3.739900 0.000000 
#    z 0.000000 0.000000 3.842030 
# 
# 
# High freq. dielectric constant tensor:
#      x y z
#    x 1.786070 0.000000 0.000000 
#    y 0.000000 1.803220 0.000000 
#    z 0.000000 0.000000 1.790050 
# 
# From -- ./inp_files/15271.got.cif
#   From: 2010.03.12/outbox.cif.g09.slc.cpg/sg60_8_cif.got.tgz:15271.got - 2010.04.10 18:46:24.
