data_PCOD8247854
_publ_section_title
;
Structure prediction by ZEFSAII (Michael W. Deem and Ramdas Pophale) SiO2 
 PCOD8247854
Probable space group: P B C N
;
_chemical_formula_sum "Si O2"
_cell_formula_units_Z 48
_cell_length_a 14.129565
_cell_length_b 17.646046
_cell_length_c 8.631393
_cell_angle_alpha 90.000000
_cell_angle_beta 90.000000
_cell_angle_gamma 90.000000
_cell_volume 2152.073451
_symmetry_space_group_name_H-M "P B C N"
_symmetry_group_IT_number 60
_symmetry_cell_setting 'orthorhombic'
loop_
_space_group_symop_operation_xyz
x,y,z
1/2-x,1/2-y,1/2+z
1/2+x,1/2-y,-z
-x,y,1/2-z
-x,-y,-z
1/2+x,1/2+y,1/2-z
1/2-x,1/2+y,z
x,-y,1/2+z
loop_
_atom_site_type_symbol
_atom_site_label
_atom_site_fract_x
_atom_site_fract_y
_atom_site_fract_z
Si Si1 0.500000 0.695204 0.250000
Si Si2 0.145035 0.581679 0.172169
Si Si3 0.361205 0.078727 0.538292
Si Si4 0.500000 0.694663 0.750000
Si Si5 0.510514 0.805128 0.001593
Si Si6 0.858792 0.076647 0.284265
Si Si7 0.855207 0.084108 0.917026
O O1 0.556394 0.748759 0.128988
O O2 0.427571 0.642218 0.151707
O O3 0.108249 0.503401 0.099092
O O4 0.125638 0.579558 0.353649
O O5 0.256116 0.593829 0.146468
O O6 0.092705 0.649172 0.084812
O O7 0.435343 0.142117 0.594018
O O8 0.257304 0.098160 0.605749
O O9 0.544177 0.750907 0.620666
O O10 0.414348 0.647530 0.673406
O O11 0.890241 0.994596 0.342961
O O12 0.872032 0.080966 0.099651
#
# Coordination Sequence:
#
# PCOD8247854 Si02
#       7
#     4   8   8   4   8   8   8
#     4  12  27  42  61 100 138 174 222 278 345 404
#     4  10  22  43  69  94 128 173 229 274 333 398
#     4  10  22  43  67  97 126 174 226 277 328 402
#     4  12  23  42  65  96 136 184 216 276 347 404
#     4  12  25  42  64  98 137 178 219 278 347 404
#     4  10  23  44  66  96 128 174 227 281 325 403
#     4  10  23  42  68  94 129 174 230 274 335 395
#
# _framework density 22.304072999999999
#
# number of rings (size 3 to 8) (size 9 to 14) (size 15 to 20)
#    0.000    1.333    3.333    1.000    4.667    2.667 
#    0.000    0.000    0.000    0.000    0.000    0.000 
#    0.000    0.000    0.000    0.000    0.000    0.000 
#
# Total GULP energy -594944.809549 kJ/mol
# GULP energy per Si atom -12394.683532 kJ/mol
# Density = 2.225331 g / cm^3
# Si number density = 22.304073 Si / 1000 Ang^3
#
#
#
# Elastic Constant Matrix: (Units=GPa)
#
#
# Indices 1 2 3 4 5 6 
#
# 1 97.7348 80.4948 30.8602 0.0000 0.0000 0.0000
# 2 80.4948 173.5009 56.2787 0.0000 0.0000 0.0000
# 3 30.8602 56.2787 52.6677 0.0000 0.0000 0.0000
# 4 0.0000 0.0000 0.0000 43.3614 0.0000 0.0000
# 5 0.0000 0.0000 0.0000 0.0000 32.4807 0.0000
# 6 0.0000 0.0000 0.0000 0.0000 0.0000 17.3672
#
#
#
# Elastic Compliance Matrix: (Units=1/GPa)
#
#
# Indices 1 2 3 4 5 6 
#
# 1 0.016741 -0.007017 -0.002311 0.000000 0.000000 0.000000
# 2 -0.007017 0.011763 -0.008457 0.000000 0.000000 0.000000
# 3 -0.002311 -0.008457 0.029378 0.000000 0.000000 0.000000
# 4 0.000000 0.000000 0.000000 0.023062 0.000000 0.000000
# 5 0.000000 0.000000 0.000000 0.000000 0.030787 0.000000
# 6 0.000000 0.000000 0.000000 0.000000 0.000000 0.057580
#
#
# Mechanical properties :
#
#
# Convention : Reuss Voigt Hill
#
# Bulk Modulus (GPa) = 44.82133 73.24119 59.03126
# Shear Modulus (GPa) = 23.54952 29.05985 26.30469
#
# Velocity S-wave (km/s) = 3.25289 3.61348 3.43792
# Velocity P-wave (km/s) = 5.85215 7.09355 6.50254
#
# Compressibility (1/GPa) = 0.02231081
#
# Stress axis : x y z
#
# Youngs Moduli (GPa) = 59.73401 85.01506 34.03894
#
# Poissons Ratio (x) = 0.59658 0.07866
# Poissons Ratio (y) = 0.41917 0.28788
# Poissons Ratio (z) = 0.13803 0.71900
#
# Static dielectric constant tensor:
#      x y z
#    x 3.963210 0.000000 0.000000 
#    y 0.000000 4.356480 0.000000 
#    z 0.000000 0.000000 4.099670 
# 
# 
# High freq. dielectric constant tensor:
#      x y z
#    x 1.866860 0.000000 0.000000 
#    y 0.000000 1.897060 0.000000 
#    z 0.000000 0.000000 1.885260 
# 
# From -- ./inp_files/5967.got.cif
#   From: 2010.03.12/outbox.cif.g09.slc.cpg/sg60_3_cif.got.tgz:5967.got - 2010.04.10 18:46:24.
