data_PCOD8247236
_publ_section_title
;
Structure prediction by ZEFSAII (Michael W. Deem and Ramdas Pophale) SiO2 
 PCOD8247236
Probable space group: P B C N
;
_chemical_formula_sum "Si O2"
_cell_formula_units_Z 48
_cell_length_a 27.861886
_cell_length_b 5.022904
_cell_length_c 17.464366
_cell_angle_alpha 90.000000
_cell_angle_beta 90.000000
_cell_angle_gamma 90.000000
_cell_volume 2444.095734
_symmetry_space_group_name_H-M "P B C N"
_symmetry_group_IT_number 60
_symmetry_cell_setting 'orthorhombic'
loop_
_space_group_symop_operation_xyz
x,y,z
1/2-x,1/2-y,1/2+z
1/2+x,1/2-y,-z
-x,y,1/2-z
-x,-y,-z
1/2+x,1/2+y,1/2-z
1/2-x,1/2+y,z
x,-y,1/2+z
loop_
_atom_site_type_symbol
_atom_site_label
_atom_site_fract_x
_atom_site_fract_y
_atom_site_fract_z
Si Si1 0.860369 0.588470 0.071556
Si Si2 0.779829 0.746495 0.779369
Si Si3 0.028960 0.593350 0.426329
Si Si4 0.139810 0.081956 0.331783
Si Si5 0.529057 0.410585 0.672972
Si Si6 0.279875 0.762485 0.041285
O O1 0.915782 0.621194 0.048710
O O2 0.851574 0.287868 0.098806
O O3 0.844649 0.790676 0.139104
O O4 0.829808 0.657446 0.996935
O O5 0.761042 0.457353 0.754347
O O6 0.829711 0.823442 0.740501
O O7 0.790103 0.742267 0.869018
O O8 0.019832 0.382855 0.358947
O O9 0.000000 0.500000 0.500000
O O10 0.012436 0.877404 0.392004
O O11 0.084861 0.063449 0.305433
O O12 0.500000 0.459994 0.750000
O O13 0.261040 0.473317 0.016197
#
# Coordination Sequence:
#
# PCOD8247236 Si02
#       6
#     8   8   8   8   8   8
#     4  10  21  36  55  80 108 139 179 222 265 318
#     4  10  21  36  53  77 108 140 177 219 263 315
#     4  10  21  38  58  83 113 144 183 230 277 331
#     4  10  21  36  55  80 108 139 178 222 265 317
#     4  10  21  38  58  83 113 144 183 229 277 332
#     4  10  21  36  53  77 109 142 179 222 266 317
#
# _framework density 19.639165999999999
#
# number of rings (size 3 to 8) (size 9 to 14) (size 15 to 20)
#    0.000    2.000    0.000    3.000    0.000    5.333 
#    0.000    5.000    0.000    0.000    0.000    0.000 
#    0.000    0.000    0.000    0.000    0.000    0.000 
#
# Total GULP energy -595260.903314 kJ/mol
# GULP energy per Si atom -12401.268819 kJ/mol
# Density = 1.959447 g / cm^3
# Si number density = 19.639166 Si / 1000 Ang^3
#
#
#
# Elastic Constant Matrix: (Units=GPa)
#
#
# Indices 1 2 3 4 5 6 
#
# 1 94.3120 31.5689 67.4264 0.0000 0.0000 0.0000
# 2 31.5689 94.1561 24.9254 0.0000 0.0000 0.0000
# 3 67.4264 24.9254 78.9878 0.0000 0.0000 0.0000
# 4 0.0000 0.0000 0.0000 29.6045 0.0000 0.0000
# 5 0.0000 0.0000 0.0000 0.0000 36.3776 0.0000
# 6 0.0000 0.0000 0.0000 0.0000 0.0000 27.9299
#
#
#
# Elastic Compliance Matrix: (Units=1/GPa)
#
#
# Indices 1 2 3 4 5 6 
#
# 1 0.028147 -0.003357 -0.022968 0.000000 0.000000 0.000000
# 2 -0.003357 0.011989 -0.000918 0.000000 0.000000 0.000000
# 3 -0.022968 -0.000918 0.032556 0.000000 0.000000 0.000000
# 4 0.000000 0.000000 0.000000 0.033779 0.000000 0.000000
# 5 0.000000 0.000000 0.000000 0.000000 0.027489 0.000000
# 6 0.000000 0.000000 0.000000 0.000000 0.000000 0.035804
#
#
# Mechanical properties :
#
#
# Convention : Reuss Voigt Hill
#
# Bulk Modulus (GPa) = 54.92399 57.25526 56.08963
# Shear Modulus (GPa) = 21.70904 28.35144 25.03024
#
# Velocity S-wave (km/s) = 3.32836 3.80362 3.57390
# Velocity P-wave (km/s) = 6.54201 6.96469 6.75666
#
# Compressibility (1/GPa) = 0.01820698
#
# Stress axis : x y z
#
# Youngs Moduli (GPa) = 35.52732 83.40883 30.71634
#
# Poissons Ratio (x) = 0.28001 0.70549
# Poissons Ratio (y) = 0.11927 0.02818
# Poissons Ratio (z) = 0.81599 0.07653
#
# Static dielectric constant tensor:
#      x y z
#    x 3.478650 0.000000 0.000000 
#    y 0.000000 4.008670 0.000000 
#    z 0.000000 0.000000 3.307070 
# 
# 
# High freq. dielectric constant tensor:
#      x y z
#    x 1.758960 0.000000 0.000000 
#    y 0.000000 1.790090 0.000000 
#    z 0.000000 0.000000 1.752920 
# 
# From -- ./inp_files/18037.got.cif
#   From: 2010.03.12/outbox.cif.g09.slc.cpg/sg60_10_cif.got.tgz:18037.got - 2010.04.10 18:46:24.
