data_PCOD8247325
_publ_section_title
;
Structure prediction by ZEFSAII (Michael W. Deem and Ramdas Pophale) SiO2 
 PCOD8247325
Probable space group: P B C N
;
_chemical_formula_sum "Si O2"
_cell_formula_units_Z 52
_cell_length_a 19.382403
_cell_length_b 8.428717
_cell_length_c 14.353253
_cell_angle_alpha 90.000000
_cell_angle_beta 90.000000
_cell_angle_gamma 90.000000
_cell_volume 2344.873570
_symmetry_space_group_name_H-M "P B C N"
_symmetry_group_IT_number 60
_symmetry_cell_setting 'orthorhombic'
loop_
_space_group_symop_operation_xyz
x,y,z
1/2-x,1/2-y,1/2+z
1/2+x,1/2-y,-z
-x,y,1/2-z
-x,-y,-z
1/2+x,1/2+y,1/2-z
1/2-x,1/2+y,z
x,-y,1/2+z
loop_
_atom_site_type_symbol
_atom_site_label
_atom_site_fract_x
_atom_site_fract_y
_atom_site_fract_z
Si Si1 0.500000 0.347592 0.250000
Si Si2 0.115494 0.099736 0.244829
Si Si3 0.096400 0.321251 0.881265
Si Si4 0.209747 0.164082 0.555085
Si Si5 0.784198 0.162179 0.730600
Si Si6 0.856262 0.667720 0.613451
Si Si7 0.653053 0.689086 0.448169
O O1 0.562454 0.460195 0.282277
O O2 0.474272 0.231043 0.331306
O O3 0.093611 0.203508 0.334881
O O4 0.189168 0.019909 0.270416
O O5 0.123199 0.212888 0.155099
O O6 0.165240 0.274783 0.826306
O O7 0.098707 0.509509 0.895576
O O8 0.092721 0.223616 0.978211
O O9 0.211482 0.223604 0.662341
O O10 0.162878 0.277981 0.490794
O O11 0.289288 0.179898 0.523899
O O12 0.185236 0.985490 0.540402
O O13 0.709044 0.156616 0.683883
#
# Coordination Sequence:
#
# PCOD8247325 Si02
#       7
#     4   8   8   8   8   8   8
#     4  10  24  48  62  84 124 180 220 270 304 362
#     4  10  23  41  66  90 125 172 216 254 318 372
#     4  11  24  39  64  89 133 165 218 258 318 369
#     4  11  22  34  60  93 138 155 201 249 325 387
#     4  10  21  38  59  95 131 165 196 260 323 387
#     4  12  22  37  65  99 128 164 205 264 320 391
#     4  11  22  38  61  96 125 170 200 256 314 383
#
# _framework density 22.176036
#
# number of rings (size 3 to 8) (size 9 to 14) (size 15 to 20)
#    0.000    1.231    3.077    3.692    2.154    2.462 
#    0.000    1.538    0.000   10.154    0.000    0.000 
#    0.000    0.000    0.000    0.000    0.000    0.000 
#
# Total GULP energy -644622.074685 kJ/mol
# GULP energy per Si atom -12396.578359 kJ/mol
# Density = 2.212556 g / cm^3
# Si number density = 22.176036 Si / 1000 Ang^3
#
#
#
# Elastic Constant Matrix: (Units=GPa)
#
#
# Indices 1 2 3 4 5 6 
#
# 1 33.6763 8.8715 -3.9460 0.0000 0.0000 0.0000
# 2 8.8715 87.1038 36.0881 0.0000 0.0000 0.0000
# 3 -3.9460 36.0881 113.3087 0.0000 0.0000 0.0000
# 4 0.0000 0.0000 0.0000 35.4729 0.0000 0.0000
# 5 0.0000 0.0000 0.0000 0.0000 21.7740 0.0000
# 6 0.0000 0.0000 0.0000 0.0000 0.0000 27.2496
#
#
#
# Elastic Compliance Matrix: (Units=1/GPa)
#
#
# Indices 1 2 3 4 5 6 
#
# 1 0.031073 -0.004162 0.002408 0.000000 0.000000 0.000000
# 2 -0.004162 0.013783 -0.004535 0.000000 0.000000 0.000000
# 3 0.002408 -0.004535 0.010354 0.000000 0.000000 0.000000
# 4 0.000000 0.000000 0.000000 0.028191 0.000000 0.000000
# 5 0.000000 0.000000 0.000000 0.000000 0.045926 0.000000
# 6 0.000000 0.000000 0.000000 0.000000 0.000000 0.036698
#
#
# Mechanical properties :
#
#
# Convention : Reuss Voigt Hill
#
# Bulk Modulus (GPa) = 23.45700 35.12401 29.29050
# Shear Modulus (GPa) = 25.93172 29.77096 27.85134
#
# Velocity S-wave (km/s) = 3.42330 3.66797 3.54774
# Velocity P-wave (km/s) = 5.12112 5.81479 5.47894
#
# Compressibility (1/GPa) = 0.04263121
#
# Stress axis : x y z
#
# Youngs Moduli (GPa) = 32.18217 72.55134 96.58451
#
# Poissons Ratio (x) = 0.30199 -0.23256
# Poissons Ratio (y) = 0.13395 0.43800
# Poissons Ratio (z) = -0.07749 0.32901
#
# Static dielectric constant tensor:
#      x y z
#    x 3.740430 0.000000 0.000000 
#    y 0.000000 4.030880 0.000000 
#    z 0.000000 0.000000 4.254470 
# 
# 
# High freq. dielectric constant tensor:
#      x y z
#    x 1.836340 0.000000 0.000000 
#    y 0.000000 1.876850 0.000000 
#    z 0.000000 0.000000 1.888550 
# 
# From -- ./inp_files/17685.got.cif
#   From: 2010.03.12/outbox.cif.g09.slc.cpg/sg60_9_cif.got.tgz:17685.got - 2010.04.10 18:46:24.
