data_PCOD8247498
_publ_section_title
;
Structure prediction by ZEFSAII (Michael W. Deem and Ramdas Pophale) SiO2 
 PCOD8247498
Probable space group: P B C N
;
_chemical_formula_sum "Si O2"
_cell_formula_units_Z 52
_cell_length_a 17.455848
_cell_length_b 16.391799
_cell_length_c 8.800449
_cell_angle_alpha 90.000000
_cell_angle_beta 90.000000
_cell_angle_gamma 90.000000
_cell_volume 2518.096689
_symmetry_space_group_name_H-M "P B C N"
_symmetry_group_IT_number 60
_symmetry_cell_setting 'orthorhombic'
loop_
_space_group_symop_operation_xyz
x,y,z
1/2-x,1/2-y,1/2+z
1/2+x,1/2-y,-z
-x,y,1/2-z
-x,-y,-z
1/2+x,1/2+y,1/2-z
1/2-x,1/2+y,z
x,-y,1/2+z
loop_
_atom_site_type_symbol
_atom_site_label
_atom_site_fract_x
_atom_site_fract_y
_atom_site_fract_z
Si Si1 0.500000 0.647585 0.750000
Si Si2 0.354598 0.536691 0.816125
Si Si3 0.155870 0.410523 0.578666
Si Si4 0.324608 0.393585 0.632166
Si Si5 0.893194 0.274086 0.325807
Si Si6 0.690023 0.071593 0.769411
Si Si7 0.456651 0.777256 0.497620
O O1 0.428755 0.589125 0.779994
O O2 0.476965 0.701387 0.604811
O O3 0.363704 0.440175 0.775960
O O4 0.281415 0.563624 0.714304
O O5 0.335463 0.544419 0.992369
O O6 0.234085 0.374287 0.652938
O O7 0.163013 0.426048 0.401915
O O8 0.141404 0.497868 0.656378
O O9 0.085118 0.347002 0.600624
O O10 0.366452 0.309275 0.595786
O O11 0.829744 0.343314 0.350518
O O12 0.903498 0.253072 0.146329
O O13 0.966222 0.308849 0.416613
#
# Coordination Sequence:
#
# PCOD8247498 Si02
#       7
#     4   8   8   8   8   8   8
#     4  12  24  38  56  92 124 158 206 260 298 372
#     4  10  23  39  58  88 125 159 209 246 312 370
#     4   9  20  40  62  89 122 158 206 250 313 367
#     4  10  21  41  61  89 121 163 203 255 306 366
#     4  10  21  41  63  86 123 166 206 253 314 367
#     4   9  20  40  62  90 119 162 207 255 303 374
#     4  10  23  39  59  90 124 159 204 254 313 367
#
# _framework density 20.650516
#
# number of rings (size 3 to 8) (size 9 to 14) (size 15 to 20)
#    0.000    2.154    1.538    0.000    4.308    3.692 
#    0.000    1.538    0.000    0.000    0.000    0.000 
#    0.000    0.000    0.000    0.000    0.000    0.000 
#
# Total GULP energy -644447.160110 kJ/mol
# GULP energy per Si atom -12393.214617 kJ/mol
# Density = 2.060351 g / cm^3
# Si number density = 20.650516 Si / 1000 Ang^3
#
#
#
# Elastic Constant Matrix: (Units=GPa)
#
#
# Indices 1 2 3 4 5 6 
#
# 1 96.4825 65.9835 20.0274 0.0000 0.0000 0.0000
# 2 65.9835 129.8043 24.3704 0.0000 0.0000 0.0000
# 3 20.0274 24.3704 39.6770 0.0000 0.0000 0.0000
# 4 0.0000 0.0000 0.0000 35.6454 0.0000 0.0000
# 5 0.0000 0.0000 0.0000 0.0000 22.9144 0.0000
# 6 0.0000 0.0000 0.0000 0.0000 0.0000 37.1526
#
#
#
# Elastic Compliance Matrix: (Units=1/GPa)
#
#
# Indices 1 2 3 4 5 6 
#
# 1 0.016319 -0.007629 -0.003551 0.000000 0.000000 0.000000
# 2 -0.007629 0.012274 -0.003688 0.000000 0.000000 0.000000
# 3 -0.003551 -0.003688 0.029262 0.000000 0.000000 0.000000
# 4 0.000000 0.000000 0.000000 0.028054 0.000000 0.000000
# 5 0.000000 0.000000 0.000000 0.000000 0.043641 0.000000
# 6 0.000000 0.000000 0.000000 0.000000 0.000000 0.026916
#
#
# Mechanical properties :
#
#
# Convention : Reuss Voigt Hill
#
# Bulk Modulus (GPa) = 35.56477 54.08071 44.82274
# Shear Modulus (GPa) = 25.56558 29.51464 27.54011
#
# Velocity S-wave (km/s) = 3.52236 3.78464 3.65585
# Velocity P-wave (km/s) = 5.81397 6.73375 6.29069
#
# Compressibility (1/GPa) = 0.02811771
#
# Stress axis : x y z
#
# Youngs Moduli (GPa) = 61.27858 81.47124 34.17435
#
# Poissons Ratio (x) = 0.62151 0.12137
# Poissons Ratio (y) = 0.46747 0.12605
# Poissons Ratio (z) = 0.21763 0.30050
#
# Static dielectric constant tensor:
#      x y z
#    x 3.905290 0.000000 0.000000 
#    y 0.000000 3.752280 0.000000 
#    z 0.000000 0.000000 3.702380 
# 
# 
# High freq. dielectric constant tensor:
#      x y z
#    x 1.807110 0.000000 0.000000 
#    y 0.000000 1.804610 0.000000 
#    z 0.000000 0.000000 1.804170 
# 
# From -- ./inp_files/6857.got.cif
#   From: 2010.03.12/outbox.cif.g09.slc.cpg/sg60_4_cif.got.tgz:6857.got - 2010.04.10 18:46:24.
