data_PCOD8247267
_publ_section_title
;
Structure prediction by ZEFSAII (Michael W. Deem and Ramdas Pophale) SiO2 
 PCOD8247267
Probable space group: P B C N
;
_chemical_formula_sum "Si O2"
_cell_formula_units_Z 64
_cell_length_a 22.928787
_cell_length_b 14.921148
_cell_length_c 9.202209
_cell_angle_alpha 90.000000
_cell_angle_beta 90.000000
_cell_angle_gamma 90.000000
_cell_volume 3148.294935
_symmetry_space_group_name_H-M "P B C N"
_symmetry_group_IT_number 60
_symmetry_cell_setting 'orthorhombic'
loop_
_space_group_symop_operation_xyz
x,y,z
1/2-x,1/2-y,1/2+z
1/2+x,1/2-y,-z
-x,y,1/2-z
-x,-y,-z
1/2+x,1/2+y,1/2-z
1/2-x,1/2+y,z
x,-y,1/2+z
loop_
_atom_site_type_symbol
_atom_site_label
_atom_site_fract_x
_atom_site_fract_y
_atom_site_fract_z
Si Si1 0.369562 0.756599 0.473146
Si Si2 0.185076 0.830916 0.721229
Si Si3 0.337627 0.613985 0.908388
Si Si4 0.067928 0.416706 0.778888
Si Si5 0.065509 0.212090 0.745002
Si Si6 0.770054 0.810445 0.338815
Si Si7 0.743452 0.545023 0.071204
Si Si8 0.130997 0.543004 0.984616
O O1 0.365191 0.687164 0.339581
O O2 0.421105 0.718917 0.573355
O O3 0.311259 0.756610 0.571223
O O4 0.378841 0.858092 0.416318
O O5 0.156771 0.875212 0.580986
O O6 0.207067 0.733756 0.669533
O O7 0.240558 0.884719 0.793090
O O8 0.398988 0.634432 0.829711
O O9 0.291882 0.679297 0.827277
O O10 0.313570 0.513792 0.890232
O O11 0.075839 0.310961 0.813906
O O12 0.085554 0.472218 0.920294
O O13 0.113175 0.448806 0.653849
O O14 0.000000 0.437359 0.750000
O O15 0.000000 0.179074 0.750000
O O16 0.765971 0.906483 0.416938
O O17 0.803010 0.488932 0.052991
#
# Coordination Sequence:
#
# PCOD8247267 Si02
#       8
#     8   8   8   8   8   8   8   8
#     4   9  21  37  55  84 123 157 199 258 297 362
#     4  11  22  36  57  87 124 159 197 243 313 371
#     4  11  22  35  62  86 119 155 203 256 304 365
#     4  10  23  40  60  87 125 167 216 259 299 363
#     4   9  21  43  64  84 116 171 215 252 315 375
#     4  10  21  37  55  81 125 164 190 234 309 376
#     4  11  24  36  56  92 128 155 197 253 310 369
#     4  11  23  36  60  89 122 163 205 251 310 364
#
# _framework density 20.328462999999999
#
# number of rings (size 3 to 8) (size 9 to 14) (size 15 to 20)
#    0.000    1.750    0.000    4.125   12.250    0.000 
#    0.000    0.625    0.000   12.000    0.000    0.000 
#    0.000    0.000    0.000    0.000    0.000    0.000 
#
# Total GULP energy -793111.049663 kJ/mol
# GULP energy per Si atom -12392.360151 kJ/mol
# Density = 2.028219 g / cm^3
# Si number density = 20.328463 Si / 1000 Ang^3
#
#
#
# Elastic Constant Matrix: (Units=GPa)
#
#
# Indices 1 2 3 4 5 6 
#
# 1 116.1348 47.4521 28.7692 0.0000 0.0000 0.0000
# 2 47.4521 78.1301 31.0520 0.0000 0.0000 0.0000
# 3 28.7692 31.0520 91.4344 0.0000 0.0000 0.0000
# 4 0.0000 0.0000 0.0000 32.5137 0.0000 0.0000
# 5 0.0000 0.0000 0.0000 0.0000 17.0307 0.0000
# 6 0.0000 0.0000 0.0000 0.0000 0.0000 27.8905
#
#
#
# Elastic Compliance Matrix: (Units=1/GPa)
#
#
# Indices 1 2 3 4 5 6 
#
# 1 0.011618 -0.006478 -0.001456 0.000000 0.000000 0.000000
# 2 -0.006478 0.018408 -0.004213 0.000000 0.000000 0.000000
# 3 -0.001456 -0.004213 0.012826 0.000000 0.000000 0.000000
# 4 0.000000 0.000000 0.000000 0.030756 0.000000 0.000000
# 5 0.000000 0.000000 0.000000 0.000000 0.058718 0.000000
# 6 0.000000 0.000000 0.000000 0.000000 0.000000 0.035855
#
#
# Mechanical properties :
#
#
# Convention : Reuss Voigt Hill
#
# Bulk Modulus (GPa) = 53.88419 55.58289 54.73354
# Shear Modulus (GPa) = 25.16871 27.38204 26.27537
#
# Velocity S-wave (km/s) = 3.52248 3.67410 3.59909
# Velocity P-wave (km/s) = 6.56568 6.73799 6.65239
#
# Compressibility (1/GPa) = 0.01855832
#
# Stress axis : x y z
#
# Youngs Moduli (GPa) = 86.07325 54.32453 77.96843
#
# Poissons Ratio (x) = 0.35189 0.11350
# Poissons Ratio (y) = 0.55755 0.32851
# Poissons Ratio (z) = 0.12529 0.22889
#
# Static dielectric constant tensor:
#      x y z
#    x 3.501420 0.000000 0.000000 
#    y 0.000000 3.740830 0.000000 
#    z 0.000000 0.000000 3.745980 
# 
# 
# High freq. dielectric constant tensor:
#      x y z
#    x 1.765690 0.000000 0.000000 
#    y 0.000000 1.796130 0.000000 
#    z 0.000000 0.000000 1.798880 
# 
# From -- ./inp_files/7963.got.cif
#   From: 2010.03.12/outbox.cif.g09.slc.cpg/sg60_4_cif.got.tgz:7963.got - 2010.04.10 18:46:24.
