data_PCOD8247598
_publ_section_title
;
Structure prediction by ZEFSAII (Michael W. Deem and Ramdas Pophale) SiO2 
 PCOD8247598
Probable space group: P B C N
;
_chemical_formula_sum "Si O2"
_cell_formula_units_Z 56
_cell_length_a 16.577413
_cell_length_b 8.406517
_cell_length_c 18.941195
_cell_angle_alpha 90.000000
_cell_angle_beta 90.000000
_cell_angle_gamma 90.000000
_cell_volume 2639.612815
_symmetry_space_group_name_H-M "P B C N"
_symmetry_group_IT_number 60
_symmetry_cell_setting 'orthorhombic'
loop_
_space_group_symop_operation_xyz
x,y,z
1/2-x,1/2-y,1/2+z
1/2+x,1/2-y,-z
-x,y,1/2-z
-x,-y,-z
1/2+x,1/2+y,1/2-z
1/2-x,1/2+y,z
x,-y,1/2+z
loop_
_atom_site_type_symbol
_atom_site_label
_atom_site_fract_x
_atom_site_fract_y
_atom_site_fract_z
Si Si1 0.700331 0.363073 0.918624
Si Si2 0.178531 0.301399 0.457582
Si Si3 0.938310 0.892365 0.455793
Si Si4 0.828254 0.558119 0.838060
Si Si5 0.792123 0.809689 0.236389
Si Si6 0.560507 0.221932 0.315204
Si Si7 0.239542 0.452747 0.862998
O O1 0.634184 0.495806 0.932195
O O2 0.761675 0.424559 0.858565
O O3 0.659858 0.194318 0.897458
O O4 0.749057 0.333994 0.989403
O O5 0.095621 0.253193 0.496284
O O6 0.203491 0.158573 0.407717
O O7 0.169451 0.461505 0.409925
O O8 0.976019 0.806250 0.385884
O O9 0.000000 0.000000 0.500000
O O10 0.796194 0.651428 0.768960
O O11 0.912117 0.461915 0.828551
O O12 0.862445 0.830611 0.293757
O O13 0.799444 0.630353 0.206042
O O14 0.803144 0.918264 0.167107
O O15 0.500000 0.225486 0.250000
#
# Coordination Sequence:
#
# PCOD8247598 Si02
#       7
#     8   8   8   8   8   8   8
#     4  12  20  41  75 101 124 178 249 285 332 429
#     4  11  20  39  66  99 136 175 233 284 342 424
#     4  12  27  46  67 104 144 190 234 301 369 423
#     4  12  20  42  75 100 124 181 246 285 334 428
#     4  11  20  40  66  98 132 175 237 282 342 415
#     4  12  27  45  68  99 147 183 232 299 367 416
#     4  10  22  33  65 105 129 167 225 298 333 398
#
# _framework density 21.215233999999999
#
# number of rings (size 3 to 8) (size 9 to 14) (size 15 to 20)
#    0.000    0.571    8.571    0.000    2.000    0.000 
#    2.571    1.429    0.000    0.000    0.000    0.000 
#    0.000    0.000    0.000    0.000    0.000    0.000 
#
# Total GULP energy -694068.293271 kJ/mol
# GULP energy per Si atom -12394.076666 kJ/mol
# Density = 2.116695 g / cm^3
# Si number density = 21.215234 Si / 1000 Ang^3
#
#
#
# Elastic Constant Matrix: (Units=GPa)
#
#
# Indices 1 2 3 4 5 6 
#
# 1 51.7617 17.6979 36.0899 0.0000 0.0000 0.0000
# 2 17.6979 84.8819 54.0658 0.0000 0.0000 0.0000
# 3 36.0899 54.0658 128.9313 0.0000 0.0000 0.0000
# 4 0.0000 0.0000 0.0000 42.8583 0.0000 0.0000
# 5 0.0000 0.0000 0.0000 0.0000 34.5106 0.0000
# 6 0.0000 0.0000 0.0000 0.0000 0.0000 29.1860
#
#
#
# Elastic Compliance Matrix: (Units=1/GPa)
#
#
# Indices 1 2 3 4 5 6 
#
# 1 0.024065 -0.000992 -0.006320 0.000000 0.000000 0.000000
# 2 -0.000992 0.016115 -0.006480 0.000000 0.000000 0.000000
# 3 -0.006320 -0.006480 0.012243 0.000000 0.000000 0.000000
# 4 0.000000 0.000000 0.000000 0.023333 0.000000 0.000000
# 5 0.000000 0.000000 0.000000 0.000000 0.028977 0.000000
# 6 0.000000 0.000000 0.000000 0.000000 0.000000 0.034263
#
#
# Mechanical properties :
#
#
# Convention : Reuss Voigt Hill
#
# Bulk Modulus (GPa) = 40.25999 53.47578 46.86788
# Shear Modulus (GPa) = 28.59433 31.82571 30.21002
#
# Velocity S-wave (km/s) = 3.67525 3.87736 3.77766
# Velocity P-wave (km/s) = 6.08507 6.73099 6.41616
#
# Compressibility (1/GPa) = 0.02483856
#
# Stress axis : x y z
#
# Youngs Moduli (GPa) = 41.55383 62.05224 81.68190
#
# Poissons Ratio (x) = 0.06155 0.51626
# Poissons Ratio (y) = 0.04121 0.52931
# Poissons Ratio (z) = 0.26263 0.40211
#
# Static dielectric constant tensor:
#      x y z
#    x 3.432450 0.000000 0.000000 
#    y 0.000000 4.422980 0.000000 
#    z 0.000000 0.000000 4.355270 
# 
# 
# High freq. dielectric constant tensor:
#      x y z
#    x 1.769870 0.000000 0.000000 
#    y 0.000000 1.853050 0.000000 
#    z 0.000000 0.000000 1.862570 
# 
# From -- ./inp_files/22932.got.cif
#   From: 2010.03.12/outbox.cif.g09.slc.cpg/sg60_12_cif.got.tgz:22932.got - 2010.04.10 18:46:24.
