data_PCOD8247413
_publ_section_title
;
Structure prediction by ZEFSAII (Michael W. Deem and Ramdas Pophale) SiO2 
 PCOD8247413
Probable space group: P B C N
;
_chemical_formula_sum "Si O2"
_cell_formula_units_Z 60
_cell_length_a 17.924147
_cell_length_b 11.227149
_cell_length_c 13.140580
_cell_angle_alpha 90.000000
_cell_angle_beta 90.000000
_cell_angle_gamma 90.000000
_cell_volume 2644.371805
_symmetry_space_group_name_H-M "P B C N"
_symmetry_group_IT_number 60
_symmetry_cell_setting 'orthorhombic'
loop_
_space_group_symop_operation_xyz
x,y,z
1/2-x,1/2-y,1/2+z
1/2+x,1/2-y,-z
-x,y,1/2-z
-x,-y,-z
1/2+x,1/2+y,1/2-z
1/2-x,1/2+y,z
x,-y,1/2+z
loop_
_atom_site_type_symbol
_atom_site_label
_atom_site_fract_x
_atom_site_fract_y
_atom_site_fract_z
Si Si1 0.411337 0.839802 0.107146
Si Si2 0.404952 0.005224 0.924691
Si Si3 0.053108 0.782090 0.922283
Si Si4 0.261638 0.479798 0.456315
Si Si5 0.639269 0.374527 0.395446
Si Si6 0.145980 0.051702 0.275824
Si Si7 0.236802 0.207707 0.125922
Si Si8 0.500000 0.015725 0.750000
O O1 0.462727 0.721829 0.087204
O O2 0.325043 0.809004 0.107763
O O3 0.433623 0.896668 0.213915
O O4 0.431891 0.944675 0.028280
O O5 0.417516 0.146976 0.920982
O O6 0.317560 0.977677 0.911597
O O7 0.456586 0.941280 0.837124
O O8 0.086991 0.858551 0.828216
O O9 0.070405 0.839425 0.032477
O O10 0.294869 0.575637 0.533493
O O11 0.316878 0.466632 0.360337
O O12 0.253304 0.356893 0.517247
O O13 0.608490 0.465580 0.309495
O O14 0.682299 0.262294 0.343868
O O15 0.211172 0.125118 0.219117
#
# Coordination Sequence:
#
# PCOD8247413 Si02
#       8
#     8   8   8   8   8   8   8   4
#     4  11  23  41  64  93 126 170 214 264 327 391
#     4  11  21  39  63  93 130 163 211 266 329 388
#     4  10  21  42  62  90 130 171 204 267 326 384
#     4  10  22  39  59  92 129 163 207 271 325 378
#     4  10  21  39  63  93 125 166 218 264 324 384
#     4  10  24  38  62  95 124 169 221 260 321 387
#     4  11  21  39  63  92 122 169 217 265 320 385
#     4  10  22  34  58  88 126 160 200 254 322 376
#
# _framework density 22.689699000000001
#
# number of rings (size 3 to 8) (size 9 to 14) (size 15 to 20)
#    0.000    1.600    2.667    3.200    3.733    0.000 
#    2.400    7.333    0.000    0.000    0.000    0.000 
#    0.000    0.000    0.000    0.000    0.000    0.000 
#
# Total GULP energy -743552.504778 kJ/mol
# GULP energy per Si atom -12392.541746 kJ/mol
# Density = 2.263806 g / cm^3
# Si number density = 22.689699 Si / 1000 Ang^3
#
#
#
# Elastic Constant Matrix: (Units=GPa)
#
#
# Indices 1 2 3 4 5 6 
#
# 1 56.6395 -5.7728 17.3123 0.0000 0.0000 0.0000
# 2 -5.7728 57.5940 33.3216 0.0000 0.0000 0.0000
# 3 17.3123 33.3216 113.0754 0.0000 0.0000 0.0000
# 4 0.0000 0.0000 0.0000 22.9011 0.0000 0.0000
# 5 0.0000 0.0000 0.0000 0.0000 21.6444 0.0000
# 6 0.0000 0.0000 0.0000 0.0000 0.0000 23.7513
#
#
#
# Elastic Compliance Matrix: (Units=1/GPa)
#
#
# Indices 1 2 3 4 5 6 
#
# 1 0.019412 0.004419 -0.004274 0.000000 0.000000 0.000000
# 2 0.004419 0.021937 -0.007141 0.000000 0.000000 0.000000
# 3 -0.004274 -0.007141 0.011602 0.000000 0.000000 0.000000
# 4 0.000000 0.000000 0.000000 0.043666 0.000000 0.000000
# 5 0.000000 0.000000 0.000000 0.000000 0.046201 0.000000
# 6 0.000000 0.000000 0.000000 0.000000 0.000000 0.042103
#
#
# Mechanical properties :
#
#
# Convention : Reuss Voigt Hill
#
# Bulk Modulus (GPa) = 25.66818 35.22569 30.44693
# Shear Modulus (GPa) = 23.59581 25.82255 24.70918
#
# Velocity S-wave (km/s) = 3.22830 3.37719 3.30359
# Velocity P-wave (km/s) = 5.02326 5.54670 5.29146
#
# Compressibility (1/GPa) = 0.03895875
#
# Stress axis : x y z
#
# Youngs Moduli (GPa) = 51.51364 45.58425 86.18869
#
# Poissons Ratio (x) = -0.20142 0.36839
# Poissons Ratio (y) = -0.22762 0.61549
# Poissons Ratio (z) = 0.22018 0.32552
#
# Static dielectric constant tensor:
#      x y z
#    x 4.070620 0.000000 0.000000 
#    y 0.000000 3.900320 0.000000 
#    z 0.000000 0.000000 4.286720 
# 
# 
# High freq. dielectric constant tensor:
#      x y z
#    x 1.889470 0.000000 0.000000 
#    y 0.000000 1.873380 0.000000 
#    z 0.000000 0.000000 1.906710 
# 
# From -- ./inp_files/12870.got.cif
#   From: 2010.03.12/outbox.cif.g09.slc.cpg/sg60_7_cif.got.tgz:12870.got - 2010.04.10 18:46:24.
