data_PCOD8247229
_publ_section_title
;
Structure prediction by ZEFSAII (Michael W. Deem and Ramdas Pophale) SiO2 
 PCOD8247229
Probable space group: P B C N
;
_chemical_formula_sum "Si O2"
_cell_formula_units_Z 56
_cell_length_a 6.720364
_cell_length_b 14.316960
_cell_length_c 26.831772
_cell_angle_alpha 90.000000
_cell_angle_beta 90.000000
_cell_angle_gamma 90.000000
_cell_volume 2581.623842
_symmetry_space_group_name_H-M "P B C N"
_symmetry_group_IT_number 60
_symmetry_cell_setting 'orthorhombic'
loop_
_space_group_symop_operation_xyz
x,y,z
1/2-x,1/2-y,1/2+z
1/2+x,1/2-y,-z
-x,y,1/2-z
-x,-y,-z
1/2+x,1/2+y,1/2-z
1/2-x,1/2+y,z
x,-y,1/2+z
loop_
_atom_site_type_symbol
_atom_site_label
_atom_site_fract_x
_atom_site_fract_y
_atom_site_fract_z
Si Si1 0.650330 0.554959 0.033740
Si Si2 0.267573 0.831778 0.635172
Si Si3 0.184115 0.813790 0.525408
Si Si4 0.037885 0.467093 0.806771
Si Si5 0.438488 0.483213 0.858672
Si Si6 0.296374 0.116939 0.640137
Si Si7 0.466471 0.884076 0.031278
O O1 0.544034 0.656043 0.034847
O O2 0.679112 0.516345 0.089112
O O3 0.500000 0.500000 0.000000
O O4 0.867202 0.542836 0.007979
O O5 0.310708 0.832146 0.575954
O O6 0.459725 0.878694 0.660846
O O7 0.222998 0.726145 0.653174
O O8 0.074152 0.892206 0.649024
O O9 0.165224 0.705130 0.514408
O O10 0.298614 0.867276 0.479764
O O11 0.923306 0.563813 0.817991
O O12 0.000000 0.440145 0.750000
O O13 0.273240 0.483417 0.815402
O O14 0.573471 0.576007 0.859523
O O15 0.415001 0.094988 0.588617
#
# Coordination Sequence:
#
# PCOD8247229 Si02
#       7
#     8   8   8   8   8   8   8
#     4  11  21  34  56  92 122 170 209 237 315 371
#     4   9  22  44  62  93 132 169 213 265 320 389
#     4  10  21  35  57  87 127 168 211 253 295 377
#     4  11  25  47  68  96 121 166 219 277 347 383
#     4  10  22  42  64  93 135 165 211 274 310 386
#     4  10  23  41  64  96 133 166 216 268 323 392
#     4  11  20  35  58  87 129 172 212 254 300 378
#
# _framework density 21.691773999999999
#
# number of rings (size 3 to 8) (size 9 to 14) (size 15 to 20)
#    0.000    1.714    2.857    0.857    2.000    4.000 
#    5.143    0.000    0.000    0.000    0.000    0.000 
#    0.000    0.000    0.000    0.000    0.000    0.000 
#
# Total GULP energy -694148.508279 kJ/mol
# GULP energy per Si atom -12395.509076 kJ/mol
# Density = 2.164240 g / cm^3
# Si number density = 21.691774 Si / 1000 Ang^3
#
#
#
# Elastic Constant Matrix: (Units=GPa)
#
#
# Indices 1 2 3 4 5 6 
#
# 1 123.1857 25.2240 38.3677 0.0000 0.0000 0.0000
# 2 25.2240 94.6294 9.2545 0.0000 0.0000 0.0000
# 3 38.3677 9.2545 76.2102 0.0000 0.0000 0.0000
# 4 0.0000 0.0000 0.0000 21.5690 0.0000 0.0000
# 5 0.0000 0.0000 0.0000 0.0000 35.4993 0.0000
# 6 0.0000 0.0000 0.0000 0.0000 0.0000 22.2226
#
#
#
# Elastic Compliance Matrix: (Units=1/GPa)
#
#
# Indices 1 2 3 4 5 6 
#
# 1 0.010066 -0.002214 -0.004799 0.000000 0.000000 0.000000
# 2 -0.002214 0.011181 -0.000243 0.000000 0.000000 0.000000
# 3 -0.004799 -0.000243 0.015567 0.000000 0.000000 0.000000
# 4 0.000000 0.000000 0.000000 0.046363 0.000000 0.000000
# 5 0.000000 0.000000 0.000000 0.000000 0.028170 0.000000
# 6 0.000000 0.000000 0.000000 0.000000 0.000000 0.044999
#
#
# Mechanical properties :
#
#
# Convention : Reuss Voigt Hill
#
# Bulk Modulus (GPa) = 44.83776 48.85753 46.84765
# Shear Modulus (GPa) = 28.04393 30.60345 29.32369
#
# Velocity S-wave (km/s) = 3.59951 3.76018 3.68072
# Velocity P-wave (km/s) = 6.16365 6.43618 6.30138
#
# Compressibility (1/GPa) = 0.02230263
#
# Stress axis : x y z
#
# Youngs Moduli (GPa) = 99.34675 89.43402 64.23822
#
# Poissons Ratio (x) = 0.19799 0.30826
# Poissons Ratio (y) = 0.21993 0.01563
# Poissons Ratio (z) = 0.47674 0.02176
#
# Static dielectric constant tensor:
#      x y z
#    x 5.489950 0.000000 0.000000 
#    y 0.000000 4.675140 0.000000 
#    z 0.000000 0.000000 3.603350 
# 
# 
# High freq. dielectric constant tensor:
#      x y z
#    x 1.861600 0.000000 0.000000 
#    y 0.000000 1.870560 0.000000 
#    z 0.000000 0.000000 1.820600 
# 
# From -- ./inp_files/25686.got.cif
#   From: 2010.03.12/outbox.cif.g09.slc.cpg/sg60_13_cif.got.tgz:25686.got - 2010.04.10 18:46:24.
