data_PCOD8247477
_publ_section_title
;
Structure prediction by ZEFSAII (Michael W. Deem and Ramdas Pophale) SiO2 
 PCOD8247477
Probable space group: P B C N
;
_chemical_formula_sum "Si O2"
_cell_formula_units_Z 56
_cell_length_a 18.237520
_cell_length_b 9.546937
_cell_length_c 15.604213
_cell_angle_alpha 90.000000
_cell_angle_beta 90.000000
_cell_angle_gamma 90.000000
_cell_volume 2716.887826
_symmetry_space_group_name_H-M "P B C N"
_symmetry_group_IT_number 60
_symmetry_cell_setting 'orthorhombic'
loop_
_space_group_symop_operation_xyz
x,y,z
1/2-x,1/2-y,1/2+z
1/2+x,1/2-y,-z
-x,y,1/2-z
-x,-y,-z
1/2+x,1/2+y,1/2-z
1/2-x,1/2+y,z
x,-y,1/2+z
loop_
_atom_site_type_symbol
_atom_site_label
_atom_site_fract_x
_atom_site_fract_y
_atom_site_fract_z
Si Si1 0.785164 0.313590 0.160014
Si Si2 0.318839 0.026667 0.075501
Si Si3 0.696369 0.716506 0.490436
Si Si4 0.543039 0.851366 0.662495
Si Si5 0.195301 0.600014 0.264465
Si Si6 0.470116 0.344967 0.486334
Si Si7 0.572393 0.128684 0.568920
O O1 0.735288 0.263007 0.081426
O O2 0.767600 0.472203 0.184801
O O3 0.761044 0.214532 0.239831
O O4 0.871700 0.304081 0.138475
O O5 0.339110 0.050863 0.174540
O O6 0.306802 0.864557 0.056924
O O7 0.242238 0.105849 0.063994
O O8 0.383018 0.090910 0.017271
O O9 0.615924 0.652269 0.496776
O O10 0.500000 0.864953 0.750000
O O11 0.629164 0.834807 0.680294
O O12 0.515439 0.715410 0.609554
O O13 0.531715 0.990641 0.604690
O O14 0.500000 0.500000 0.500000
O O15 0.510162 0.243201 0.553497
#
# Coordination Sequence:
#
# PCOD8247477 Si02
#       7
#     8   8   8   8   8   8   8
#     4  10  21  40  65  90 128 166 221 264 332 376
#     4  11  23  41  70  97 129 172 231 268 325 397
#     4  11  23  42  65  94 131 174 220 270 325 403
#     4  11  23  44  70  94 128 173 221 274 337 399
#     4  11  22  39  65  96 124 168 214 277 319 388
#     4  12  26  42  65  99 137 175 220 275 344 403
#     4  10  23  42  69  94 129 182 220 271 330 410
#
# _framework density 20.611820000000002
#
# number of rings (size 3 to 8) (size 9 to 14) (size 15 to 20)
#    0.000    1.143    2.857    3.857    8.000    0.000 
#    2.571    0.714    0.000    0.000    0.000    0.000 
#    0.000    0.000    0.000    0.000    0.000    0.000 
#
# Total GULP energy -694392.778792 kJ/mol
# GULP energy per Si atom -12399.871050 kJ/mol
# Density = 2.056491 g / cm^3
# Si number density = 20.611820 Si / 1000 Ang^3
#
#
#
# Elastic Constant Matrix: (Units=GPa)
#
#
# Indices 1 2 3 4 5 6 
#
# 1 64.9871 42.1053 14.7368 0.0000 0.0000 0.0000
# 2 42.1053 117.1464 48.8970 0.0000 0.0000 0.0000
# 3 14.7368 48.8970 87.7024 0.0000 0.0000 0.0000
# 4 0.0000 0.0000 0.0000 32.1103 0.0000 0.0000
# 5 0.0000 0.0000 0.0000 0.0000 32.4024 0.0000
# 6 0.0000 0.0000 0.0000 0.0000 0.0000 35.2729
#
#
#
# Elastic Compliance Matrix: (Units=1/GPa)
#
#
# Indices 1 2 3 4 5 6 
#
# 1 0.020107 -0.007581 0.000848 0.000000 0.000000 0.000000
# 2 -0.007581 0.013984 -0.006522 0.000000 0.000000 0.000000
# 3 0.000848 -0.006522 0.014896 0.000000 0.000000 0.000000
# 4 0.000000 0.000000 0.000000 0.031143 0.000000 0.000000
# 5 0.000000 0.000000 0.000000 0.000000 0.030862 0.000000
# 6 0.000000 0.000000 0.000000 0.000000 0.000000 0.028350
#
#
# Mechanical properties :
#
#
# Convention : Reuss Voigt Hill
#
# Bulk Modulus (GPa) = 44.49184 53.47936 48.98560
# Shear Modulus (GPa) = 28.84426 30.89690 29.87058
#
# Velocity S-wave (km/s) = 3.74492 3.87588 3.81096
# Velocity P-wave (km/s) = 6.35072 6.78470 6.57130
#
# Compressibility (1/GPa) = 0.02247603
#
# Stress axis : x y z
#
# Youngs Moduli (GPa) = 49.73374 71.51236 67.13112
#
# Poissons Ratio (x) = 0.54213 -0.05693
# Poissons Ratio (y) = 0.37703 0.43786
# Poissons Ratio (z) = -0.04217 0.46644
#
# Static dielectric constant tensor:
#      x y z
#    x 3.873340 0.000000 0.000000 
#    y 0.000000 3.744610 0.000000 
#    z 0.000000 0.000000 3.814030 
# 
# 
# High freq. dielectric constant tensor:
#      x y z
#    x 1.813910 0.000000 0.000000 
#    y 0.000000 1.805480 0.000000 
#    z 0.000000 0.000000 1.806370 
# 
# From -- ./inp_files/17699.got.cif
#   From: 2010.03.12/outbox.cif.g09.slc.cpg/sg60_9_cif.got.tgz:17699.got - 2010.04.10 18:46:24.
