data_PCOD8247308
_publ_section_title
;
Structure prediction by ZEFSAII (Michael W. Deem and Ramdas Pophale) SiO2 
 PCOD8247308
Probable space group: P B C N
;
_chemical_formula_sum "Si O2"
_cell_formula_units_Z 36
_cell_length_a 5.679796
_cell_length_b 20.265964
_cell_length_c 14.005224
_cell_angle_alpha 90.000000
_cell_angle_beta 90.000000
_cell_angle_gamma 90.000000
_cell_volume 1612.092894
_symmetry_space_group_name_H-M "P B C N"
_symmetry_group_IT_number 60
_symmetry_cell_setting 'orthorhombic'
loop_
_space_group_symop_operation_xyz
x,y,z
1/2-x,1/2-y,1/2+z
1/2+x,1/2-y,-z
-x,y,1/2-z
-x,-y,-z
1/2+x,1/2+y,1/2-z
1/2-x,1/2+y,z
x,-y,1/2+z
loop_
_atom_site_type_symbol
_atom_site_label
_atom_site_fract_x
_atom_site_fract_y
_atom_site_fract_z
Si Si1 0.500000 0.339667 0.250000
Si Si2 0.500000 0.997640 0.250000
Si Si3 0.500000 0.425308 0.750000
Si Si4 0.646027 0.895036 0.385590
Si Si5 0.434049 0.646741 0.447691
Si Si6 0.222593 0.708784 0.917836
O O1 0.320390 0.390858 0.203782
O O2 0.599240 0.290855 0.170284
O O3 0.483658 0.956211 0.350887
O O4 0.251001 0.036902 0.244849
O O5 0.516804 0.379898 0.656788
O O6 0.782065 0.904940 0.487011
O O7 0.520084 0.824087 0.386437
O O8 0.294534 0.715759 0.448285
O O9 0.684162 0.661844 0.496774
#
# Coordination Sequence:
#
# PCOD8247308 Si02
#       6
#     4   4   4   8   8   8
#     4  10  21  37  72 110 137 185 232 298 372 448
#     4  12  28  52  74 101 147 206 268 290 362 438
#     4  12  33  49  72 109 152 205 250 312 354 440
#     4  11  23  45  75 103 140 190 246 300 368 447
#     4  11  27  44  71 110 150 181 248 307 395 438
#     4  11  22  42  72 112 138 183 231 316 380 456
#
# _framework density 22.331219999999998
#
# number of rings (size 3 to 8) (size 9 to 14) (size 15 to 20)
#    0.000    0.889    4.444    0.667    9.333    2.667 
#    0.000    0.000    0.000    0.000    0.000    0.000 
#    0.000    0.000    0.000    0.000    0.000    0.000 
#
# Total GULP energy -446044.563530 kJ/mol
# GULP energy per Si atom -12390.126765 kJ/mol
# Density = 2.228039 g / cm^3
# Si number density = 22.331220 Si / 1000 Ang^3
#
#
#
# Elastic Constant Matrix: (Units=GPa)
#
#
# Indices 1 2 3 4 5 6 
#
# 1 117.1255 46.1113 53.0490 0.0000 0.0000 0.0000
# 2 46.1113 82.9791 65.0419 0.0000 0.0000 0.0000
# 3 53.0490 65.0419 176.7124 0.0000 0.0000 0.0000
# 4 0.0000 0.0000 0.0000 28.8272 0.0000 0.0000
# 5 0.0000 0.0000 0.0000 0.0000 12.7274 0.0000
# 6 0.0000 0.0000 0.0000 0.0000 0.0000 38.5089
#
#
#
# Elastic Compliance Matrix: (Units=1/GPa)
#
#
# Indices 1 2 3 4 5 6 
#
# 1 0.011207 -0.005047 -0.001507 0.000000 0.000000 0.000000
# 2 -0.005047 0.019210 -0.005556 0.000000 0.000000 0.000000
# 3 -0.001507 -0.005556 0.008156 0.000000 0.000000 0.000000
# 4 0.000000 0.000000 0.000000 0.034689 0.000000 0.000000
# 5 0.000000 0.000000 0.000000 0.000000 0.078571 0.000000
# 6 0.000000 0.000000 0.000000 0.000000 0.000000 0.025968
#
#
# Mechanical properties :
#
#
# Convention : Reuss Voigt Hill
#
# Bulk Modulus (GPa) = 69.66096 78.35793 74.00945
# Shear Modulus (GPa) = 24.17732 30.18703 27.18217
#
# Velocity S-wave (km/s) = 3.29396 3.68065 3.49266
# Velocity P-wave (km/s) = 6.76233 7.29576 7.03410
#
# Compressibility (1/GPa) = 0.01435524
#
# Stress axis : x y z
#
# Youngs Moduli (GPa) = 89.22854 52.05517 122.60697
#
# Poissons Ratio (x) = 0.26270 0.18476
# Poissons Ratio (y) = 0.45031 0.68117
# Poissons Ratio (z) = 0.13446 0.28920
#
# Static dielectric constant tensor:
#      x y z
#    x 4.420690 0.000000 0.000000 
#    y 0.000000 3.776300 0.000000 
#    z 0.000000 0.000000 4.263860 
# 
# 
# High freq. dielectric constant tensor:
#      x y z
#    x 1.897230 0.000000 0.000000 
#    y 0.000000 1.855330 0.000000 
#    z 0.000000 0.000000 1.894630 
# 
# From -- ./inp_files/13763.got.cif
#   From: 2010.03.12/outbox.cif.g09.slc.cpg/sg60_7_cif.got.tgz:13763.got - 2010.04.10 18:46:24.
