data_PCOD8247132
_publ_section_title
;
Structure prediction by ZEFSAII (Michael W. Deem and Ramdas Pophale) SiO2 
 PCOD8247132
Probable space group: P B C N
;
_chemical_formula_sum "Si O2"
_cell_formula_units_Z 60
_cell_length_a 10.923978
_cell_length_b 9.387704
_cell_length_c 23.935428
_cell_angle_alpha 90.000000
_cell_angle_beta 90.000000
_cell_angle_gamma 90.000000
_cell_volume 2454.603799
_symmetry_space_group_name_H-M "P B C N"
_symmetry_group_IT_number 60
_symmetry_cell_setting 'orthorhombic'
loop_
_space_group_symop_operation_xyz
x,y,z
1/2-x,1/2-y,1/2+z
1/2+x,1/2-y,-z
-x,y,1/2-z
-x,-y,-z
1/2+x,1/2+y,1/2-z
1/2-x,1/2+y,z
x,-y,1/2+z
loop_
_atom_site_type_symbol
_atom_site_label
_atom_site_fract_x
_atom_site_fract_y
_atom_site_fract_z
Si Si1 0.631547 0.934032 0.625586
Si Si2 0.140256 0.377298 0.001953
Si Si3 0.983347 0.993058 0.577826
Si Si4 0.500000 0.488353 0.750000
Si Si5 0.822135 0.875567 0.168160
Si Si6 0.860635 0.492244 0.377792
Si Si7 0.601912 0.294281 0.488545
Si Si8 0.860483 0.826024 0.846248
O O1 0.658343 0.948781 0.558792
O O2 0.683488 0.788443 0.651592
O O3 0.683717 0.064710 0.663186
O O4 0.488536 0.936779 0.635613
O O5 0.251494 0.257217 0.009117
O O6 0.157125 0.486286 0.054149
O O7 0.998293 0.322859 0.007504
O O8 0.058657 0.143389 0.571582
O O9 0.883572 0.021332 0.623679
O O10 0.071430 0.865092 0.596278
O O11 0.909462 0.939943 0.524229
O O12 0.606158 0.593118 0.725864
O O13 0.437550 0.383075 0.705896
O O14 0.770728 0.601104 0.347929
O O15 0.844728 0.342819 0.346223
#
# Coordination Sequence:
#
# PCOD8247132 Si02
#       8
#     8   8   8   4   8   8   8   8
#     4  12  29  47  77 116 162 204 259 325 395 480
#     4  12  25  42  71 113 168 212 265 301 400 476
#     4  10  20  40  68  96 146 202 250 308 376 452
#     4  10  28  54  88 102 148 210 270 336 400 442
#     4  11  26  51  75 110 150 199 264 329 393 459
#     4  12  29  47  77 116 162 204 259 325 395 480
#     4  11  22  38  65 105 147 213 247 315 371 472
#     4  11  26  51  75 110 150 199 264 329 393 459
#
# _framework density 24.443864000000001
#
# number of rings (size 3 to 8) (size 9 to 14) (size 15 to 20)
#    0.000    0.800    5.333    0.400   11.200    2.133 
#    0.000    0.000    0.000    0.000    0.000    0.000 
#    0.000    0.000    0.000    0.000    0.000    0.000 
#
# Total GULP energy -743382.176775 kJ/mol
# GULP energy per Si atom -12389.702946 kJ/mol
# Density = 2.438823 g / cm^3
# Si number density = 24.443864 Si / 1000 Ang^3
#
#
#
# Elastic Constant Matrix: (Units=GPa)
#
#
# Indices 1 2 3 4 5 6 
#
# 1 138.7734 21.6575 24.8640 0.0000 0.0000 0.0000
# 2 21.6575 106.3294 23.1955 0.0000 0.0000 0.0000
# 3 24.8640 23.1955 92.4138 0.0000 0.0000 0.0000
# 4 0.0000 0.0000 0.0000 23.5676 0.0000 0.0000
# 5 0.0000 0.0000 0.0000 0.0000 26.1587 0.0000
# 6 0.0000 0.0000 0.0000 0.0000 0.0000 39.7626
#
#
#
# Elastic Compliance Matrix: (Units=1/GPa)
#
#
# Indices 1 2 3 4 5 6 
#
# 1 0.007709 -0.001182 -0.001777 0.000000 0.000000 0.000000
# 2 -0.001182 0.010131 -0.002225 0.000000 0.000000 0.000000
# 3 -0.001777 -0.002225 0.011857 0.000000 0.000000 0.000000
# 4 0.000000 0.000000 0.000000 0.042431 0.000000 0.000000
# 5 0.000000 0.000000 0.000000 0.000000 0.038228 0.000000
# 6 0.000000 0.000000 0.000000 0.000000 0.000000 0.025149
#
#
# Mechanical properties :
#
#
# Convention : Reuss Voigt Hill
#
# Bulk Modulus (GPa) = 51.73726 52.99451 52.36588
# Shear Modulus (GPa) = 32.82612 35.75108 34.28860
#
# Velocity S-wave (km/s) = 3.66856 3.82852 3.74939
# Velocity P-wave (km/s) = 6.25749 6.42421 6.34140
#
# Compressibility (1/GPa) = 0.01932843
#
# Stress axis : x y z
#
# Youngs Moduli (GPa) = 129.71894 98.70798 84.33511
#
# Poissons Ratio (x) = 0.11672 0.14989
# Poissons Ratio (y) = 0.15339 0.18762
# Poissons Ratio (z) = 0.23055 0.21959
#
# Static dielectric constant tensor:
#      x y z
#    x 4.904150 0.000000 0.000000 
#    y 0.000000 4.056000 0.000000 
#    z 0.000000 0.000000 4.535510 
# 
# 
# High freq. dielectric constant tensor:
#      x y z
#    x 1.996350 0.000000 0.000000 
#    y 0.000000 1.962660 0.000000 
#    z 0.000000 0.000000 1.948410 
# 
# From -- ./inp_files/25329.got.cif
#   From: 2010.03.12/outbox.cif.g09.slc.cpg/sg60_13_cif.got.tgz:25329.got - 2010.04.10 18:46:24.
