data_PCOD8247256
_publ_section_title
;
Structure prediction by ZEFSAII (Michael W. Deem and Ramdas Pophale) SiO2 
 PCOD8247256
Probable space group: P B C N
;
_chemical_formula_sum "Si O2"
_cell_formula_units_Z 48
_cell_length_a 7.444017
_cell_length_b 14.571542
_cell_length_c 21.812773
_cell_angle_alpha 90.000000
_cell_angle_beta 90.000000
_cell_angle_gamma 90.000000
_cell_volume 2366.049076
_symmetry_space_group_name_H-M "P B C N"
_symmetry_group_IT_number 60
_symmetry_cell_setting 'orthorhombic'
loop_
_space_group_symop_operation_xyz
x,y,z
1/2-x,1/2-y,1/2+z
1/2+x,1/2-y,-z
-x,y,1/2-z
-x,-y,-z
1/2+x,1/2+y,1/2-z
1/2-x,1/2+y,z
x,-y,1/2+z
loop_
_atom_site_type_symbol
_atom_site_label
_atom_site_fract_x
_atom_site_fract_y
_atom_site_fract_z
Si Si1 0.826377 0.993592 0.109270
Si Si2 0.994371 0.543814 0.318850
Si Si3 0.877467 0.858895 0.506854
Si Si4 0.203192 0.806025 0.426945
Si Si5 0.214461 0.088509 0.621786
Si Si6 0.450367 0.251128 0.181227
O O1 0.706176 0.902780 0.092659
O O2 0.019797 0.959626 0.135151
O O3 0.700956 0.048949 0.156926
O O4 0.873221 0.054248 0.050774
O O5 0.874113 0.477353 0.359437
O O6 0.899687 0.643613 0.320317
O O7 0.000000 0.505787 0.250000
O O8 0.834454 0.767244 0.544259
O O9 0.750430 0.883877 0.449128
O O10 0.071991 0.838782 0.480822
O O11 0.111199 0.762550 0.367201
O O12 0.215842 0.183947 0.660622
O O13 0.500000 0.280901 0.250000
#
# Coordination Sequence:
#
# PCOD8247256 Si02
#       6
#     8   8   8   8   8   8
#     4  10  22  41  61  90 125 162 200 259 307 362
#     4  11  24  41  65  95 119 164 217 247 305 372
#     4  10  21  39  58  92 123 159 204 252 315 366
#     4  10  21  36  62  87 121 163 202 253 308 370
#     4  10  24  39  65  90 124 166 198 255 312 365
#     4   9  20  41  61  84 126 160 199 260 303 354
#
# _framework density 20.286982999999999
#
# number of rings (size 3 to 8) (size 9 to 14) (size 15 to 20)
#    0.000    2.333    1.667    2.000    7.000    6.000 
#    0.000    0.000    0.000    0.000    0.000    0.000 
#    0.000    0.000    0.000    0.000    0.000    0.000 
#
# Total GULP energy -594690.422543 kJ/mol
# GULP energy per Si atom -12389.383803 kJ/mol
# Density = 2.024081 g / cm^3
# Si number density = 20.286983 Si / 1000 Ang^3
#
#
#
# Elastic Constant Matrix: (Units=GPa)
#
#
# Indices 1 2 3 4 5 6 
#
# 1 46.5091 10.7124 18.8659 0.0000 0.0000 0.0000
# 2 10.7124 87.5685 11.0331 0.0000 0.0000 0.0000
# 3 18.8659 11.0331 87.2579 0.0000 0.0000 0.0000
# 4 0.0000 0.0000 0.0000 18.1385 0.0000 0.0000
# 5 0.0000 0.0000 0.0000 0.0000 16.2438 0.0000
# 6 0.0000 0.0000 0.0000 0.0000 0.0000 22.9393
#
#
#
# Elastic Compliance Matrix: (Units=1/GPa)
#
#
# Indices 1 2 3 4 5 6 
#
# 1 0.024024 -0.002321 -0.004901 0.000000 0.000000 0.000000
# 2 -0.002321 0.011829 -0.000994 0.000000 0.000000 0.000000
# 3 -0.004901 -0.000994 0.012645 0.000000 0.000000 0.000000
# 4 0.000000 0.000000 0.000000 0.055131 0.000000 0.000000
# 5 0.000000 0.000000 0.000000 0.000000 0.061562 0.000000
# 6 0.000000 0.000000 0.000000 0.000000 0.000000 0.043593
#
#
# Mechanical properties :
#
#
# Convention : Reuss Voigt Hill
#
# Bulk Modulus (GPa) = 31.18521 33.61759 32.40140
# Shear Modulus (GPa) = 21.19498 23.51261 22.35380
#
# Velocity S-wave (km/s) = 3.23578 3.40810 3.32306
# Velocity P-wave (km/s) = 5.41902 5.66514 5.54345
#
# Compressibility (1/GPa) = 0.03206648
#
# Stress axis : x y z
#
# Youngs Moduli (GPa) = 41.62550 84.53927 79.07962
#
# Poissons Ratio (x) = 0.19625 0.38754
# Poissons Ratio (y) = 0.09663 0.07859
# Poissons Ratio (z) = 0.20399 0.08401
#
# Static dielectric constant tensor:
#      x y z
#    x 3.280440 0.000000 0.000000 
#    y 0.000000 4.067660 0.000000 
#    z 0.000000 0.000000 3.817260 
# 
# 
# High freq. dielectric constant tensor:
#      x y z
#    x 1.753640 0.000000 0.000000 
#    y 0.000000 1.817660 0.000000 
#    z 0.000000 0.000000 1.801060 
# 
# From -- ./inp_files/19329.got.cif
#   From: 2010.03.12/outbox.cif.g09.slc.cpg/sg60_10_cif.got.tgz:19329.got - 2010.04.10 18:46:24.
