data_PCOD8247824
_publ_section_title
;
Structure prediction by ZEFSAII (Michael W. Deem and Ramdas Pophale) SiO2 
 PCOD8247824
Probable space group: P B C N
;
_chemical_formula_sum "Si O2"
_cell_formula_units_Z 56
_cell_length_a 18.294401
_cell_length_b 11.191850
_cell_length_c 12.508560
_cell_angle_alpha 90.000000
_cell_angle_beta 90.000000
_cell_angle_gamma 90.000000
_cell_volume 2561.105042
_symmetry_space_group_name_H-M "P B C N"
_symmetry_group_IT_number 60
_symmetry_cell_setting 'orthorhombic'
loop_
_space_group_symop_operation_xyz
x,y,z
1/2-x,1/2-y,1/2+z
1/2+x,1/2-y,-z
-x,y,1/2-z
-x,-y,-z
1/2+x,1/2+y,1/2-z
1/2-x,1/2+y,z
x,-y,1/2+z
loop_
_atom_site_type_symbol
_atom_site_label
_atom_site_fract_x
_atom_site_fract_y
_atom_site_fract_z
Si Si1 0.921779 0.652407 0.298285
Si Si2 0.845914 0.183708 0.652388
Si Si3 0.108375 0.163555 0.521156
Si Si4 0.052340 0.170784 0.042691
Si Si5 0.141250 0.020258 0.184919
Si Si6 0.311714 0.266002 0.805903
Si Si7 0.929158 0.377764 0.317846
O O1 0.869360 0.687801 0.200126
O O2 0.896702 0.721669 0.403773
O O3 0.916390 0.516885 0.335332
O O4 0.000000 0.688368 0.250000
O O5 0.879533 0.154538 0.537626
O O6 0.876701 0.075370 0.724041
O O7 0.758510 0.194091 0.652017
O O8 0.157495 0.058915 0.577582
O O9 0.143906 0.191815 0.408716
O O10 0.024252 0.122321 0.503085
O O11 0.053193 0.312618 0.069539
O O12 0.070234 0.099636 0.152987
O O13 0.202022 0.115703 0.229596
O O14 0.356491 0.170240 0.738313
O O15 0.000000 0.351136 0.250000
#
# Coordination Sequence:
#
# PCOD8247824 Si02
#       7
#     8   8   8   8   8   8   8
#     4  10  22  42  68  95 131 172 217 269 325 386
#     4  11  25  44  63  95 133 170 218 273 330 386
#     4  11  22  41  69 101 128 170 224 267 323 391
#     4  11  22  41  69 101 128 170 224 267 323 391
#     4  10  25  43  67  93 133 171 213 267 335 386
#     4  11  25  44  63  95 133 170 218 273 330 386
#     4  10  22  42  68  95 131 172 217 269 325 386
#
# _framework density 21.865562000000001
#
# number of rings (size 3 to 8) (size 9 to 14) (size 15 to 20)
#    0.000    1.429    2.857    1.286    2.000    7.429 
#    0.000    0.000    0.000    0.000    0.000    0.000 
#    0.000    0.000    0.000    0.000    0.000    0.000 
#
# Total GULP energy -693787.259181 kJ/mol
# GULP energy per Si atom -12389.058200 kJ/mol
# Density = 2.181580 g / cm^3
# Si number density = 21.865562 Si / 1000 Ang^3
#
#
#
# Elastic Constant Matrix: (Units=GPa)
#
#
# Indices 1 2 3 4 5 6 
#
# 1 106.8667 27.4691 36.8493 0.0000 0.0000 0.0000
# 2 27.4691 96.0216 38.4919 0.0000 0.0000 0.0000
# 3 36.8493 38.4919 92.1017 0.0000 0.0000 0.0000
# 4 0.0000 0.0000 0.0000 12.8423 0.0000 0.0000
# 5 0.0000 0.0000 0.0000 0.0000 27.4116 0.0000
# 6 0.0000 0.0000 0.0000 0.0000 0.0000 14.3801
#
#
#
# Elastic Compliance Matrix: (Units=1/GPa)
#
#
# Indices 1 2 3 4 5 6 
#
# 1 0.011074 -0.001672 -0.003732 0.000000 0.000000 0.000000
# 2 -0.001672 0.012763 -0.004665 0.000000 0.000000 0.000000
# 3 -0.003732 -0.004665 0.014300 0.000000 0.000000 0.000000
# 4 0.000000 0.000000 0.000000 0.077868 0.000000 0.000000
# 5 0.000000 0.000000 0.000000 0.000000 0.036481 0.000000
# 6 0.000000 0.000000 0.000000 0.000000 0.000000 0.069540
#
#
# Mechanical properties :
#
#
# Convention : Reuss Voigt Hill
#
# Bulk Modulus (GPa) = 55.55749 55.62341 55.59045
# Shear Modulus (GPa) = 20.14802 23.73878 21.94340
#
# Velocity S-wave (km/s) = 3.03883 3.29852 3.17134
# Velocity P-wave (km/s) = 6.14626 6.32464 6.23609
#
# Compressibility (1/GPa) = 0.01799937
#
# Stress axis : x y z
#
# Youngs Moduli (GPa) = 90.30135 78.35367 69.92872
#
# Poissons Ratio (x) = 0.13101 0.26097
# Poissons Ratio (y) = 0.15098 0.32621
# Poissons Ratio (z) = 0.33699 0.36551
#
# Static dielectric constant tensor:
#      x y z
#    x 3.762240 0.000000 0.000000 
#    y 0.000000 4.221990 0.000000 
#    z 0.000000 0.000000 4.053820 
# 
# 
# High freq. dielectric constant tensor:
#      x y z
#    x 1.834580 0.000000 0.000000 
#    y 0.000000 1.877260 0.000000 
#    z 0.000000 0.000000 1.867170 
# 
# From -- ./inp_files/12838.got.cif
#   From: 2010.03.12/outbox.cif.g09.slc.cpg/sg60_7_cif.got.tgz:12838.got - 2010.04.10 18:46:24.
