data_PCOD8247377
_publ_section_title
;
Structure prediction by ZEFSAII (Michael W. Deem and Ramdas Pophale) SiO2 
 PCOD8247377
Probable space group: P B C N
;
_chemical_formula_sum "Si O2"
_cell_formula_units_Z 48
_cell_length_a 24.491228
_cell_length_b 9.383130
_cell_length_c 8.791748
_cell_angle_alpha 90.000000
_cell_angle_beta 90.000000
_cell_angle_gamma 90.000000
_cell_volume 2020.382165
_symmetry_space_group_name_H-M "P B C N"
_symmetry_group_IT_number 60
_symmetry_cell_setting 'orthorhombic'
loop_
_space_group_symop_operation_xyz
x,y,z
1/2-x,1/2-y,1/2+z
1/2+x,1/2-y,-z
-x,y,1/2-z
-x,-y,-z
1/2+x,1/2+y,1/2-z
1/2-x,1/2+y,z
x,-y,1/2+z
loop_
_atom_site_type_symbol
_atom_site_label
_atom_site_fract_x
_atom_site_fract_y
_atom_site_fract_z
Si Si1 0.566161 0.800805 0.247168
Si Si2 0.784390 0.325110 0.785029
Si Si3 0.617907 0.540264 0.111111
Si Si4 0.240458 0.057927 0.902914
Si Si5 0.940947 0.457571 0.954027
Si Si6 0.401170 0.297341 0.184368
O O1 0.500000 0.778619 0.250000
O O2 0.598743 0.651796 0.243154
O O3 0.586636 0.897396 0.389294
O O4 0.588110 0.889870 0.100520
O O5 0.756342 0.183533 0.720060
O O6 0.785563 0.443420 0.650919
O O7 0.844799 0.287805 0.837656
O O8 0.750304 0.384674 0.928009
O O9 0.682997 0.527191 0.102542
O O10 0.593865 0.384229 0.157959
O O11 0.592116 0.587343 0.951528
O O12 0.945161 0.330310 0.826380
O O13 0.000000 0.500000 0.000000
#
# Coordination Sequence:
#
# PCOD8247377 Si02
#       6
#     8   8   8   8   8   8
#     4   9  19  38  60  84 115 150 188 235 284 338
#     4  11  23  38  60  87 118 156 197 241 292 347
#     4  10  21  39  59  83 116 150 192 237 284 341
#     4  11  22  40  61  86 118 155 197 243 291 348
#     4   9  19  37  59  86 116 147 188 235 284 339
#     4  10  22  38  59  86 115 152 192 235 288 343
#
# _framework density 23.757881999999999
#
# number of rings (size 3 to 8) (size 9 to 14) (size 15 to 20)
#    0.000    2.000    0.000    4.000    0.000    5.333 
#    0.000   11.667    0.000    0.000    0.000    0.000 
#    0.000    0.000    0.000    0.000    0.000    0.000 
#
# Total GULP energy -594792.236674 kJ/mol
# GULP energy per Si atom -12391.504931 kJ/mol
# Density = 2.370381 g / cm^3
# Si number density = 23.757882 Si / 1000 Ang^3
#
#
#
# Elastic Constant Matrix: (Units=GPa)
#
#
# Indices 1 2 3 4 5 6 
#
# 1 39.3227 46.2839 16.6818 0.0000 0.0000 0.0000
# 2 46.2839 123.9128 21.9523 0.0000 0.0000 0.0000
# 3 16.6818 21.9523 42.5199 0.0000 0.0000 0.0000
# 4 0.0000 0.0000 0.0000 53.9159 0.0000 0.0000
# 5 0.0000 0.0000 0.0000 0.0000 20.5546 0.0000
# 6 0.0000 0.0000 0.0000 0.0000 0.0000 47.0311
#
#
#
# Elastic Compliance Matrix: (Units=1/GPa)
#
#
# Indices 1 2 3 4 5 6 
#
# 1 0.049573 -0.016588 -0.010885 0.000000 0.000000 0.000000
# 2 -0.016588 0.014433 -0.000944 0.000000 0.000000 0.000000
# 3 -0.010885 -0.000944 0.028276 0.000000 0.000000 0.000000
# 4 0.000000 0.000000 0.000000 0.018547 0.000000 0.000000
# 5 0.000000 0.000000 0.000000 0.000000 0.048651 0.000000
# 6 0.000000 0.000000 0.000000 0.000000 0.000000 0.021263
#
#
# Mechanical properties :
#
#
# Convention : Reuss Voigt Hill
#
# Bulk Modulus (GPa) = 28.20940 41.73237 34.97089
# Shear Modulus (GPa) = 20.04869 32.35614 26.20242
#
# Velocity S-wave (km/s) = 2.90810 3.69441 3.32459
# Velocity P-wave (km/s) = 4.81410 5.98348 5.43036
#
# Compressibility (1/GPa) = 0.03544917
#
# Stress axis : x y z
#
# Youngs Moduli (GPa) = 20.17229 69.28386 35.36567
#
# Poissons Ratio (x) = 1.14929 0.38495
# Poissons Ratio (y) = 0.33462 0.03337
# Poissons Ratio (z) = 0.21957 0.06538
#
# Static dielectric constant tensor:
#      x y z
#    x 3.774340 0.000000 0.000000 
#    y 0.000000 5.056780 0.000000 
#    z 0.000000 0.000000 4.392910 
# 
# 
# High freq. dielectric constant tensor:
#      x y z
#    x 1.904160 0.000000 0.000000 
#    y 0.000000 1.967320 0.000000 
#    z 0.000000 0.000000 1.943830 
# 
# From -- ./inp_files/8408.got.cif
#   From: 2010.03.12/outbox.cif.g09.slc.cpg/sg60_5_cif.got.tgz:8408.got - 2010.04.10 18:46:24.
