data_PCOD8247912
_publ_section_title
;
Structure prediction by ZEFSAII (Michael W. Deem and Ramdas Pophale) SiO2 
 PCOD8247912
Probable space group: P B C N
;
_chemical_formula_sum "Si O2"
_cell_formula_units_Z 32
_cell_length_a 17.326855
_cell_length_b 7.264269
_cell_length_c 9.486230
_cell_angle_alpha 90.000000
_cell_angle_beta 90.000000
_cell_angle_gamma 90.000000
_cell_volume 1194.002701
_symmetry_space_group_name_H-M "P B C N"
_symmetry_group_IT_number 60
_symmetry_cell_setting 'orthorhombic'
loop_
_space_group_symop_operation_xyz
x,y,z
1/2-x,1/2-y,1/2+z
1/2+x,1/2-y,-z
-x,y,1/2-z
-x,-y,-z
1/2+x,1/2+y,1/2-z
1/2-x,1/2+y,z
x,-y,1/2+z
loop_
_atom_site_type_symbol
_atom_site_label
_atom_site_fract_x
_atom_site_fract_y
_atom_site_fract_z
Si Si1 0.966364 0.344088 0.099015
Si Si2 0.655388 0.686333 0.781595
Si Si3 0.833161 0.389765 0.277269
Si Si4 0.091076 0.900395 0.516449
O O1 0.000000 0.396638 0.250000
O O2 0.999217 0.143405 0.047886
O O3 0.874006 0.336599 0.126937
O O4 0.000000 0.500000 0.000000
O O5 0.619459 0.593731 0.920680
O O6 0.742783 0.628725 0.753094
O O7 0.606888 0.614070 0.648854
O O8 0.645489 0.900374 0.813035
O O9 0.861131 0.263104 0.405890
#
# Coordination Sequence:
#
# PCOD8247912 Si02
#       4
#     8   8   8   8
#     4  10  22  48  73 104 147 197 249 306 383 450
#     4  12  26  45  81 112 154 199 261 323 380 467
#     4  11  25  46  76 109 151 201 252 317 388 455
#     4  11  27  48  76 119 149 202 258 316 389 464
#
# _framework density 26.800609999999999
#
# number of rings (size 3 to 8) (size 9 to 14) (size 15 to 20)
#    0.000    1.000    5.000    0.000    3.500    2.000 
#    4.500   22.500    0.000    0.000    0.000    0.000 
#    0.000    0.000    0.000    0.000    0.000    0.000 
#
# Total GULP energy -396930.078669 kJ/mol
# GULP energy per Si atom -12404.064958 kJ/mol
# Density = 2.673961 g / cm^3
# Si number density = 26.800610 Si / 1000 Ang^3
#
#
#
# Elastic Constant Matrix: (Units=GPa)
#
#
# Indices 1 2 3 4 5 6 
#
# 1 168.4044 13.9773 13.2670 0.0000 0.0000 0.0000
# 2 13.9773 184.1004 20.4609 0.0000 0.0000 0.0000
# 3 13.2670 20.4609 111.0545 0.0000 0.0000 0.0000
# 4 0.0000 0.0000 0.0000 31.5341 0.0000 0.0000
# 5 0.0000 0.0000 0.0000 0.0000 37.7305 0.0000
# 6 0.0000 0.0000 0.0000 0.0000 0.0000 28.6953
#
#
#
# Elastic Compliance Matrix: (Units=1/GPa)
#
#
# Indices 1 2 3 4 5 6 
#
# 1 0.006021 -0.000385 -0.000648 0.000000 0.000000 0.000000
# 2 -0.000385 0.005570 -0.000980 0.000000 0.000000 0.000000
# 3 -0.000648 -0.000980 0.009263 0.000000 0.000000 0.000000
# 4 0.000000 0.000000 0.000000 0.031712 0.000000 0.000000
# 5 0.000000 0.000000 0.000000 0.000000 0.026504 0.000000
# 6 0.000000 0.000000 0.000000 0.000000 0.000000 0.034849
#
#
# Mechanical properties :
#
#
# Convention : Reuss Voigt Hill
#
# Bulk Modulus (GPa) = 59.43026 62.10773 60.76900
# Shear Modulus (GPa) = 40.46804 47.31557 43.89180
#
# Velocity S-wave (km/s) = 3.89005 4.20630 4.05126
# Velocity P-wave (km/s) = 6.51151 6.84215 6.67887
#
# Compressibility (1/GPa) = 0.01682644
#
# Stress axis : x y z
#
# Youngs Moduli (GPa) = 166.08185 179.53328 107.96056
#
# Poissons Ratio (x) = 0.06913 0.07000
# Poissons Ratio (y) = 0.06395 0.10583
# Poissons Ratio (z) = 0.10768 0.17598
#
# Static dielectric constant tensor:
#      x y z
#    x 5.880760 0.000000 0.000000 
#    y 0.000000 5.255930 0.000000 
#    z 0.000000 0.000000 5.221180 
# 
# 
# High freq. dielectric constant tensor:
#      x y z
#    x 2.101240 0.000000 0.000000 
#    y 0.000000 2.110600 0.000000 
#    z 0.000000 0.000000 2.086830 
# 
# From -- ./inp_files/12963.got.cif
#   From: 2010.03.12/outbox.cif.g09.slc.cpg/sg60_7_cif.got.tgz:12963.got - 2010.04.10 18:46:24.
