data_PCOD8247253
_publ_section_title
;
Structure prediction by ZEFSAII (Michael W. Deem and Ramdas Pophale) SiO2 
 PCOD8247253
Probable space group: P B C N
;
_chemical_formula_sum "Si O2"
_cell_formula_units_Z 48
_cell_length_a 9.545946
_cell_length_b 25.966318
_cell_length_c 9.515226
_cell_angle_alpha 90.000000
_cell_angle_beta 90.000000
_cell_angle_gamma 90.000000
_cell_volume 2358.568275
_symmetry_space_group_name_H-M "P B C N"
_symmetry_group_IT_number 60
_symmetry_cell_setting 'orthorhombic'
loop_
_space_group_symop_operation_xyz
x,y,z
1/2-x,1/2-y,1/2+z
1/2+x,1/2-y,-z
-x,y,1/2-z
-x,-y,-z
1/2+x,1/2+y,1/2-z
1/2-x,1/2+y,z
x,-y,1/2+z
loop_
_atom_site_type_symbol
_atom_site_label
_atom_site_fract_x
_atom_site_fract_y
_atom_site_fract_z
Si Si1 0.161132 0.350710 0.632481
Si Si2 0.302456 0.351619 0.140211
Si Si3 0.606835 0.678540 0.566864
Si Si4 0.396094 0.200168 0.430668
Si Si5 0.166504 0.450588 0.237135
Si Si6 0.366648 0.036028 0.041075
O O1 0.317631 0.340701 0.574959
O O2 0.157701 0.330079 0.792033
O O3 0.106927 0.409567 0.618507
O O4 0.053791 0.318042 0.536817
O O5 0.297931 0.337156 0.302772
O O6 0.456886 0.349662 0.073011
O O7 0.238481 0.408599 0.136564
O O8 0.204899 0.311763 0.059033
O O9 0.591140 0.739196 0.583656
O O10 0.223073 0.453320 0.398547
O O11 0.211899 0.503431 0.160722
O O12 0.000000 0.439941 0.250000
O O13 0.500000 0.000000 0.000000
#
# Coordination Sequence:
#
# PCOD8247253 Si02
#       6
#     8   8   8   8   8   8
#     4  11  23  40  64  95 126 160 211 266 315 368
#     4  11  23  40  63  88 128 168 209 251 318 376
#     4  11  23  43  60  89 131 171 206 257 312 380
#     4  11  23  38  66  94 121 167 213 261 308 372
#     4  10  21  37  62  92 118 159 204 264 315 366
#     4  10  21  36  61  92 123 152 205 265 314 364
#
# _framework density 20.351330999999998
#
# number of rings (size 3 to 8) (size 9 to 14) (size 15 to 20)
#    0.000    1.333    1.667    6.000    9.333    0.667 
#    0.000    4.167    0.000    0.000    0.000    0.000 
#    0.000    0.000    0.000    0.000    0.000    0.000 
#
# Total GULP energy -594835.581402 kJ/mol
# GULP energy per Si atom -12392.407946 kJ/mol
# Density = 2.030501 g / cm^3
# Si number density = 20.351331 Si / 1000 Ang^3
#
#
#
# Elastic Constant Matrix: (Units=GPa)
#
#
# Indices 1 2 3 4 5 6 
#
# 1 66.9434 24.3347 21.8387 0.0000 0.0000 0.0000
# 2 24.3347 143.4768 11.4269 0.0000 0.0000 0.0000
# 3 21.8387 11.4269 54.4488 0.0000 0.0000 0.0000
# 4 0.0000 0.0000 0.0000 28.3354 0.0000 0.0000
# 5 0.0000 0.0000 0.0000 0.0000 35.0560 0.0000
# 6 0.0000 0.0000 0.0000 0.0000 0.0000 5.9513
#
#
#
# Elastic Compliance Matrix: (Units=1/GPa)
#
#
# Indices 1 2 3 4 5 6 
#
# 1 0.018044 -0.002526 -0.006707 0.000000 0.000000 0.000000
# 2 -0.002526 0.007442 -0.000549 0.000000 0.000000 0.000000
# 3 -0.006707 -0.000549 0.021171 0.000000 0.000000 0.000000
# 4 0.000000 0.000000 0.000000 0.035292 0.000000 0.000000
# 5 0.000000 0.000000 0.000000 0.000000 0.028526 0.000000
# 6 0.000000 0.000000 0.000000 0.000000 0.000000 0.168032
#
#
# Mechanical properties :
#
#
# Convention : Reuss Voigt Hill
#
# Bulk Modulus (GPa) = 36.90930 42.22997 39.56964
# Shear Modulus (GPa) = 16.28126 27.68645 21.98385
#
# Velocity S-wave (km/s) = 2.83151 3.69239 3.29023
# Velocity P-wave (km/s) = 5.37265 6.24291 5.82406
#
# Compressibility (1/GPa) = 0.02709344
#
# Stress axis : x y z
#
# Youngs Moduli (GPa) = 55.41895 134.37379 47.23409
#
# Poissons Ratio (x) = 0.33946 0.31681
# Poissons Ratio (y) = 0.14000 0.02591
# Poissons Ratio (z) = 0.37171 0.07371
#
# Static dielectric constant tensor:
#      x y z
#    x 3.096240 0.000000 0.000000 
#    y 0.000000 3.913130 0.000000 
#    z 0.000000 0.000000 4.121000 
# 
# 
# High freq. dielectric constant tensor:
#      x y z
#    x 1.763940 0.000000 0.000000 
#    y 0.000000 1.813080 0.000000 
#    z 0.000000 0.000000 1.804630 
# 
# From -- ./inp_files/5044.got.cif
#   From: 2010.03.12/outbox.cif.g09.slc.cpg/sg60_3_cif.got.tgz:5044.got - 2010.04.10 18:46:24.
