data_PCOD8247658
_publ_section_title
;
Structure prediction by ZEFSAII (Michael W. Deem and Ramdas Pophale) SiO2 
 PCOD8247658
Probable space group: P B C N
;
_chemical_formula_sum "Si O2"
_cell_formula_units_Z 60
_cell_length_a 21.433209
_cell_length_b 26.448195
_cell_length_c 5.159629
_cell_angle_alpha 90.000000
_cell_angle_beta 90.000000
_cell_angle_gamma 90.000000
_cell_volume 2924.837297
_symmetry_space_group_name_H-M "P B C N"
_symmetry_group_IT_number 60
_symmetry_cell_setting 'orthorhombic'
loop_
_space_group_symop_operation_xyz
x,y,z
1/2-x,1/2-y,1/2+z
1/2+x,1/2-y,-z
-x,y,1/2-z
-x,-y,-z
1/2+x,1/2+y,1/2-z
1/2-x,1/2+y,z
x,-y,1/2+z
loop_
_atom_site_type_symbol
_atom_site_label
_atom_site_fract_x
_atom_site_fract_y
_atom_site_fract_z
Si Si1 0.712837 0.235679 0.301079
Si Si2 0.072707 0.670870 0.697280
Si Si3 0.707429 0.968157 0.832152
Si Si4 0.931985 0.870705 0.870701
Si Si5 0.098557 0.774605 0.904606
Si Si6 0.148384 0.968842 0.680200
Si Si7 0.500000 0.310243 0.250000
Si Si8 0.859086 0.636770 0.300437
O O1 0.764763 0.242981 0.524370
O O2 0.650933 0.266181 0.378892
O O3 0.698053 0.176233 0.273265
O O4 0.096857 0.729219 0.695844
O O5 0.089512 0.646888 0.421055
O O6 0.000000 0.665382 0.750000
O O7 0.108922 0.641048 0.921214
O O8 0.779829 0.952363 0.830372
O O9 0.666930 0.919247 0.771385
O O10 0.691174 0.009341 0.613044
O O11 0.890382 0.829620 0.717493
O O12 0.894091 0.921677 0.891532
O O13 0.000000 0.880847 0.750000
O O14 0.943985 0.846466 0.152317
O O15 0.029248 0.773889 0.032471
O O16 0.132524 0.011517 0.467245
#
# Coordination Sequence:
#
# PCOD8247658 Si02
#       8
#     8   8   8   8   8   8   4   8
#     4  11  25  40  59  96 132 168 207 260 321 375
#     4  11  23  40  66  95 133 166 211 253 306 383
#     4  10  22  44  69  91 120 164 214 259 314 380
#     4  10  23  40  59  91 119 169 213 264 314 373
#     4  10  24  38  62  88 130 175 212 250 306 386
#     4  10  24  42  63  90 118 161 213 268 325 369
#     4  10  22  38  62  88 122 174 222 244 322 360
#     4  11  24  41  65  97 127 168 213 257 321 374
#
# _framework density 20.513961999999999
#
# number of rings (size 3 to 8) (size 9 to 14) (size 15 to 20)
#    0.000    1.600    0.000    4.000   14.933    0.533 
#    2.400    0.000    0.000    8.000    0.000    0.000 
#    0.000    0.000    0.000    0.000    0.000    0.000 
#
# Total GULP energy -744058.516446 kJ/mol
# GULP energy per Si atom -12400.975274 kJ/mol
# Density = 2.046727 g / cm^3
# Si number density = 20.513962 Si / 1000 Ang^3
#
#
#
# Elastic Constant Matrix: (Units=GPa)
#
#
# Indices 1 2 3 4 5 6 
#
# 1 72.7010 51.2753 7.9427 0.0000 0.0000 0.0000
# 2 51.2753 103.8029 10.4278 0.0000 0.0000 0.0000
# 3 7.9427 10.4278 74.3433 0.0000 0.0000 0.0000
# 4 0.0000 0.0000 0.0000 19.7488 0.0000 0.0000
# 5 0.0000 0.0000 0.0000 0.0000 33.4585 0.0000
# 6 0.0000 0.0000 0.0000 0.0000 0.0000 31.0017
#
#
#
# Elastic Compliance Matrix: (Units=1/GPa)
#
#
# Indices 1 2 3 4 5 6 
#
# 1 0.021157 -0.010370 -0.000806 0.000000 0.000000 0.000000
# 2 -0.010370 0.014854 -0.000976 0.000000 0.000000 0.000000
# 3 -0.000806 -0.000976 0.013674 0.000000 0.000000 0.000000
# 4 0.000000 0.000000 0.000000 0.050636 0.000000 0.000000
# 5 0.000000 0.000000 0.000000 0.000000 0.029888 0.000000
# 6 0.000000 0.000000 0.000000 0.000000 0.000000 0.032256
#
#
# Mechanical properties :
#
#
# Convention : Reuss Voigt Hill
#
# Bulk Modulus (GPa) = 39.39753 43.34878 41.37315
# Shear Modulus (GPa) = 25.61105 28.92187 27.26646
#
# Velocity S-wave (km/s) = 3.53720 3.75889 3.64973
# Velocity P-wave (km/s) = 5.99411 6.32584 6.16220
#
# Compressibility (1/GPa) = 0.02538230
#
# Stress axis : x y z
#
# Youngs Moduli (GPa) = 47.26627 67.32195 73.13121
#
# Poissons Ratio (x) = 0.69812 0.05893
# Poissons Ratio (y) = 0.49014 0.07135
# Poissons Ratio (z) = 0.03809 0.06568
#
# Static dielectric constant tensor:
#      x y z
#    x 3.714490 0.000000 0.000000 
#    y 0.000000 3.518720 0.000000 
#    z 0.000000 0.000000 3.895640 
# 
# 
# High freq. dielectric constant tensor:
#      x y z
#    x 1.799930 0.000000 0.000000 
#    y 0.000000 1.789200 0.000000 
#    z 0.000000 0.000000 1.819870 
# 
# From -- ./inp_files/2180.got.cif
#   From: 2010.03.12/outbox.cif.g09.slc.cpg/sg60_2_cif.got.tgz:2180.got - 2010.04.10 18:46:24.
