data_PCOD8247781
_publ_section_title
;
Structure prediction by ZEFSAII (Michael W. Deem and Ramdas Pophale) SiO2 
 PCOD8247781
Probable space group: P B C N
;
_chemical_formula_sum "Si O2"
_cell_formula_units_Z 60
_cell_length_a 26.951336
_cell_length_b 5.204497
_cell_length_c 18.519252
_cell_angle_alpha 90.000000
_cell_angle_beta 90.000000
_cell_angle_gamma 90.000000
_cell_volume 2597.661168
_symmetry_space_group_name_H-M "P B C N"
_symmetry_group_IT_number 60
_symmetry_cell_setting 'orthorhombic'
loop_
_space_group_symop_operation_xyz
x,y,z
1/2-x,1/2-y,1/2+z
1/2+x,1/2-y,-z
-x,y,1/2-z
-x,-y,-z
1/2+x,1/2+y,1/2-z
1/2-x,1/2+y,z
x,-y,1/2+z
loop_
_atom_site_type_symbol
_atom_site_label
_atom_site_fract_x
_atom_site_fract_y
_atom_site_fract_z
Si Si1 0.607527 0.606922 0.732111
Si Si2 0.560937 0.789891 0.028079
Si Si3 0.874206 0.625531 0.818374
Si Si4 0.619975 0.301941 0.066104
Si Si5 0.231259 0.896458 0.457221
Si Si6 0.727040 0.006175 0.383734
Si Si7 0.500000 0.284514 0.250000
Si Si8 0.973105 0.464445 0.386816
O O1 0.637734 0.374114 0.769236
O O2 0.624572 0.629519 0.650089
O O3 0.548838 0.539484 0.740166
O O4 0.618078 0.877711 0.769123
O O5 0.587074 0.515364 0.026716
O O6 0.597455 0.020259 0.052943
O O7 0.514304 0.768796 0.082677
O O8 0.540771 0.827719 0.947653
O O9 0.830331 0.567268 0.874505
O O10 0.923318 0.687716 0.864923
O O11 0.674367 0.320153 0.031314
O O12 0.260994 0.668012 0.414964
O O13 0.258819 0.978568 0.532037
O O14 0.740330 0.278060 0.346580
O O15 0.497591 0.107452 0.179966
#
# Coordination Sequence:
#
# PCOD8247781 Si02
#       8
#     8   8   8   8   8   8   4   8
#     4  11  25  43  69 101 143 190 224 277 346 417
#     4  11  26  43  67 107 142 183 227 292 342 408
#     4  11  25  42  69 102 137 177 241 275 346 414
#     4  12  25  45  72  99 147 178 234 287 349 422
#     4  10  23  42  69  98 124 178 226 282 355 403
#     4  10  22  41  67  97 129 168 227 293 346 389
#     4  10  22  46  68 102 146 192 234 274 340 432
#     4  10  25  43  70 104 143 187 229 283 347 414
#
# _framework density 23.0977
#
# number of rings (size 3 to 8) (size 9 to 14) (size 15 to 20)
#    0.000    1.333    1.333    2.400   11.200    4.800 
#    0.000    4.000    0.000    0.000    0.000    0.000 
#    0.000    0.000    0.000    0.000    0.000    0.000 
#
# Total GULP energy -743869.446849 kJ/mol
# GULP energy per Si atom -12397.824114 kJ/mol
# Density = 2.304513 g / cm^3
# Si number density = 23.097700 Si / 1000 Ang^3
#
#
#
# Elastic Constant Matrix: (Units=GPa)
#
#
# Indices 1 2 3 4 5 6 
#
# 1 126.4908 20.8591 23.3831 0.0000 0.0000 0.0000
# 2 20.8591 125.8585 6.4540 0.0000 0.0000 0.0000
# 3 23.3831 6.4540 100.9542 0.0000 0.0000 0.0000
# 4 0.0000 0.0000 0.0000 15.2314 0.0000 0.0000
# 5 0.0000 0.0000 0.0000 0.0000 26.9009 0.0000
# 6 0.0000 0.0000 0.0000 0.0000 0.0000 740.1137
#
#
#
# Elastic Compliance Matrix: (Units=1/GPa)
#
#
# Indices 1 2 3 4 5 6 
#
# 1 0.008468 -0.001307 -0.001878 0.000000 0.000000 0.000000
# 2 -0.001307 0.008173 -0.000220 0.000000 0.000000 0.000000
# 3 -0.001878 -0.000220 0.010354 0.000000 0.000000 0.000000
# 4 0.000000 0.000000 0.000000 0.065654 0.000000 0.000000
# 5 0.000000 0.000000 0.000000 0.000000 0.037173 0.000000
# 6 0.000000 0.000000 0.000000 0.000000 0.000000 0.001351
#
#
# Mechanical properties :
#
#
# Convention : Reuss Voigt Hill
#
# Bulk Modulus (GPa) = 49.53790 50.52176 50.02983
# Shear Modulus (GPa) = 34.55107 176.62302 105.58704
#
# Velocity S-wave (km/s) = 3.87184 8.75407 6.76849
# Velocity P-wave (km/s) = 6.44064 11.13997 9.09892
#
# Compressibility (1/GPa) = 0.02018657
#
# Stress axis : x y z
#
# Youngs Moduli (GPa) = 118.08566 122.34889 96.57645
#
# Poissons Ratio (x) = 0.15994 0.18136
# Poissons Ratio (y) = 0.15436 0.02122
# Poissons Ratio (z) = 0.22175 0.02689
#
# Static dielectric constant tensor:
#      x y z
#    x 4.327730 0.000000 0.000000 
#    y 0.000000 4.822040 0.000000 
#    z 0.000000 0.000000 4.054050 
# 
# 
# High freq. dielectric constant tensor:
#      x y z
#    x 1.917500 0.000000 0.000000 
#    y 0.000000 1.926820 0.000000 
#    z 0.000000 0.000000 1.896760 
# 
# From -- ./inp_files/21221.got.cif
#   From: 2010.03.12/outbox.cif.g09.slc.cpg/sg60_11_cif.got.tgz:21221.got - 2010.04.10 18:46:24.
