data_PCOD8247135
_publ_section_title
;
Structure prediction by ZEFSAII (Michael W. Deem and Ramdas Pophale) SiO2 
 PCOD8247135
Probable space group: P B C N
;
_chemical_formula_sum "Si O2"
_cell_formula_units_Z 60
_cell_length_a 11.032874
_cell_length_b 8.294482
_cell_length_c 28.081214
_cell_angle_alpha 90.000000
_cell_angle_beta 90.000000
_cell_angle_gamma 90.000000
_cell_volume 2569.767348
_symmetry_space_group_name_H-M "P B C N"
_symmetry_group_IT_number 60
_symmetry_cell_setting 'orthorhombic'
loop_
_space_group_symop_operation_xyz
x,y,z
1/2-x,1/2-y,1/2+z
1/2+x,1/2-y,-z
-x,y,1/2-z
-x,-y,-z
1/2+x,1/2+y,1/2-z
1/2-x,1/2+y,z
x,-y,1/2+z
loop_
_atom_site_type_symbol
_atom_site_label
_atom_site_fract_x
_atom_site_fract_y
_atom_site_fract_z
Si Si1 0.875054 0.904555 0.494108
Si Si2 0.386219 0.155455 0.392208
Si Si3 0.165221 0.204180 0.793172
Si Si4 0.135064 0.527292 0.745872
Si Si5 0.187029 0.926777 0.672378
Si Si6 0.142039 0.212388 0.611682
Si Si7 0.283973 0.873154 0.448943
Si Si8 0.000000 0.050782 0.250000
O O1 0.837706 0.842125 0.442305
O O2 0.881706 0.753190 0.530523
O O3 0.761140 0.014698 0.508238
O O4 0.000000 0.000000 0.500000
O O5 0.328407 0.199957 0.342124
O O6 0.530923 0.162707 0.387644
O O7 0.336778 0.285209 0.429823
O O8 0.348489 0.975115 0.407170
O O9 0.132998 0.334483 0.753155
O O10 0.298028 0.130023 0.786273
O O11 0.070268 0.058278 0.788587
O O12 0.204579 0.536875 0.695245
O O13 0.000000 0.598130 0.750000
O O14 0.239901 0.795553 0.635534
O O15 0.100366 0.854150 0.716100
O O16 0.107932 0.052855 0.641713
#
# Coordination Sequence:
#
# PCOD8247135 Si02
#       8
#     8   8   8   8   8   8   8   4
#     4  11  23  47  74 106 142 190 235 307 376 451
#     4  11  22  43  70 102 140 189 241 304 352 446
#     4  11  21  41  68  94 138 189 232 302 352 423
#     4  11  23  42  65  97 141 191 244 295 365 431
#     4  11  24  44  67 102 138 198 233 302 358 423
#     4  12  24  45  70 103 149 181 245 301 361 437
#     4  10  24  45  72 104 142 187 243 289 386 444
#     4  10  20  40  70  92 142 190 240 290 366 424
#
# _framework density 23.348416
#
# number of rings (size 3 to 8) (size 9 to 14) (size 15 to 20)
#    0.000    1.067    3.333    4.000    0.000    0.533 
#   15.600    0.000    0.000    0.000    0.000    0.000 
#    0.000    0.000    0.000    0.000    0.000    0.000 
#
# Total GULP energy -743687.082731 kJ/mol
# GULP energy per Si atom -12394.784712 kJ/mol
# Density = 2.329527 g / cm^3
# Si number density = 23.348416 Si / 1000 Ang^3
#
#
#
# Elastic Constant Matrix: (Units=GPa)
#
#
# Indices 1 2 3 4 5 6 
#
# 1 138.5033 45.2855 52.5125 0.0000 0.0000 0.0000
# 2 45.2855 83.3511 52.0029 0.0000 0.0000 0.0000
# 3 52.5125 52.0029 130.3745 0.0000 0.0000 0.0000
# 4 0.0000 0.0000 0.0000 39.9153 0.0000 0.0000
# 5 0.0000 0.0000 0.0000 0.0000 35.9977 0.0000
# 6 0.0000 0.0000 0.0000 0.0000 0.0000 30.0465
#
#
#
# Elastic Compliance Matrix: (Units=1/GPa)
#
#
# Indices 1 2 3 4 5 6 
#
# 1 0.009269 -0.003603 -0.002296 0.000000 0.000000 0.000000
# 2 -0.003603 0.017373 -0.005478 0.000000 0.000000 0.000000
# 3 -0.002296 -0.005478 0.010780 0.000000 0.000000 0.000000
# 4 0.000000 0.000000 0.000000 0.025053 0.000000 0.000000
# 5 0.000000 0.000000 0.000000 0.000000 0.027780 0.000000
# 6 0.000000 0.000000 0.000000 0.000000 0.000000 0.033282
#
#
# Mechanical properties :
#
#
# Convention : Reuss Voigt Hill
#
# Bulk Modulus (GPa) = 68.18166 72.42564 70.30365
# Shear Modulus (GPa) = 33.07307 34.68711 33.88009
#
# Velocity S-wave (km/s) = 3.76773 3.85857 3.81342
# Velocity P-wave (km/s) = 6.94211 7.13710 7.04028
#
# Compressibility (1/GPa) = 0.01466670
#
# Stress axis : x y z
#
# Youngs Moduli (GPa) = 107.88993 57.56032 92.76311
#
# Poissons Ratio (x) = 0.20741 0.21298
# Poissons Ratio (y) = 0.38876 0.50818
# Poissons Ratio (z) = 0.24772 0.31533
#
# Static dielectric constant tensor:
#      x y z
#    x 4.173170 0.000000 0.000000 
#    y 0.000000 4.295780 0.000000 
#    z 0.000000 0.000000 4.229770 
# 
# 
# High freq. dielectric constant tensor:
#      x y z
#    x 1.917940 0.000000 0.000000 
#    y 0.000000 1.932840 0.000000 
#    z 0.000000 0.000000 1.923640 
# 
# From -- ./inp_files/25328.got.cif
#   From: 2010.03.12/outbox.cif.g09.slc.cpg/sg60_13_cif.got.tgz:25328.got - 2010.04.10 18:46:24.
