data_PCOD8247231
_publ_section_title
;
Structure prediction by ZEFSAII (Michael W. Deem and Ramdas Pophale) SiO2 
 PCOD8247231
Probable space group: P B C N
;
_chemical_formula_sum "Si O2"
_cell_formula_units_Z 60
_cell_length_a 18.205497
_cell_length_b 8.601016
_cell_length_c 19.609374
_cell_angle_alpha 90.000000
_cell_angle_beta 90.000000
_cell_angle_gamma 90.000000
_cell_volume 3070.548946
_symmetry_space_group_name_H-M "P B C N"
_symmetry_group_IT_number 60
_symmetry_cell_setting 'orthorhombic'
loop_
_space_group_symop_operation_xyz
x,y,z
1/2-x,1/2-y,1/2+z
1/2+x,1/2-y,-z
-x,y,1/2-z
-x,-y,-z
1/2+x,1/2+y,1/2-z
1/2-x,1/2+y,z
x,-y,1/2+z
loop_
_atom_site_type_symbol
_atom_site_label
_atom_site_fract_x
_atom_site_fract_y
_atom_site_fract_z
Si Si1 0.657892 0.376329 0.251048
Si Si2 0.168495 0.832686 0.401688
Si Si3 0.000000 0.271721 0.750000
Si Si4 0.707245 0.648790 0.034467
Si Si5 0.590908 0.896134 0.004733
Si Si6 0.729181 0.340213 0.824275
Si Si7 0.697010 0.079470 0.915838
Si Si8 0.025549 0.363070 0.900471
O O1 0.675925 0.404936 0.172708
O O2 0.572248 0.333762 0.261674
O O3 0.712090 0.238637 0.273995
O O4 0.674855 0.538111 0.288542
O O5 0.228387 0.697278 0.413171
O O6 0.088213 0.763055 0.412706
O O7 0.180375 0.973934 0.453385
O O8 0.991414 0.376536 0.681053
O O9 0.642519 0.772296 0.041220
O O10 0.735372 0.653422 0.957205
O O11 0.545284 0.967457 0.068228
O O12 0.543669 0.808066 0.946272
O O13 0.631840 0.041255 0.968195
O O14 0.676720 0.209096 0.858913
O O15 0.778975 0.420898 0.880925
#
# Coordination Sequence:
#
# PCOD8247231 Si02
#       8
#     8   8   4   8   8   8   8   8
#     4  10  22  40  61  88 122 162 209 250 308 372
#     4  11  21  38  60  88 120 164 201 255 311 363
#     4  10  22  42  64  84 126 174 204 252 314 372
#     4  12  21  36  63  91 122 154 202 257 307 364
#     4  11  22  39  61  93 125 158 205 254 307 376
#     4  10  21  35  61  92 117 158 207 255 303 365
#     4  11  19  35  59  91 119 153 194 252 314 346
#     4  10  23  41  60  86 124 166 208 246 309 371
#
# _framework density 19.540481
#
# number of rings (size 3 to 8) (size 9 to 14) (size 15 to 20)
#    0.000    1.333    4.000    1.600    1.867    1.600 
#    0.000    6.667    0.000    4.000    0.000    0.000 
#    0.000    0.000    0.000    0.000    0.000    0.000 
#
# Total GULP energy -743821.783106 kJ/mol
# GULP energy per Si atom -12397.029718 kJ/mol
# Density = 1.949601 g / cm^3
# Si number density = 19.540481 Si / 1000 Ang^3
#
#
#
# Elastic Constant Matrix: (Units=GPa)
#
#
# Indices 1 2 3 4 5 6 
#
# 1 94.3674 39.1351 46.2777 0.0000 0.0000 0.0000
# 2 39.1351 86.3308 39.0809 0.0000 0.0000 0.0000
# 3 46.2777 39.0809 104.3318 0.0000 0.0000 0.0000
# 4 0.0000 0.0000 0.0000 30.6538 0.0000 0.0000
# 5 0.0000 0.0000 0.0000 0.0000 24.6281 0.0000
# 6 0.0000 0.0000 0.0000 0.0000 0.0000 57.3873
#
#
#
# Elastic Compliance Matrix: (Units=1/GPa)
#
#
# Indices 1 2 3 4 5 6 
#
# 1 0.014878 -0.004524 -0.004905 0.000000 0.000000 0.000000
# 2 -0.004524 0.015324 -0.003733 0.000000 0.000000 0.000000
# 3 -0.004905 -0.003733 0.013159 0.000000 0.000000 0.000000
# 4 0.000000 0.000000 0.000000 0.032622 0.000000 0.000000
# 5 0.000000 0.000000 0.000000 0.000000 0.040604 0.000000
# 6 0.000000 0.000000 0.000000 0.000000 0.000000 0.017425
#
#
# Mechanical properties :
#
#
# Convention : Reuss Voigt Hill
#
# Bulk Modulus (GPa) = 58.69707 59.33528 59.01617
# Shear Modulus (GPa) = 30.11732 33.23627 31.67679
#
# Velocity S-wave (km/s) = 3.93017 4.12866 4.03064
# Velocity P-wave (km/s) = 7.12032 7.29102 7.20618
#
# Compressibility (1/GPa) = 0.01703663
#
# Stress axis : x y z
#
# Youngs Moduli (GPa) = 67.21129 65.25559 75.99434
#
# Poissons Ratio (x) = 0.29523 0.37274
# Poissons Ratio (y) = 0.30408 0.28372
# Poissons Ratio (z) = 0.32966 0.24363
#
# Static dielectric constant tensor:
#      x y z
#    x 3.647380 0.000000 0.000000 
#    y 0.000000 3.383130 0.000000 
#    z 0.000000 0.000000 3.754230 
# 
# 
# High freq. dielectric constant tensor:
#      x y z
#    x 1.757380 0.000000 0.000000 
#    y 0.000000 1.754520 0.000000 
#    z 0.000000 0.000000 1.774080 
# 
# From -- ./inp_files/20895.got.cif
#   From: 2010.03.12/outbox.cif.g09.slc.cpg/sg60_11_cif.got.tgz:20895.got - 2010.04.10 18:46:24.
