data_PCOD8247073
_publ_section_title
;
Structure prediction by ZEFSAII (Michael W. Deem and Ramdas Pophale) SiO2 
 PCOD8247073
Probable space group: P B C N
;
_chemical_formula_sum "Si O2"
_cell_formula_units_Z 40
_cell_length_a 8.911821
_cell_length_b 27.048022
_cell_length_c 7.681251
_cell_angle_alpha 90.000000
_cell_angle_beta 90.000000
_cell_angle_gamma 90.000000
_cell_volume 1851.543512
_symmetry_space_group_name_H-M "P B C N"
_symmetry_group_IT_number 60
_symmetry_cell_setting 'orthorhombic'
loop_
_space_group_symop_operation_xyz
x,y,z
1/2-x,1/2-y,1/2+z
1/2+x,1/2-y,-z
-x,y,1/2-z
-x,-y,-z
1/2+x,1/2+y,1/2-z
1/2-x,1/2+y,z
x,-y,1/2+z
loop_
_atom_site_type_symbol
_atom_site_label
_atom_site_fract_x
_atom_site_fract_y
_atom_site_fract_z
Si Si1 0.500000 0.505822 0.750000
Si Si2 0.529021 0.790030 0.932555
Si Si3 0.160428 0.367809 0.323594
Si Si4 0.297412 0.305549 0.039081
Si Si5 0.139165 0.068993 0.037536
Si Si6 0.500000 0.347546 0.750000
O O1 0.356007 0.469235 0.703100
O O2 0.525098 0.541615 0.589484
O O3 0.500000 0.818596 0.750000
O O4 0.598942 0.737088 0.881529
O O5 0.644168 0.820618 0.050470
O O6 0.370176 0.783562 0.027727
O O7 0.280957 0.352661 0.171842
O O8 0.210540 0.416738 0.432344
O O9 0.000000 0.383897 0.250000
O O10 0.367921 0.317301 0.848131
O O11 0.073535 0.121250 0.095979
#
# Coordination Sequence:
#
# PCOD8247073 Si02
#       6
#     4   8   8   8   8   4
#     4   9  20  38  66  92 116 154 194 270 324 375
#     4  11  24  39  60  86 128 176 215 264 300 365
#     4  10  23  41  60  88 125 168 208 253 309 375
#     4  11  25  38  60  91 128 174 219 256 308 360
#     4  10  20  39  62  90 122 151 207 258 316 380
#     4  11  24  36  64  94 122 168 208 256 308 375
#
# _framework density 21.603598000000002
#
# number of rings (size 3 to 8) (size 9 to 14) (size 15 to 20)
#    0.000    1.600    0.000    3.600   12.600    0.000 
#    0.000    1.000    0.000    0.000    0.000    0.000 
#    0.000    0.000    0.000    0.000    0.000    0.000 
#
# Total GULP energy -495543.750204 kJ/mol
# GULP energy per Si atom -12388.593755 kJ/mol
# Density = 2.155443 g / cm^3
# Si number density = 21.603598 Si / 1000 Ang^3
#
#
#
# Elastic Constant Matrix: (Units=GPa)
#
#
# Indices 1 2 3 4 5 6 
#
# 1 86.3335 46.6609 36.5488 0.0000 0.0000 0.0000
# 2 46.6609 77.5309 35.6507 0.0000 0.0000 0.0000
# 3 36.5488 35.6507 110.7160 0.0000 0.0000 0.0000
# 4 0.0000 0.0000 0.0000 29.5105 0.0000 0.0000
# 5 0.0000 0.0000 0.0000 0.0000 42.2260 0.0000
# 6 0.0000 0.0000 0.0000 0.0000 0.0000 23.1454
#
#
#
# Elastic Compliance Matrix: (Units=1/GPa)
#
#
# Indices 1 2 3 4 5 6 
#
# 1 0.017910 -0.009461 -0.002866 0.000000 0.000000 0.000000
# 2 -0.009461 0.020138 -0.003361 0.000000 0.000000 0.000000
# 3 -0.002866 -0.003361 0.011060 0.000000 0.000000 0.000000
# 4 0.000000 0.000000 0.000000 0.033886 0.000000 0.000000
# 5 0.000000 0.000000 0.000000 0.000000 0.023682 0.000000
# 6 0.000000 0.000000 0.000000 0.000000 0.000000 0.043205
#
#
# Mechanical properties :
#
#
# Convention : Reuss Voigt Hill
#
# Bulk Modulus (GPa) = 56.39540 56.92236 56.65888
# Shear Modulus (GPa) = 26.71409 29.35771 28.03590
#
# Velocity S-wave (km/s) = 3.52029 3.69036 3.60633
# Velocity P-wave (km/s) = 6.53334 6.67564 6.60487
#
# Compressibility (1/GPa) = 0.01773194
#
# Stress axis : x y z
#
# Youngs Moduli (GPa) = 55.83617 49.65859 90.41227
#
# Poissons Ratio (x) = 0.46981 0.25910
# Poissons Ratio (y) = 0.52826 0.30389
# Poissons Ratio (z) = 0.16001 0.16691
#
# Static dielectric constant tensor:
#      x y z
#    x 3.748490 0.000000 0.000000 
#    y 0.000000 3.845870 0.000000 
#    z 0.000000 0.000000 4.328030 
# 
# 
# High freq. dielectric constant tensor:
#      x y z
#    x 1.825510 0.000000 0.000000 
#    y 0.000000 1.829560 0.000000 
#    z 0.000000 0.000000 1.873280 
# 
# From -- ./inp_files/3903.got.cif
#   From: 2010.03.12/outbox.cif.g09.slc.cpg/sg60_2_cif.got.tgz:3903.got - 2010.04.10 18:46:24.
