data_PCOD8247263
_publ_section_title
;
Structure prediction by ZEFSAII (Michael W. Deem and Ramdas Pophale) SiO2 
 PCOD8247263
Probable space group: P B C N
;
_chemical_formula_sum "Si O2"
_cell_formula_units_Z 28
_cell_length_a 16.564692
_cell_length_b 16.792840
_cell_length_c 5.119438
_cell_angle_alpha 90.000000
_cell_angle_beta 90.000000
_cell_angle_gamma 90.000000
_cell_volume 1424.064968
_symmetry_space_group_name_H-M "P B C N"
_symmetry_group_IT_number 60
_symmetry_cell_setting 'orthorhombic'
loop_
_space_group_symop_operation_xyz
x,y,z
1/2-x,1/2-y,1/2+z
1/2+x,1/2-y,-z
-x,y,1/2-z
-x,-y,-z
1/2+x,1/2+y,1/2-z
1/2-x,1/2+y,z
x,-y,1/2+z
loop_
_atom_site_type_symbol
_atom_site_label
_atom_site_fract_x
_atom_site_fract_y
_atom_site_fract_z
Si Si1 0.656447 0.448294 0.360360
Si Si2 0.546607 0.206170 0.005270
Si Si3 0.000000 0.859756 0.250000
Si Si4 0.729835 0.799596 0.429347
O O1 0.668792 0.517184 0.571552
O O2 0.566388 0.413639 0.392664
O O3 0.722025 0.380683 0.403277
O O4 0.500000 0.177594 0.750000
O O5 0.638461 0.177558 0.000548
O O6 0.500000 0.165913 0.250000
O O7 0.544143 0.302907 0.035631
O O8 0.770115 0.747448 0.656752
#
# Coordination Sequence:
#
# PCOD8247263 Si02
#       4
#     8   8   4   8
#     4  12  26  39  61  94 135 166 196 256 329 384
#     4  10  21  36  64  94 115 160 222 261 303 350
#     4  10  22  40  60  92 128 166 200 248 326 376
#     4  12  22  42  66  89 126 171 221 259 299 379
#
# _framework density 19.662025
#
# number of rings (size 3 to 8) (size 9 to 14) (size 15 to 20)
#    0.857    0.000    2.857    6.000    4.000    0.000 
#    0.000    0.000    0.000    5.143    0.000    0.000 
#    0.000    0.000    0.000    0.000    0.000    0.000 
#
# Total GULP energy -347258.867022 kJ/mol
# GULP energy per Si atom -12402.102394 kJ/mol
# Density = 1.961727 g / cm^3
# Si number density = 19.662025 Si / 1000 Ang^3
#
#
#
# Elastic Constant Matrix: (Units=GPa)
#
#
# Indices 1 2 3 4 5 6 
#
# 1 179.2153 54.8036 32.8369 0.0000 0.0000 0.0000
# 2 54.8036 74.7386 16.2398 0.0000 0.0000 0.0000
# 3 32.8369 16.2398 96.5981 0.0000 0.0000 0.0000
# 4 0.0000 0.0000 0.0000 -55.4568 0.0000 0.0000
# 5 0.0000 0.0000 0.0000 0.0000 34.0373 0.0000
# 6 0.0000 0.0000 0.0000 0.0000 0.0000 12.0395
#
#
#
# Elastic Compliance Matrix: (Units=1/GPa)
#
#
# Indices 1 2 3 4 5 6 
#
# 1 0.007445 -0.005095 -0.001674 0.000000 0.000000 0.000000
# 2 -0.005095 0.017374 -0.001189 0.000000 0.000000 0.000000
# 3 -0.001674 -0.001189 0.011121 0.000000 0.000000 0.000000
# 4 0.000000 0.000000 0.000000 -0.018032 0.000000 0.000000
# 5 0.000000 0.000000 0.000000 0.000000 0.029379 0.000000
# 6 0.000000 0.000000 0.000000 0.000000 0.000000 0.083060
#
#
# Mechanical properties :
#
#
# Convention : Reuss Voigt Hill
#
# Bulk Modulus (GPa) = 49.94047 62.03471 55.98759
# Shear Modulus (GPa) = 32.69277 14.56879 23.63078
#
# Velocity S-wave (km/s) = 4.08209 2.72501 3.47053
# Velocity P-wave (km/s) = 6.90453 6.44360 6.67804
#
# Compressibility (1/GPa) = 0.02002384
#
# Stress axis : x y z
#
# Youngs Moduli (GPa) = 134.32317 57.55565 89.91884
#
# Poissons Ratio (x) = 0.29326 0.15053
# Poissons Ratio (y) = 0.68441 0.10691
# Poissons Ratio (z) = 0.22487 0.06843
#
# Static dielectric constant tensor:
#      x y z
#    x 3.629110 0.000000 0.000000 
#    y 0.000000 3.284600 0.000000 
#    z 0.000000 0.000000 3.721100 
# 
# 
# High freq. dielectric constant tensor:
#      x y z
#    x 1.778520 0.000000 0.000000 
#    y 0.000000 1.733370 0.000000 
#    z 0.000000 0.000000 1.780940 
# 
# From -- ./inp_files/1597.got.cif
#   From: 2010.03.12/outbox.cif.g09.slc.cpg/sg60_1_cif.got.tgz:1597.got - 2010.04.10 18:46:24.
