data_PCOD8247544
_publ_section_title
;
Structure prediction by ZEFSAII (Michael W. Deem and Ramdas Pophale) SiO2 
 PCOD8247544
Probable space group: P B C N
;
_chemical_formula_sum "Si O2"
_cell_formula_units_Z 40
_cell_length_a 11.142357
_cell_length_b 14.101072
_cell_length_c 12.822729
_cell_angle_alpha 90.000000
_cell_angle_beta 90.000000
_cell_angle_gamma 90.000000
_cell_volume 2014.696644
_symmetry_space_group_name_H-M "P B C N"
_symmetry_group_IT_number 60
_symmetry_cell_setting 'orthorhombic'
loop_
_space_group_symop_operation_xyz
x,y,z
1/2-x,1/2-y,1/2+z
1/2+x,1/2-y,-z
-x,y,1/2-z
-x,-y,-z
1/2+x,1/2+y,1/2-z
1/2-x,1/2+y,z
x,-y,1/2+z
loop_
_atom_site_type_symbol
_atom_site_label
_atom_site_fract_x
_atom_site_fract_y
_atom_site_fract_z
Si Si1 0.797989 0.872377 0.383056
Si Si2 0.473983 0.597821 0.447056
Si Si3 0.732453 0.662258 0.383064
Si Si4 0.712587 0.479112 0.710025
Si Si5 0.359742 0.982469 0.487956
O O1 0.905651 0.844517 0.462077
O O2 0.745190 0.771291 0.351323
O O3 0.835055 0.930742 0.278664
O O4 0.703161 0.935735 0.445320
O O5 0.500000 0.500000 0.500000
O O6 0.593968 0.651133 0.415287
O O7 0.397377 0.574129 0.344946
O O8 0.769944 0.600103 0.283886
O O9 0.819314 0.622918 0.474808
O O10 0.817706 0.511361 0.631966
O O11 0.500000 0.000000 0.500000
#
# Coordination Sequence:
#
# PCOD8247544 Si02
#       5
#     8   8   8   8   8
#     4  10  24  39  62  98 121 163 212 256 311 370
#     4  11  20  42  66  87 125 167 203 260 316 371
#     4  11  23  39  64  97 122 161 215 253 312 375
#     4  10  21  42  64  88 128 159 209 258 308 369
#     4  10  23  43  63  83 132 167 196 254 319 365
#
# _framework density 19.854105000000001
#
# number of rings (size 3 to 8) (size 9 to 14) (size 15 to 20)
#    0.000    1.600    6.000    0.600    2.800    6.400 
#    3.600    2.000    0.000    0.000    0.000    0.000 
#    0.000    0.000    0.000    0.000    0.000    0.000 
#
# Total GULP energy -495749.705981 kJ/mol
# GULP energy per Si atom -12393.742650 kJ/mol
# Density = 1.980892 g / cm^3
# Si number density = 19.854105 Si / 1000 Ang^3
#
#
#
# Elastic Constant Matrix: (Units=GPa)
#
#
# Indices 1 2 3 4 5 6 
#
# 1 112.6205 8.7795 39.8631 0.0000 0.0000 0.0000
# 2 8.7795 119.8545 33.9521 0.0000 0.0000 0.0000
# 3 39.8631 33.9521 125.3103 0.0000 0.0000 0.0000
# 4 0.0000 0.0000 0.0000 16.0943 0.0000 0.0000
# 5 0.0000 0.0000 0.0000 0.0000 19.0355 0.0000
# 6 0.0000 0.0000 0.0000 0.0000 0.0000 18.1187
#
#
#
# Elastic Compliance Matrix: (Units=1/GPa)
#
#
# Indices 1 2 3 4 5 6 
#
# 1 0.010010 0.000183 -0.003234 0.000000 0.000000 0.000000
# 2 0.000183 0.009040 -0.002508 0.000000 0.000000 0.000000
# 3 -0.003234 -0.002508 0.009688 0.000000 0.000000 0.000000
# 4 0.000000 0.000000 0.000000 0.062134 0.000000 0.000000
# 5 0.000000 0.000000 0.000000 0.000000 0.052533 0.000000
# 6 0.000000 0.000000 0.000000 0.000000 0.000000 0.055192
#
#
# Mechanical properties :
#
#
# Convention : Reuss Voigt Hill
#
# Bulk Modulus (GPa) = 56.74930 58.10829 57.42879
# Shear Modulus (GPa) = 23.19237 28.99575 26.09406
#
# Velocity S-wave (km/s) = 3.42151 3.82572 3.62925
# Velocity P-wave (km/s) = 6.65238 6.98899 6.82276
#
# Compressibility (1/GPa) = 0.01762136
#
# Stress axis : x y z
#
# Youngs Moduli (GPa) = 99.90249 110.61451 103.21702
#
# Poissons Ratio (x) = -0.02022 0.33378
# Poissons Ratio (y) = -0.01827 0.25883
# Poissons Ratio (z) = 0.32306 0.27738
#
# Static dielectric constant tensor:
#      x y z
#    x 3.308040 0.000000 0.000000 
#    y 0.000000 3.379550 0.000000 
#    z 0.000000 0.000000 3.800300 
# 
# 
# High freq. dielectric constant tensor:
#      x y z
#    x 1.768110 0.000000 0.000000 
#    y 0.000000 1.763910 0.000000 
#    z 0.000000 0.000000 1.790180 
# 
# From -- ./inp_files/10854.got.cif
#   From: 2010.03.12/outbox.cif.g09.slc.cpg/sg60_6_cif.got.tgz:10854.got - 2010.04.10 18:46:24.
