data_PCOD8247116
_publ_section_title
;
Structure prediction by ZEFSAII (Michael W. Deem and Ramdas Pophale) SiO2 
 PCOD8247116
Probable space group: P B C N
;
_chemical_formula_sum "Si O2"
_cell_formula_units_Z 36
_cell_length_a 13.462804
_cell_length_b 12.556378
_cell_length_c 9.111101
_cell_angle_alpha 90.000000
_cell_angle_beta 90.000000
_cell_angle_gamma 90.000000
_cell_volume 1540.177467
_symmetry_space_group_name_H-M "P B C N"
_symmetry_group_IT_number 60
_symmetry_cell_setting 'orthorhombic'
loop_
_space_group_symop_operation_xyz
x,y,z
1/2-x,1/2-y,1/2+z
1/2+x,1/2-y,-z
-x,y,1/2-z
-x,-y,-z
1/2+x,1/2+y,1/2-z
1/2-x,1/2+y,z
x,-y,1/2+z
loop_
_atom_site_type_symbol
_atom_site_label
_atom_site_fract_x
_atom_site_fract_y
_atom_site_fract_z
Si Si1 0.203991 0.820378 0.678747
Si Si2 0.000000 0.459848 0.250000
Si Si3 0.371840 0.070047 0.007910
Si Si4 0.073253 0.024715 0.627805
Si Si5 0.244676 0.639448 0.496750
O O1 0.170743 0.708359 0.603349
O O2 0.298388 0.841781 0.571700
O O3 0.123516 0.913775 0.677707
O O4 0.233965 0.798380 0.845851
O O5 0.943100 0.538875 0.359202
O O6 0.070461 0.389187 0.359436
O O7 0.309374 0.968736 0.952042
O O8 0.154491 0.112725 0.586109
O O9 0.000000 0.072817 0.750000
O O10 0.000000 0.000000 0.500000
#
# Coordination Sequence:
#
# PCOD8247116 Si02
#       5
#     8   4   8   8   8
#     4  11  25  43  67  99 134 176 220 272 349 401
#     4  10  20  40  64  90 120 168 214 260 316 380
#     4  10  22  43  64  90 133 171 212 267 329 392
#     4  11  24  48  70  97 135 182 232 284 331 410
#     4  11  25  43  67  97 135 175 221 272 350 397
#
# _framework density 23.373930999999999
#
# number of rings (size 3 to 8) (size 9 to 14) (size 15 to 20)
#    0.000    1.333    4.444    0.000    6.222    0.000 
#   12.000    0.000    0.000    0.000    0.000    0.000 
#    0.000    0.000    0.000    0.000    0.000    0.000 
#
# Total GULP energy -446195.194390 kJ/mol
# GULP energy per Si atom -12394.310955 kJ/mol
# Density = 2.332073 g / cm^3
# Si number density = 23.373931 Si / 1000 Ang^3
#
#
#
# Elastic Constant Matrix: (Units=GPa)
#
#
# Indices 1 2 3 4 5 6 
#
# 1 85.9143 -3.1343 41.1902 0.0000 0.0000 0.0000
# 2 -3.1343 54.4277 20.0645 0.0000 0.0000 0.0000
# 3 41.1902 20.0645 172.5028 0.0000 0.0000 0.0000
# 4 0.0000 0.0000 0.0000 32.1143 0.0000 0.0000
# 5 0.0000 0.0000 0.0000 0.0000 53.3669 0.0000
# 6 0.0000 0.0000 0.0000 0.0000 0.0000 15.6836
#
#
#
# Elastic Compliance Matrix: (Units=1/GPa)
#
#
# Indices 1 2 3 4 5 6 
#
# 1 0.013356 0.002032 -0.003425 0.000000 0.000000 0.000000
# 2 0.002032 0.019505 -0.002754 0.000000 0.000000 0.000000
# 3 -0.003425 -0.002754 0.006935 0.000000 0.000000 0.000000
# 4 0.000000 0.000000 0.000000 0.031139 0.000000 0.000000
# 5 0.000000 0.000000 0.000000 0.000000 0.018738 0.000000
# 6 0.000000 0.000000 0.000000 0.000000 0.000000 0.063761
#
#
# Mechanical properties :
#
#
# Convention : Reuss Voigt Hill
#
# Bulk Modulus (GPa) = 31.74457 47.67619 39.71038
# Shear Modulus (GPa) = 29.03101 37.21459 33.12280
#
# Velocity S-wave (km/s) = 3.52806 3.99449 3.76850
# Velocity P-wave (km/s) = 5.49609 6.45880 5.99679
#
# Compressibility (1/GPa) = 0.03150145
#
# Stress axis : x y z
#
# Youngs Moduli (GPa) = 74.87315 51.26831 144.19072
#
# Poissons Ratio (x) = -0.10417 0.49392
# Poissons Ratio (y) = -0.15213 0.39709
# Poissons Ratio (z) = 0.25648 0.14119
#
# Static dielectric constant tensor:
#      x y z
#    x 4.349600 0.000000 0.000000 
#    y 0.000000 3.540230 0.000000 
#    z 0.000000 0.000000 4.201540 
# 
# 
# High freq. dielectric constant tensor:
#      x y z
#    x 1.924440 0.000000 0.000000 
#    y 0.000000 1.900430 0.000000 
#    z 0.000000 0.000000 1.955120 
# 
# From -- ./inp_files/5592.got.cif
#   From: 2010.03.12/outbox.cif.g09.slc.cpg/sg60_3_cif.got.tgz:5592.got - 2010.04.10 18:46:24.
