data_PCOD8247684
_publ_section_title
;
Structure prediction by ZEFSAII (Michael W. Deem and Ramdas Pophale) SiO2 
 PCOD8247684
Probable space group: P B C N
;
_chemical_formula_sum "Si O2"
_cell_formula_units_Z 64
_cell_length_a 10.883516
_cell_length_b 16.134440
_cell_length_c 17.489122
_cell_angle_alpha 90.000000
_cell_angle_beta 90.000000
_cell_angle_gamma 90.000000
_cell_volume 3071.079957
_symmetry_space_group_name_H-M "P B C N"
_symmetry_group_IT_number 60
_symmetry_cell_setting 'orthorhombic'
loop_
_space_group_symop_operation_xyz
x,y,z
1/2-x,1/2-y,1/2+z
1/2+x,1/2-y,-z
-x,y,1/2-z
-x,-y,-z
1/2+x,1/2+y,1/2-z
1/2-x,1/2+y,z
x,-y,1/2+z
loop_
_atom_site_type_symbol
_atom_site_label
_atom_site_fract_x
_atom_site_fract_y
_atom_site_fract_z
Si Si1 0.537959 0.599288 0.831686
Si Si2 0.544319 0.100469 0.332354
Si Si3 0.898861 0.675018 0.891961
Si Si4 0.792737 0.460929 0.294461
Si Si5 0.180512 0.382573 0.945332
Si Si6 0.335634 0.213834 0.933234
Si Si7 0.279239 0.544077 0.876297
Si Si8 0.342952 0.245530 0.101880
O O1 0.500000 0.640383 0.750000
O O2 0.650454 0.537111 0.818238
O O3 0.425413 0.547111 0.865017
O O4 0.585441 0.667729 0.891407
O O5 0.500000 0.075345 0.250000
O O6 0.436834 0.106436 0.392669
O O7 0.613066 0.188029 0.329206
O O8 0.644962 0.030124 0.348227
O O9 0.865264 0.623222 0.815902
O O10 0.804247 0.751191 0.892832
O O11 0.036673 0.710825 0.885739
O O12 0.868381 0.621342 0.968130
O O13 0.797544 0.472115 0.202120
O O14 0.259459 0.300032 0.921369
O O15 0.258097 0.467296 0.934131
O O16 0.256829 0.133555 0.910733
O O17 0.378494 0.205563 0.020842
#
# Coordination Sequence:
#
# PCOD8247684 Si02
#       8
#     8   8   8   8   8   8   8   8
#     4   9  20  42  66  87 130 170 217 263 320 383
#     4  12  22  38  66  92 129 159 214 268 312 381
#     4  10  23  42  62  89 134 164 213 266 314 389
#     4  10  23  41  63  96 123 169 218 262 326 385
#     4  11  24  41  63 102 125 169 222 257 323 391
#     4  11  24  40  65  92 133 169 211 265 323 377
#     4  11  23  42  68  94 132 173 209 273 322 378
#     4  10  22  39  60  94 121 171 215 258 319 379
#
# _framework density 20.839573999999999
#
# number of rings (size 3 to 8) (size 9 to 14) (size 15 to 20)
#    0.000    1.500    2.500    1.875    3.500    4.000 
#    0.000    5.625    0.000    0.000    0.000    0.000 
#    0.000    0.000    0.000    0.000    0.000    0.000 
#
# Total GULP energy -793127.195121 kJ/mol
# GULP energy per Si atom -12392.612424 kJ/mol
# Density = 2.079214 g / cm^3
# Si number density = 20.839574 Si / 1000 Ang^3
#
#
#
# Elastic Constant Matrix: (Units=GPa)
#
#
# Indices 1 2 3 4 5 6 
#
# 1 122.9421 41.8812 25.8193 0.0000 0.0000 0.0000
# 2 41.8812 103.9615 22.9752 0.0000 0.0000 0.0000
# 3 25.8193 22.9752 55.5353 0.0000 0.0000 0.0000
# 4 0.0000 0.0000 0.0000 28.7059 0.0000 0.0000
# 5 0.0000 0.0000 0.0000 0.0000 24.9167 0.0000
# 6 0.0000 0.0000 0.0000 0.0000 0.0000 31.5246
#
#
#
# Elastic Compliance Matrix: (Units=1/GPa)
#
#
# Indices 1 2 3 4 5 6 
#
# 1 0.009937 -0.003282 -0.003262 0.000000 0.000000 0.000000
# 2 -0.003282 0.011671 -0.003302 0.000000 0.000000 0.000000
# 3 -0.003262 -0.003302 0.020889 0.000000 0.000000 0.000000
# 4 0.000000 0.000000 0.000000 0.034836 0.000000 0.000000
# 5 0.000000 0.000000 0.000000 0.000000 0.040134 0.000000
# 6 0.000000 0.000000 0.000000 0.000000 0.000000 0.031721
#
#
# Mechanical properties :
#
#
# Convention : Reuss Voigt Hill
#
# Bulk Modulus (GPa) = 43.85178 51.53229 47.69204
# Shear Modulus (GPa) = 28.33129 29.81365 29.07247
#
# Velocity S-wave (km/s) = 3.69113 3.78647 3.73910
# Velocity P-wave (km/s) = 6.26532 6.62557 6.44796
#
# Compressibility (1/GPa) = 0.02280409
#
# Stress axis : x y z
#
# Youngs Moduli (GPa) = 100.63285 85.68215 47.87132
#
# Poissons Ratio (x) = 0.28123 0.15616
# Poissons Ratio (y) = 0.33031 0.15809
# Poissons Ratio (z) = 0.32827 0.28295
#
# Static dielectric constant tensor:
#      x y z
#    x 4.072370 0.000000 0.000000 
#    y 0.000000 3.708460 0.000000 
#    z 0.000000 0.000000 4.148660 
# 
# 
# High freq. dielectric constant tensor:
#      x y z
#    x 1.834760 0.000000 0.000000 
#    y 0.000000 1.805060 0.000000 
#    z 0.000000 0.000000 1.811420 
# 
# From -- ./inp_files/20217.got.cif
#   From: 2010.03.12/outbox.cif.g09.slc.cpg/sg60_11_cif.got.tgz:20217.got - 2010.04.10 18:46:24.
