data_PCOD8247153
_publ_section_title
;
Structure prediction by ZEFSAII (Michael W. Deem and Ramdas Pophale) SiO2 
 PCOD8247153
Probable space group: P B C N
;
_chemical_formula_sum "Si O2"
_cell_formula_units_Z 60
_cell_length_a 11.534251
_cell_length_b 29.549672
_cell_length_c 7.993711
_cell_angle_alpha 90.000000
_cell_angle_beta 90.000000
_cell_angle_gamma 90.000000
_cell_volume 2724.523170
_symmetry_space_group_name_H-M "P B C N"
_symmetry_group_IT_number 60
_symmetry_cell_setting 'orthorhombic'
loop_
_space_group_symop_operation_xyz
x,y,z
1/2-x,1/2-y,1/2+z
1/2+x,1/2-y,-z
-x,y,1/2-z
-x,-y,-z
1/2+x,1/2+y,1/2-z
1/2-x,1/2+y,z
x,-y,1/2+z
loop_
_atom_site_type_symbol
_atom_site_label
_atom_site_fract_x
_atom_site_fract_y
_atom_site_fract_z
Si Si1 0.000000 0.421136 0.250000
Si Si2 0.377919 0.525018 0.980931
Si Si3 0.078646 0.123265 0.004795
Si Si4 0.835647 0.863906 0.368206
Si Si5 0.815142 0.711001 0.010811
Si Si6 0.237508 0.193180 0.122759
Si Si7 0.739733 0.044373 0.835191
Si Si8 0.025849 0.649141 0.054599
O O1 0.109934 0.455518 0.239385
O O2 0.011622 0.391880 0.421353
O O3 0.264128 0.496421 0.036183
O O4 0.500000 0.500000 0.000000
O O5 0.392163 0.573045 0.074322
O O6 0.348467 0.537194 0.790292
O O7 0.133686 0.133514 0.825130
O O8 0.942777 0.132276 0.994145
O O9 0.133698 0.157235 0.138138
O O10 0.770498 0.816629 0.390634
O O11 0.753070 0.906023 0.418771
O O12 0.772483 0.708255 0.197011
O O13 0.943435 0.690334 0.998707
O O14 0.813891 0.763690 0.971743
O O15 0.345413 0.168860 0.030759
O O16 0.000000 0.634030 0.250000
#
# Coordination Sequence:
#
# PCOD8247153 Si02
#       8
#     4   8   8   8   8   8   8   8
#     4  12  24  48  78  96 146 188 244 300 360 440
#     4  11  22  43  68 101 141 179 231 294 358 434
#     4  10  22  40  67  94 135 178 220 286 346 422
#     4  10  20  41  65  95 132 176 228 273 348 420
#     4  11  24  42  66  96 137 176 232 290 349 431
#     4  11  25  42  64 102 133 179 236 287 357 427
#     4  11  24  42  69 104 132 188 233 282 372 423
#     4  10  24  45  69  99 138 192 234 289 362 425
#
# _framework density 22.022200999999999
#
# number of rings (size 3 to 8) (size 9 to 14) (size 15 to 20)
#    0.000    1.333    2.667    2.800    3.733    2.133 
#    4.800    0.000    0.000    0.000    0.000    0.000 
#    0.000    0.000    0.000    0.000    0.000    0.000 
#
# Total GULP energy -743714.409250 kJ/mol
# GULP energy per Si atom -12395.240154 kJ/mol
# Density = 2.197208 g / cm^3
# Si number density = 22.022201 Si / 1000 Ang^3
#
#
#
# Elastic Constant Matrix: (Units=GPa)
#
#
# Indices 1 2 3 4 5 6 
#
# 1 126.8529 41.4499 22.4302 0.0000 0.0000 0.0000
# 2 41.4499 132.4252 22.1661 0.0000 0.0000 0.0000
# 3 22.4302 22.1661 41.4295 0.0000 0.0000 0.0000
# 4 0.0000 0.0000 0.0000 23.8459 0.0000 0.0000
# 5 0.0000 0.0000 0.0000 0.0000 27.8365 0.0000
# 6 0.0000 0.0000 0.0000 0.0000 0.0000 41.7603
#
#
#
# Elastic Compliance Matrix: (Units=1/GPa)
#
#
# Indices 1 2 3 4 5 6 
#
# 1 0.009301 -0.002272 -0.003820 0.000000 0.000000 0.000000
# 2 -0.002272 0.008849 -0.003505 0.000000 0.000000 0.000000
# 3 -0.003820 -0.003505 0.028081 0.000000 0.000000 0.000000
# 4 0.000000 0.000000 0.000000 0.041936 0.000000 0.000000
# 5 0.000000 0.000000 0.000000 0.000000 0.035924 0.000000
# 6 0.000000 0.000000 0.000000 0.000000 0.000000 0.023946
#
#
# Mechanical properties :
#
#
# Convention : Reuss Voigt Hill
#
# Bulk Modulus (GPa) = 36.98534 52.53335 44.75935
# Shear Modulus (GPa) = 28.36998 32.99929 30.68463
#
# Velocity S-wave (km/s) = 3.59311 3.87519 3.73681
# Velocity P-wave (km/s) = 5.83480 6.62792 6.24397
#
# Compressibility (1/GPa) = 0.02703774
#
# Stress axis : x y z
#
# Youngs Moduli (GPa) = 107.51586 113.00531 35.61170
#
# Poissons Ratio (x) = 0.25673 0.13604
# Poissons Ratio (y) = 0.24426 0.12480
# Poissons Ratio (z) = 0.41072 0.39604
#
# Static dielectric constant tensor:
#      x y z
#    x 4.285130 0.000000 0.000000 
#    y 0.000000 4.529820 0.000000 
#    z 0.000000 0.000000 3.879140 
# 
# 
# High freq. dielectric constant tensor:
#      x y z
#    x 1.876080 0.000000 0.000000 
#    y 0.000000 1.869230 0.000000 
#    z 0.000000 0.000000 1.858170 
# 
# From -- ./inp_files/5238.got.cif
#   From: 2010.03.12/outbox.cif.g09.slc.cpg/sg60_3_cif.got.tgz:5238.got - 2010.04.10 18:46:24.
