data_PCOD8247119
_publ_section_title
;
Structure prediction by ZEFSAII (Michael W. Deem and Ramdas Pophale) SiO2 
 PCOD8247119
Probable space group: P B C N
;
_chemical_formula_sum "Si O2"
_cell_formula_units_Z 40
_cell_length_a 11.115506
_cell_length_b 17.221173
_cell_length_c 9.252550
_cell_angle_alpha 90.000000
_cell_angle_beta 90.000000
_cell_angle_gamma 90.000000
_cell_volume 1771.142105
_symmetry_space_group_name_H-M "P B C N"
_symmetry_group_IT_number 60
_symmetry_cell_setting 'orthorhombic'
loop_
_space_group_symop_operation_xyz
x,y,z
1/2-x,1/2-y,1/2+z
1/2+x,1/2-y,-z
-x,y,1/2-z
-x,-y,-z
1/2+x,1/2+y,1/2-z
1/2-x,1/2+y,z
x,-y,1/2+z
loop_
_atom_site_type_symbol
_atom_site_label
_atom_site_fract_x
_atom_site_fract_y
_atom_site_fract_z
Si Si1 0.599570 0.549567 0.363361
Si Si2 0.008325 0.417453 0.920963
Si Si3 0.723044 0.807637 0.550991
Si Si4 0.555130 0.617433 0.896066
Si Si5 0.282269 0.827332 0.628979
O O1 0.500000 0.575178 0.250000
O O2 0.557875 0.580509 0.519337
O O3 0.632530 0.458765 0.353728
O O4 0.721664 0.592138 0.322878
O O5 0.903882 0.353584 0.954655
O O6 0.000000 0.432693 0.750000
O O7 0.130633 0.377562 0.980231
O O8 0.000000 0.500000 0.000000
O O9 0.858891 0.826850 0.491148
O O10 0.695598 0.726577 0.469281
O O11 0.705549 0.783346 0.717889
O O12 0.500000 0.657822 0.750000
#
# Coordination Sequence:
#
# PCOD8247119 Si02
#       5
#     8   8   8   8   8
#     4  10  20  40  64  92 124 163 211 273 326 385
#     4  10  24  46  68  95 133 176 225 277 335 407
#     4  11  25  42  64  95 132 175 219 273 332 400
#     4  10  22  38  67  94 123 162 213 269 331 390
#     4  11  25  41  64  93 134 174 220 274 329 399
#
# _framework density 22.584295999999998
#
# number of rings (size 3 to 8) (size 9 to 14) (size 15 to 20)
#    0.000    1.600    2.000    1.200    5.600    2.400 
#    0.000    0.000    0.000    0.000    0.000    0.000 
#    0.000    0.000    0.000    0.000    0.000    0.000 
#
# Total GULP energy -495577.004545 kJ/mol
# GULP energy per Si atom -12389.425114 kJ/mol
# Density = 2.253289 g / cm^3
# Si number density = 22.584296 Si / 1000 Ang^3
#
#
#
# Elastic Constant Matrix: (Units=GPa)
#
#
# Indices 1 2 3 4 5 6 
#
# 1 72.6475 25.7047 23.1205 0.0000 0.0000 0.0000
# 2 25.7047 107.0979 40.2784 0.0000 0.0000 0.0000
# 3 23.1205 40.2784 94.9274 0.0000 0.0000 0.0000
# 4 0.0000 0.0000 0.0000 38.2728 0.0000 0.0000
# 5 0.0000 0.0000 0.0000 0.0000 32.3075 0.0000
# 6 0.0000 0.0000 0.0000 0.0000 0.0000 38.3987
#
#
#
# Elastic Compliance Matrix: (Units=1/GPa)
#
#
# Indices 1 2 3 4 5 6 
#
# 1 0.015574 -0.002750 -0.002626 0.000000 0.000000 0.000000
# 2 -0.002750 0.011596 -0.004250 0.000000 0.000000 0.000000
# 3 -0.002626 -0.004250 0.012977 0.000000 0.000000 0.000000
# 4 0.000000 0.000000 0.000000 0.026128 0.000000 0.000000
# 5 0.000000 0.000000 0.000000 0.000000 0.030953 0.000000
# 6 0.000000 0.000000 0.000000 0.000000 0.000000 0.026043
#
#
# Mechanical properties :
#
#
# Convention : Reuss Voigt Hill
#
# Bulk Modulus (GPa) = 47.86142 50.31998 49.09070
# Shear Modulus (GPa) = 33.44728 34.16707 33.80718
#
# Velocity S-wave (km/s) = 3.85255 3.89378 3.87322
# Velocity P-wave (km/s) = 6.40530 6.52263 6.46423
#
# Compressibility (1/GPa) = 0.02089366
#
# Stress axis : x y z
#
# Youngs Moduli (GPa) = 64.20944 86.23768 77.05658
#
# Poissons Ratio (x) = 0.23717 0.20237
# Poissons Ratio (y) = 0.17659 0.32752
# Poissons Ratio (z) = 0.16863 0.36654
#
# Static dielectric constant tensor:
#      x y z
#    x 4.090840 0.000000 0.000000 
#    y 0.000000 4.108420 0.000000 
#    z 0.000000 0.000000 4.106480 
# 
# 
# High freq. dielectric constant tensor:
#      x y z
#    x 1.878880 0.000000 0.000000 
#    y 0.000000 1.897430 0.000000 
#    z 0.000000 0.000000 1.888850 
# 
# From -- ./inp_files/4718.got.cif
#   From: 2010.03.12/outbox.cif.g09.slc.cpg/sg60_3_cif.got.tgz:4718.got - 2010.04.10 18:46:24.
