data_PCOD8247648
_publ_section_title
;
Structure prediction by ZEFSAII (Michael W. Deem and Ramdas Pophale) SiO2 
 PCOD8247648
Probable space group: P B C N
;
_chemical_formula_sum "Si O2"
_cell_formula_units_Z 64
_cell_length_a 13.975577
_cell_length_b 9.569223
_cell_length_c 23.481687
_cell_angle_alpha 90.000000
_cell_angle_beta 90.000000
_cell_angle_gamma 90.000000
_cell_volume 3140.333106
_symmetry_space_group_name_H-M "P B C N"
_symmetry_group_IT_number 60
_symmetry_cell_setting 'orthorhombic'
loop_
_space_group_symop_operation_xyz
x,y,z
1/2-x,1/2-y,1/2+z
1/2+x,1/2-y,-z
-x,y,1/2-z
-x,-y,-z
1/2+x,1/2+y,1/2-z
1/2-x,1/2+y,z
x,-y,1/2+z
loop_
_atom_site_type_symbol
_atom_site_label
_atom_site_fract_x
_atom_site_fract_y
_atom_site_fract_z
Si Si1 0.536409 0.313564 0.917359
Si Si2 0.092996 0.504535 0.087454
Si Si3 0.304538 0.493863 0.048753
Si Si4 0.540421 0.958663 0.691713
Si Si5 0.747073 0.085442 0.570505
Si Si6 0.431576 0.717826 0.302874
Si Si7 0.398513 0.233577 0.002110
Si Si8 0.769982 0.669705 0.149301
O O1 0.617313 0.430251 0.912812
O O2 0.478985 0.338642 0.859846
O O3 0.473858 0.341282 0.974220
O O4 0.570693 0.155170 0.925577
O O5 0.207836 0.515202 0.084654
O O6 0.046089 0.551928 0.146656
O O7 0.052238 0.614551 0.041076
O O8 0.305437 0.575988 0.988372
O O9 0.325226 0.328657 0.039199
O O10 0.500000 0.898656 0.750000
O O11 0.632310 0.864196 0.680894
O O12 0.576912 0.116063 0.698194
O O13 0.645189 0.152363 0.552911
O O14 0.789188 0.179042 0.621262
O O15 0.740478 0.930453 0.594833
O O16 0.500000 0.667024 0.250000
O O17 0.320446 0.663840 0.306126
#
# Coordination Sequence:
#
# PCOD8247648 Si02
#       8
#     8   8   8   8   8   8   8   8
#     4  11  21  38  60  88 122 166 209 252 311 379
#     4  10  22  38  59  88 120 164 207 256 309 377
#     4  11  23  36  58  91 134 163 197 254 321 373
#     4  10  23  43  67  90 121 165 218 260 313 379
#     4  11  21  36  61  91 128 162 207 248 308 375
#     4  10  22  43  66  92 123 168 215 261 316 371
#     4  11  21  37  57  93 128 164 203 253 314 377
#     4  12  21  41  66  92 121 165 208 264 304 372
#
# _framework density 20.380002000000001
#
# number of rings (size 3 to 8) (size 9 to 14) (size 15 to 20)
#    0.000    1.250    3.750    3.000    3.500    1.000 
#    0.000    1.875    0.000    0.000    0.000    0.000 
#    0.000    0.000    0.000    0.000    0.000    0.000 
#
# Total GULP energy -793121.278153 kJ/mol
# GULP energy per Si atom -12392.519971 kJ/mol
# Density = 2.033362 g / cm^3
# Si number density = 20.380002 Si / 1000 Ang^3
#
#
#
# Elastic Constant Matrix: (Units=GPa)
#
#
# Indices 1 2 3 4 5 6 
#
# 1 118.2353 29.6600 58.7441 0.0000 0.0000 0.0000
# 2 29.6600 58.5890 29.9646 0.0000 0.0000 0.0000
# 3 58.7441 29.9646 105.7198 0.0000 0.0000 0.0000
# 4 0.0000 0.0000 0.0000 21.5056 0.0000 0.0000
# 5 0.0000 0.0000 0.0000 0.0000 26.1303 0.0000
# 6 0.0000 0.0000 0.0000 0.0000 0.0000 34.2391
#
#
#
# Elastic Compliance Matrix: (Units=1/GPa)
#
#
# Indices 1 2 3 4 5 6 
#
# 1 0.012163 -0.003159 -0.005863 0.000000 0.000000 0.000000
# 2 -0.003159 0.020782 -0.004135 0.000000 0.000000 0.000000
# 3 -0.005863 -0.004135 0.013889 0.000000 0.000000 0.000000
# 4 0.000000 0.000000 0.000000 0.046500 0.000000 0.000000
# 5 0.000000 0.000000 0.000000 0.000000 0.038270 0.000000
# 6 0.000000 0.000000 0.000000 0.000000 0.000000 0.029206
#
#
# Mechanical properties :
#
#
# Convention : Reuss Voigt Hill
#
# Bulk Modulus (GPa) = 48.73340 57.69796 53.21568
# Shear Modulus (GPa) = 25.77796 27.32003 26.54899
#
# Velocity S-wave (km/s) = 3.56035 3.66530 3.61321
# Velocity P-wave (km/s) = 6.39263 6.80331 6.60117
#
# Compressibility (1/GPa) = 0.02051981
#
# Stress axis : x y z
#
# Youngs Moduli (GPa) = 82.21503 48.11860 71.99953
#
# Poissons Ratio (x) = 0.15200 0.42215
# Poissons Ratio (y) = 0.25970 0.29773
# Poissons Ratio (z) = 0.48205 0.19898
#
# Static dielectric constant tensor:
#      x y z
#    x 3.874240 0.000000 0.000000 
#    y 0.000000 3.640280 0.000000 
#    z 0.000000 0.000000 3.686390 
# 
# 
# High freq. dielectric constant tensor:
#      x y z
#    x 1.800120 0.000000 0.000000 
#    y 0.000000 1.795610 0.000000 
#    z 0.000000 0.000000 1.780470 
# 
# From -- ./inp_files/24463.got.cif
#   From: 2010.03.12/outbox.cif.g09.slc.cpg/sg60_13_cif.got.tgz:24463.got - 2010.04.10 18:46:24.
