data_PCOD8247596
_publ_section_title
;
Structure prediction by ZEFSAII (Michael W. Deem and Ramdas Pophale) SiO2 
 PCOD8247596
Probable space group: P B C N
;
_chemical_formula_sum "Si O2"
_cell_formula_units_Z 36
_cell_length_a 14.277486
_cell_length_b 12.137949
_cell_length_c 9.559682
_cell_angle_alpha 90.000000
_cell_angle_beta 90.000000
_cell_angle_gamma 90.000000
_cell_volume 1656.687125
_symmetry_space_group_name_H-M "P B C N"
_symmetry_group_IT_number 60
_symmetry_cell_setting 'orthorhombic'
loop_
_space_group_symop_operation_xyz
x,y,z
1/2-x,1/2-y,1/2+z
1/2+x,1/2-y,-z
-x,y,1/2-z
-x,-y,-z
1/2+x,1/2+y,1/2-z
1/2-x,1/2+y,z
x,-y,1/2+z
loop_
_atom_site_type_symbol
_atom_site_label
_atom_site_fract_x
_atom_site_fract_y
_atom_site_fract_z
Si Si1 0.384728 0.881865 0.609569
Si Si2 0.655842 0.335590 0.271707
Si Si3 0.000000 0.239373 0.250000
Si Si4 0.350561 0.920880 0.298819
Si Si5 0.991661 0.189110 0.549641
O O1 0.315604 0.788264 0.675733
O O2 0.344783 0.935448 0.466521
O O3 0.483807 0.820010 0.575903
O O4 0.400781 0.976681 0.724093
O O5 0.746263 0.412285 0.265598
O O6 0.576170 0.382327 0.379304
O O7 0.609087 0.332389 0.117599
O O8 0.906557 0.310985 0.237081
O O9 0.011311 0.161412 0.114678
#
# Coordination Sequence:
#
# PCOD8247596 Si02
#       5
#     8   8   4   8   8
#     4   9  22  36  54  92 110 157 190 238 289 343
#     4   9  20  39  58  82 118 160 187 242 290 347
#     4  10  22  30  58  92 114 152 190 246 290 346
#     4  11  23  35  59  89 125 148 196 239 300 339
#     4   8  19  38  57  81 116 149 201 229 292 336
#
# _framework density 21.730115000000001
#
# number of rings (size 3 to 8) (size 9 to 14) (size 15 to 20)
#    1.333    1.333    0.000    0.000    9.333    1.778 
#    0.000    0.000    0.000    8.000    0.000    0.000 
#    0.000    0.000    0.000    0.000    0.000    0.000 
#
# Total GULP energy -445994.010560 kJ/mol
# GULP energy per Si atom -12388.722516 kJ/mol
# Density = 2.168066 g / cm^3
# Si number density = 21.730115 Si / 1000 Ang^3
#
#
#
# Elastic Constant Matrix: (Units=GPa)
#
#
# Indices 1 2 3 4 5 6 
#
# 1 87.1014 0.9841 30.5422 0.0000 0.0000 0.0000
# 2 0.9841 11.9236 7.7416 0.0000 0.0000 0.0000
# 3 30.5422 7.7416 134.5400 0.0000 0.0000 0.0000
# 4 0.0000 0.0000 0.0000 11.0147 0.0000 0.0000
# 5 0.0000 0.0000 0.0000 0.0000 20.5025 0.0000
# 6 0.0000 0.0000 0.0000 0.0000 0.0000 19.2383
#
#
#
# Elastic Compliance Matrix: (Units=1/GPa)
#
#
# Indices 1 2 3 4 5 6 
#
# 1 0.012482 0.000841 -0.002882 0.000000 0.000000 0.000000
# 2 0.000841 0.087179 -0.005207 0.000000 0.000000 0.000000
# 3 -0.002882 -0.005207 0.008387 0.000000 0.000000 0.000000
# 4 0.000000 0.000000 0.000000 0.090787 0.000000 0.000000
# 5 0.000000 0.000000 0.000000 0.000000 0.048775 0.000000
# 6 0.000000 0.000000 0.000000 0.000000 0.000000 0.051980
#
#
# Mechanical properties :
#
#
# Convention : Reuss Voigt Hill
#
# Bulk Modulus (GPa) = 10.68936 34.67786 22.68361
# Shear Modulus (GPa) = 14.48144 23.10424 18.79284
#
# Velocity S-wave (km/s) = 2.58432 3.26427 2.94399
# Velocity P-wave (km/s) = 3.71951 5.49548 4.69229
#
# Compressibility (1/GPa) = 0.09355097
#
# Stress axis : x y z
#
# Youngs Moduli (GPa) = 80.11584 11.47065 119.23784
#
# Poissons Ratio (x) = -0.00965 0.34364
# Poissons Ratio (y) = -0.06737 0.62091
# Poissons Ratio (z) = 0.23089 0.05973
#
# Static dielectric constant tensor:
#      x y z
#    x 3.503970 0.000000 0.000000 
#    y 0.000000 3.284640 0.000000 
#    z 0.000000 0.000000 4.166550 
# 
# 
# High freq. dielectric constant tensor:
#      x y z
#    x 1.833240 0.000000 0.000000 
#    y 0.000000 1.802670 0.000000 
#    z 0.000000 0.000000 1.870450 
# 
# From -- ./inp_files/5626.got.cif
#   From: 2010.03.12/outbox.cif.g09.slc.cpg/sg60_3_cif.got.tgz:5626.got - 2010.04.10 18:46:24.
