data_PCOD8247613
_publ_section_title
;
Structure prediction by ZEFSAII (Michael W. Deem and Ramdas Pophale) SiO2 
 PCOD8247613
Probable space group: P B C N
;
_chemical_formula_sum "Si O2"
_cell_formula_units_Z 48
_cell_length_a 12.638715
_cell_length_b 9.051456
_cell_length_c 17.750980
_cell_angle_alpha 90.000000
_cell_angle_beta 90.000000
_cell_angle_gamma 90.000000
_cell_volume 2030.690327
_symmetry_space_group_name_H-M "P B C N"
_symmetry_group_IT_number 60
_symmetry_cell_setting 'orthorhombic'
loop_
_space_group_symop_operation_xyz
x,y,z
1/2-x,1/2-y,1/2+z
1/2+x,1/2-y,-z
-x,y,1/2-z
-x,-y,-z
1/2+x,1/2+y,1/2-z
1/2-x,1/2+y,z
x,-y,1/2+z
loop_
_atom_site_type_symbol
_atom_site_label
_atom_site_fract_x
_atom_site_fract_y
_atom_site_fract_z
Si Si1 0.150497 1.000000 0.285102
Si Si2 0.750000 0.750000 0.988295
Si Si3 0.000000 0.754552 0.250000
Si Si4 0.791685 1.000000 0.890812
Si Si5 0.500000 0.254552 0.750000
Si Si6 0.435343 1.000000 0.152564
Si Si7 0.667828 1.000000 0.090336
O O1 0.176716 1.000000 0.195881
O O2 0.078030 0.144091 0.301218
O O3 0.253728 1.000000 0.336976
O O4 0.078030 0.855909 0.301218
O O5 0.827960 0.851463 0.935286
O O6 0.672040 0.648536 0.935286
O O7 0.681501 0.853135 0.042088
O O8 0.818499 0.646865 0.042088
O O9 0.924027 0.649475 0.298706
O O10 0.663531 0.000000 0.903411
O O11 0.575973 0.149475 0.798706
O O12 0.547671 1.000000 0.113789
#
# Coordination Sequence:
#
# PCOD8247613 Si02
#       7
#     8   8   4   8   4   8   8
#     4  11  22  41  66  88 124 165 208 251 302 366
#     4  10  24  40  60  88 124 160 200 248 312 360
#     4  10  22  36  60 100 124 152 204 264 306 348
#     4  11  23  42  64  91 124 164 205 253 306 367
#     4  10  22  36  60 100 124 152 204 264 306 348
#     4  11  22  37  62  92 124 158 206 256 304 360
#     4  11  23  42  64  91 124 164 205 253 306 367
#
# _framework density 23.637283
#
# number of rings (size 3 to 8) (size 9 to 14) (size 15 to 20)
#    0.000    1.333    0.000    6.000    0.000    6.667 
#    0.000    6.667    0.000   16.000    0.000    0.000 
#    0.000    0.000    0.000    0.000    0.000    0.000 
#
# Total GULP energy -594905.975097 kJ/mol
# GULP energy per Si atom -12393.874481 kJ/mol
# Density = 2.358348 g / cm^3
# Si number density = 23.637283 Si / 1000 Ang^3
#
#
#
# Elastic Constant Matrix: (Units=GPa)
#
#
# Indices 1 2 3 4 5 6 
#
# 1 90.9501 18.7909 13.9339 0.0000 0.0000 0.0000
# 2 18.7909 173.7069 47.7386 0.0000 0.0000 0.0000
# 3 13.9339 47.7386 108.5242 0.0000 0.0000 0.0000
# 4 0.0000 0.0000 0.0000 22.8347 0.0000 0.0000
# 5 0.0000 0.0000 0.0000 0.0000 30.2799 0.0000
# 6 0.0000 0.0000 0.0000 0.0000 0.0000 8.5141
#
#
#
# Elastic Compliance Matrix: (Units=1/GPa)
#
#
# Indices 1 2 3 4 5 6 
#
# 1 0.011349 -0.000941 -0.001043 0.000000 0.000000 0.000000
# 2 -0.000941 0.006627 -0.002794 0.000000 0.000000 0.000000
# 3 -0.001043 -0.002794 0.010578 0.000000 0.000000 0.000000
# 4 0.000000 0.000000 0.000000 0.043793 0.000000 0.000000
# 5 0.000000 0.000000 0.000000 0.000000 0.033025 0.000000
# 6 0.000000 0.000000 0.000000 0.000000 0.000000 0.117453
#
#
# Mechanical properties :
#
#
# Convention : Reuss Voigt Hill
#
# Bulk Modulus (GPa) = 52.64086 59.34534 55.99310
# Shear Modulus (GPa) = 20.94563 31.84024 26.39293
#
# Velocity S-wave (km/s) = 2.98002 3.67418 3.34515
# Velocity P-wave (km/s) = 5.84459 6.56967 6.21771
#
# Compressibility (1/GPa) = 0.01899665
#
# Stress axis : x y z
#
# Youngs Moduli (GPa) = 88.11120 150.90910 94.53958
#
# Poissons Ratio (x) = 0.14201 0.09863
# Poissons Ratio (y) = 0.08291 0.26415
# Poissons Ratio (z) = 0.09192 0.42166
#
# Static dielectric constant tensor:
#      x y z
#    x 3.948380 0.000000 0.000000 
#    y 0.000000 4.841120 0.000000 
#    z 0.000000 0.000000 4.374320 
# 
# 
# High freq. dielectric constant tensor:
#      x y z
#    x 1.905900 0.000000 0.000000 
#    y 0.000000 1.972750 0.000000 
#    z 0.000000 0.000000 1.937710 
# 
# From -- ./inp_files/20557.got.cif
#   From: 2010.03.12/outbox.cif.g09.slc.cpg/sg60_11_cif.got.tgz:20557.got - 2010.04.10 18:46:24.
