data_PCOD8247842
_publ_section_title
;
Structure prediction by ZEFSAII (Michael W. Deem and Ramdas Pophale) SiO2 
 PCOD8247842
Probable space group: P B C N
;
_chemical_formula_sum "Si O2"
_cell_formula_units_Z 40
_cell_length_a 10.928827
_cell_length_b 8.527500
_cell_length_c 17.518853
_cell_angle_alpha 90.000000
_cell_angle_beta 90.000000
_cell_angle_gamma 90.000000
_cell_volume 1632.679530
_symmetry_space_group_name_H-M "P B C N"
_symmetry_group_IT_number 60
_symmetry_cell_setting 'orthorhombic'
loop_
_space_group_symop_operation_xyz
x,y,z
1/2-x,1/2-y,1/2+z
1/2+x,1/2-y,-z
-x,y,1/2-z
-x,-y,-z
1/2+x,1/2+y,1/2-z
1/2-x,1/2+y,z
x,-y,1/2+z
loop_
_atom_site_type_symbol
_atom_site_label
_atom_site_fract_x
_atom_site_fract_y
_atom_site_fract_z
Si Si1 0.506997 0.853200 0.442662
Si Si2 0.734443 0.693402 0.892514
Si Si3 0.650864 0.569923 0.485030
Si Si4 0.860291 0.760950 0.233658
Si Si5 0.218394 0.521023 0.864850
O O1 0.626347 0.875359 0.388596
O O2 0.527129 0.680620 0.486060
O O3 0.387564 0.855307 0.388852
O O4 0.500000 0.000000 0.500000
O O5 0.702111 0.781495 0.814068
O O6 0.732881 0.821559 0.960972
O O7 0.637478 0.559796 0.917652
O O8 0.687596 0.490971 0.565253
O O9 0.796113 0.919541 0.206439
O O10 0.844372 0.638020 0.164521
O O11 0.000000 0.793953 0.250000
#
# Coordination Sequence:
#
# PCOD8247842 Si02
#       5
#     8   8   8   8   8
#     4  10  22  42  81 110 152 197 255 321 394 461
#     4  10  23  45  72 113 154 199 252 323 389 457
#     4  10  22  43  78 110 147 195 267 320 383 468
#     4  12  30  47  73 109 161 203 261 317 388 475
#     4  12  25  49  76 112 147 208 254 315 397 462
#
# _framework density 24.499601999999999
#
# number of rings (size 3 to 8) (size 9 to 14) (size 15 to 20)
#    1.200    0.000    2.000    3.600    5.600    3.200 
#    0.000    3.000    0.000    0.000    0.000    0.000 
#    0.000    0.000    0.000    0.000    0.000    0.000 
#
# Total GULP energy -495555.772000 kJ/mol
# GULP energy per Si atom -12388.894300 kJ/mol
# Density = 2.444384 g / cm^3
# Si number density = 24.499602 Si / 1000 Ang^3
#
#
#
# Elastic Constant Matrix: (Units=GPa)
#
#
# Indices 1 2 3 4 5 6 
#
# 1 130.7415 12.7871 51.0050 0.0000 0.0000 0.0000
# 2 12.7871 46.3921 28.0728 0.0000 0.0000 0.0000
# 3 51.0050 28.0728 116.4311 0.0000 0.0000 0.0000
# 4 0.0000 0.0000 0.0000 54.7021 0.0000 0.0000
# 5 0.0000 0.0000 0.0000 0.0000 45.0190 0.0000
# 6 0.0000 0.0000 0.0000 0.0000 0.0000 34.5512
#
#
#
# Elastic Compliance Matrix: (Units=1/GPa)
#
#
# Indices 1 2 3 4 5 6 
#
# 1 0.009226 -0.000114 -0.004014 0.000000 0.000000 0.000000
# 2 -0.000114 0.025239 -0.006036 0.000000 0.000000 0.000000
# 3 -0.004014 -0.006036 0.011802 0.000000 0.000000 0.000000
# 4 0.000000 0.000000 0.000000 0.018281 0.000000 0.000000
# 5 0.000000 0.000000 0.000000 0.000000 0.022213 0.000000
# 6 0.000000 0.000000 0.000000 0.000000 0.000000 0.028943
#
#
# Mechanical properties :
#
#
# Convention : Reuss Voigt Hill
#
# Bulk Modulus (GPa) = 38.55011 53.03275 45.79143
# Shear Modulus (GPa) = 34.55969 40.30111 37.43040
#
# Velocity S-wave (km/s) = 3.75990 4.06022 3.91294
# Velocity P-wave (km/s) = 5.88373 6.60862 6.25668
#
# Compressibility (1/GPa) = 0.02594026
#
# Stress axis : x y z
#
# Youngs Moduli (GPa) = 108.39172 39.62119 84.72822
#
# Poissons Ratio (x) = 0.00451 0.34011
# Poissons Ratio (y) = 0.01235 0.51138
# Poissons Ratio (z) = 0.43509 0.23913
#
# Static dielectric constant tensor:
#      x y z
#    x 4.465340 0.000000 0.000000 
#    y 0.000000 4.338560 0.000000 
#    z 0.000000 0.000000 4.207870 
# 
# 
# High freq. dielectric constant tensor:
#      x y z
#    x 1.977400 0.000000 0.000000 
#    y 0.000000 1.974680 0.000000 
#    z 0.000000 0.000000 1.964090 
# 
# From -- ./inp_files/19866.got.cif
#   From: 2010.03.12/outbox.cif.g09.slc.cpg/sg60_10_cif.got.tgz:19866.got - 2010.04.10 18:46:24.
