data_PCOD8247088
_publ_section_title
;
Structure prediction by ZEFSAII (Michael W. Deem and Ramdas Pophale) SiO2 
 PCOD8247088
Probable space group: P B C N
;
_chemical_formula_sum "Si O2"
_cell_formula_units_Z 32
_cell_length_a 11.930589
_cell_length_b 14.634839
_cell_length_c 8.250898
_cell_angle_alpha 90.000000
_cell_angle_beta 90.000000
_cell_angle_gamma 90.000000
_cell_volume 1440.625349
_symmetry_space_group_name_H-M "P B C N"
_symmetry_group_IT_number 60
_symmetry_cell_setting 'orthorhombic'
loop_
_space_group_symop_operation_xyz
x,y,z
1/2-x,1/2-y,1/2+z
1/2+x,1/2-y,-z
-x,y,1/2-z
-x,-y,-z
1/2+x,1/2+y,1/2-z
1/2-x,1/2+y,z
x,-y,1/2+z
loop_
_atom_site_type_symbol
_atom_site_label
_atom_site_fract_x
_atom_site_fract_y
_atom_site_fract_z
Si Si1 0.514450 0.715987 0.435477
Si Si2 0.958320 0.404838 0.932021
Si Si3 0.108599 0.075387 0.645595
Si Si4 0.293589 0.594347 0.968251
O O1 0.500000 0.689609 0.250000
O O2 0.509006 0.824410 0.459356
O O3 0.417696 0.666662 0.542158
O O4 0.638269 0.685217 0.487179
O O5 0.000000 0.391070 0.750000
O O6 0.824661 0.401648 0.943744
O O7 0.000000 0.500000 0.000000
O O8 0.212533 0.091525 0.770987
O O9 0.000000 0.047780 0.750000
O O10 0.137209 0.994109 0.524589
#
# Coordination Sequence:
#
# PCOD8247088 Si02
#       4
#     8   8   8   8
#     4  11  24  42  65  97 130 172 227 276 326 397
#     4  12  27  45  64  95 133 173 224 276 332 404
#     4  10  20  39  65  99 130 165 221 272 327 400
#     4  11  22  40  68  95 131 176 210 276 338 383
#
# _framework density 22.212575999999999
#
# number of rings (size 3 to 8) (size 9 to 14) (size 15 to 20)
#    0.000    1.000    0.000    9.750    0.000    6.000 
#    0.000    0.000    0.000    0.000    0.000    0.000 
#    0.000    0.000    0.000    0.000    0.000    0.000 
#
# Total GULP energy -396892.272807 kJ/mol
# GULP energy per Si atom -12402.883525 kJ/mol
# Density = 2.216202 g / cm^3
# Si number density = 22.212576 Si / 1000 Ang^3
#
#
#
# Elastic Constant Matrix: (Units=GPa)
#
#
# Indices 1 2 3 4 5 6 
#
# 1 114.8020 54.2027 43.1811 0.0000 0.0000 0.0000
# 2 54.2027 156.5165 37.3443 0.0000 0.0000 0.0000
# 3 43.1811 37.3443 159.5461 0.0000 0.0000 0.0000
# 4 0.0000 0.0000 0.0000 40.7388 0.0000 0.0000
# 5 0.0000 0.0000 0.0000 0.0000 38.0633 0.0000
# 6 0.0000 0.0000 0.0000 0.0000 0.0000 12.1222
#
#
#
# Elastic Compliance Matrix: (Units=1/GPa)
#
#
# Indices 1 2 3 4 5 6 
#
# 1 0.011116 -0.003317 -0.002232 0.000000 0.000000 0.000000
# 2 -0.003317 0.007757 -0.000918 0.000000 0.000000 0.000000
# 3 -0.002232 -0.000918 0.007087 0.000000 0.000000 0.000000
# 4 0.000000 0.000000 0.000000 0.024547 0.000000 0.000000
# 5 0.000000 0.000000 0.000000 0.000000 0.026272 0.000000
# 6 0.000000 0.000000 0.000000 0.000000 0.000000 0.082494
#
#
# Mechanical properties :
#
#
# Convention : Reuss Voigt Hill
#
# Bulk Modulus (GPa) = 76.77142 77.81343 77.29242
# Shear Modulus (GPa) = 28.32084 37.92727 33.12406
#
# Velocity S-wave (km/s) = 3.57458 4.13664 3.86583
# Velocity P-wave (km/s) = 7.18846 7.61071 7.40260
#
# Compressibility (1/GPa) = 0.01302568
#
# Stress axis : x y z
#
# Youngs Moduli (GPa) = 89.95718 128.91881 141.10793
#
# Poissons Ratio (x) = 0.42763 0.31499
# Poissons Ratio (y) = 0.29839 0.12951
# Poissons Ratio (z) = 0.20081 0.11833
#
# Static dielectric constant tensor:
#      x y z
#    x 4.543200 0.000000 0.000000 
#    y 0.000000 3.995610 0.000000 
#    z 0.000000 0.000000 4.679060 
# 
# 
# High freq. dielectric constant tensor:
#      x y z
#    x 1.860280 0.000000 0.000000 
#    y 0.000000 1.881410 0.000000 
#    z 0.000000 0.000000 1.895690 
# 
# From -- ./inp_files/4493.got.cif
#   From: 2010.03.12/outbox.cif.g09.slc.cpg/sg60_3_cif.got.tgz:4493.got - 2010.04.10 18:46:24.
