data_PCOD8247293
_publ_section_title
;
Structure prediction by ZEFSAII (Michael W. Deem and Ramdas Pophale) SiO2 
 PCOD8247293
Probable space group: P B C N
;
_chemical_formula_sum "Si O2"
_cell_formula_units_Z 48
_cell_length_a 8.098126
_cell_length_b 19.974727
_cell_length_c 14.708483
_cell_angle_alpha 90.000000
_cell_angle_beta 90.000000
_cell_angle_gamma 90.000000
_cell_volume 2379.212676
_symmetry_space_group_name_H-M "P B C N"
_symmetry_group_IT_number 60
_symmetry_cell_setting 'orthorhombic'
loop_
_space_group_symop_operation_xyz
x,y,z
1/2-x,1/2-y,1/2+z
1/2+x,1/2-y,-z
-x,y,1/2-z
-x,-y,-z
1/2+x,1/2+y,1/2-z
1/2-x,1/2+y,z
x,-y,1/2+z
loop_
_atom_site_type_symbol
_atom_site_label
_atom_site_fract_x
_atom_site_fract_y
_atom_site_fract_z
Si Si1 0.591197 0.569162 0.516647
Si Si2 0.500000 0.992415 0.750000
Si Si3 0.282042 0.102979 0.809857
Si Si4 0.500000 0.689079 0.750000
Si Si5 0.977719 0.679376 0.941688
Si Si6 0.100901 0.202498 0.557475
Si Si7 0.437272 0.938033 0.559422
O O1 0.500000 0.500000 0.500000
O O2 0.675494 0.566359 0.614095
O O3 0.468274 0.632763 0.516037
O O4 0.739614 0.574718 0.443478
O O5 0.344458 0.042248 0.748128
O O6 0.492243 0.945464 0.662911
O O7 0.166963 0.146015 0.744415
O O8 0.428730 0.148176 0.853997
O O9 0.504801 0.726245 0.848713
O O10 0.792605 0.698953 0.916012
O O11 0.077935 0.743435 0.978113
O O12 0.967653 0.626372 0.022923
O O13 0.500000 0.000000 0.500000
#
# Coordination Sequence:
#
# PCOD8247293 Si02
#       7
#     8   4   8   4   8   8   8
#     4  10  21  37  60  91 122 163 208 256 314 376
#     4  12  22  37  64  94 123 174 208 270 312 373
#     4  10  22  36  61  91 124 162 216 255 314 374
#     4  10  22  37  58 100 119 162 218 262 302 397
#     4  11  22  43  63  91 126 174 209 260 325 384
#     4  11  23  39  68  87 128 170 207 264 322 379
#     4  11  22  39  60  91 127 162 211 260 315 373
#
# _framework density 20.174741999999998
#
# number of rings (size 3 to 8) (size 9 to 14) (size 15 to 20)
#    0.000    1.333    3.333    5.000    4.667    0.667 
#    0.000    0.000    0.000    2.000    0.000    0.000 
#    0.000    0.000    0.000    0.000    0.000    0.000 
#
# Total GULP energy -594943.960490 kJ/mol
# GULP energy per Si atom -12394.665844 kJ/mol
# Density = 2.012882 g / cm^3
# Si number density = 20.174742 Si / 1000 Ang^3
#
#
#
# Elastic Constant Matrix: (Units=GPa)
#
#
# Indices 1 2 3 4 5 6 
#
# 1 96.7122 12.4466 5.7492 0.0000 0.0000 0.0000
# 2 12.4466 88.0228 16.9431 0.0000 0.0000 0.0000
# 3 5.7492 16.9431 75.7108 0.0000 0.0000 0.0000
# 4 0.0000 0.0000 0.0000 26.3974 0.0000 0.0000
# 5 0.0000 0.0000 0.0000 0.0000 27.7461 0.0000
# 6 0.0000 0.0000 0.0000 0.0000 0.0000 34.4037
#
#
#
# Elastic Compliance Matrix: (Units=1/GPa)
#
#
# Indices 1 2 3 4 5 6 
#
# 1 0.010549 -0.001398 -0.000488 0.000000 0.000000 0.000000
# 2 -0.001398 0.012057 -0.002592 0.000000 0.000000 0.000000
# 3 -0.000488 -0.002592 0.013825 0.000000 0.000000 0.000000
# 4 0.000000 0.000000 0.000000 0.037882 0.000000 0.000000
# 5 0.000000 0.000000 0.000000 0.000000 0.036041 0.000000
# 6 0.000000 0.000000 0.000000 0.000000 0.000000 0.029067
#
#
# Mechanical properties :
#
#
# Convention : Reuss Voigt Hill
#
# Bulk Modulus (GPa) = 36.39624 36.74706 36.57165
# Shear Modulus (GPa) = 31.73875 32.72991 32.23433
#
# Velocity S-wave (km/s) = 3.97065 4.03217 4.00153
# Velocity P-wave (km/s) = 6.25309 6.31916 6.28621
#
# Compressibility (1/GPa) = 0.02747537
#
# Stress axis : x y z
#
# Youngs Moduli (GPa) = 94.79699 82.93755 72.33113
#
# Poissons Ratio (x) = 0.11592 0.03532
# Poissons Ratio (y) = 0.13249 0.18749
# Poissons Ratio (z) = 0.04629 0.21498
#
# Static dielectric constant tensor:
#      x y z
#    x 4.071050 0.000000 0.000000 
#    y 0.000000 3.913600 0.000000 
#    z 0.000000 0.000000 3.344010 
# 
# 
# High freq. dielectric constant tensor:
#      x y z
#    x 1.802960 0.000000 0.000000 
#    y 0.000000 1.773590 0.000000 
#    z 0.000000 0.000000 1.785750 
# 
# From -- ./inp_files/15060.got.cif
#   From: 2010.03.12/outbox.cif.g09.slc.cpg/sg60_8_cif.got.tgz:15060.got - 2010.04.10 18:46:24.
