data_PCOD8247407
_publ_section_title
;
Structure prediction by ZEFSAII (Michael W. Deem and Ramdas Pophale) SiO2 
 PCOD8247407
Probable space group: P B C N
;
_chemical_formula_sum "Si O2"
_cell_formula_units_Z 64
_cell_length_a 9.377326
_cell_length_b 20.230383
_cell_length_c 14.940621
_cell_angle_alpha 90.000000
_cell_angle_beta 90.000000
_cell_angle_gamma 90.000000
_cell_volume 2834.338842
_symmetry_space_group_name_H-M "P B C N"
_symmetry_group_IT_number 60
_symmetry_cell_setting 'orthorhombic'
loop_
_space_group_symop_operation_xyz
x,y,z
1/2-x,1/2-y,1/2+z
1/2+x,1/2-y,-z
-x,y,1/2-z
-x,-y,-z
1/2+x,1/2+y,1/2-z
1/2-x,1/2+y,z
x,-y,1/2+z
loop_
_atom_site_type_symbol
_atom_site_label
_atom_site_fract_x
_atom_site_fract_y
_atom_site_fract_z
Si Si1 0.001117 0.136243 0.144836
Si Si2 0.667220 0.807541 0.254713
Si Si3 0.276644 0.469815 0.874575
Si Si4 0.715166 0.741094 0.074269
Si Si5 0.338288 0.957076 0.216614
Si Si6 0.782043 0.302312 0.884207
Si Si7 0.359926 0.967255 0.534691
Si Si8 0.046714 0.640348 0.398111
O O1 0.928477 0.066742 0.118785
O O2 0.919014 0.194961 0.095648
O O3 0.000000 0.149172 0.250000
O O4 0.166257 0.137073 0.112931
O O5 0.500000 0.799035 0.250000
O O6 0.738106 0.791390 0.157919
O O7 0.704851 0.880397 0.291314
O O8 0.720366 0.757645 0.328990
O O9 0.274458 0.513780 0.786669
O O10 0.146674 0.416899 0.859436
O O11 0.261373 0.517486 0.960736
O O12 0.855386 0.695810 0.056065
O O13 0.681454 0.780091 0.984796
O O14 0.500000 0.965225 0.250000
O O15 0.312533 0.997258 0.126009
O O16 0.931260 0.323231 0.832851
O O17 0.500000 0.000000 0.500000
O O18 0.415126 0.891184 0.540281
#
# Coordination Sequence:
#
# PCOD8247407 Si02
#       8
#     8   8   8   8   8   8   8   8
#     4  11  23  45  67  95 138 183 227 275 345 418
#     4  11  25  42  66  97 142 179 224 274 354 421
#     4  10  24  42  70  98 133 174 234 289 335 404
#     4  11  23  42  66 101 134 177 227 279 339 411
#     4  11  22  37  67  98 134 180 224 288 345 402
#     4  12  24  40  69  98 134 180 219 279 350 408
#     4  10  21  39  63 104 128 166 226 287 336 381
#     4  10  24  37  71  96 132 160 238 281 327 386
#
# _framework density 22.580221999999999
#
# number of rings (size 3 to 8) (size 9 to 14) (size 15 to 20)
#    0.000    1.250    5.000    0.750    8.750    1.500 
#    0.000    0.625    2.750    0.000    0.000    0.000 
#    0.000    0.000    0.000    0.000    0.000    0.000 
#
# Total GULP energy -792871.034016 kJ/mol
# GULP energy per Si atom -12388.609906 kJ/mol
# Density = 2.252883 g / cm^3
# Si number density = 22.580222 Si / 1000 Ang^3
#
#
#
# Elastic Constant Matrix: (Units=GPa)
#
#
# Indices 1 2 3 4 5 6 
#
# 1 97.1675 26.0905 15.3144 0.0000 0.0000 0.0000
# 2 26.0905 102.1357 32.4073 0.0000 0.0000 0.0000
# 3 15.3144 32.4073 134.6738 0.0000 0.0000 0.0000
# 4 0.0000 0.0000 0.0000 15.7964 0.0000 0.0000
# 5 0.0000 0.0000 0.0000 0.0000 22.5824 0.0000
# 6 0.0000 0.0000 0.0000 0.0000 0.0000 28.5318
#
#
#
# Elastic Compliance Matrix: (Units=1/GPa)
#
#
# Indices 1 2 3 4 5 6 
#
# 1 0.011098 -0.002636 -0.000628 0.000000 0.000000 0.000000
# 2 -0.002636 0.011226 -0.002402 0.000000 0.000000 0.000000
# 3 -0.000628 -0.002402 0.008075 0.000000 0.000000 0.000000
# 4 0.000000 0.000000 0.000000 0.063306 0.000000 0.000000
# 5 0.000000 0.000000 0.000000 0.000000 0.044282 0.000000
# 6 0.000000 0.000000 0.000000 0.000000 0.000000 0.035049
#
#
# Mechanical properties :
#
#
# Convention : Reuss Voigt Hill
#
# Bulk Modulus (GPa) = 52.44241 53.51127 52.97684
# Shear Modulus (GPa) = 26.21611 30.72645 28.47128
#
# Velocity S-wave (km/s) = 3.41107 3.69286 3.55476
# Velocity P-wave (km/s) = 6.22810 6.47555 6.35303
#
# Compressibility (1/GPa) = 0.01906854
#
# Stress axis : x y z
#
# Youngs Moduli (GPa) = 90.10476 89.07671 123.84402
#
# Poissons Ratio (x) = 0.23479 0.07774
# Poissons Ratio (y) = 0.23750 0.29744
# Poissons Ratio (z) = 0.05656 0.21394
#
# Static dielectric constant tensor:
#      x y z
#    x 4.990900 0.000000 0.000000 
#    y 0.000000 13.944220 0.000000 
#    z 0.000000 0.000000 1.486520 
# 
# 
# High freq. dielectric constant tensor:
#      x y z
#    x 1.885680 0.000000 0.000000 
#    y 0.000000 1.907040 0.000000 
#    z 0.000000 0.000000 1.877510 
# 
# From -- ./inp_files/15408.got.cif
#   From: 2010.03.12/outbox.cif.g09.slc.cpg/sg60_8_cif.got.tgz:15408.got - 2010.04.10 18:46:24.
