data_PCOD8247287
_publ_section_title
;
Structure prediction by ZEFSAII (Michael W. Deem and Ramdas Pophale) SiO2 
 PCOD8247287
Probable space group: P B C N
;
_chemical_formula_sum "Si O2"
_cell_formula_units_Z 40
_cell_length_a 24.418473
_cell_length_b 9.511179
_cell_length_c 8.666880
_cell_angle_alpha 90.000000
_cell_angle_beta 90.000000
_cell_angle_gamma 90.000000
_cell_volume 2012.869599
_symmetry_space_group_name_H-M "P B C N"
_symmetry_group_IT_number 60
_symmetry_cell_setting 'orthorhombic'
loop_
_space_group_symop_operation_xyz
x,y,z
1/2-x,1/2-y,1/2+z
1/2+x,1/2-y,-z
-x,y,1/2-z
-x,-y,-z
1/2+x,1/2+y,1/2-z
1/2-x,1/2+y,z
x,-y,1/2+z
loop_
_atom_site_type_symbol
_atom_site_label
_atom_site_fract_x
_atom_site_fract_y
_atom_site_fract_z
Si Si1 0.081487 0.854007 0.414950
Si Si2 0.705809 0.676465 0.545934
Si Si3 0.216785 0.111162 0.606138
Si Si4 0.493486 0.153530 0.931392
Si Si5 0.092944 0.846641 0.059692
O O1 0.141299 0.792889 0.452925
O O2 0.038456 0.756223 0.498684
O O3 0.070353 0.853877 0.233030
O O4 0.074762 0.012654 0.472645
O O5 0.719607 0.554675 0.424047
O O6 0.735830 0.816777 0.492586
O O7 0.727210 0.631849 0.713532
O O8 0.158272 0.173449 0.553641
O O9 0.500000 0.144791 0.750000
O O10 0.433459 0.213371 0.973225
O O11 0.500000 0.000000 0.000000
#
# Coordination Sequence:
#
# PCOD8247287 Si02
#       5
#     8   8   8   8   8
#     4  10  21  39  61  85 113 149 190 231 277 334
#     4  10  21  37  59  85 115 150 189 232 279 331
#     4  10  21  37  59  85 115 150 189 232 279 331
#     4  12  25  40  59  84 114 148 186 234 285 334
#     4  10  21  39  61  85 113 149 190 231 277 334
#
# _framework density 19.872126999999999
#
# number of rings (size 3 to 8) (size 9 to 14) (size 15 to 20)
#    0.000    1.600    0.000    4.800    0.000    6.400 
#    0.000    0.000    0.000    0.000    0.000    0.000 
#    0.000    0.000    0.000    0.000    0.000    0.000 
#
# Total GULP energy -496242.224090 kJ/mol
# GULP energy per Si atom -12406.055602 kJ/mol
# Density = 1.982690 g / cm^3
# Si number density = 19.872127 Si / 1000 Ang^3
#
#
#
# Elastic Constant Matrix: (Units=GPa)
#
#
# Indices 1 2 3 4 5 6 
#
# 1 65.2780 26.6155 18.7635 0.0000 0.0000 0.0000
# 2 26.6155 68.2610 13.0596 0.0000 0.0000 0.0000
# 3 18.7635 13.0596 105.4831 0.0000 0.0000 0.0000
# 4 0.0000 0.0000 0.0000 46.5144 0.0000 0.0000
# 5 0.0000 0.0000 0.0000 0.0000 32.8829 0.0000
# 6 0.0000 0.0000 0.0000 0.0000 0.0000 61.2712
#
#
#
# Elastic Compliance Matrix: (Units=1/GPa)
#
#
# Indices 1 2 3 4 5 6 
#
# 1 0.018838 -0.006866 -0.002501 0.000000 0.000000 0.000000
# 2 -0.006866 0.017508 -0.000946 0.000000 0.000000 0.000000
# 3 -0.002501 -0.000946 0.010042 0.000000 0.000000 0.000000
# 4 0.000000 0.000000 0.000000 0.021499 0.000000 0.000000
# 5 0.000000 0.000000 0.000000 0.000000 0.030411 0.000000
# 6 0.000000 0.000000 0.000000 0.000000 0.000000 0.016321
#
#
# Mechanical properties :
#
#
# Convention : Reuss Voigt Hill
#
# Bulk Modulus (GPa) = 38.81853 39.54435 39.18144
# Shear Modulus (GPa) = 34.76279 40.17260 37.46769
#
# Velocity S-wave (km/s) = 4.18703 4.50105 4.34688
# Velocity P-wave (km/s) = 6.55374 6.85239 6.70473
#
# Compressibility (1/GPa) = 0.02576089
#
# Stress axis : x y z
#
# Youngs Moduli (GPa) = 53.08549 57.11689 99.58001
#
# Poissons Ratio (x) = 0.39219 0.24902
# Poissons Ratio (y) = 0.36451 0.09422
# Poissons Ratio (z) = 0.13275 0.05404
#
# Static dielectric constant tensor:
#      x y z
#    x 3.703450 0.000000 0.000000 
#    y 0.000000 3.577630 0.000000 
#    z 0.000000 0.000000 3.793380 
# 
# 
# High freq. dielectric constant tensor:
#      x y z
#    x 1.782000 0.000000 0.000000 
#    y 0.000000 1.769500 0.000000 
#    z 0.000000 0.000000 1.794520 
# 
# From -- ./inp_files/7714.got.cif
#   From: 2010.03.12/outbox.cif.g09.slc.cpg/sg60_4_cif.got.tgz:7714.got - 2010.04.10 18:46:24.
