data_PCOD8247063
_publ_section_title
;
Structure prediction by ZEFSAII (Michael W. Deem and Ramdas Pophale) SiO2 
 PCOD8247063
Probable space group: P B C N
;
_chemical_formula_sum "Si O2"
_cell_formula_units_Z 64
_cell_length_a 7.963228
_cell_length_b 16.035788
_cell_length_c 24.067315
_cell_angle_alpha 90.000000
_cell_angle_beta 90.000000
_cell_angle_gamma 90.000000
_cell_volume 3073.315163
_symmetry_space_group_name_H-M "P B C N"
_symmetry_group_IT_number 60
_symmetry_cell_setting 'orthorhombic'
loop_
_space_group_symop_operation_xyz
x,y,z
1/2-x,1/2-y,1/2+z
1/2+x,1/2-y,-z
-x,y,1/2-z
-x,-y,-z
1/2+x,1/2+y,1/2-z
1/2-x,1/2+y,z
x,-y,1/2+z
loop_
_atom_site_type_symbol
_atom_site_label
_atom_site_fract_x
_atom_site_fract_y
_atom_site_fract_z
Si Si1 0.283739 0.711477 0.592797
Si Si2 0.331467 0.680842 0.925497
Si Si3 0.842278 0.654964 0.017591
Si Si4 0.191582 0.981488 0.496520
Si Si5 0.807008 0.096707 0.808460
Si Si6 0.999855 0.526230 0.312426
Si Si7 0.188631 0.093965 0.816068
Si Si8 0.358815 0.112003 0.086207
O O1 0.468253 0.689216 0.569789
O O2 0.156270 0.671897 0.548331
O O3 0.256016 0.673488 0.653234
O O4 0.240619 0.809482 0.601005
O O5 0.251586 0.767205 0.949710
O O6 0.270482 0.600020 0.959730
O O7 0.277289 0.666839 0.861180
O O8 0.768636 0.563648 0.031660
O O9 0.032977 0.649166 0.035839
O O10 0.258363 0.966476 0.560086
O O11 0.000000 0.000000 0.500000
O O12 0.793112 0.131525 0.745593
O O13 0.994912 0.060976 0.822385
O O14 0.669345 0.026696 0.818489
O O15 0.977887 0.594465 0.360643
O O16 0.000000 0.565053 0.250000
O O17 0.174690 0.478999 0.324256
#
# Coordination Sequence:
#
# PCOD8247063 Si02
#       8
#     8   8   8   8   8   8   8   8
#     4  10  20  39  60  88 125 166 209 260 325 381
#     4  10  21  38  59  90 129 159 212 257 311 389
#     4  11  22  39  60  89 126 167 207 261 322 388
#     4  12  23  38  61  89 128 167 209 255 325 388
#     4   9  19  38  67  91 120 164 213 262 321 384
#     4  10  21  41  65  96 126 165 217 270 324 390
#     4   9  19  38  64  94 120 164 211 265 319 385
#     4  11  24  40  59  94 130 165 215 268 327 387
#
# _framework density 20.824417
#
# number of rings (size 3 to 8) (size 9 to 14) (size 15 to 20)
#    0.000    1.750    2.500    1.875    1.750    1.000 
#    9.000    0.000    0.000    0.000    9.750    0.000 
#    0.000    0.000    0.000    0.000    0.000    0.000 
#
# Total GULP energy -792989.952627 kJ/mol
# GULP energy per Si atom -12390.468010 kJ/mol
# Density = 2.077702 g / cm^3
# Si number density = 20.824417 Si / 1000 Ang^3
#
#
#
# Elastic Constant Matrix: (Units=GPa)
#
#
# Indices 1 2 3 4 5 6 
#
# 1 65.9969 25.3593 41.4292 0.0000 0.0000 0.0000
# 2 25.3593 126.8710 56.6318 0.0000 0.0000 0.0000
# 3 41.4292 56.6318 140.7382 0.0000 0.0000 0.0000
# 4 0.0000 0.0000 0.0000 30.4724 0.0000 0.0000
# 5 0.0000 0.0000 0.0000 0.0000 29.1392 0.0000
# 6 0.0000 0.0000 0.0000 0.0000 0.0000 22.5969
#
#
#
# Elastic Compliance Matrix: (Units=1/GPa)
#
#
# Indices 1 2 3 4 5 6 
#
# 1 0.018841 -0.001573 -0.004913 0.000000 0.000000 0.000000
# 2 -0.001573 0.009739 -0.003456 0.000000 0.000000 0.000000
# 3 -0.004913 -0.003456 0.009942 0.000000 0.000000 0.000000
# 4 0.000000 0.000000 0.000000 0.032817 0.000000 0.000000
# 5 0.000000 0.000000 0.000000 0.000000 0.034318 0.000000
# 6 0.000000 0.000000 0.000000 0.000000 0.000000 0.044254
#
#
# Mechanical properties :
#
#
# Convention : Reuss Voigt Hill
#
# Bulk Modulus (GPa) = 53.65321 64.49407 59.07364
# Shear Modulus (GPa) = 28.40787 30.45408 29.43097
#
# Velocity S-wave (km/s) = 3.69746 3.82831 3.76346
# Velocity P-wave (km/s) = 6.63693 7.11189 6.87851
#
# Compressibility (1/GPa) = 0.01863822
#
# Stress axis : x y z
#
# Youngs Moduli (GPa) = 53.07605 102.67972 100.57977
#
# Poissons Ratio (x) = 0.16149 0.49418
# Poissons Ratio (y) = 0.08348 0.34759
# Poissons Ratio (z) = 0.26078 0.35485
#
# Static dielectric constant tensor:
#      x y z
#    x 3.605770 0.000000 0.000000 
#    y 0.000000 3.259720 0.000000 
#    z 0.000000 0.000000 4.253140 
# 
# 
# High freq. dielectric constant tensor:
#      x y z
#    x 1.807100 0.000000 0.000000 
#    y 0.000000 1.798520 0.000000 
#    z 0.000000 0.000000 1.827710 
# 
# From -- ./inp_files/24090.got.cif
#   From: 2010.03.12/outbox.cif.g09.slc.cpg/sg60_13_cif.got.tgz:24090.got - 2010.04.10 18:46:24.
