data_PCOD8247973
_publ_section_title
;
Structure prediction by ZEFSAII (Michael W. Deem and Ramdas Pophale) SiO2 
 PCOD8247973
Probable space group: P B C N
;
_chemical_formula_sum "Si O2"
_cell_formula_units_Z 60
_cell_length_a 27.114653
_cell_length_b 17.043135
_cell_length_c 5.203080
_cell_angle_alpha 90.000000
_cell_angle_beta 90.000000
_cell_angle_gamma 90.000000
_cell_volume 2404.440522
_symmetry_space_group_name_H-M "P B C N"
_symmetry_group_IT_number 60
_symmetry_cell_setting 'orthorhombic'
loop_
_space_group_symop_operation_xyz
x,y,z
1/2-x,1/2-y,1/2+z
1/2+x,1/2-y,-z
-x,y,1/2-z
-x,-y,-z
1/2+x,1/2+y,1/2-z
1/2-x,1/2+y,z
x,-y,1/2+z
loop_
_atom_site_type_symbol
_atom_site_label
_atom_site_fract_x
_atom_site_fract_y
_atom_site_fract_z
Si Si1 0.264703 0.842302 0.631115
Si Si2 0.942585 0.550941 0.958995
Si Si3 0.282642 0.453904 0.290923
Si Si4 0.896171 0.049888 0.666007
Si Si5 0.849282 0.349225 0.510677
Si Si6 0.589449 0.283074 0.298841
Si Si7 0.822754 0.226644 0.122170
Si Si8 0.500000 0.821845 0.750000
O O1 0.257536 0.887948 0.362027
O O2 0.304491 0.884026 0.818169
O O3 0.207607 0.840352 0.731143
O O4 0.284795 0.752592 0.606287
O O5 0.953301 0.483506 0.173822
O O6 0.885974 0.578024 0.967628
O O7 0.977639 0.625219 0.020438
O O8 0.272712 0.523743 0.496026
O O9 0.338849 0.425904 0.322442
O O10 0.924778 0.134088 0.665028
O O11 0.911201 0.003857 0.408491
O O12 0.876899 0.274042 0.631208
O O13 0.829739 0.313083 0.246331
O O14 0.623650 0.306721 0.544750
O O15 0.540861 0.234717 0.380391
#
# Coordination Sequence:
#
# PCOD8247973 Si02
#       8
#     8   8   8   8   8   8   8   4
#     4  11  23  37  61  93 133 180 239 291 348 421
#     4  11  26  48  76 107 150 192 238 309 375 442
#     4  10  24  38  59  89 128 179 227 276 335 419
#     4  10  23  42  67 100 137 179 224 284 362 431
#     4  10  24  41  65  99 138 188 244 292 366 430
#     4  10  24  44  72 100 139 184 242 311 360 447
#     4  11  23  40  64  95 136 185 237 303 357 423
#     4  10  24  52  76 112 138 190 258 302 384 454
#
# _framework density 24.95383
#
# number of rings (size 3 to 8) (size 9 to 14) (size 15 to 20)
#    0.000    1.600    1.333    1.200   16.800    1.067 
#    2.400    0.667    0.000    0.000    0.000    0.000 
#    0.000    0.000    0.000    0.000    0.000    0.000 
#
# Total GULP energy -743476.209364 kJ/mol
# GULP energy per Si atom -12391.270156 kJ/mol
# Density = 2.489703 g / cm^3
# Si number density = 24.953830 Si / 1000 Ang^3
#
#
#
# Elastic Constant Matrix: (Units=GPa)
#
#
# Indices 1 2 3 4 5 6 
#
# 1 104.2709 46.6084 16.8053 0.0000 0.0000 0.0000
# 2 46.6084 104.6612 21.8051 0.0000 0.0000 0.0000
# 3 16.8053 21.8051 77.2810 0.0000 0.0000 0.0000
# 4 0.0000 0.0000 0.0000 32.5365 0.0000 0.0000
# 5 0.0000 0.0000 0.0000 0.0000 22.0431 0.0000
# 6 0.0000 0.0000 0.0000 0.0000 0.0000 43.6156
#
#
#
# Elastic Compliance Matrix: (Units=1/GPa)
#
#
# Indices 1 2 3 4 5 6 
#
# 1 0.012074 -0.005131 -0.001178 0.000000 0.000000 0.000000
# 2 -0.005131 0.012332 -0.002364 0.000000 0.000000 0.000000
# 3 -0.001178 -0.002364 0.013863 0.000000 0.000000 0.000000
# 4 0.000000 0.000000 0.000000 0.030735 0.000000 0.000000
# 5 0.000000 0.000000 0.000000 0.000000 0.045366 0.000000
# 6 0.000000 0.000000 0.000000 0.000000 0.000000 0.022928
#
#
# Mechanical properties :
#
#
# Convention : Reuss Voigt Hill
#
# Bulk Modulus (GPa) = 47.79373 50.73897 49.26635
# Shear Modulus (GPa) = 30.93729 33.03866 31.98798
#
# Velocity S-wave (km/s) = 3.52487 3.64262 3.58423
# Velocity P-wave (km/s) = 5.98003 6.16999 6.07575
#
# Compressibility (1/GPa) = 0.02092324
#
# Stress axis : x y z
#
# Youngs Moduli (GPa) = 82.82293 81.08793 72.13541
#
# Poissons Ratio (x) = 0.41610 0.08495
# Poissons Ratio (y) = 0.42501 0.17051
# Poissons Ratio (z) = 0.09754 0.19167
#
# Static dielectric constant tensor:
#      x y z
#    x 4.518550 0.000000 0.000000 
#    y 0.000000 4.286650 0.000000 
#    z 0.000000 0.000000 4.519170 
# 
# 
# High freq. dielectric constant tensor:
#      x y z
#    x 1.983540 0.000000 0.000000 
#    y 0.000000 1.995300 0.000000 
#    z 0.000000 0.000000 1.987380 
# 
# From -- ./inp_files/2609.got.cif
#   From: 2010.03.12/outbox.cif.g09.slc.cpg/sg60_2_cif.got.tgz:2609.got - 2010.04.10 18:46:24.
