data_PCOD8247183
_publ_section_title
;
Structure prediction by ZEFSAII (Michael W. Deem and Ramdas Pophale) SiO2 
 PCOD8247183
Probable space group: P B C N
;
_chemical_formula_sum "Si O2"
_cell_formula_units_Z 48
_cell_length_a 23.205693
_cell_length_b 7.918588
_cell_length_c 11.502690
_cell_angle_alpha 90.000000
_cell_angle_beta 90.000000
_cell_angle_gamma 90.000000
_cell_volume 2113.692009
_symmetry_space_group_name_H-M "P B C N"
_symmetry_group_IT_number 60
_symmetry_cell_setting 'orthorhombic'
loop_
_space_group_symop_operation_xyz
x,y,z
1/2-x,1/2-y,1/2+z
1/2+x,1/2-y,-z
-x,y,1/2-z
-x,-y,-z
1/2+x,1/2+y,1/2-z
1/2-x,1/2+y,z
x,-y,1/2+z
loop_
_atom_site_type_symbol
_atom_site_label
_atom_site_fract_x
_atom_site_fract_y
_atom_site_fract_z
Si Si1 0.631152 0.361651 0.250358
Si Si2 0.444647 0.674407 0.529031
Si Si3 0.070394 0.791404 0.470625
Si Si4 0.151131 0.777125 0.864957
Si Si5 0.332026 0.836480 0.126637
Si Si6 0.283971 0.195126 0.079809
O O1 0.579235 0.349440 0.341757
O O2 0.609311 0.248623 0.141877
O O3 0.643738 0.549839 0.206594
O O4 0.689151 0.290267 0.308451
O O5 0.504879 0.778820 0.532124
O O6 0.443680 0.490201 0.471365
O O7 0.403342 0.782092 0.443480
O O8 0.105312 0.720629 0.580644
O O9 0.162443 0.636972 0.765824
O O10 0.203425 0.790927 0.957641
O O11 0.285014 0.690777 0.096851
O O12 0.309610 0.008075 0.069706
#
# Coordination Sequence:
#
# PCOD8247183 Si02
#       6
#     8   8   8   8   8   8
#     4  10  20  42  68  98 134 175 221 271 337 397
#     4   9  19  40  67 103 128 171 220 274 331 395
#     4  10  21  36  69 100 133 168 225 275 326 403
#     4  10  23  43  68  94 138 173 224 281 334 410
#     4  12  26  43  65  98 133 185 227 280 348 390
#     4  11  28  42  67  97 139 180 229 281 338 411
#
# _framework density 22.70908
#
# number of rings (size 3 to 8) (size 9 to 14) (size 15 to 20)
#    0.000    1.667    1.667    1.500    9.333    0.667 
#    0.000    3.333    7.333    0.000    0.000    0.000 
#    0.000    0.000    0.000    0.000    0.000    0.000 
#
# Total GULP energy -594922.185614 kJ/mol
# GULP energy per Si atom -12394.212200 kJ/mol
# Density = 2.265739 g / cm^3
# Si number density = 22.709080 Si / 1000 Ang^3
#
#
#
# Elastic Constant Matrix: (Units=GPa)
#
#
# Indices 1 2 3 4 5 6 
#
# 1 86.8366 26.0305 41.0720 0.0000 0.0000 0.0000
# 2 26.0305 49.2111 17.9672 0.0000 0.0000 0.0000
# 3 41.0720 17.9672 156.4819 0.0000 0.0000 0.0000
# 4 0.0000 0.0000 0.0000 26.5184 0.0000 0.0000
# 5 0.0000 0.0000 0.0000 0.0000 25.2895 0.0000
# 6 0.0000 0.0000 0.0000 0.0000 0.0000 26.6679
#
#
#
# Elastic Compliance Matrix: (Units=1/GPa)
#
#
# Indices 1 2 3 4 5 6 
#
# 1 0.015056 -0.006806 -0.003170 0.000000 0.000000 0.000000
# 2 -0.006806 0.024287 -0.001002 0.000000 0.000000 0.000000
# 3 -0.003170 -0.001002 0.007338 0.000000 0.000000 0.000000
# 4 0.000000 0.000000 0.000000 0.037710 0.000000 0.000000
# 5 0.000000 0.000000 0.000000 0.000000 0.039542 0.000000
# 6 0.000000 0.000000 0.000000 0.000000 0.000000 0.037498
#
#
# Mechanical properties :
#
#
# Convention : Reuss Voigt Hill
#
# Bulk Modulus (GPa) = 40.44851 51.40764 45.92808
# Shear Modulus (GPa) = 26.09219 29.52581 27.80900
#
# Velocity S-wave (km/s) = 3.39333 3.60971 3.50319
# Velocity P-wave (km/s) = 5.76222 6.32929 6.05240
#
# Compressibility (1/GPa) = 0.02472279
#
# Stress axis : x y z
#
# Youngs Moduli (GPa) = 66.42051 41.17478 136.28337
#
# Poissons Ratio (x) = 0.28025 0.43204
# Poissons Ratio (y) = 0.45208 0.13657
# Poissons Ratio (z) = 0.21056 0.04126
#
# Static dielectric constant tensor:
#      x y z
#    x 4.435650 0.000000 0.000000 
#    y 0.000000 3.656190 0.000000 
#    z 0.000000 0.000000 4.344570 
# 
# 
# High freq. dielectric constant tensor:
#      x y z
#    x 1.902050 0.000000 0.000000 
#    y 0.000000 1.860600 0.000000 
#    z 0.000000 0.000000 1.911350 
# 
# From -- ./inp_files/13071.got.cif
#   From: 2010.03.12/outbox.cif.g09.slc.cpg/sg60_7_cif.got.tgz:13071.got - 2010.04.10 18:46:24.
