data_PCOD8247409
_publ_section_title
;
Structure prediction by ZEFSAII (Michael W. Deem and Ramdas Pophale) SiO2 
 PCOD8247409
Probable space group: P B C N
;
_chemical_formula_sum "Si O2"
_cell_formula_units_Z 44
_cell_length_a 7.331399
_cell_length_b 31.111596
_cell_length_c 8.959294
_cell_angle_alpha 90.000000
_cell_angle_beta 90.000000
_cell_angle_gamma 90.000000
_cell_volume 2043.539021
_symmetry_space_group_name_H-M "P B C N"
_symmetry_group_IT_number 60
_symmetry_cell_setting 'orthorhombic'
loop_
_space_group_symop_operation_xyz
x,y,z
1/2-x,1/2-y,1/2+z
1/2+x,1/2-y,-z
-x,y,1/2-z
-x,-y,-z
1/2+x,1/2+y,1/2-z
1/2-x,1/2+y,z
x,-y,1/2+z
loop_
_atom_site_type_symbol
_atom_site_label
_atom_site_fract_x
_atom_site_fract_y
_atom_site_fract_z
Si Si1 0.000000 0.000449 0.250000
Si Si2 0.245766 0.702099 0.608226
Si Si3 0.728331 0.882290 0.565208
Si Si4 0.172798 0.714822 0.929271
Si Si5 0.693136 0.130823 0.407073
Si Si6 0.442678 0.439438 0.502441
O O1 0.108075 0.968580 0.360022
O O2 0.120557 0.032013 0.145694
O O3 0.303024 0.655948 0.541321
O O4 0.304586 0.709635 0.782625
O O5 0.325922 0.737956 0.498910
O O6 0.030681 0.704706 0.614693
O O7 0.509370 0.886661 0.555243
O O8 0.764265 0.872522 0.738488
O O9 0.841881 0.925205 0.516893
O O10 0.230137 0.680328 0.053581
O O11 0.822407 0.102768 0.512051
#
# Coordination Sequence:
#
# PCOD8247409 Si02
#       6
#     4   8   8   8   8   8
#     4  10  24  42  66  94 124 152 208 258 310 374
#     4  10  22  38  57  86 122 157 204 250 293 355
#     4  10  21  39  63  89 121 164 203 245 305 364
#     4  10  22  38  57  86 122 157 204 250 293 355
#     4  10  21  39  63  89 121 164 203 245 305 364
#     4  11  22  44  64  92 126 160 198 260 310 365
#
# _framework density 21.531275000000001
#
# number of rings (size 3 to 8) (size 9 to 14) (size 15 to 20)
#    0.000    1.818    1.818    1.091    5.091    2.182 
#    0.000    5.455    0.000    0.000    0.000    0.000 
#    0.000    0.000    0.000    0.000    0.000    0.000 
#
# Total GULP energy -545125.519636 kJ/mol
# GULP energy per Si atom -12389.216355 kJ/mol
# Density = 2.148227 g / cm^3
# Si number density = 21.531275 Si / 1000 Ang^3
#
#
#
# Elastic Constant Matrix: (Units=GPa)
#
#
# Indices 1 2 3 4 5 6 
#
# 1 44.8618 20.1640 9.5478 0.0000 0.0000 0.0000
# 2 20.1640 101.4650 39.8182 0.0000 0.0000 0.0000
# 3 9.5478 39.8182 109.9556 0.0000 0.0000 0.0000
# 4 0.0000 0.0000 0.0000 20.6756 0.0000 0.0000
# 5 0.0000 0.0000 0.0000 0.0000 13.3253 0.0000
# 6 0.0000 0.0000 0.0000 0.0000 0.0000 7.0178
#
#
#
# Elastic Compliance Matrix: (Units=1/GPa)
#
#
# Indices 1 2 3 4 5 6 
#
# 1 0.024494 -0.004701 -0.000425 0.000000 0.000000 0.000000
# 2 -0.004701 0.012390 -0.004079 0.000000 0.000000 0.000000
# 3 -0.000425 -0.004079 0.010608 0.000000 0.000000 0.000000
# 4 0.000000 0.000000 0.000000 0.048366 0.000000 0.000000
# 5 0.000000 0.000000 0.000000 0.000000 0.075045 0.000000
# 6 0.000000 0.000000 0.000000 0.000000 0.000000 0.142494
#
#
# Mechanical properties :
#
#
# Convention : Reuss Voigt Hill
#
# Bulk Modulus (GPa) = 34.38276 43.92694 39.15485
# Shear Modulus (GPa) = 14.64123 20.65392 17.64757
#
# Velocity S-wave (km/s) = 2.61051 3.10054 2.86602
# Velocity P-wave (km/s) = 5.00897 5.76746 5.40154
#
# Compressibility (1/GPa) = 0.02908434
#
# Stress axis : x y z
#
# Youngs Moduli (GPa) = 40.82627 80.70708 94.26424
#
# Poissons Ratio (x) = 0.37941 0.04002
# Poissons Ratio (y) = 0.19193 0.38448
# Poissons Ratio (z) = 0.01733 0.32918
#
# Static dielectric constant tensor:
#      x y z
#    x 3.652970 0.000000 0.000000 
#    y 0.000000 4.151580 0.000000 
#    z 0.000000 0.000000 4.280620 
# 
# 
# High freq. dielectric constant tensor:
#      x y z
#    x 1.817930 0.000000 0.000000 
#    y 0.000000 1.850790 0.000000 
#    z 0.000000 0.000000 1.859710 
# 
# From -- ./inp_files/4108.got.cif
#   From: 2010.03.12/outbox.cif.g09.slc.cpg/sg60_3_cif.got.tgz:4108.got - 2010.04.10 18:46:24.
