data_PCOD8247404
_publ_section_title
;
Structure prediction by ZEFSAII (Michael W. Deem and Ramdas Pophale) SiO2 
 PCOD8247404
Probable space group: P B C N
;
_chemical_formula_sum "Si O2"
_cell_formula_units_Z 64
_cell_length_a 12.178810
_cell_length_b 9.709670
_cell_length_c 22.353957
_cell_angle_alpha 90.000000
_cell_angle_beta 90.000000
_cell_angle_gamma 90.000000
_cell_volume 2643.405177
_symmetry_space_group_name_H-M "P B C N"
_symmetry_group_IT_number 60
_symmetry_cell_setting 'orthorhombic'
loop_
_space_group_symop_operation_xyz
x,y,z
1/2-x,1/2-y,1/2+z
1/2+x,1/2-y,-z
-x,y,1/2-z
-x,-y,-z
1/2+x,1/2+y,1/2-z
1/2-x,1/2+y,z
x,-y,1/2+z
loop_
_atom_site_type_symbol
_atom_site_label
_atom_site_fract_x
_atom_site_fract_y
_atom_site_fract_z
Si Si1 0.383156 0.035178 0.217663
Si Si2 0.094327 0.798627 0.003581
Si Si3 0.688273 0.665291 0.776056
Si Si4 0.404348 0.525725 0.612641
Si Si5 0.818011 0.568423 0.409041
Si Si6 0.735482 0.806218 0.601600
Si Si7 0.591019 0.884665 0.498823
Si Si8 0.640044 0.531425 0.659537
O O1 0.500000 0.020068 0.250000
O O2 0.318375 0.172711 0.240216
O O3 0.402049 0.051674 0.146350
O O4 0.312007 0.896413 0.229274
O O5 0.087079 0.936895 0.042396
O O6 0.149384 0.690671 0.048480
O O7 0.162899 0.800121 0.943606
O O8 0.969676 0.759338 0.984344
O O9 0.635174 0.647387 0.841975
O O10 0.618062 0.578931 0.727304
O O11 0.306957 0.411101 0.616503
O O12 0.524979 0.477524 0.632226
O O13 0.819750 0.424691 0.448095
O O14 0.638377 0.879402 0.565560
O O15 0.694607 0.658411 0.623522
O O16 0.773898 0.904338 0.656199
O O17 0.500000 0.000000 0.500000
#
# Coordination Sequence:
#
# PCOD8247404 Si02
#       8
#     8   8   8   8   8   8   8   8
#     4  11  24  45  74 103 138 185 235 288 354 413
#     4  11  22  40  66  96 133 175 226 278 348 404
#     4  11  25  45  73 105 136 183 238 288 344 420
#     4  11  22  42  70  96 131 181 226 287 339 401
#     4  10  22  41  67  98 136 172 231 282 340 414
#     4  12  26  43  65  99 134 177 222 280 335 415
#     4  10  21  39  62  93 132 174 213 270 339 406
#     4  12  26  45  67  96 141 180 226 276 349 405
#
# _framework density 24.211198
#
# number of rings (size 3 to 8) (size 9 to 14) (size 15 to 20)
#    0.000    1.000    3.750    3.375    0.000    4.500 
#    0.000    5.625    0.000    0.000    0.000    0.000 
#    0.000    0.000    0.000    0.000    0.000    0.000 
#
# Total GULP energy -793072.855336 kJ/mol
# GULP energy per Si atom -12391.763365 kJ/mol
# Density = 2.415609 g / cm^3
# Si number density = 24.211198 Si / 1000 Ang^3
#
#
#
# Elastic Constant Matrix: (Units=GPa)
#
#
# Indices 1 2 3 4 5 6 
#
# 1 100.6554 31.3513 3.2448 0.0000 0.0000 0.0000
# 2 31.3513 49.6932 7.9943 0.0000 0.0000 0.0000
# 3 3.2448 7.9943 83.9369 0.0000 0.0000 0.0000
# 4 0.0000 0.0000 0.0000 32.1519 0.0000 0.0000
# 5 0.0000 0.0000 0.0000 0.0000 42.1037 0.0000
# 6 0.0000 0.0000 0.0000 0.0000 0.0000 31.0590
#
#
#
# Elastic Compliance Matrix: (Units=1/GPa)
#
#
# Indices 1 2 3 4 5 6 
#
# 1 0.012371 -0.007848 0.000269 0.000000 0.000000 0.000000
# 2 -0.007848 0.025415 -0.002117 0.000000 0.000000 0.000000
# 3 0.000269 -0.002117 0.012105 0.000000 0.000000 0.000000
# 4 0.000000 0.000000 0.000000 0.031102 0.000000 0.000000
# 5 0.000000 0.000000 0.000000 0.000000 0.023751 0.000000
# 6 0.000000 0.000000 0.000000 0.000000 0.000000 0.032197
#
#
# Mechanical properties :
#
#
# Convention : Reuss Voigt Hill
#
# Bulk Modulus (GPa) = 32.78788 35.49627 34.14208
# Shear Modulus (GPa) = 30.03022 33.84260 31.93641
#
# Velocity S-wave (km/s) = 3.52567 3.74278 3.63585
# Velocity P-wave (km/s) = 5.49051 5.77675 5.63545
#
# Compressibility (1/GPa) = 0.03049907
#
# Stress axis : x y z
#
# Youngs Moduli (GPa) = 80.83681 39.34643 82.61085
#
# Poissons Ratio (x) = 0.30879 -0.02224
# Poissons Ratio (y) = 0.63440 0.17490
# Poissons Ratio (z) = -0.02176 0.08330
#
# Static dielectric constant tensor:
#      x y z
#    x 4.889240 0.000000 0.000000 
#    y 0.000000 8.898160 0.000000 
#    z 0.000000 0.000000 4.350660 
# 
# 
# High freq. dielectric constant tensor:
#      x y z
#    x 1.965870 0.000000 0.000000 
#    y 0.000000 1.944260 0.000000 
#    z 0.000000 0.000000 1.974860 
# 
# From -- ./inp_files/24317.got.cif
#   From: 2010.03.12/outbox.cif.g09.slc.cpg/sg60_13_cif.got.tgz:24317.got - 2010.04.10 18:46:24.
