data_PCOD8247370
_publ_section_title
;
Structure prediction by ZEFSAII (Michael W. Deem and Ramdas Pophale) SiO2 
 PCOD8247370
Probable space group: P B C N
;
_chemical_formula_sum "Si O2"
_cell_formula_units_Z 56
_cell_length_a 19.536906
_cell_length_b 11.729000
_cell_length_c 11.472895
_cell_angle_alpha 90.000000
_cell_angle_beta 90.000000
_cell_angle_gamma 90.000000
_cell_volume 2628.995194
_symmetry_space_group_name_H-M "P B C N"
_symmetry_group_IT_number 60
_symmetry_cell_setting 'orthorhombic'
loop_
_space_group_symop_operation_xyz
x,y,z
1/2-x,1/2-y,1/2+z
1/2+x,1/2-y,-z
-x,y,1/2-z
-x,-y,-z
1/2+x,1/2+y,1/2-z
1/2-x,1/2+y,z
x,-y,1/2+z
loop_
_atom_site_type_symbol
_atom_site_label
_atom_site_fract_x
_atom_site_fract_y
_atom_site_fract_z
Si Si1 0.183247 0.406682 0.089554
Si Si2 0.036543 0.913264 0.854449
Si Si3 0.333793 0.349434 0.165296
Si Si4 0.925360 0.666571 0.721529
Si Si5 0.600548 0.449911 0.959496
Si Si6 0.307693 0.282372 0.419407
Si Si7 0.337196 0.850863 0.491750
O O1 0.254122 0.375447 0.150606
O O2 0.122452 0.362120 0.170208
O O3 0.178044 0.541649 0.073327
O O4 0.181280 0.347878 0.961323
O O5 0.069691 0.802960 0.793579
O O6 0.000000 0.985316 0.750000
O O7 0.973060 0.888016 0.942930
O O8 0.096887 0.979049 0.919420
O O9 0.377733 0.464598 0.145141
O O10 0.344718 0.302707 0.296173
O O11 0.359710 0.253151 0.075156
O O12 0.897360 0.617250 0.599094
O O13 0.000000 0.613983 0.750000
O O14 0.659254 0.357528 0.977116
O O15 0.227949 0.314652 0.413981
#
# Coordination Sequence:
#
# PCOD8247370 Si02
#       7
#     8   8   8   8   8   8   8
#     4  11  25  43  67  98 132 179 225 271 345 399
#     4  10  21  38  66  94 131 173 219 262 330 403
#     4  11  23  41  66 103 133 172 221 287 339 393
#     4  11  23  44  68  93 130 182 222 271 333 411
#     4  11  21  40  64 101 131 172 218 278 334 393
#     4  11  23  39  66  99 132 166 221 278 337 396
#     4  11  24  43  65  96 131 176 227 278 334 409
#
# _framework density 21.300913999999999
#
# number of rings (size 3 to 8) (size 9 to 14) (size 15 to 20)
#    0.000    1.143    4.286    2.571    2.000    0.571 
#    0.000    0.000    0.000    0.000    0.000    0.000 
#    0.000    0.000    0.000    0.000    0.000    0.000 
#
# Total GULP energy -694302.454113 kJ/mol
# GULP energy per Si atom -12398.258109 kJ/mol
# Density = 2.125243 g / cm^3
# Si number density = 21.300914 Si / 1000 Ang^3
#
#
#
# Elastic Constant Matrix: (Units=GPa)
#
#
# Indices 1 2 3 4 5 6 
#
# 1 89.0010 13.1090 14.0053 0.0000 0.0000 0.0000
# 2 13.1090 65.2100 5.4645 0.0000 0.0000 0.0000
# 3 14.0053 5.4645 81.3443 0.0000 0.0000 0.0000
# 4 0.0000 0.0000 0.0000 21.5410 0.0000 0.0000
# 5 0.0000 0.0000 0.0000 0.0000 38.7309 0.0000
# 6 0.0000 0.0000 0.0000 0.0000 0.0000 27.7586
#
#
#
# Elastic Compliance Matrix: (Units=1/GPa)
#
#
# Indices 1 2 3 4 5 6 
#
# 1 0.011862 -0.002226 -0.001893 0.000000 0.000000 0.000000
# 2 -0.002226 0.015840 -0.000681 0.000000 0.000000 0.000000
# 3 -0.001893 -0.000681 0.012665 0.000000 0.000000 0.000000
# 4 0.000000 0.000000 0.000000 0.046423 0.000000 0.000000
# 5 0.000000 0.000000 0.000000 0.000000 0.025819 0.000000
# 6 0.000000 0.000000 0.000000 0.000000 0.000000 0.036025
#
#
# Mechanical properties :
#
#
# Convention : Reuss Voigt Hill
#
# Bulk Modulus (GPa) = 32.50205 33.41257 32.95731
# Shear Modulus (GPa) = 29.67573 31.13787 30.40680
#
# Velocity S-wave (km/s) = 3.73656 3.82751 3.78231
# Velocity P-wave (km/s) = 5.82302 5.93743 5.88050
#
# Compressibility (1/GPa) = 0.03076729
#
# Stress axis : x y z
#
# Youngs Moduli (GPa) = 84.30627 63.13295 78.95759
#
# Poissons Ratio (x) = 0.14053 0.14944
# Poissons Ratio (y) = 0.18766 0.05376
# Poissons Ratio (z) = 0.15957 0.04298
#
# Static dielectric constant tensor:
#      x y z
#    x 3.940060 0.000000 0.000000 
#    y 0.000000 3.691010 0.000000 
#    z 0.000000 0.000000 3.893490 
# 
# 
# High freq. dielectric constant tensor:
#      x y z
#    x 1.837280 0.000000 0.000000 
#    y 0.000000 1.816310 0.000000 
#    z 0.000000 0.000000 1.844810 
# 
# From -- ./inp_files/12832.got.cif
#   From: 2010.03.12/outbox.cif.g09.slc.cpg/sg60_7_cif.got.tgz:12832.got - 2010.04.10 18:46:24.
