data_PCOD8247668
_publ_section_title
;
Structure prediction by ZEFSAII (Michael W. Deem and Ramdas Pophale) SiO2 
 PCOD8247668
Probable space group: P B C N
;
_chemical_formula_sum "Si O2"
_cell_formula_units_Z 40
_cell_length_a 10.843281
_cell_length_b 16.806659
_cell_length_c 10.271912
_cell_angle_alpha 90.000000
_cell_angle_beta 90.000000
_cell_angle_gamma 90.000000
_cell_volume 1871.946322
_symmetry_space_group_name_H-M "P B C N"
_symmetry_group_IT_number 60
_symmetry_cell_setting 'orthorhombic'
loop_
_space_group_symop_operation_xyz
x,y,z
1/2-x,1/2-y,1/2+z
1/2+x,1/2-y,-z
-x,y,1/2-z
-x,-y,-z
1/2+x,1/2+y,1/2-z
1/2-x,1/2+y,z
x,-y,1/2+z
loop_
_atom_site_type_symbol
_atom_site_label
_atom_site_fract_x
_atom_site_fract_y
_atom_site_fract_z
Si Si1 0.848478 0.399989 0.845781
Si Si2 0.803886 0.417744 0.337637
Si Si3 0.470846 0.554689 0.616334
Si Si4 0.887320 0.665240 0.084776
Si Si5 0.300641 0.656732 0.913796
O O1 0.868002 0.495399 0.843369
O O2 0.810754 0.382238 0.695794
O O3 0.967772 0.345944 0.880794
O O4 0.740525 0.375166 0.944747
O O5 0.668109 0.417854 0.397041
O O6 0.881292 0.364711 0.436837
O O7 0.797567 0.377674 0.193519
O O8 0.500000 0.506710 0.750000
O O9 0.500000 0.500000 0.500000
O O10 0.561332 0.629525 0.617453
O O11 0.819267 0.749683 0.089008
#
# Coordination Sequence:
#
# PCOD8247668 Si02
#       5
#     8   8   8   8   8
#     4  11  24  43  65  95 128 173 218 259 328 390
#     4  11  23  43  67  93 129 173 217 262 323 392
#     4  10  22  38  65  93 126 163 216 263 316 379
#     4  11  26  41  67  94 133 167 213 276 326 381
#     4  11  24  42  67  95 130 170 215 270 328 380
#
# _framework density 21.368134000000001
#
# number of rings (size 3 to 8) (size 9 to 14) (size 15 to 20)
#    0.000    1.200    2.000    3.000   14.000    2.400 
#    0.000    0.000    0.000    0.000    0.000    0.000 
#    0.000    0.000    0.000    0.000    0.000    0.000 
#
# Total GULP energy -495524.021615 kJ/mol
# GULP energy per Si atom -12388.100540 kJ/mol
# Density = 2.131950 g / cm^3
# Si number density = 21.368134 Si / 1000 Ang^3
#
#
#
# Elastic Constant Matrix: (Units=GPa)
#
#
# Indices 1 2 3 4 5 6 
#
# 1 53.1060 4.5780 15.6995 0.0000 0.0000 0.0000
# 2 4.5780 137.6226 43.2388 0.0000 0.0000 0.0000
# 3 15.6995 43.2388 102.2438 0.0000 0.0000 0.0000
# 4 0.0000 0.0000 0.0000 33.0003 0.0000 0.0000
# 5 0.0000 0.0000 0.0000 0.0000 31.8583 0.0000
# 6 0.0000 0.0000 0.0000 0.0000 0.0000 23.8745
#
#
#
# Elastic Compliance Matrix: (Units=1/GPa)
#
#
# Indices 1 2 3 4 5 6 
#
# 1 0.019740 0.000341 -0.003175 0.000000 0.000000 0.000000
# 2 0.000341 0.008386 -0.003599 0.000000 0.000000 0.000000
# 3 -0.003175 -0.003599 0.011790 0.000000 0.000000 0.000000
# 4 0.000000 0.000000 0.000000 0.030303 0.000000 0.000000
# 5 0.000000 0.000000 0.000000 0.000000 0.031389 0.000000
# 6 0.000000 0.000000 0.000000 0.000000 0.000000 0.041886
#
#
# Mechanical properties :
#
#
# Convention : Reuss Voigt Hill
#
# Bulk Modulus (GPa) = 36.96943 46.66722 41.81832
# Shear Modulus (GPa) = 30.23439 33.04369 31.63904
#
# Velocity S-wave (km/s) = 3.76563 3.93670 3.85211
# Velocity P-wave (km/s) = 6.02042 6.52307 6.27678
#
# Compressibility (1/GPa) = 0.02704938
#
# Stress axis : x y z
#
# Youngs Moduli (GPa) = 50.65969 119.25312 84.81815
#
# Poissons Ratio (x) = -0.04066 0.26932
# Poissons Ratio (y) = -0.01727 0.30523
# Poissons Ratio (z) = 0.16085 0.42914
#
# Static dielectric constant tensor:
#      x y z
#    x 3.432430 0.000000 0.000000 
#    y 0.000000 3.866400 0.000000 
#    z 0.000000 0.000000 4.409310 
# 
# 
# High freq. dielectric constant tensor:
#      x y z
#    x 1.829870 0.000000 0.000000 
#    y 0.000000 1.829770 0.000000 
#    z 0.000000 0.000000 1.866120 
# 
# From -- ./inp_files/4773.got.cif
#   From: 2010.03.12/outbox.cif.g09.slc.cpg/sg60_3_cif.got.tgz:4773.got - 2010.04.10 18:46:24.
