data_PCOD8247417
_publ_section_title
;
Structure prediction by ZEFSAII (Michael W. Deem and Ramdas Pophale) SiO2 
 PCOD8247417
Probable space group: P B C N
;
_chemical_formula_sum "Si O2"
_cell_formula_units_Z 56
_cell_length_a 18.978758
_cell_length_b 13.799538
_cell_length_c 9.345286
_cell_angle_alpha 90.000000
_cell_angle_beta 90.000000
_cell_angle_gamma 90.000000
_cell_volume 2447.512575
_symmetry_space_group_name_H-M "P B C N"
_symmetry_group_IT_number 60
_symmetry_cell_setting 'orthorhombic'
loop_
_space_group_symop_operation_xyz
x,y,z
1/2-x,1/2-y,1/2+z
1/2+x,1/2-y,-z
-x,y,1/2-z
-x,-y,-z
1/2+x,1/2+y,1/2-z
1/2-x,1/2+y,z
x,-y,1/2+z
loop_
_atom_site_type_symbol
_atom_site_label
_atom_site_fract_x
_atom_site_fract_y
_atom_site_fract_z
Si Si1 0.770055 0.707188 0.815103
Si Si2 0.593338 0.439399 0.124300
Si Si3 0.643263 0.066836 0.616618
Si Si4 0.586824 0.717818 0.413214
Si Si5 0.199423 0.404150 0.696446
Si Si6 0.318830 0.537219 0.608846
Si Si7 0.500000 0.865764 0.250000
Si Si8 0.500000 0.425393 0.750000
O O1 0.804561 0.649840 0.680612
O O2 0.832113 0.753494 0.907506
O O3 0.713465 0.790264 0.769074
O O4 0.730645 0.630690 0.918043
O O5 0.618127 0.428898 0.287903
O O6 0.523904 0.506426 0.118858
O O7 0.574630 0.331725 0.067429
O O8 0.654479 0.494669 0.039422
O O9 0.650457 0.076968 0.445059
O O10 0.562389 0.076427 0.670913
O O11 0.663788 0.958314 0.667933
O O12 0.533602 0.805299 0.381838
O O13 0.568736 0.635626 0.295199
O O14 0.275738 0.450020 0.678062
#
# Coordination Sequence:
#
# PCOD8247417 Si02
#       8
#     8   8   8   8   8   8   4   4
#     4  10  22  39  62  97 130 168 215 269 326 400
#     4  12  22  42  60  97 127 173 209 276 330 395
#     4  10  24  42  70  98 132 180 223 279 331 401
#     4  10  21  39  64  90 124 171 213 269 323 388
#     4  11  22  42  65  99 133 171 221 275 343 394
#     4  11  24  39  65  95 134 165 217 270 337 388
#     4   9  22  46  66  95 126 178 235 262 328 401
#     4  11  22  38  64  85 128 168 217 252 336 393
#
# _framework density 22.880374
#
# number of rings (size 3 to 8) (size 9 to 14) (size 15 to 20)
#    0.000    1.429    2.857    2.143    0.000    7.429 
#    2.571    0.000    0.000    0.000    0.000    0.000 
#    0.000    0.000    0.000    0.000    0.000    0.000 
#
# Total GULP energy -693946.439738 kJ/mol
# GULP energy per Si atom -12391.900710 kJ/mol
# Density = 2.282830 g / cm^3
# Si number density = 22.880374 Si / 1000 Ang^3
#
#
#
# Elastic Constant Matrix: (Units=GPa)
#
#
# Indices 1 2 3 4 5 6 
#
# 1 90.9021 36.2802 18.1458 0.0000 0.0000 0.0000
# 2 36.2802 93.9361 -5.1100 0.0000 0.0000 0.0000
# 3 18.1458 -5.1100 40.5483 0.0000 0.0000 0.0000
# 4 0.0000 0.0000 0.0000 18.5400 0.0000 0.0000
# 5 0.0000 0.0000 0.0000 0.0000 31.8818 0.0000
# 6 0.0000 0.0000 0.0000 0.0000 0.0000 0.7902
#
#
#
# Elastic Compliance Matrix: (Units=1/GPa)
#
#
# Indices 1 2 3 4 5 6 
#
# 1 0.014962 -0.006185 -0.007475 0.000000 0.000000 0.000000
# 2 -0.006185 0.013276 0.004441 0.000000 0.000000 0.000000
# 3 -0.007475 0.004441 0.028567 0.000000 0.000000 0.000000
# 4 0.000000 0.000000 0.000000 0.053938 0.000000 0.000000
# 5 0.000000 0.000000 0.000000 0.000000 0.031366 0.000000
# 6 0.000000 0.000000 0.000000 0.000000 0.000000 1.265463
#
#
# Mechanical properties :
#
#
# Convention : Reuss Voigt Hill
#
# Bulk Modulus (GPa) = 26.06470 36.00207 31.03338
# Shear Modulus (GPa) = 3.47512 21.98043 12.72778
#
# Velocity S-wave (km/s) = 1.23374 3.10283 2.36111
# Velocity P-wave (km/s) = 3.66687 5.34844 4.58540
#
# Compressibility (1/GPa) = 0.03836607
#
# Stress axis : x y z
#
# Youngs Moduli (GPa) = 66.83805 75.32420 35.00580
#
# Poissons Ratio (x) = 0.46589 0.26167
# Poissons Ratio (y) = 0.41340 -0.15546
# Poissons Ratio (z) = 0.49961 -0.33451
#
# Static dielectric constant tensor:
#      x y z
#    x 4.197370 0.000000 0.000000 
#    y 0.000000 4.365490 0.000000 
#    z 0.000000 0.000000 3.903320 
# 
# 
# High freq. dielectric constant tensor:
#      x y z
#    x 1.907030 0.000000 0.000000 
#    y 0.000000 1.906580 0.000000 
#    z 0.000000 0.000000 1.881980 
# 
# From -- ./inp_files/7465.got.cif
#   From: 2010.03.12/outbox.cif.g09.slc.cpg/sg60_4_cif.got.tgz:7465.got - 2010.04.10 18:46:24.
