data_PCOD8247959
_publ_section_title
;
Structure prediction by ZEFSAII (Michael W. Deem and Ramdas Pophale) SiO2 
 PCOD8247959
Probable space group: P B C N
;
_chemical_formula_sum "Si O2"
_cell_formula_units_Z 48
_cell_length_a 15.301406
_cell_length_b 11.528547
_cell_length_c 13.616230
_cell_angle_alpha 90.000000
_cell_angle_beta 90.000000
_cell_angle_gamma 90.000000
_cell_volume 2401.943524
_symmetry_space_group_name_H-M "P B C N"
_symmetry_group_IT_number 60
_symmetry_cell_setting 'orthorhombic'
loop_
_space_group_symop_operation_xyz
x,y,z
1/2-x,1/2-y,1/2+z
1/2+x,1/2-y,-z
-x,y,1/2-z
-x,-y,-z
1/2+x,1/2+y,1/2-z
1/2-x,1/2+y,z
x,-y,1/2+z
loop_
_atom_site_type_symbol
_atom_site_label
_atom_site_fract_x
_atom_site_fract_y
_atom_site_fract_z
Si Si1 0.672801 0.680395 0.395359
Si Si2 0.878081 0.590910 0.987762
Si Si3 0.816315 0.963433 0.528677
Si Si4 0.853458 0.200149 0.859841
Si Si5 0.397899 0.510697 0.261011
Si Si6 0.029544 0.414724 0.643698
O O1 0.613748 0.785707 0.434155
O O2 0.682844 0.591782 0.484822
O O3 0.765732 0.725503 0.357786
O O4 0.625230 0.622079 0.303798
O O5 0.894849 0.494574 0.903631
O O6 0.784172 0.575104 0.038649
O O7 0.945885 0.582199 0.075012
O O8 0.866383 0.870470 0.460840
O O9 0.868349 0.961194 0.629577
O O10 0.935735 0.284016 0.845475
O O11 0.847656 0.105725 0.772702
O O12 0.500000 0.486501 0.250000
O O13 0.000000 0.462482 0.750000
#
# Coordination Sequence:
#
# PCOD8247959 Si02
#       6
#     8   8   8   8   8   8
#     4  10  23  43  66  90 134 163 222 264 324 399
#     4  10  24  43  63  97 129 176 211 278 323 391
#     4  10  23  43  65  92 132 171 218 268 331 391
#     4  10  23  42  64  96 128 170 219 268 324 395
#     4  11  26  41  67 102 128 174 218 276 339 393
#     4  11  24  41  67  94 131 167 222 265 331 391
#
# _framework density 19.983816999999998
#
# number of rings (size 3 to 8) (size 9 to 14) (size 15 to 20)
#    0.000    1.667    1.667    0.500    9.333    3.333 
#    3.000    0.000    0.000    0.000    0.000    0.000 
#    0.000    0.000    0.000    0.000    0.000    0.000 
#
# Total GULP energy -595382.815295 kJ/mol
# GULP energy per Si atom -12403.808652 kJ/mol
# Density = 1.993833 g / cm^3
# Si number density = 19.983817 Si / 1000 Ang^3
#
#
#
# Elastic Constant Matrix: (Units=GPa)
#
#
# Indices 1 2 3 4 5 6 
#
# 1 71.8165 25.9811 41.2146 0.0000 0.0000 0.0000
# 2 25.9811 102.6056 30.2793 0.0000 0.0000 0.0000
# 3 41.2146 30.2793 103.7144 0.0000 0.0000 0.0000
# 4 0.0000 0.0000 0.0000 19.0961 0.0000 0.0000
# 5 0.0000 0.0000 0.0000 0.0000 28.9305 0.0000
# 6 0.0000 0.0000 0.0000 0.0000 0.0000 27.4131
#
#
#
# Elastic Compliance Matrix: (Units=1/GPa)
#
#
# Indices 1 2 3 4 5 6 
#
# 1 0.018739 -0.002788 -0.006633 0.000000 0.000000 0.000000
# 2 -0.002788 0.011080 -0.002127 0.000000 0.000000 0.000000
# 3 -0.006633 -0.002127 0.012899 0.000000 0.000000 0.000000
# 4 0.000000 0.000000 0.000000 0.052367 0.000000 0.000000
# 5 0.000000 0.000000 0.000000 0.000000 0.034566 0.000000
# 6 0.000000 0.000000 0.000000 0.000000 0.000000 0.036479
#
#
# Mechanical properties :
#
#
# Convention : Reuss Voigt Hill
#
# Bulk Modulus (GPa) = 50.96143 52.56516 51.76329
# Shear Modulus (GPa) = 25.54088 27.13206 26.33647
#
# Velocity S-wave (km/s) = 3.57890 3.68870 3.63421
# Velocity P-wave (km/s) = 6.52953 6.67105 6.60067
#
# Compressibility (1/GPa) = 0.01962268
#
# Stress axis : x y z
#
# Youngs Moduli (GPa) = 53.36341 90.25611 77.52764
#
# Poissons Ratio (x) = 0.25160 0.51423
# Poissons Ratio (y) = 0.14876 0.16489
# Poissons Ratio (z) = 0.35396 0.19197
#
# Static dielectric constant tensor:
#      x y z
#    x 3.571580 0.000000 0.000000 
#    y 0.000000 3.882120 0.000000 
#    z 0.000000 0.000000 3.587880 
# 
# 
# High freq. dielectric constant tensor:
#      x y z
#    x 1.783210 0.000000 0.000000 
#    y 0.000000 1.796230 0.000000 
#    z 0.000000 0.000000 1.779770 
# 
# From -- ./inp_files/12421.got.cif
#   From: 2010.03.12/outbox.cif.g09.slc.cpg/sg60_7_cif.got.tgz:12421.got - 2010.04.10 18:46:24.
