data_PCOD8247440
_publ_section_title
;
Structure prediction by ZEFSAII (Michael W. Deem and Ramdas Pophale) SiO2 
 PCOD8247440
Probable space group: P B C N
;
_chemical_formula_sum "Si O2"
_cell_formula_units_Z 64
_cell_length_a 14.891356
_cell_length_b 11.887025
_cell_length_c 17.448832
_cell_angle_alpha 90.000000
_cell_angle_beta 90.000000
_cell_angle_gamma 90.000000
_cell_volume 3088.686170
_symmetry_space_group_name_H-M "P B C N"
_symmetry_group_IT_number 60
_symmetry_cell_setting 'orthorhombic'
loop_
_space_group_symop_operation_xyz
x,y,z
1/2-x,1/2-y,1/2+z
1/2+x,1/2-y,-z
-x,y,1/2-z
-x,-y,-z
1/2+x,1/2+y,1/2-z
1/2-x,1/2+y,z
x,-y,1/2+z
loop_
_atom_site_type_symbol
_atom_site_label
_atom_site_fract_x
_atom_site_fract_y
_atom_site_fract_z
Si Si1 0.839104 0.057653 0.120953
Si Si2 0.858712 0.400170 0.636607
Si Si3 0.419573 0.664346 0.928820
Si Si4 0.008911 0.572753 0.659675
Si Si5 0.514552 0.680068 0.404853
Si Si6 0.855414 0.051274 0.296614
Si Si7 0.159755 0.596839 0.182225
Si Si8 0.432800 0.679690 0.680930
O O1 0.737529 0.085185 0.095243
O O2 0.851648 0.091440 0.209419
O O3 0.914330 0.132692 0.077875
O O4 0.847414 0.926029 0.100460
O O5 0.899601 0.286978 0.603728
O O6 0.926511 0.503692 0.621837
O O7 0.847473 0.393870 0.726973
O O8 0.514351 0.628397 0.891583
O O9 0.425063 0.663377 0.020065
O O10 0.000000 0.595386 0.750000
O O11 0.012380 0.688988 0.614783
O O12 0.101436 0.504535 0.646836
O O13 0.560250 0.611044 0.336042
O O14 0.763410 0.080308 0.341478
O O15 0.865142 0.916745 0.291997
O O16 0.123095 0.714334 0.149848
O O17 0.500000 0.714987 0.750000
#
# Coordination Sequence:
#
# PCOD8247440 Si02
#       8
#     8   8   8   8   8   8   8   8
#     4  11  23  42  68  93 123 170 220 266 311 379
#     4  10  22  41  68  95 123 164 220 264 313 380
#     4  12  24  44  65  91 129 174 213 260 325 388
#     4  10  21  42  65  93 129 164 206 266 317 375
#     4  12  26  42  60  97 136 168 205 264 334 380
#     4  11  23  39  66  98 126 165 218 270 314 372
#     4  10  21  39  68  99 122 162 220 267 310 367
#     4  12  19  41  70  88 123 170 219 261 309 376
#
# _framework density 20.720783999999998
#
# number of rings (size 3 to 8) (size 9 to 14) (size 15 to 20)
#    0.000    1.000    5.000    1.875    3.500    0.500 
#    4.500    0.000    0.000    0.000    0.000    0.000 
#    0.000    0.000    0.000    0.000    0.000    0.000 
#
# Total GULP energy -793632.995305 kJ/mol
# GULP energy per Si atom -12400.515552 kJ/mol
# Density = 2.067362 g / cm^3
# Si number density = 20.720784 Si / 1000 Ang^3
#
#
#
# Elastic Constant Matrix: (Units=GPa)
#
#
# Indices 1 2 3 4 5 6 
#
# 1 124.9874 35.1803 14.0655 0.0000 0.0000 0.0000
# 2 35.1803 107.3395 19.3965 0.0000 0.0000 0.0000
# 3 14.0655 19.3965 47.1424 0.0000 0.0000 0.0000
# 4 0.0000 0.0000 0.0000 12.4252 0.0000 0.0000
# 5 0.0000 0.0000 0.0000 0.0000 14.6655 0.0000
# 6 0.0000 0.0000 0.0000 0.0000 0.0000 28.1726
#
#
#
# Elastic Compliance Matrix: (Units=1/GPa)
#
#
# Indices 1 2 3 4 5 6 
#
# 1 0.008921 -0.002639 -0.001576 0.000000 0.000000 0.000000
# 2 -0.002639 0.010845 -0.003675 0.000000 0.000000 0.000000
# 3 -0.001576 -0.003675 0.023194 0.000000 0.000000 0.000000
# 4 0.000000 0.000000 0.000000 0.080482 0.000000 0.000000
# 5 0.000000 0.000000 0.000000 0.000000 0.068187 0.000000
# 6 0.000000 0.000000 0.000000 0.000000 0.000000 0.035496
#
#
# Mechanical properties :
#
#
# Convention : Reuss Voigt Hill
#
# Bulk Modulus (GPa) = 36.79012 46.30599 41.54805
# Shear Modulus (GPa) = 19.84402 25.10778 22.47590
#
# Velocity S-wave (km/s) = 3.09801 3.48475 3.29706
# Velocity P-wave (km/s) = 5.53088 6.21188 5.88124
#
# Compressibility (1/GPa) = 0.02718121
#
# Stress axis : x y z
#
# Youngs Moduli (GPa) = 112.09550 92.20637 43.11371
#
# Poissons Ratio (x) = 0.24334 0.06794
# Poissons Ratio (y) = 0.29583 0.15844
# Poissons Ratio (z) = 0.17664 0.33884
#
# Static dielectric constant tensor:
#      x y z
#    x 4.064610 0.000000 0.000000 
#    y 0.000000 3.762900 0.000000 
#    z 0.000000 0.000000 3.531020 
# 
# 
# High freq. dielectric constant tensor:
#      x y z
#    x 1.816340 0.000000 0.000000 
#    y 0.000000 1.821950 0.000000 
#    z 0.000000 0.000000 1.781850 
# 
# From -- ./inp_files/20674.got.cif
#   From: 2010.03.12/outbox.cif.g09.slc.cpg/sg60_11_cif.got.tgz:20674.got - 2010.04.10 18:46:24.
