data_PCOD8247974
_publ_section_title
;
Structure prediction by ZEFSAII (Michael W. Deem and Ramdas Pophale) SiO2 
 PCOD8247974
Probable space group: P B C N
;
_chemical_formula_sum "Si O2"
_cell_formula_units_Z 64
_cell_length_a 15.580007
_cell_length_b 11.396101
_cell_length_c 17.039721
_cell_angle_alpha 90.000000
_cell_angle_beta 90.000000
_cell_angle_gamma 90.000000
_cell_volume 3025.425184
_symmetry_space_group_name_H-M "P B C N"
_symmetry_group_IT_number 60
_symmetry_cell_setting 'orthorhombic'
loop_
_space_group_symop_operation_xyz
x,y,z
1/2-x,1/2-y,1/2+z
1/2+x,1/2-y,-z
-x,y,1/2-z
-x,-y,-z
1/2+x,1/2+y,1/2-z
1/2-x,1/2+y,z
x,-y,1/2+z
loop_
_atom_site_type_symbol
_atom_site_label
_atom_site_fract_x
_atom_site_fract_y
_atom_site_fract_z
Si Si1 0.816641 0.677056 0.432727
Si Si2 0.913027 0.101799 0.651095
Si Si3 0.589335 0.015615 0.542002
Si Si4 0.104602 0.128713 0.673280
Si Si5 0.188049 0.277853 0.956668
Si Si6 0.733641 0.982086 0.799457
Si Si7 0.090813 0.378664 0.291027
Si Si8 0.677888 0.354060 0.668567
O O1 0.865140 0.631832 0.509616
O O2 0.874266 0.767919 0.385722
O O3 0.724374 0.728043 0.460429
O O4 0.810810 0.566332 0.376219
O O5 0.898956 0.167199 0.734863
O O6 0.876816 0.184971 0.582722
O O7 0.014290 0.077148 0.642210
O O8 0.865782 0.977114 0.645795
O O9 0.582768 0.036118 0.634530
O O10 0.500000 0.000000 0.500000
O O11 0.641530 0.898263 0.524518
O O12 0.177002 0.031167 0.668241
O O13 0.270724 0.301362 0.903741
O O14 0.754834 0.876859 0.738978
O O15 0.671408 0.078835 0.761153
O O16 0.106092 0.241391 0.308630
O O17 0.000000 0.391520 0.250000
#
# Coordination Sequence:
#
# PCOD8247974 Si02
#       8
#     8   8   8   8   8   8   8   8
#     4  12  24  42  66 100 137 182 232 287 353 422
#     4  10  23  43  70 101 132 180 236 290 349 421
#     4  12  26  44  65 101 145 183 230 292 359 425
#     4  10  23  42  67 101 134 175 235 288 342 419
#     4  12  23  45  70  97 140 187 229 287 359 427
#     4  11  23  44  70 100 136 186 234 287 349 428
#     4  12  26  43  72 104 141 190 236 296 355 422
#     4  11  22  44  72  97 132 182 238 284 353 424
#
# _framework density 21.154050999999999
#
# number of rings (size 3 to 8) (size 9 to 14) (size 15 to 20)
#    0.000    0.750    2.500    6.000    3.500    1.000 
#    0.000    1.250    0.000    0.000    0.000    0.000 
#    0.000    0.000    0.000    0.000    0.000    0.000 
#
# Total GULP energy -793654.310960 kJ/mol
# GULP energy per Si atom -12400.848609 kJ/mol
# Density = 2.110590 g / cm^3
# Si number density = 21.154051 Si / 1000 Ang^3
#
#
#
# Elastic Constant Matrix: (Units=GPa)
#
#
# Indices 1 2 3 4 5 6 
#
# 1 114.0166 31.5215 29.5939 0.0000 0.0000 0.0000
# 2 31.5215 94.3343 34.6225 0.0000 0.0000 0.0000
# 3 29.5939 34.6225 71.0926 0.0000 0.0000 0.0000
# 4 0.0000 0.0000 0.0000 0.5178 0.0000 0.0000
# 5 0.0000 0.0000 0.0000 0.0000 33.5325 0.0000
# 6 0.0000 0.0000 0.0000 0.0000 0.0000 30.8619
#
#
#
# Elastic Compliance Matrix: (Units=1/GPa)
#
#
# Indices 1 2 3 4 5 6 
#
# 1 0.010213 -0.002255 -0.003153 0.000000 0.000000 0.000000
# 2 -0.002255 0.013406 -0.005590 0.000000 0.000000 0.000000
# 3 -0.003153 -0.005590 0.018101 0.000000 0.000000 0.000000
# 4 0.000000 0.000000 0.000000 1.931406 0.000000 0.000000
# 5 0.000000 0.000000 0.000000 0.000000 0.029822 0.000000
# 6 0.000000 0.000000 0.000000 0.000000 0.000000 0.032402
#
#
# Mechanical properties :
#
#
# Convention : Reuss Voigt Hill
#
# Bulk Modulus (GPa) = 50.70187 52.32439 51.51313
# Shear Modulus (GPa) = 2.42257 25.22946 13.82602
#
# Velocity S-wave (km/s) = 1.07130 3.45723 2.55931
# Velocity P-wave (km/s) = 5.05472 6.38163 5.75654
#
# Compressibility (1/GPa) = 0.01972314
#
# Stress axis : x y z
#
# Youngs Moduli (GPa) = 97.91904 74.59460 55.24587
#
# Poissons Ratio (x) = 0.16824 0.17418
# Poissons Ratio (y) = 0.22084 0.30882
# Poissons Ratio (z) = 0.30872 0.41697
#
# Static dielectric constant tensor:
#      x y z
#    x 4.018270 0.000000 0.000000 
#    y 0.000000 3.649800 0.000000 
#    z 0.000000 0.000000 3.964620 
# 
# 
# High freq. dielectric constant tensor:
#      x y z
#    x 1.839640 0.000000 0.000000 
#    y 0.000000 1.833350 0.000000 
#    z 0.000000 0.000000 1.833830 
# 
# From -- ./inp_files/20651.got.cif
#   From: 2010.03.12/outbox.cif.g09.slc.cpg/sg60_11_cif.got.tgz:20651.got - 2010.04.10 18:46:24.
