data_PCOD8247770
_publ_section_title
;
Structure prediction by ZEFSAII (Michael W. Deem and Ramdas Pophale) SiO2 
 PCOD8247770
Probable space group: P B C N
;
_chemical_formula_sum "Si O2"
_cell_formula_units_Z 40
_cell_length_a 8.939250
_cell_length_b 8.836877
_cell_length_c 21.912339
_cell_angle_alpha 90.000000
_cell_angle_beta 90.000000
_cell_angle_gamma 90.000000
_cell_volume 1730.966375
_symmetry_space_group_name_H-M "P B C N"
_symmetry_group_IT_number 60
_symmetry_cell_setting 'orthorhombic'
loop_
_space_group_symop_operation_xyz
x,y,z
1/2-x,1/2-y,1/2+z
1/2+x,1/2-y,-z
-x,y,1/2-z
-x,-y,-z
1/2+x,1/2+y,1/2-z
1/2-x,1/2+y,z
x,-y,1/2+z
loop_
_atom_site_type_symbol
_atom_site_label
_atom_site_fract_x
_atom_site_fract_y
_atom_site_fract_z
Si Si1 0.606754 0.775882 0.341935
Si Si2 0.853472 0.373468 0.564676
Si Si3 0.945200 0.707185 0.538230
Si Si4 0.143816 0.960821 0.219458
Si Si5 0.902394 0.456678 0.697442
O O1 0.583438 0.774421 0.414694
O O2 0.592039 0.605930 0.318775
O O3 0.768942 0.844503 0.324563
O O4 0.476128 0.879285 0.314048
O O5 0.864826 0.546290 0.544258
O O6 0.682919 0.330351 0.549718
O O7 0.891763 0.354680 0.636561
O O8 0.977101 0.274668 0.528114
O O9 0.238273 0.015064 0.277592
O O10 0.000000 0.880893 0.250000
O O11 0.000000 0.372151 0.750000
#
# Coordination Sequence:
#
# PCOD8247770 Si02
#       5
#     8   8   8   8   8
#     4  10  23  41  60  89 127 161 205 256 309 372
#     4  10  22  41  66  91 124 165 207 259 311 369
#     4  10  23  44  65  92 126 163 211 260 311 370
#     4  11  21  37  63  90 122 163 206 253 308 366
#     4   9  20  39  60  86 126 161 196 248 306 366
#
# _framework density 23.108478000000002
#
# number of rings (size 3 to 8) (size 9 to 14) (size 15 to 20)
#    0.000    2.000    0.000    3.000    0.000   12.800 
#    0.000   14.000    0.000    0.000    0.000    0.000 
#    0.000    0.000    0.000    0.000    0.000    0.000 
#
# Total GULP energy -495924.896477 kJ/mol
# GULP energy per Si atom -12398.122412 kJ/mol
# Density = 2.305588 g / cm^3
# Si number density = 23.108478 Si / 1000 Ang^3
#
#
#
# Elastic Constant Matrix: (Units=GPa)
#
#
# Indices 1 2 3 4 5 6 
#
# 1 153.4823 12.9394 66.4317 0.0000 0.0000 0.0000
# 2 12.9394 51.7312 6.1982 0.0000 0.0000 0.0000
# 3 66.4317 6.1982 166.3067 0.0000 0.0000 0.0000
# 4 0.0000 0.0000 0.0000 18.6100 0.0000 0.0000
# 5 0.0000 0.0000 0.0000 0.0000 35.9016 0.0000
# 6 0.0000 0.0000 0.0000 0.0000 0.0000 26.0429
#
#
#
# Elastic Compliance Matrix: (Units=1/GPa)
#
#
# Indices 1 2 3 4 5 6 
#
# 1 0.008012 -0.001628 -0.003140 0.000000 0.000000 0.000000
# 2 -0.001628 0.019748 -0.000086 0.000000 0.000000 0.000000
# 3 -0.003140 -0.000086 0.007270 0.000000 0.000000 0.000000
# 4 0.000000 0.000000 0.000000 0.053734 0.000000 0.000000
# 5 0.000000 0.000000 0.000000 0.000000 0.027854 0.000000
# 6 0.000000 0.000000 0.000000 0.000000 0.000000 0.038398
#
#
# Mechanical properties :
#
#
# Convention : Reuss Voigt Hill
#
# Bulk Modulus (GPa) = 39.48865 60.29542 49.89204
# Shear Modulus (GPa) = 28.87437 35.17430 32.02434
#
# Velocity S-wave (km/s) = 3.53868 3.90569 3.72671
# Velocity P-wave (km/s) = 5.81565 6.81823 6.33680
#
# Compressibility (1/GPa) = 0.02532373
#
# Stress axis : x y z
#
# Youngs Moduli (GPa) = 124.82010 50.63777 137.54604
#
# Poissons Ratio (x) = 0.08242 0.43183
# Poissons Ratio (y) = 0.20317 0.01180
# Poissons Ratio (z) = 0.39188 0.00435
#
# Static dielectric constant tensor:
#      x y z
#    x 4.193620 0.000000 0.000000 
#    y 0.000000 3.887520 0.000000 
#    z 0.000000 0.000000 4.518580 
# 
# 
# High freq. dielectric constant tensor:
#      x y z
#    x 1.917520 0.000000 0.000000 
#    y 0.000000 1.899500 0.000000 
#    z 0.000000 0.000000 1.920890 
# 
# From -- ./inp_files/23834.got.cif
#   From: 2010.03.12/outbox.cif.g09.slc.cpg/sg60_12_cif.got.tgz:23834.got - 2010.04.10 18:46:24.
