data_PCOD8247581
_publ_section_title
;
Structure prediction by ZEFSAII (Michael W. Deem and Ramdas Pophale) SiO2 
 PCOD8247581
Probable space group: P B C N
;
_chemical_formula_sum "Si O2"
_cell_formula_units_Z 32
_cell_length_a 7.422966
_cell_length_b 15.172861
_cell_length_c 12.553286
_cell_angle_alpha 90.000000
_cell_angle_beta 90.000000
_cell_angle_gamma 90.000000
_cell_volume 1413.846868
_symmetry_space_group_name_H-M "P B C N"
_symmetry_group_IT_number 60
_symmetry_cell_setting 'orthorhombic'
loop_
_space_group_symop_operation_xyz
x,y,z
1/2-x,1/2-y,1/2+z
1/2+x,1/2-y,-z
-x,y,1/2-z
-x,-y,-z
1/2+x,1/2+y,1/2-z
1/2-x,1/2+y,z
x,-y,1/2+z
loop_
_atom_site_type_symbol
_atom_site_label
_atom_site_fract_x
_atom_site_fract_y
_atom_site_fract_z
Si Si1 0.179193 0.498965 0.694150
Si Si2 0.845314 0.137321 0.177649
Si Si3 0.025373 0.324222 0.608208
Si Si4 0.230670 0.157773 0.551521
O O1 0.320836 0.463905 0.782825
O O2 0.133080 0.415680 0.618045
O O3 0.277391 0.574190 0.627975
O O4 0.000000 0.537512 0.750000
O O5 0.643337 0.181881 0.194578
O O6 0.000000 0.184213 0.250000
O O7 0.896254 0.138973 0.052733
O O8 0.157966 0.241478 0.616451
O O9 0.934384 0.325267 0.489947
#
# Coordination Sequence:
#
# PCOD8247581 Si02
#       4
#     8   8   8   8
#     4  10  21  44  68 100 140 179 228 288 339 414
#     4   9  22  40  66  95 136 176 229 286 329 412
#     4   9  22  40  63  99 134 180 227 282 343 402
#     4  10  22  43  68  96 138 183 225 282 352 401
#
# _framework density 22.633285000000001
#
# number of rings (size 3 to 8) (size 9 to 14) (size 15 to 20)
#    1.500    1.000    0.000    0.750    3.500    1.000 
#    4.500    3.750    0.000    0.000    0.000    0.000 
#    0.000    0.000    0.000    0.000    0.000    0.000 
#
# Total GULP energy -396437.953515 kJ/mol
# GULP energy per Si atom -12388.686047 kJ/mol
# Density = 2.258177 g / cm^3
# Si number density = 22.633285 Si / 1000 Ang^3
#
#
#
# Elastic Constant Matrix: (Units=GPa)
#
#
# Indices 1 2 3 4 5 6 
#
# 1 45.5049 34.8979 9.3176 0.0000 0.0000 0.0000
# 2 34.8979 152.1381 54.5901 0.0000 0.0000 0.0000
# 3 9.3176 54.5901 75.8015 0.0000 0.0000 0.0000
# 4 0.0000 0.0000 0.0000 26.2266 0.0000 0.0000
# 5 0.0000 0.0000 0.0000 0.0000 35.9466 0.0000
# 6 0.0000 0.0000 0.0000 0.0000 0.0000 27.4965
#
#
#
# Elastic Compliance Matrix: (Units=1/GPa)
#
#
# Indices 1 2 3 4 5 6 
#
# 1 0.026797 -0.006695 0.001528 0.000000 0.000000 0.000000
# 2 -0.006695 0.010536 -0.006765 0.000000 0.000000 0.000000
# 3 0.001528 -0.006765 0.017876 0.000000 0.000000 0.000000
# 4 0.000000 0.000000 0.000000 0.038129 0.000000 0.000000
# 5 0.000000 0.000000 0.000000 0.000000 0.027819 0.000000
# 6 0.000000 0.000000 0.000000 0.000000 0.000000 0.036368
#
#
# Mechanical properties :
#
#
# Convention : Reuss Voigt Hill
#
# Bulk Modulus (GPa) = 31.90268 52.33951 42.12109
# Shear Modulus (GPa) = 26.06352 29.57654 27.82003
#
# Velocity S-wave (km/s) = 3.39714 3.61885 3.50975
# Velocity P-wave (km/s) = 5.43263 6.37469 5.92242
#
# Compressibility (1/GPa) = 0.03134533
#
# Stress axis : x y z
#
# Youngs Moduli (GPa) = 37.31728 94.91243 55.93970
#
# Poissons Ratio (x) = 0.63543 -0.08545
# Poissons Ratio (y) = 0.24984 0.37842
# Poissons Ratio (z) = -0.05701 0.64206
#
# Static dielectric constant tensor:
#      x y z
#    x 4.019600 0.000000 0.000000 
#    y 0.000000 3.584970 0.000000 
#    z 0.000000 0.000000 4.100610 
# 
# 
# High freq. dielectric constant tensor:
#      x y z
#    x 1.888710 0.000000 0.000000 
#    y 0.000000 1.858680 0.000000 
#    z 0.000000 0.000000 1.896610 
# 
# From -- ./inp_files/14308.got.cif
#   From: 2010.03.12/outbox.cif.g09.slc.cpg/sg60_8_cif.got.tgz:14308.got - 2010.04.10 18:46:24.
