data_PCOD8247855
_publ_section_title
;
Structure prediction by ZEFSAII (Michael W. Deem and Ramdas Pophale) SiO2 
 PCOD8247855
Probable space group: P B C N
;
_chemical_formula_sum "Si O2"
_cell_formula_units_Z 32
_cell_length_a 6.074224
_cell_length_b 9.627390
_cell_length_c 17.878447
_cell_angle_alpha 90.000000
_cell_angle_beta 90.000000
_cell_angle_gamma 90.000000
_cell_volume 1045.512333
_symmetry_space_group_name_H-M "P B C N"
_symmetry_group_IT_number 60
_symmetry_cell_setting 'orthorhombic'
loop_
_space_group_symop_operation_xyz
x,y,z
1/2-x,1/2-y,1/2+z
1/2+x,1/2-y,-z
-x,y,1/2-z
-x,-y,-z
1/2+x,1/2+y,1/2-z
1/2-x,1/2+y,z
x,-y,1/2+z
loop_
_atom_site_type_symbol
_atom_site_label
_atom_site_fract_x
_atom_site_fract_y
_atom_site_fract_z
Si Si1 0.833723 0.796927 0.368573
Si Si2 0.825660 0.582124 0.625277
Si Si3 0.758973 0.038454 0.466097
Si Si4 0.295486 0.670781 0.282441
O O1 0.751082 0.688450 0.430215
O O2 0.838471 0.746947 0.282973
O O3 0.084796 0.845315 0.378675
O O4 0.691880 0.933999 0.395352
O O5 0.897763 0.540897 0.540383
O O6 0.941125 0.712702 0.668358
O O7 0.849905 0.436619 0.670330
O O8 0.000000 0.000000 0.500000
O O9 0.500000 0.579930 0.250000
#
# Coordination Sequence:
#
# PCOD8247855 Si02
#       4
#     8   8   8   8
#     4  11  23  44  72 100 137 183 230 285 349 415
#     4  11  25  45  67  97 136 179 228 283 347 415
#     4  10  22  43  68 100 136 179 232 291 346 413
#     4  12  24  42  66  99 137 179 227 285 342 411
#
# _framework density 30.607006999999999
#
# number of rings (size 3 to 8) (size 9 to 14) (size 15 to 20)
#    0.000    1.000    0.000    8.250    0.000    6.000 
#    0.000    7.500    0.000    0.000    0.000    0.000 
#    0.000    0.000    0.000    0.000    0.000    0.000 
#
# Total GULP energy -396538.960908 kJ/mol
# GULP energy per Si atom -12391.842528 kJ/mol
# Density = 3.053734 g / cm^3
# Si number density = 30.607007 Si / 1000 Ang^3
#
#
#
# Elastic Constant Matrix: (Units=GPa)
#
#
# Indices 1 2 3 4 5 6 
#
# 1 95.7065 25.2926 57.4211 0.0000 0.0000 0.0000
# 2 25.2926 190.9593 94.1490 0.0000 0.0000 0.0000
# 3 57.4211 94.1490 228.8300 0.0000 0.0000 0.0000
# 4 0.0000 0.0000 0.0000 69.3727 0.0000 0.0000
# 5 0.0000 0.0000 0.0000 0.0000 66.6552 0.0000
# 6 0.0000 0.0000 0.0000 0.0000 0.0000 42.5976
#
#
#
# Elastic Compliance Matrix: (Units=1/GPa)
#
#
# Indices 1 2 3 4 5 6 
#
# 1 0.012303 -0.000135 -0.003032 0.000000 0.000000 0.000000
# 2 -0.000135 0.006571 -0.002670 0.000000 0.000000 0.000000
# 3 -0.003032 -0.002670 0.006229 0.000000 0.000000 0.000000
# 4 0.000000 0.000000 0.000000 0.014415 0.000000 0.000000
# 5 0.000000 0.000000 0.000000 0.000000 0.015003 0.000000
# 6 0.000000 0.000000 0.000000 0.000000 0.000000 0.023476
#
#
# Mechanical properties :
#
#
# Convention : Reuss Voigt Hill
#
# Bulk Modulus (GPa) = 74.45601 96.58014 85.51808
# Shear Modulus (GPa) = 53.10917 58.30063 55.70490
#
# Velocity S-wave (km/s) = 4.17009 4.36915 4.27078
# Velocity P-wave (km/s) = 6.89677 7.55487 7.23331
#
# Compressibility (1/GPa) = 0.01343075
#
# Stress axis : x y z
#
# Youngs Moduli (GPa) = 81.27940 152.18874 160.53333
#
# Poissons Ratio (x) = 0.02051 0.48671
# Poissons Ratio (y) = 0.01095 0.42857
# Poissons Ratio (z) = 0.24643 0.40629
#
# Static dielectric constant tensor:
#      x y z
#    x 7.511700 0.000000 0.000000 
#    y 0.000000 6.153280 0.000000 
#    z 0.000000 0.000000 9.769630 
# 
# 
# High freq. dielectric constant tensor:
#      x y z
#    x 2.355250 0.000000 0.000000 
#    y 0.000000 2.253720 0.000000 
#    z 0.000000 0.000000 2.290000 
# 
# From -- ./inp_files/21882.got.cif
#   From: 2010.03.12/outbox.cif.g09.slc.cpg/sg60_11_cif.got.tgz:21882.got - 2010.04.10 18:46:24.
