data_PCOD8247207
_publ_section_title
;
Structure prediction by ZEFSAII (Michael W. Deem and Ramdas Pophale) SiO2 
 PCOD8247207
Probable space group: P B C N
;
_chemical_formula_sum "Si O2"
_cell_formula_units_Z 28
_cell_length_a 7.347068
_cell_length_b 28.463338
_cell_length_c 5.785285
_cell_angle_alpha 90.000000
_cell_angle_beta 90.000000
_cell_angle_gamma 90.000000
_cell_volume 1209.830831
_symmetry_space_group_name_H-M "P B C N"
_symmetry_group_IT_number 60
_symmetry_cell_setting 'orthorhombic'
loop_
_space_group_symop_operation_xyz
x,y,z
1/2-x,1/2-y,1/2+z
1/2+x,1/2-y,-z
-x,y,1/2-z
-x,-y,-z
1/2+x,1/2+y,1/2-z
1/2-x,1/2+y,z
x,-y,1/2+z
loop_
_atom_site_type_symbol
_atom_site_label
_atom_site_fract_x
_atom_site_fract_y
_atom_site_fract_z
Si Si1 0.500000 0.973230 0.750000
Si Si2 0.500000 0.364072 0.250000
Si Si3 0.000000 0.732438 0.750000
Si Si4 0.196164 0.900155 0.856457
Si Si5 0.753608 0.688908 0.405884
O O1 0.319997 0.942204 0.768727
O O2 0.500000 0.000000 0.500000
O O3 0.657982 0.396666 0.366920
O O4 0.408321 0.330124 0.434241
O O5 0.180316 0.762826 0.703243
O O6 0.944457 0.699081 0.535038
O O7 0.289664 0.850888 0.784729
O O8 0.000000 0.909271 0.750000
#
# Coordination Sequence:
#
# PCOD8247207 Si02
#       5
#     4   4   4   8   8
#     4  12  32  51  81 124 146 186 256 322 394 482
#     4  10  20  46  69  99 140 202 243 289 386 444
#     4  12  24  39  66  99 152 184 267 299 356 434
#     4  10  25  48  76 103 150 196 243 304 396 452
#     4  11  24  41  63 104 141 203 238 312 358 444
#
# _framework density 23.143733000000001
#
# number of rings (size 3 to 8) (size 9 to 14) (size 15 to 20)
#    0.000    1.143    4.286    1.714   12.000    1.143 
#    0.000    0.000    0.000    0.000    0.000    0.000 
#    0.000    0.000    0.000    0.000    0.000    0.000 
#
# Total GULP energy -346984.488366 kJ/mol
# GULP energy per Si atom -12392.303156 kJ/mol
# Density = 2.309106 g / cm^3
# Si number density = 23.143733 Si / 1000 Ang^3
#
#
#
# Elastic Constant Matrix: (Units=GPa)
#
#
# Indices 1 2 3 4 5 6 
#
# 1 96.9347 75.0807 31.4667 0.0000 0.0000 0.0000
# 2 75.0807 119.5650 67.8965 0.0000 0.0000 0.0000
# 3 31.4667 67.8965 137.4610 0.0000 0.0000 0.0000
# 4 0.0000 0.0000 0.0000 26.2456 0.0000 0.0000
# 5 0.0000 0.0000 0.0000 0.0000 48.2986 0.0000
# 6 0.0000 0.0000 0.0000 0.0000 0.0000 46.8235
#
#
#
# Elastic Compliance Matrix: (Units=1/GPa)
#
#
# Indices 1 2 3 4 5 6 
#
# 1 0.020607 -0.014262 0.002327 0.000000 0.000000 0.000000
# 2 -0.014262 0.021494 -0.007352 0.000000 0.000000 0.000000
# 3 0.002327 -0.007352 0.010373 0.000000 0.000000 0.000000
# 4 0.000000 0.000000 0.000000 0.038102 0.000000 0.000000
# 5 0.000000 0.000000 0.000000 0.000000 0.020705 0.000000
# 6 0.000000 0.000000 0.000000 0.000000 0.000000 0.021357
#
#
# Mechanical properties :
#
#
# Convention : Reuss Voigt Hill
#
# Bulk Modulus (GPa) = 71.93417 78.09427 75.01422
# Shear Modulus (GPa) = 28.43414 36.24133 32.33774
#
# Velocity S-wave (km/s) = 3.50893 3.96147 3.74204
# Velocity P-wave (km/s) = 6.89679 7.39870 7.15215
#
# Compressibility (1/GPa) = 0.01390160
#
# Stress axis : x y z
#
# Youngs Moduli (GPa) = 48.52669 46.52424 96.39973
#
# Poissons Ratio (x) = 0.66352 -0.22433
# Poissons Ratio (y) = 0.69207 0.70873
# Poissons Ratio (z) = -0.11292 0.34204
#
# Static dielectric constant tensor:
#      x y z
#    x 4.095220 0.000000 0.000000 
#    y 0.000000 4.143670 0.000000 
#    z 0.000000 0.000000 5.446420 
# 
# 
# High freq. dielectric constant tensor:
#      x y z
#    x 1.920820 0.000000 0.000000 
#    y 0.000000 1.895410 0.000000 
#    z 0.000000 0.000000 1.930660 
# 
# From -- ./inp_files/313.got.cif
#   From: 2010.03.12/outbox.cif.g09.slc.cpg/sg60_1_cif.got.tgz:313.got - 2010.04.10 18:46:24.
