data_PCOD8247591
_publ_section_title
;
Structure prediction by ZEFSAII (Michael W. Deem and Ramdas Pophale) SiO2 
 PCOD8247591
Probable space group: P B C N
;
_chemical_formula_sum "Si O2"
_cell_formula_units_Z 64
_cell_length_a 8.916783
_cell_length_b 14.683544
_cell_length_c 21.802096
_cell_angle_alpha 90.000000
_cell_angle_beta 90.000000
_cell_angle_gamma 90.000000
_cell_volume 2854.547896
_symmetry_space_group_name_H-M "P B C N"
_symmetry_group_IT_number 60
_symmetry_cell_setting 'orthorhombic'
loop_
_space_group_symop_operation_xyz
x,y,z
1/2-x,1/2-y,1/2+z
1/2+x,1/2-y,-z
-x,y,1/2-z
-x,-y,-z
1/2+x,1/2+y,1/2-z
1/2-x,1/2+y,z
x,-y,1/2+z
loop_
_atom_site_type_symbol
_atom_site_label
_atom_site_fract_x
_atom_site_fract_y
_atom_site_fract_z
Si Si1 0.408833 0.836586 0.404908
Si Si2 0.164904 0.910241 0.728115
Si Si3 0.252902 0.283289 0.082776
Si Si4 0.848607 0.919023 0.911478
Si Si5 0.656403 0.927576 0.222930
Si Si6 0.158411 0.225468 0.715919
Si Si7 0.153821 0.850448 0.953876
Si Si8 0.169037 0.491224 0.486039
O O1 0.588604 0.831653 0.415969
O O2 0.372328 0.891970 0.344574
O O3 0.340476 0.733998 0.405971
O O4 0.313771 0.892785 0.454879
O O5 0.150532 0.950193 0.659285
O O6 0.279247 0.826208 0.728610
O O7 0.000000 0.878562 0.750000
O O8 0.226568 0.988503 0.773522
O O9 0.234682 0.175714 0.079538
O O10 0.353289 0.299825 0.143715
O O11 0.348163 0.314081 0.023851
O O12 0.763841 0.996392 0.950824
O O13 0.012016 0.912905 0.940310
O O14 0.500000 0.963189 0.250000
O O15 0.716624 0.842349 0.259953
O O16 0.000000 0.211670 0.750000
O O17 0.290086 0.921157 0.943773
O O18 0.000000 0.500000 0.500000
#
# Coordination Sequence:
#
# PCOD8247591 Si02
#       8
#     8   8   8   8   8   8   8   8
#     4  11  25  45  69 107 140 185 240 289 364 424
#     4  11  27  49  72 103 147 188 244 302 360 425
#     4  10  21  46  71 100 148 180 226 302 352 424
#     4  10  25  45  69 105 142 187 236 293 357 425
#     4  12  26  46  76 102 141 192 242 297 360 436
#     4  11  25  47  71 106 140 187 238 298 362 428
#     4  11  24  45  73 101 145 188 229 296 360 427
#     4  12  25  43  70 106 138 185 233 290 354 427
#
# _framework density 22.420363999999999
#
# number of rings (size 3 to 8) (size 9 to 14) (size 15 to 20)
#    0.000    1.000    3.750    1.500    8.750    1.000 
#    4.500    0.000    0.000    0.000    0.000    0.000 
#    0.000    0.000    0.000    0.000    0.000    0.000 
#
# Total GULP energy -793378.727960 kJ/mol
# GULP energy per Si atom -12396.542624 kJ/mol
# Density = 2.236933 g / cm^3
# Si number density = 22.420364 Si / 1000 Ang^3
#
#
#
# Elastic Constant Matrix: (Units=GPa)
#
#
# Indices 1 2 3 4 5 6 
#
# 1 101.3073 25.0485 25.6008 0.0000 0.0000 0.0000
# 2 25.0485 79.4382 11.7265 0.0000 0.0000 0.0000
# 3 25.6008 11.7265 67.2558 0.0000 0.0000 0.0000
# 4 0.0000 0.0000 0.0000 45.8075 0.0000 0.0000
# 5 0.0000 0.0000 0.0000 0.0000 40.4615 0.0000
# 6 0.0000 0.0000 0.0000 0.0000 0.0000 18.4557
#
#
#
# Elastic Compliance Matrix: (Units=1/GPa)
#
#
# Indices 1 2 3 4 5 6 
#
# 1 0.011616 -0.003090 -0.003883 0.000000 0.000000 0.000000
# 2 -0.003090 0.013743 -0.001220 0.000000 0.000000 0.000000
# 3 -0.003883 -0.001220 0.016559 0.000000 0.000000 0.000000
# 4 0.000000 0.000000 0.000000 0.021831 0.000000 0.000000
# 5 0.000000 0.000000 0.000000 0.000000 0.024715 0.000000
# 6 0.000000 0.000000 0.000000 0.000000 0.000000 0.054184
#
#
# Mechanical properties :
#
#
# Convention : Reuss Voigt Hill
#
# Bulk Modulus (GPa) = 39.16512 41.41698 40.29105
# Shear Modulus (GPa) = 29.84301 33.31999 31.58150
#
# Velocity S-wave (km/s) = 3.65234 3.85924 3.75721
# Velocity P-wave (km/s) = 5.94075 6.19446 6.06893
#
# Compressibility (1/GPa) = 0.02553292
#
# Stress axis : x y z
#
# Youngs Moduli (GPa) = 86.08738 72.76584 60.38881
#
# Poissons Ratio (x) = 0.22482 0.23449
# Poissons Ratio (y) = 0.26598 0.07368
# Poissons Ratio (z) = 0.33427 0.08878
#
# Static dielectric constant tensor:
#      x y z
#    x 3.987320 0.000000 0.000000 
#    y 0.000000 3.880820 0.000000 
#    z 0.000000 0.000000 4.199140 
# 
# 
# High freq. dielectric constant tensor:
#      x y z
#    x 1.876940 0.000000 0.000000 
#    y 0.000000 1.898900 0.000000 
#    z 0.000000 0.000000 1.886100 
# 
# From -- ./inp_files/24068.got.cif
#   From: 2010.03.12/outbox.cif.g09.slc.cpg/sg60_13_cif.got.tgz:24068.got - 2010.04.10 18:46:24.
