data_PCOD8247818
_publ_section_title
;
Structure prediction by ZEFSAII (Michael W. Deem and Ramdas Pophale) SiO2 
 PCOD8247818
Probable space group: P B C N
;
_chemical_formula_sum "Si O2"
_cell_formula_units_Z 32
_cell_length_a 8.669922
_cell_length_b 13.961623
_cell_length_c 13.346107
_cell_angle_alpha 90.000000
_cell_angle_beta 90.000000
_cell_angle_gamma 90.000000
_cell_volume 1615.495302
_symmetry_space_group_name_H-M "P B C N"
_symmetry_group_IT_number 60
_symmetry_cell_setting 'orthorhombic'
loop_
_space_group_symop_operation_xyz
x,y,z
1/2-x,1/2-y,1/2+z
1/2+x,1/2-y,-z
-x,y,1/2-z
-x,-y,-z
1/2+x,1/2+y,1/2-z
1/2-x,1/2+y,z
x,-y,1/2+z
loop_
_atom_site_type_symbol
_atom_site_label
_atom_site_fract_x
_atom_site_fract_y
_atom_site_fract_z
Si Si1 0.857358 0.252541 0.430129
Si Si2 0.134928 0.956953 0.566993
Si Si3 0.171661 0.125441 0.715716
Si Si4 0.173679 0.647197 0.922299
O O1 0.916307 0.148109 0.391069
O O2 0.723186 0.290127 0.357634
O O3 0.779151 0.237618 0.540125
O O4 0.993949 0.329179 0.433164
O O5 0.285186 0.942845 0.494936
O O6 0.177038 0.023528 0.659997
O O7 0.000000 0.000000 0.500000
O O8 0.288214 0.120285 0.808629
O O9 0.000000 0.150063 0.750000
#
# Coordination Sequence:
#
# PCOD8247818 Si02
#       4
#     8   8   8   8
#     4  10  23  44  66 101 129 178 222 286 336 397
#     4  10  22  43  68  94 132 179 219 276 347 396
#     4  12  22  41  66  96 135 177 225 272 343 406
#     4  10  22  42  67  94 136 168 228 282 330 416
#
# _framework density 19.808166
#
# number of rings (size 3 to 8) (size 9 to 14) (size 15 to 20)
#    1.500    0.000    2.500    3.750    0.000    3.000 
#    4.500    2.500    0.000    0.000    0.000    0.000 
#    0.000    0.000    0.000    0.000    0.000    0.000 
#
# Total GULP energy -396554.300553 kJ/mol
# GULP energy per Si atom -12392.321892 kJ/mol
# Density = 1.976308 g / cm^3
# Si number density = 19.808166 Si / 1000 Ang^3
#
#
#
# Elastic Constant Matrix: (Units=GPa)
#
#
# Indices 1 2 3 4 5 6 
#
# 1 102.9535 58.4234 43.4301 0.0000 0.0000 0.0000
# 2 58.4234 109.6544 48.2552 0.0000 0.0000 0.0000
# 3 43.4301 48.2552 122.1099 0.0000 0.0000 0.0000
# 4 0.0000 0.0000 0.0000 47.4037 0.0000 0.0000
# 5 0.0000 0.0000 0.0000 0.0000 40.0470 0.0000
# 6 0.0000 0.0000 0.0000 0.0000 0.0000 39.5222
#
#
#
# Elastic Compliance Matrix: (Units=1/GPa)
#
#
# Indices 1 2 3 4 5 6 
#
# 1 0.014553 -0.006629 -0.002556 0.000000 0.000000 0.000000
# 2 -0.006629 0.014059 -0.003198 0.000000 0.000000 0.000000
# 3 -0.002556 -0.003198 0.010362 0.000000 0.000000 0.000000
# 4 0.000000 0.000000 0.000000 0.021095 0.000000 0.000000
# 5 0.000000 0.000000 0.000000 0.000000 0.024971 0.000000
# 6 0.000000 0.000000 0.000000 0.000000 0.000000 0.025302
#
#
# Mechanical properties :
#
#
# Convention : Reuss Voigt Hill
#
# Bulk Modulus (GPa) = 70.38506 70.54836 70.46671
# Shear Modulus (GPa) = 35.75374 37.70185 36.72779
#
# Velocity S-wave (km/s) = 4.25314 4.36747 4.31068
# Velocity P-wave (km/s) = 7.72848 7.81832 7.77353
#
# Compressibility (1/GPa) = 0.01420756
#
# Stress axis : x y z
#
# Youngs Moduli (GPa) = 68.71303 71.12997 96.50281
#
# Poissons Ratio (x) = 0.47151 0.24671
# Poissons Ratio (y) = 0.45549 0.30862
# Poissons Ratio (z) = 0.17566 0.22748
#
# Static dielectric constant tensor:
#      x y z
#    x 3.469200 0.000000 0.000000 
#    y 0.000000 3.584690 0.000000 
#    z 0.000000 0.000000 3.682880 
# 
# 
# High freq. dielectric constant tensor:
#      x y z
#    x 1.771610 0.000000 0.000000 
#    y 0.000000 1.761960 0.000000 
#    z 0.000000 0.000000 1.772190 
# 
# From -- ./inp_files/9482.got.cif
#   From: 2010.03.12/outbox.cif.g09.slc.cpg/sg60_5_cif.got.tgz:9482.got - 2010.04.10 18:46:24.
