data_PCOD8247905
_publ_section_title
;
Structure prediction by ZEFSAII (Michael W. Deem and Ramdas Pophale) SiO2 
 PCOD8247905
Probable space group: P B C N
;
_chemical_formula_sum "Si O2"
_cell_formula_units_Z 48
_cell_length_a 6.388944
_cell_length_b 14.154129
_cell_length_c 24.333226
_cell_angle_alpha 90.000000
_cell_angle_beta 90.000000
_cell_angle_gamma 90.000000
_cell_volume 2200.452108
_symmetry_space_group_name_H-M "P B C N"
_symmetry_group_IT_number 60
_symmetry_cell_setting 'orthorhombic'
loop_
_space_group_symop_operation_xyz
x,y,z
1/2-x,1/2-y,1/2+z
1/2+x,1/2-y,-z
-x,y,1/2-z
-x,-y,-z
1/2+x,1/2+y,1/2-z
1/2-x,1/2+y,z
x,-y,1/2+z
loop_
_atom_site_type_symbol
_atom_site_label
_atom_site_fract_x
_atom_site_fract_y
_atom_site_fract_z
Si Si1 0.045335 0.018912 0.119527
Si Si2 0.429597 0.661376 0.810086
Si Si3 0.149478 0.441348 0.038202
Si Si4 0.443269 0.186280 0.880182
Si Si5 0.292704 0.151752 0.431521
Si Si6 0.325915 0.179872 0.138144
O O1 0.196174 0.086747 0.157443
O O2 0.832058 0.074130 0.105253
O O3 0.153898 0.999445 0.060929
O O4 0.015168 0.918914 0.149044
O O5 0.500000 0.627810 0.750000
O O6 0.177726 0.666729 0.821825
O O7 0.523461 0.767676 0.818036
O O8 0.004447 0.409751 0.089287
O O9 0.234860 0.359586 0.997239
O O10 0.000000 0.500000 0.000000
O O11 0.283876 0.242931 0.918814
O O12 0.658980 0.240474 0.875505
O O13 0.537051 0.146426 0.414192
#
# Coordination Sequence:
#
# PCOD8247905 Si02
#       6
#     8   8   8   8   8   8
#     4  11  23  43  66 100 138 177 234 286 331 425
#     4  11  25  47  69  96 129 180 229 292 355 397
#     4  12  22  37  66  97 138 183 220 270 348 414
#     4  10  24  41  64  95 136 175 231 280 332 421
#     4  10  23  38  66  97 142 178 221 271 347 412
#     4  10  22  47  63  98 136 174 226 285 333 410
#
# _framework density 21.813699
#
# number of rings (size 3 to 8) (size 9 to 14) (size 15 to 20)
#    0.000    1.333    3.333    1.500    2.333    0.667 
#    9.000    0.000    0.000    0.000    0.000    0.000 
#    0.000    0.000    0.000    0.000    0.000    0.000 
#
# Total GULP energy -594698.389020 kJ/mol
# GULP energy per Si atom -12389.549771 kJ/mol
# Density = 2.176405 g / cm^3
# Si number density = 21.813699 Si / 1000 Ang^3
#
#
#
# Elastic Constant Matrix: (Units=GPa)
#
#
# Indices 1 2 3 4 5 6 
#
# 1 130.9972 36.4622 42.2240 0.0000 0.0000 0.0000
# 2 36.4622 80.7578 21.0275 0.0000 0.0000 0.0000
# 3 42.2240 21.0275 88.5076 0.0000 0.0000 0.0000
# 4 0.0000 0.0000 0.0000 23.4919 0.0000 0.0000
# 5 0.0000 0.0000 0.0000 0.0000 29.9397 0.0000
# 6 0.0000 0.0000 0.0000 0.0000 0.0000 44.9927
#
#
#
# Elastic Compliance Matrix: (Units=1/GPa)
#
#
# Indices 1 2 3 4 5 6 
#
# 1 0.009839 -0.003433 -0.003879 0.000000 0.000000 0.000000
# 2 -0.003433 0.014397 -0.001783 0.000000 0.000000 0.000000
# 3 -0.003879 -0.001783 0.013572 0.000000 0.000000 0.000000
# 4 0.000000 0.000000 0.000000 0.042568 0.000000 0.000000
# 5 0.000000 0.000000 0.000000 0.000000 0.033401 0.000000
# 6 0.000000 0.000000 0.000000 0.000000 0.000000 0.022226
#
#
# Mechanical properties :
#
#
# Convention : Reuss Voigt Hill
#
# Bulk Modulus (GPa) = 50.96680 55.52113 53.24396
# Shear Modulus (GPa) = 31.10796 33.05478 32.08137
#
# Velocity S-wave (km/s) = 3.78044 3.89694 3.83913
# Velocity P-wave (km/s) = 6.51697 6.76431 6.64179
#
# Compressibility (1/GPa) = 0.01962062
#
# Stress axis : x y z
#
# Youngs Moduli (GPa) = 101.63282 69.46032 73.67939
#
# Poissons Ratio (x) = 0.23843 0.28577
# Poissons Ratio (y) = 0.34886 0.13135
# Poissons Ratio (z) = 0.39418 0.12383
#
# Static dielectric constant tensor:
#      x y z
#    x 4.467570 0.000000 0.000000 
#    y 0.000000 4.245470 0.000000 
#    z 0.000000 0.000000 4.296860 
# 
# 
# High freq. dielectric constant tensor:
#      x y z
#    x 1.877490 0.000000 0.000000 
#    y 0.000000 1.872030 0.000000 
#    z 0.000000 0.000000 1.810880 
# 
# From -- ./inp_files/24860.got.cif
#   From: 2010.03.12/outbox.cif.g09.slc.cpg/sg60_13_cif.got.tgz:24860.got - 2010.04.10 18:46:24.
