data_PCOD8247353
_publ_section_title
;
Structure prediction by ZEFSAII (Michael W. Deem and Ramdas Pophale) SiO2 
 PCOD8247353
Probable space group: P B C N
;
_chemical_formula_sum "Si O2"
_cell_formula_units_Z 40
_cell_length_a 10.041643
_cell_length_b 24.221447
_cell_length_c 8.033077
_cell_angle_alpha 90.000000
_cell_angle_beta 90.000000
_cell_angle_gamma 90.000000
_cell_volume 1953.830081
_symmetry_space_group_name_H-M "P B C N"
_symmetry_group_IT_number 60
_symmetry_cell_setting 'orthorhombic'
loop_
_space_group_symop_operation_xyz
x,y,z
1/2-x,1/2-y,1/2+z
1/2+x,1/2-y,-z
-x,y,1/2-z
-x,-y,-z
1/2+x,1/2+y,1/2-z
1/2-x,1/2+y,z
x,-y,1/2+z
loop_
_atom_site_type_symbol
_atom_site_label
_atom_site_fract_x
_atom_site_fract_y
_atom_site_fract_z
Si Si1 0.127514 0.772719 0.864879
Si Si2 0.864612 0.312369 0.852926
Si Si3 0.155016 0.027656 0.715028
Si Si4 0.216027 0.081181 0.049978
Si Si5 0.449882 0.625065 0.561915
O O1 0.258256 0.777758 0.753228
O O2 0.000000 0.774391 0.750000
O O3 0.124401 0.715906 0.966763
O O4 0.129452 0.822743 0.996099
O O5 0.000000 0.311127 0.750000
O O6 0.827289 0.375795 0.891236
O O7 0.234765 0.056678 0.865087
O O8 0.150852 0.072228 0.562735
O O9 0.000000 0.014891 0.750000
O O10 0.227197 0.970903 0.672717
O O11 0.073951 0.112404 0.060222
O O12 0.500000 0.636760 0.750000
#
# Coordination Sequence:
#
# PCOD8247353 Si02
#       5
#     8   8   8   8   8
#     4  12  25  44  73  91 128 175 220 270 323 388
#     4  12  28  44  63 100 136 169 223 266 333 392
#     4   9  19  33  65  97 134 157 226 268 321 374
#     4  10  21  38  62  97 129 172 207 279 320 382
#     4   9  19  37  67 101 129 160 219 276 323 375
#
# _framework density 20.472608000000001
#
# number of rings (size 3 to 8) (size 9 to 14) (size 15 to 20)
#    0.000    2.000    2.000    4.200   11.200    0.000 
#    0.000    1.000    0.000    0.000    0.000    0.000 
#    0.000    0.000    0.000    0.000    0.000    0.000 
#
# Total GULP energy -495857.845560 kJ/mol
# GULP energy per Si atom -12396.446139 kJ/mol
# Density = 2.042601 g / cm^3
# Si number density = 20.472608 Si / 1000 Ang^3
#
#
#
# Elastic Constant Matrix: (Units=GPa)
#
#
# Indices 1 2 3 4 5 6 
#
# 1 101.1291 44.8690 50.1675 0.0000 0.0000 0.0000
# 2 44.8690 145.8514 51.0660 0.0000 0.0000 0.0000
# 3 50.1675 51.0660 87.7835 0.0000 0.0000 0.0000
# 4 0.0000 0.0000 0.0000 45.9992 0.0000 0.0000
# 5 0.0000 0.0000 0.0000 0.0000 12.3976 0.0000
# 6 0.0000 0.0000 0.0000 0.0000 0.0000 48.4814
#
#
#
# Elastic Compliance Matrix: (Units=1/GPa)
#
#
# Indices 1 2 3 4 5 6 
#
# 1 0.014217 -0.001920 -0.007008 0.000000 0.000000 0.000000
# 2 -0.001920 0.008869 -0.004062 0.000000 0.000000 0.000000
# 3 -0.007008 -0.004062 0.017760 0.000000 0.000000 0.000000
# 4 0.000000 0.000000 0.000000 0.021740 0.000000 0.000000
# 5 0.000000 0.000000 0.000000 0.000000 0.080661 0.000000
# 6 0.000000 0.000000 0.000000 0.000000 0.000000 0.020626
#
#
# Mechanical properties :
#
#
# Convention : Reuss Voigt Hill
#
# Bulk Modulus (GPa) = 67.26957 69.66322 68.46640
# Shear Modulus (GPa) = 25.66642 33.95308 29.80975
#
# Velocity S-wave (km/s) = 3.54460 4.07684 3.82000
# Velocity P-wave (km/s) = 7.04854 7.50082 7.27819
#
# Compressibility (1/GPa) = 0.01486556
#
# Stress axis : x y z
#
# Youngs Moduli (GPa) = 70.34051 112.74962 56.30737
#
# Poissons Ratio (x) = 0.21647 0.39459
# Poissons Ratio (y) = 0.13505 0.22873
# Poissons Ratio (z) = 0.49293 0.45802
#
# Static dielectric constant tensor:
#      x y z
#    x 3.186520 0.000000 0.000000 
#    y 0.000000 4.007200 0.000000 
#    z 0.000000 0.000000 3.815530 
# 
# 
# High freq. dielectric constant tensor:
#      x y z
#    x 1.749290 0.000000 0.000000 
#    y 0.000000 1.819990 0.000000 
#    z 0.000000 0.000000 1.811820 
# 
# From -- ./inp_files/3874.got.cif
#   From: 2010.03.12/outbox.cif.g09.slc.cpg/sg60_2_cif.got.tgz:3874.got - 2010.04.10 18:46:24.
