data_PCOD8247115
_publ_section_title
;
Structure prediction by ZEFSAII (Michael W. Deem and Ramdas Pophale) SiO2 
 PCOD8247115
Probable space group: P B C N
;
_chemical_formula_sum "Si O2"
_cell_formula_units_Z 24
_cell_length_a 6.101258
_cell_length_b 9.939486
_cell_length_c 14.140306
_cell_angle_alpha 90.000000
_cell_angle_beta 90.000000
_cell_angle_gamma 90.000000
_cell_volume 857.515787
_symmetry_space_group_name_H-M "P B C N"
_symmetry_group_IT_number 60
_symmetry_cell_setting 'orthorhombic'
loop_
_space_group_symop_operation_xyz
x,y,z
1/2-x,1/2-y,1/2+z
1/2+x,1/2-y,-z
-x,y,1/2-z
-x,-y,-z
1/2+x,1/2+y,1/2-z
1/2-x,1/2+y,z
x,-y,1/2+z
loop_
_atom_site_type_symbol
_atom_site_label
_atom_site_fract_x
_atom_site_fract_y
_atom_site_fract_z
Si Si1 0.712860 0.862512 0.179161
Si Si2 0.124022 0.619653 0.421031
Si Si3 0.321544 0.346712 0.114753
O O1 0.691442 0.716983 0.127588
O O2 0.660960 0.838727 0.292480
O O3 0.960582 0.917848 0.155617
O O4 0.570083 0.984164 0.136753
O O5 0.203225 0.579483 0.526850
O O6 0.888710 0.696530 0.421045
#
# Coordination Sequence:
#
# PCOD8247115 Si02
#       3
#     8   8   8
#     4   9  21  40  62  90 127 160 203 261 312 367
#     4  10  20  40  64  87 124 168 204 259 308 372
#     4   9  21  41  63  88 126 163 209 251 315 366
#
# _framework density 27.987825000000001
#
# number of rings (size 3 to 8) (size 9 to 14) (size 15 to 20)
#    2.000    0.667    0.000    1.000    0.000    4.000 
#    6.000    0.000    0.000    0.000    0.000    0.000 
#    0.000    0.000    0.000    0.000    0.000    0.000 
#
# Total GULP energy -297355.421840 kJ/mol
# GULP energy per Si atom -12389.809243 kJ/mol
# Density = 2.792412 g / cm^3
# Si number density = 27.987825 Si / 1000 Ang^3
#
#
#
# Elastic Constant Matrix: (Units=GPa)
#
#
# Indices 1 2 3 4 5 6 
#
# 1 65.1719 8.7005 61.6828 0.0000 0.0000 0.0000
# 2 8.7005 118.7593 69.0459 0.0000 0.0000 0.0000
# 3 61.6828 69.0459 282.7111 0.0000 0.0000 0.0000
# 4 0.0000 0.0000 0.0000 52.2703 0.0000 0.0000
# 5 0.0000 0.0000 0.0000 0.0000 69.0438 0.0000
# 6 0.0000 0.0000 0.0000 0.0000 0.0000 11.9060
#
#
#
# Elastic Compliance Matrix: (Units=1/GPa)
#
#
# Indices 1 2 3 4 5 6 
#
# 1 0.019487 0.001217 -0.004549 0.000000 0.000000 0.000000
# 2 0.001217 0.009890 -0.002681 0.000000 0.000000 0.000000
# 3 -0.004549 -0.002681 0.005184 0.000000 0.000000 0.000000
# 4 0.000000 0.000000 0.000000 0.019131 0.000000 0.000000
# 5 0.000000 0.000000 0.000000 0.000000 0.014484 0.000000
# 6 0.000000 0.000000 0.000000 0.000000 0.000000 0.083991
#
#
# Mechanical properties :
#
#
# Convention : Reuss Voigt Hill
#
# Bulk Modulus (GPa) = 44.37404 82.83341 63.60372
# Shear Modulus (GPa) = 29.11967 48.45821 38.78894
#
# Velocity S-wave (km/s) = 3.22909 4.16553 3.72684
# Velocity P-wave (km/s) = 5.45819 7.26608 6.42603
#
# Compressibility (1/GPa) = 0.02253570
#
# Stress axis : x y z
#
# Youngs Moduli (GPa) = 51.31625 101.11316 192.88439
#
# Poissons Ratio (x) = -0.12306 0.87743
# Poissons Ratio (y) = -0.06246 0.51711
# Poissons Ratio (z) = 0.23344 0.27108
#
# Static dielectric constant tensor:
#      x y z
#    x 5.114910 0.000000 0.000000 
#    y 0.000000 4.360200 0.000000 
#    z 0.000000 0.000000 5.082090 
# 
# 
# High freq. dielectric constant tensor:
#      x y z
#    x 2.159220 0.000000 0.000000 
#    y 0.000000 2.101340 0.000000 
#    z 0.000000 0.000000 2.150770 
# 
# From -- ./inp_files/9343.got.cif
#   From: 2010.03.12/outbox.cif.g09.slc.cpg/sg60_5_cif.got.tgz:9343.got - 2010.04.10 18:46:24.
