data_PCOD8247647
_publ_section_title
;
Structure prediction by ZEFSAII (Michael W. Deem and Ramdas Pophale) SiO2 
 PCOD8247647
Probable space group: P B C N
;
_chemical_formula_sum "Si O2"
_cell_formula_units_Z 48
_cell_length_a 12.158911
_cell_length_b 21.970270
_cell_length_c 8.971895
_cell_angle_alpha 90.000000
_cell_angle_beta 90.000000
_cell_angle_gamma 90.000000
_cell_volume 2396.703201
_symmetry_space_group_name_H-M "P B C N"
_symmetry_group_IT_number 60
_symmetry_cell_setting 'orthorhombic'
loop_
_space_group_symop_operation_xyz
x,y,z
1/2-x,1/2-y,1/2+z
1/2+x,1/2-y,-z
-x,y,1/2-z
-x,-y,-z
1/2+x,1/2+y,1/2-z
1/2-x,1/2+y,z
x,-y,1/2+z
loop_
_atom_site_type_symbol
_atom_site_label
_atom_site_fract_x
_atom_site_fract_y
_atom_site_fract_z
Si Si1 0.067570 0.787180 0.118483
Si Si2 0.412807 0.758399 0.118047
Si Si3 0.102963 0.575337 0.966465
Si Si4 0.868559 0.454327 0.366374
Si Si5 0.244631 0.643263 0.490522
Si Si6 0.215527 0.323575 0.663006
O O1 0.129584 0.834931 0.011515
O O2 0.151681 0.739103 0.188767
O O3 0.000000 0.821341 0.250000
O O4 0.981787 0.746824 0.030194
O O5 0.500000 0.769536 0.250000
O O6 0.332760 0.815940 0.098164
O O7 0.342056 0.695855 0.133586
O O8 0.153266 0.552665 0.809881
O O9 0.973516 0.583961 0.931539
O O10 0.119388 0.525136 0.095400
O O11 0.162771 0.636439 0.027904
O O12 0.763532 0.425639 0.449523
O O13 0.210161 0.641037 0.318574
#
# Coordination Sequence:
#
# PCOD8247647 Si02
#       6
#     8   8   8   8   8   8
#     4  11  23  38  56  86 119 156 191 236 287 344
#     4  11  23  38  56  83 121 154 191 234 286 344
#     4  10  22  38  60  85 119 149 192 236 294 342
#     4  10  22  38  59  87 115 153 188 241 288 346
#     4  11  23  36  60  85 117 154 194 235 290 344
#     4  11  23  37  58  87 115 156 193 238 288 344
#
# _framework density 20.027512000000002
#
# number of rings (size 3 to 8) (size 9 to 14) (size 15 to 20)
#    0.000    1.333    3.333    2.000    7.000    1.333 
#    0.000    0.000    0.000    2.000    0.000    0.000 
#    0.000    0.000    0.000    0.000    0.000    0.000 
#
# Total GULP energy -594895.919009 kJ/mol
# GULP energy per Si atom -12393.664979 kJ/mol
# Density = 1.998193 g / cm^3
# Si number density = 20.027512 Si / 1000 Ang^3
#
#
#
# Elastic Constant Matrix: (Units=GPa)
#
#
# Indices 1 2 3 4 5 6 
#
# 1 65.0878 13.4218 18.5937 0.0000 0.0000 0.0000
# 2 13.4218 44.9740 12.6596 0.0000 0.0000 0.0000
# 3 18.5937 12.6596 113.1388 0.0000 0.0000 0.0000
# 4 0.0000 0.0000 0.0000 32.5735 0.0000 0.0000
# 5 0.0000 0.0000 0.0000 0.0000 28.3286 0.0000
# 6 0.0000 0.0000 0.0000 0.0000 0.0000 27.3836
#
#
#
# Elastic Compliance Matrix: (Units=1/GPa)
#
#
# Indices 1 2 3 4 5 6 
#
# 1 0.016926 -0.004407 -0.002289 0.000000 0.000000 0.000000
# 2 -0.004407 0.024106 -0.001973 0.000000 0.000000 0.000000
# 3 -0.002289 -0.001973 0.009436 0.000000 0.000000 0.000000
# 4 0.000000 0.000000 0.000000 0.030700 0.000000 0.000000
# 5 0.000000 0.000000 0.000000 0.000000 0.035300 0.000000
# 6 0.000000 0.000000 0.000000 0.000000 0.000000 0.036518
#
#
# Mechanical properties :
#
#
# Convention : Reuss Voigt Hill
#
# Bulk Modulus (GPa) = 30.18404 34.72787 32.45596
# Shear Modulus (GPa) = 27.56844 29.55885 28.56364
#
# Velocity S-wave (km/s) = 3.71418 3.84593 3.78063
# Velocity P-wave (km/s) = 5.78771 6.09092 5.94125
#
# Compressibility (1/GPa) = 0.03313009
#
# Stress axis : x y z
#
# Youngs Moduli (GPa) = 59.07911 41.48397 105.98178
#
# Poissons Ratio (x) = 0.18283 0.24255
# Poissons Ratio (y) = 0.26037 0.20910
# Poissons Ratio (z) = 0.13521 0.08185
#
# Static dielectric constant tensor:
#      x y z
#    x 4.117630 0.000000 0.000000 
#    y 0.000000 3.356330 0.000000 
#    z 0.000000 0.000000 6.022870 
# 
# 
# High freq. dielectric constant tensor:
#      x y z
#    x 1.767570 0.000000 0.000000 
#    y 0.000000 1.753870 0.000000 
#    z 0.000000 0.000000 1.798890 
# 
# From -- ./inp_files/5045.got.cif
#   From: 2010.03.12/outbox.cif.g09.slc.cpg/sg60_3_cif.got.tgz:5045.got - 2010.04.10 18:46:24.
