data_PCOD8247201
_publ_section_title
;
Structure prediction by ZEFSAII (Michael W. Deem and Ramdas Pophale) SiO2 
 PCOD8247201
Probable space group: P B C N
;
_chemical_formula_sum "Si O2"
_cell_formula_units_Z 44
_cell_length_a 9.487480
_cell_length_b 13.751067
_cell_length_c 16.703453
_cell_angle_alpha 90.000000
_cell_angle_beta 90.000000
_cell_angle_gamma 90.000000
_cell_volume 2179.182140
_symmetry_space_group_name_H-M "P B C N"
_symmetry_group_IT_number 60
_symmetry_cell_setting 'orthorhombic'
loop_
_space_group_symop_operation_xyz
x,y,z
1/2-x,1/2-y,1/2+z
1/2+x,1/2-y,-z
-x,y,1/2-z
-x,-y,-z
1/2+x,1/2+y,1/2-z
1/2-x,1/2+y,z
x,-y,1/2+z
loop_
_atom_site_type_symbol
_atom_site_label
_atom_site_fract_x
_atom_site_fract_y
_atom_site_fract_z
Si Si1 0.331488 0.424320 0.027764
Si Si2 0.282994 0.291290 0.879474
Si Si3 0.396389 0.938673 0.155248
Si Si4 0.376513 0.590031 0.909262
Si Si5 0.000000 0.271858 0.250000
Si Si6 0.318415 0.973618 0.809567
O O1 0.181127 0.426083 0.071714
O O2 0.453954 0.397508 0.092019
O O3 0.336915 0.340659 0.960995
O O4 0.345290 0.533302 0.992497
O O5 0.207258 0.191163 0.902731
O O6 0.414768 0.287156 0.817683
O O7 0.169677 0.361698 0.836692
O O8 0.385040 0.837699 0.203771
O O9 0.560476 0.966009 0.142569
O O10 0.330708 0.021756 0.213342
O O11 0.330346 0.520643 0.836091
#
# Coordination Sequence:
#
# PCOD8247201 Si02
#       6
#     8   8   8   8   4   8
#     4  10  25  37  65  92 128 169 204 270 329 366
#     4  11  22  40  65  93 125 170 214 264 316 385
#     4  10  20  45  61  89 122 175 206 257 319 376
#     4  10  21  42  55  92 127 156 213 261 316 382
#     4  10  22  42  64  88 132 170 212 262 322 374
#     4   9  21  40  65  84 125 168 210 255 315 382
#
# _framework density 20.191061000000001
#
# number of rings (size 3 to 8) (size 9 to 14) (size 15 to 20)
#    0.000    2.182    3.636    0.000    2.545    9.455 
#    6.545    0.000    0.000    0.000    0.000    0.000 
#    0.000    0.000    0.000    0.000    0.000    0.000 
#
# Total GULP energy -545257.035660 kJ/mol
# GULP energy per Si atom -12392.205356 kJ/mol
# Density = 2.014511 g / cm^3
# Si number density = 20.191061 Si / 1000 Ang^3
#
#
#
# Elastic Constant Matrix: (Units=GPa)
#
#
# Indices 1 2 3 4 5 6 
#
# 1 76.1932 34.0032 46.5556 0.0000 0.0000 0.0000
# 2 34.0032 117.0110 38.5114 0.0000 0.0000 0.0000
# 3 46.5556 38.5114 90.4075 0.0000 0.0000 0.0000
# 4 0.0000 0.0000 0.0000 31.9092 0.0000 0.0000
# 5 0.0000 0.0000 0.0000 0.0000 48.4040 0.0000
# 6 0.0000 0.0000 0.0000 0.0000 0.0000 20.5261
#
#
#
# Elastic Compliance Matrix: (Units=1/GPa)
#
#
# Indices 1 2 3 4 5 6 
#
# 1 0.019911 -0.002805 -0.009059 0.000000 0.000000 0.000000
# 2 -0.002805 0.010335 -0.002958 0.000000 0.000000 0.000000
# 3 -0.009059 -0.002958 0.016986 0.000000 0.000000 0.000000
# 4 0.000000 0.000000 0.000000 0.031339 0.000000 0.000000
# 5 0.000000 0.000000 0.000000 0.000000 0.020659 0.000000
# 6 0.000000 0.000000 0.000000 0.000000 0.000000 0.048718
#
#
# Mechanical properties :
#
#
# Convention : Reuss Voigt Hill
#
# Bulk Modulus (GPa) = 56.85347 57.97246 57.41297
# Shear Modulus (GPa) = 27.25473 31.13730 29.19601
#
# Velocity S-wave (km/s) = 3.67800 3.93126 3.80674
# Velocity P-wave (km/s) = 6.80116 7.02714 6.91507
#
# Compressibility (1/GPa) = 0.01758907
#
# Stress axis : x y z
#
# Youngs Moduli (GPa) = 50.22303 96.76009 58.87257
#
# Poissons Ratio (x) = 0.27139 0.53330
# Poissons Ratio (y) = 0.14086 0.17415
# Poissons Ratio (z) = 0.45495 0.28622
#
# Static dielectric constant tensor:
#      x y z
#    x 3.644560 0.000000 0.000000 
#    y 0.000000 3.754110 0.000000 
#    z 0.000000 0.000000 3.599180 
# 
# 
# High freq. dielectric constant tensor:
#      x y z
#    x 1.781190 0.000000 0.000000 
#    y 0.000000 1.788970 0.000000 
#    z 0.000000 0.000000 1.780770 
# 
# From -- ./inp_files/19200.got.cif
#   From: 2010.03.12/outbox.cif.g09.slc.cpg/sg60_10_cif.got.tgz:19200.got - 2010.04.10 18:46:24.
