data_PCOD8247051
_publ_section_title
;
Structure prediction by ZEFSAII (Michael W. Deem and Ramdas Pophale) SiO2 
 PCOD8247051
Probable space group: P B C N
;
_chemical_formula_sum "Si O2"
_cell_formula_units_Z 48
_cell_length_a 7.769727
_cell_length_b 33.510944
_cell_length_c 7.885473
_cell_angle_alpha 90.000000
_cell_angle_beta 90.000000
_cell_angle_gamma 90.000000
_cell_volume 2053.147595
_symmetry_space_group_name_H-M "P B C N"
_symmetry_group_IT_number 60
_symmetry_cell_setting 'orthorhombic'
loop_
_space_group_symop_operation_xyz
x,y,z
1/2-x,1/2-y,1/2+z
1/2+x,1/2-y,-z
-x,y,1/2-z
-x,-y,-z
1/2+x,1/2+y,1/2-z
1/2-x,1/2+y,z
x,-y,1/2+z
loop_
_atom_site_type_symbol
_atom_site_label
_atom_site_fract_x
_atom_site_fract_y
_atom_site_fract_z
Si Si1 0.654643 0.537175 0.870169
Si Si2 0.254976 0.378198 0.135941
Si Si3 0.000000 0.668769 0.250000
Si Si4 0.339072 0.025149 0.947094
Si Si5 0.869318 0.612311 0.507952
Si Si6 0.500000 0.249294 0.750000
Si Si7 0.753906 0.795318 0.498023
O O1 0.500000 0.526358 0.750000
O O2 0.641370 0.582975 0.936985
O O3 0.829820 0.535420 0.753115
O O4 0.672076 0.502670 0.010958
O O5 0.264396 0.376614 0.341953
O O6 0.061157 0.381945 0.074717
O O7 0.335853 0.337439 0.064134
O O8 0.855500 0.641416 0.345611
O O9 0.901317 0.698273 0.127154
O O10 0.336080 0.066667 0.051852
O O11 0.500000 0.000000 0.000000
O O12 0.339585 0.225271 0.665180
O O13 0.411376 0.273239 0.906640
#
# Coordination Sequence:
#
# PCOD8247051 Si02
#       7
#     8   8   4   8   8   4   8
#     4  11  23  38  55  88 126 167 213 273 336 375
#     4   9  19  40  60  87 126 170 216 268 328 396
#     4  10  20  38  66  99 136 170 220 273 328 394
#     4  11  21  36  61  85 122 170 226 270 313 383
#     4   9  18  33  62  93 120 172 228 271 312 383
#     4  12  26  48  74 109 138 174 220 273 348 420
#     4  11  24  45  72 102 139 171 217 272 341 414
#
# _framework density 23.378738999999999
#
# number of rings (size 3 to 8) (size 9 to 14) (size 15 to 20)
#    0.000    1.667    1.667    4.000    2.333    0.000 
#    9.000    0.000    1.833    0.000    0.000    0.000 
#    0.000    0.000    0.000    0.000    0.000    0.000 
#
# Total GULP energy -594694.846331 kJ/mol
# GULP energy per Si atom -12389.475965 kJ/mol
# Density = 2.332553 g / cm^3
# Si number density = 23.378739 Si / 1000 Ang^3
#
#
#
# Elastic Constant Matrix: (Units=GPa)
#
#
# Indices 1 2 3 4 5 6 
#
# 1 36.1684 24.3684 6.9467 0.0000 0.0000 0.0000
# 2 24.3684 147.9112 45.3064 0.0000 0.0000 0.0000
# 3 6.9467 45.3064 73.4893 0.0000 0.0000 0.0000
# 4 0.0000 0.0000 0.0000 45.3909 0.0000 0.0000
# 5 0.0000 0.0000 0.0000 0.0000 35.9502 0.0000
# 6 0.0000 0.0000 0.0000 0.0000 0.0000 12.7900
#
#
#
# Elastic Compliance Matrix: (Units=1/GPa)
#
#
# Indices 1 2 3 4 5 6 
#
# 1 0.031105 -0.005207 0.000270 0.000000 0.000000 0.000000
# 2 -0.005207 0.009206 -0.005184 0.000000 0.000000 0.000000
# 3 0.000270 -0.005184 0.016778 0.000000 0.000000 0.000000
# 4 0.000000 0.000000 0.000000 0.022031 0.000000 0.000000
# 5 0.000000 0.000000 0.000000 0.000000 0.027816 0.000000
# 6 0.000000 0.000000 0.000000 0.000000 0.000000 0.078186
#
#
# Mechanical properties :
#
#
# Convention : Reuss Voigt Hill
#
# Bulk Modulus (GPa) = 27.13891 45.64575 36.39233
# Shear Modulus (GPa) = 22.97302 30.88936 26.93119
#
# Velocity S-wave (km/s) = 3.13812 3.63886 3.39772
# Velocity P-wave (km/s) = 4.97634 6.10097 5.56713
#
# Compressibility (1/GPa) = 0.03684747
#
# Stress axis : x y z
#
# Youngs Moduli (GPa) = 32.14918 108.61893 59.60320
#
# Poissons Ratio (x) = 0.56561 -0.01610
# Poissons Ratio (y) = 0.16741 0.30896
# Poissons Ratio (z) = -0.00868 0.56304
#
# Static dielectric constant tensor:
#      x y z
#    x 3.749150 0.000000 0.000000 
#    y 0.000000 4.746350 0.000000 
#    z 0.000000 0.000000 4.825710 
# 
# 
# High freq. dielectric constant tensor:
#      x y z
#    x 1.903840 0.000000 0.000000 
#    y 0.000000 1.935630 0.000000 
#    z 0.000000 0.000000 1.919440 
# 
# From -- ./inp_files/4277.got.cif
#   From: 2010.03.12/outbox.cif.g09.slc.cpg/sg60_3_cif.got.tgz:4277.got - 2010.04.10 18:46:24.
