data_PCOD8247423
_publ_section_title
;
Structure prediction by ZEFSAII (Michael W. Deem and Ramdas Pophale) SiO2 
 PCOD8247423
Probable space group: P B C N
;
_chemical_formula_sum "Si O2"
_cell_formula_units_Z 64
_cell_length_a 8.185264
_cell_length_b 15.983430
_cell_length_c 21.709579
_cell_angle_alpha 90.000000
_cell_angle_beta 90.000000
_cell_angle_gamma 90.000000
_cell_volume 2840.233701
_symmetry_space_group_name_H-M "P B C N"
_symmetry_group_IT_number 60
_symmetry_cell_setting 'orthorhombic'
loop_
_space_group_symop_operation_xyz
x,y,z
1/2-x,1/2-y,1/2+z
1/2+x,1/2-y,-z
-x,y,1/2-z
-x,-y,-z
1/2+x,1/2+y,1/2-z
1/2-x,1/2+y,z
x,-y,1/2+z
loop_
_atom_site_type_symbol
_atom_site_label
_atom_site_fract_x
_atom_site_fract_y
_atom_site_fract_z
Si Si1 0.636608 0.268462 0.434770
Si Si2 0.629849 0.078488 0.944513
Si Si3 0.395268 0.571736 0.359845
Si Si4 0.637764 0.302813 0.299759
Si Si5 0.781500 0.464282 0.050689
Si Si6 0.189368 0.638390 0.250332
Si Si7 0.910412 0.154208 0.469753
Si Si8 0.780736 0.013921 0.827314
O O1 0.781400 0.334435 0.440695
O O2 0.558406 0.279353 0.366774
O O3 0.734342 0.181628 0.442802
O O4 0.499786 0.276180 0.487672
O O5 0.436320 0.095000 0.934035
O O6 0.705465 0.011346 0.896037
O O7 0.655217 0.043584 0.012600
O O8 0.279676 0.498829 0.384505
O O9 0.287377 0.629351 0.314286
O O10 0.469201 0.627906 0.414813
O O11 0.535879 0.522107 0.323956
O O12 0.500000 0.320900 0.250000
O O13 0.759176 0.224019 0.282130
O O14 0.736833 0.390568 0.303453
O O15 0.628649 0.421653 0.016212
O O16 0.183087 0.551054 0.214393
O O17 0.000000 0.665123 0.250000
#
# Coordination Sequence:
#
# PCOD8247423 Si02
#       8
#     8   8   8   8   8   8   8   8
#     4  11  24  41  63  96 139 172 228 281 343 422
#     4  10  21  39  64  96 132 172 218 275 339 410
#     4  12  23  41  69  99 134 178 234 284 351 435
#     4  10  23  43  65  93 127 177 227 281 341 404
#     4  11  21  39  67  96 134 176 215 274 344 416
#     4  11  25  44  66  97 131 181 235 290 351 414
#     4  12  24  41  65 103 138 181 225 286 356 422
#     4  11  22  43  70  97 134 178 233 285 346 415
#
# _framework density 22.533355
#
# number of rings (size 3 to 8) (size 9 to 14) (size 15 to 20)
#    0.000    1.000    2.500    5.250    0.000    2.000 
#    2.250    7.500    0.000    0.000    0.000    0.000 
#    0.000    0.000    0.000    0.000    0.000    0.000 
#
# Total GULP energy -793228.868294 kJ/mol
# GULP energy per Si atom -12394.201067 kJ/mol
# Density = 2.248207 g / cm^3
# Si number density = 22.533355 Si / 1000 Ang^3
#
#
#
# Elastic Constant Matrix: (Units=GPa)
#
#
# Indices 1 2 3 4 5 6 
#
# 1 82.9570 6.5992 25.2512 0.0000 0.0000 0.0000
# 2 6.5992 97.6235 28.0805 0.0000 0.0000 0.0000
# 3 25.2512 28.0805 95.1445 0.0000 0.0000 0.0000
# 4 0.0000 0.0000 0.0000 34.6625 0.0000 0.0000
# 5 0.0000 0.0000 0.0000 0.0000 37.6021 0.0000
# 6 0.0000 0.0000 0.0000 0.0000 0.0000 32.4091
#
#
#
# Elastic Compliance Matrix: (Units=1/GPa)
#
#
# Indices 1 2 3 4 5 6 
#
# 1 0.013115 0.000125 -0.003518 0.000000 0.000000 0.000000
# 2 0.000125 0.011195 -0.003337 0.000000 0.000000 0.000000
# 3 -0.003518 -0.003337 0.012429 0.000000 0.000000 0.000000
# 4 0.000000 0.000000 0.000000 0.028850 0.000000 0.000000
# 5 0.000000 0.000000 0.000000 0.000000 0.026594 0.000000
# 6 0.000000 0.000000 0.000000 0.000000 0.000000 0.030856
#
#
# Mechanical properties :
#
#
# Convention : Reuss Voigt Hill
#
# Bulk Modulus (GPa) = 42.95612 43.95409 43.45511
# Shear Modulus (GPa) = 34.66020 35.32102 34.99061
#
# Velocity S-wave (km/s) = 3.92621 3.96346 3.94488
# Velocity P-wave (km/s) = 6.29748 6.36349 6.33057
#
# Compressibility (1/GPa) = 0.02327957
#
# Stress axis : x y z
#
# Youngs Moduli (GPa) = 76.24726 89.32644 80.45785
#
# Poissons Ratio (x) = -0.01119 0.28303
# Poissons Ratio (y) = -0.00955 0.26851
# Poissons Ratio (z) = 0.26822 0.29811
#
# Static dielectric constant tensor:
#      x y z
#    x 4.120250 0.000000 0.000000 
#    y 0.000000 4.110490 0.000000 
#    z 0.000000 0.000000 4.232140 
# 
# 
# High freq. dielectric constant tensor:
#      x y z
#    x 1.875370 0.000000 0.000000 
#    y 0.000000 1.895050 0.000000 
#    z 0.000000 0.000000 1.892730 
# 
# From -- ./inp_files/22381.got.cif
#   From: 2010.03.12/outbox.cif.g09.slc.cpg/sg60_12_cif.got.tgz:22381.got - 2010.04.10 18:46:24.
