data_PCOD8247758
_publ_section_title
;
Structure prediction by ZEFSAII (Michael W. Deem and Ramdas Pophale) SiO2 
 PCOD8247758
Probable space group: P B C N
;
_chemical_formula_sum "Si O2"
_cell_formula_units_Z 64
_cell_length_a 11.940611
_cell_length_b 18.380594
_cell_length_c 14.232518
_cell_angle_alpha 90.000000
_cell_angle_beta 90.000000
_cell_angle_gamma 90.000000
_cell_volume 3123.689330
_symmetry_space_group_name_H-M "P B C N"
_symmetry_group_IT_number 60
_symmetry_cell_setting 'orthorhombic'
loop_
_space_group_symop_operation_xyz
x,y,z
1/2-x,1/2-y,1/2+z
1/2+x,1/2-y,-z
-x,y,1/2-z
-x,-y,-z
1/2+x,1/2+y,1/2-z
1/2-x,1/2+y,z
x,-y,1/2+z
loop_
_atom_site_type_symbol
_atom_site_label
_atom_site_fract_x
_atom_site_fract_y
_atom_site_fract_z
Si Si1 0.110930 0.514384 0.558324
Si Si2 0.871362 0.212787 0.425468
Si Si3 0.253739 0.709432 0.266771
Si Si4 0.748243 0.339254 0.105210
Si Si5 0.496067 0.152259 0.639328
Si Si6 0.371729 0.068345 0.236118
Si Si7 0.447213 0.616682 0.347912
Si Si8 0.276531 0.501232 0.392880
O O1 0.084655 0.582949 0.625686
O O2 0.151302 0.447913 0.625751
O O3 0.210979 0.527116 0.485761
O O4 0.000000 0.500000 0.500000
O O5 0.787043 0.219404 0.339790
O O6 0.794640 0.206320 0.516484
O O7 0.945861 0.285073 0.426478
O O8 0.954949 0.144155 0.416533
O O9 0.217409 0.788169 0.306075
O O10 0.152365 0.651436 0.266449
O O11 0.357516 0.681295 0.329995
O O12 0.686419 0.416870 0.109226
O O13 0.879300 0.360530 0.099903
O O14 0.500000 0.174217 0.750000
O O15 0.500000 0.048457 0.250000
O O16 0.296221 0.015784 0.299619
O O17 0.500000 0.591332 0.250000
O O18 0.390477 0.546966 0.394462
#
# Coordination Sequence:
#
# PCOD8247758 Si02
#       8
#     8   8   8   8   8   8   8   8
#     4  12  23  36  64 101 128 165 209 274 341 385
#     4  11  23  39  68  90 125 173 218 271 317 392
#     4  10  22  41  64  91 126 170 221 257 323 396
#     4  12  23  40  65 101 124 169 225 270 328 392
#     4  12  23  42  67  91 135 171 219 274 333 406
#     4  11  22  40  63  91 133 171 205 271 340 396
#     4   9  20  44  67  88 122 183 218 253 323 401
#     4  11  24  41  67  95 133 166 222 273 328 402
#
# _framework density 20.488593000000002
#
# number of rings (size 3 to 8) (size 9 to 14) (size 15 to 20)
#    0.000    1.000    5.000    2.250    3.500    0.500 
#    0.000    0.625    0.000    0.000    0.000    0.000 
#    0.000    0.000    0.000    0.000    0.000    0.000 
#
# Total GULP energy -793670.549230 kJ/mol
# GULP energy per Si atom -12401.102332 kJ/mol
# Density = 2.044196 g / cm^3
# Si number density = 20.488593 Si / 1000 Ang^3
#
#
#
# Elastic Constant Matrix: (Units=GPa)
#
#
# Indices 1 2 3 4 5 6 
#
# 1 66.5497 30.6442 44.7283 0.0000 0.0000 0.0000
# 2 30.6442 122.2802 37.6821 0.0000 0.0000 0.0000
# 3 44.7283 37.6821 89.1038 0.0000 0.0000 0.0000
# 4 0.0000 0.0000 0.0000 28.9171 0.0000 0.0000
# 5 0.0000 0.0000 0.0000 0.0000 33.3394 0.0000
# 6 0.0000 0.0000 0.0000 0.0000 0.0000 25.5262
#
#
#
# Elastic Compliance Matrix: (Units=1/GPa)
#
#
# Indices 1 2 3 4 5 6 
#
# 1 0.023363 -0.002577 -0.010638 0.000000 0.000000 0.000000
# 2 -0.002577 0.009688 -0.002803 0.000000 0.000000 0.000000
# 3 -0.010638 -0.002803 0.017748 0.000000 0.000000 0.000000
# 4 0.000000 0.000000 0.000000 0.034582 0.000000 0.000000
# 5 0.000000 0.000000 0.000000 0.000000 0.029995 0.000000
# 6 0.000000 0.000000 0.000000 0.000000 0.000000 0.039175
#
#
# Mechanical properties :
#
#
# Convention : Reuss Voigt Hill
#
# Bulk Modulus (GPa) = 53.29738 56.00479 54.65108
# Shear Modulus (GPa) = 25.92817 28.54848 27.23833
#
# Velocity S-wave (km/s) = 3.56124 3.73686 3.65010
# Velocity P-wave (km/s) = 6.55588 6.78327 6.67054
#
# Compressibility (1/GPa) = 0.01876265
#
# Stress axis : x y z
#
# Youngs Moduli (GPa) = 42.80347 103.22495 56.34291
#
# Poissons Ratio (x) = 0.26597 0.59937
# Poissons Ratio (y) = 0.11029 0.15796
# Poissons Ratio (z) = 0.45534 0.28939
#
# Static dielectric constant tensor:
#      x y z
#    x 3.733320 0.000000 0.000000 
#    y 0.000000 3.949510 0.000000 
#    z 0.000000 0.000000 3.737560 
# 
# 
# High freq. dielectric constant tensor:
#      x y z
#    x 1.787970 0.000000 0.000000 
#    y 0.000000 1.806810 0.000000 
#    z 0.000000 0.000000 1.799180 
# 
# From -- ./inp_files/16367.got.cif
#   From: 2010.03.12/outbox.cif.g09.slc.cpg/sg60_9_cif.got.tgz:16367.got - 2010.04.10 18:46:24.
