data_PCOD8247522
_publ_section_title
;
Structure prediction by ZEFSAII (Michael W. Deem and Ramdas Pophale) SiO2 
 PCOD8247522
Probable space group: P B C N
;
_chemical_formula_sum "Si O2"
_cell_formula_units_Z 56
_cell_length_a 5.019729
_cell_length_b 21.246703
_cell_length_c 24.226903
_cell_angle_alpha 90.000000
_cell_angle_beta 90.000000
_cell_angle_gamma 90.000000
_cell_volume 2583.864404
_symmetry_space_group_name_H-M "P B C N"
_symmetry_group_IT_number 60
_symmetry_cell_setting 'orthorhombic'
loop_
_space_group_symop_operation_xyz
x,y,z
1/2-x,1/2-y,1/2+z
1/2+x,1/2-y,-z
-x,y,1/2-z
-x,-y,-z
1/2+x,1/2+y,1/2-z
1/2-x,1/2+y,z
x,-y,1/2+z
loop_
_atom_site_type_symbol
_atom_site_label
_atom_site_fract_x
_atom_site_fract_y
_atom_site_fract_z
Si Si1 0.305109 0.655101 0.463892
Si Si2 0.762497 0.589645 0.627588
Si Si3 0.250907 0.014057 0.463799
Si Si4 0.456868 0.517727 0.312825
Si Si5 0.541323 0.090653 0.315814
Si Si6 0.729148 0.664390 0.904763
Si Si7 0.819199 0.304710 0.901127
O O1 0.232992 0.585454 0.443644
O O2 0.257429 0.660833 0.529217
O O3 0.606021 0.668240 0.444896
O O4 0.098402 0.701798 0.433877
O O5 0.729481 0.530966 0.587564
O O6 0.655045 0.554623 0.683043
O O7 0.566812 0.646077 0.613001
O O8 0.060104 0.617916 0.625829
O O9 0.500000 0.000000 0.500000
O O10 0.000000 0.000000 0.500000
O O11 0.500000 0.533909 0.250000
O O12 0.242624 0.566886 0.338481
O O13 0.750770 0.535398 0.336053
O O14 0.500000 0.101793 0.250000
O O15 0.638827 0.154776 0.345456
O O16 0.776790 0.735183 0.883453
#
# Coordination Sequence:
#
# PCOD8247522 Si02
#       7
#     8   8   8   8   8   8   8
#     4  12  23  40  60  87 124 166 214 257 299 369
#     4  12  22  40  61  88 127 163 200 254 321 370
#     4  12  21  36  57  85 119 153 202 251 307 364
#     4  10  22  41  68  95 119 153 202 263 323 375
#     4  10  21  41  66  93 118 149 205 268 315 358
#     4  12  25  40  57  88 130 172 204 250 300 381
#     4  12  24  40  62  88 120 170 215 249 307 366
#
# _framework density 21.672964
#
# number of rings (size 3 to 8) (size 9 to 14) (size 15 to 20)
#    0.000    0.571    2.857    6.857    0.000    0.000 
#    0.000    0.714    0.000    1.714    0.000    0.000 
#    0.000    0.000    0.000    0.000    0.000    0.000 
#
# Total GULP energy -693995.330495 kJ/mol
# GULP energy per Si atom -12392.773759 kJ/mol
# Density = 2.162364 g / cm^3
# Si number density = 21.672964 Si / 1000 Ang^3
#
#
#
# Elastic Constant Matrix: (Units=GPa)
#
#
# Indices 1 2 3 4 5 6 
#
# 1 128.2158 23.6573 32.0953 0.0000 0.0000 0.0000
# 2 23.6573 130.7034 23.9376 0.0000 0.0000 0.0000
# 3 32.0953 23.9376 49.4847 0.0000 0.0000 0.0000
# 4 0.0000 0.0000 0.0000 23.5977 0.0000 0.0000
# 5 0.0000 0.0000 0.0000 0.0000 25.1001 0.0000
# 6 0.0000 0.0000 0.0000 0.0000 0.0000 38.5860
#
#
#
# Elastic Compliance Matrix: (Units=1/GPa)
#
#
# Indices 1 2 3 4 5 6 
#
# 1 0.009359 -0.000639 -0.005761 0.000000 0.000000 0.000000
# 2 -0.000639 0.008438 -0.003668 0.000000 0.000000 0.000000
# 3 -0.005761 -0.003668 0.025719 0.000000 0.000000 0.000000
# 4 0.000000 0.000000 0.000000 0.042377 0.000000 0.000000
# 5 0.000000 0.000000 0.000000 0.000000 0.039840 0.000000
# 6 0.000000 0.000000 0.000000 0.000000 0.000000 0.025916
#
#
# Mechanical properties :
#
#
# Convention : Reuss Voigt Hill
#
# Bulk Modulus (GPa) = 42.76929 51.97602 47.37266
# Shear Modulus (GPa) = 27.84279 32.70435 30.27357
#
# Velocity S-wave (km/s) = 3.58813 3.88879 3.74148
# Velocity P-wave (km/s) = 6.07808 6.64813 6.36948
#
# Compressibility (1/GPa) = 0.02338126
#
# Stress axis : x y z
#
# Youngs Moduli (GPa) = 106.84406 118.50823 38.88152
#
# Poissons Ratio (x) = 0.07571 0.22401
# Poissons Ratio (y) = 0.06826 0.14260
# Poissons Ratio (z) = 0.61557 0.43463
#
# Static dielectric constant tensor:
#      x y z
#    x 4.488790 0.000000 0.000000 
#    y 0.000000 4.327250 0.000000 
#    z 0.000000 0.000000 2.655660 
# 
# 
# High freq. dielectric constant tensor:
#      x y z
#    x 1.875940 0.000000 0.000000 
#    y 0.000000 1.848830 0.000000 
#    z 0.000000 0.000000 1.836310 
# 
# From -- ./inp_files/23686.got.cif
#   From: 2010.03.12/outbox.cif.g09.slc.cpg/sg60_12_cif.got.tgz:23686.got - 2010.04.10 18:46:24.
