data_PCOD8247250
_publ_section_title
;
Structure prediction by ZEFSAII (Michael W. Deem and Ramdas Pophale) SiO2 
 PCOD8247250
Probable space group: P B C N
;
_chemical_formula_sum "Si O2"
_cell_formula_units_Z 40
_cell_length_a 14.533815
_cell_length_b 12.895000
_cell_length_c 9.062231
_cell_angle_alpha 90.000000
_cell_angle_beta 90.000000
_cell_angle_gamma 90.000000
_cell_volume 1698.384832
_symmetry_space_group_name_H-M "P B C N"
_symmetry_group_IT_number 60
_symmetry_cell_setting 'orthorhombic'
loop_
_space_group_symop_operation_xyz
x,y,z
1/2-x,1/2-y,1/2+z
1/2+x,1/2-y,-z
-x,y,1/2-z
-x,-y,-z
1/2+x,1/2+y,1/2-z
1/2-x,1/2+y,z
x,-y,1/2+z
loop_
_atom_site_type_symbol
_atom_site_label
_atom_site_fract_x
_atom_site_fract_y
_atom_site_fract_z
Si Si1 0.146492 0.421271 0.632314
Si Si2 0.602157 0.570070 0.308075
Si Si3 0.796932 0.935641 0.506332
Si Si4 0.590689 0.892726 0.173561
Si Si5 0.279951 0.249870 0.658838
O O1 0.221510 0.478397 0.529552
O O2 0.103725 0.491068 0.760613
O O3 0.072549 0.392653 0.503470
O O4 0.191602 0.319586 0.708052
O O5 0.500000 0.581926 0.250000
O O6 0.323582 0.559754 0.323549
O O7 0.612221 0.467237 0.409350
O O8 0.635716 0.674499 0.393887
O O9 0.757279 0.821917 0.473186
O O10 0.500000 0.844265 0.250000
O O11 0.680393 0.822356 0.209660
#
# Coordination Sequence:
#
# PCOD8247250 Si02
#       5
#     8   8   8   8   8
#     4  10  21  38  60  85 118 160 200 240 295 359
#     4  11  22  39  61  90 121 154 197 251 298 345
#     4  10  21  38  60  85 118 160 200 240 295 359
#     4  11  22  39  61  90 121 154 197 251 298 345
#     4  10  21  36  60  84 114 158 200 236 287 356
#
# _framework density 23.551787999999998
#
# number of rings (size 3 to 8) (size 9 to 14) (size 15 to 20)
#    0.000    1.600    0.000    6.600    0.000    3.200 
#    0.000    1.000    0.000    0.000    0.000    0.000 
#    0.000    0.000    0.000    0.000    0.000    0.000 
#
# Total GULP energy -495673.930075 kJ/mol
# GULP energy per Si atom -12391.848252 kJ/mol
# Density = 2.349818 g / cm^3
# Si number density = 23.551788 Si / 1000 Ang^3
#
#
#
# Elastic Constant Matrix: (Units=GPa)
#
#
# Indices 1 2 3 4 5 6 
#
# 1 66.6213 33.6883 8.5351 0.0000 0.0000 0.0000
# 2 33.6883 117.2644 40.4300 0.0000 0.0000 0.0000
# 3 8.5351 40.4300 89.5222 0.0000 0.0000 0.0000
# 4 0.0000 0.0000 0.0000 27.0104 0.0000 0.0000
# 5 0.0000 0.0000 0.0000 0.0000 35.6065 0.0000
# 6 0.0000 0.0000 0.0000 0.0000 0.0000 32.5439
#
#
#
# Elastic Compliance Matrix: (Units=1/GPa)
#
#
# Indices 1 2 3 4 5 6 
#
# 1 0.017600 -0.005304 0.000717 0.000000 0.000000 0.000000
# 2 -0.005304 0.011699 -0.004778 0.000000 0.000000 0.000000
# 3 0.000717 -0.004778 0.013260 0.000000 0.000000 0.000000
# 4 0.000000 0.000000 0.000000 0.037023 0.000000 0.000000
# 5 0.000000 0.000000 0.000000 0.000000 0.028085 0.000000
# 6 0.000000 0.000000 0.000000 0.000000 0.000000 0.030728
#
#
# Mechanical properties :
#
#
# Convention : Reuss Voigt Hill
#
# Bulk Modulus (GPa) = 41.96315 48.74608 45.35462
# Shear Modulus (GPa) = 30.29104 31.74912 31.02008
#
# Velocity S-wave (km/s) = 3.59018 3.67557 3.63313
# Velocity P-wave (km/s) = 5.91962 6.22539 6.07443
#
# Compressibility (1/GPa) = 0.02383043
#
# Stress axis : x y z
#
# Youngs Moduli (GPa) = 56.81759 85.48032 75.41626
#
# Poissons Ratio (x) = 0.45335 -0.05409
# Poissons Ratio (y) = 0.30133 0.36031
# Poissons Ratio (z) = -0.04075 0.40840
#
# Static dielectric constant tensor:
#      x y z
#    x 4.241730 0.000000 0.000000 
#    y 0.000000 4.526900 0.000000 
#    z 0.000000 0.000000 4.099150 
# 
# 
# High freq. dielectric constant tensor:
#      x y z
#    x 1.919320 0.000000 0.000000 
#    y 0.000000 1.936470 0.000000 
#    z 0.000000 0.000000 1.920140 
# 
# From -- ./inp_files/11685.got.cif
#   From: 2010.03.12/outbox.cif.g09.slc.cpg/sg60_6_cif.got.tgz:11685.got - 2010.04.10 18:46:24.
