data_PCOD8247428
_publ_section_title
;
Structure prediction by ZEFSAII (Michael W. Deem and Ramdas Pophale) SiO2 
 PCOD8247428
Probable space group: P B C N
;
_chemical_formula_sum "Si O2"
_cell_formula_units_Z 40
_cell_length_a 25.468665
_cell_length_b 5.210087
_cell_length_c 12.209681
_cell_angle_alpha 90.000000
_cell_angle_beta 90.000000
_cell_angle_gamma 90.000000
_cell_volume 1620.150927
_symmetry_space_group_name_H-M "P B C N"
_symmetry_group_IT_number 60
_symmetry_cell_setting 'orthorhombic'
loop_
_space_group_symop_operation_xyz
x,y,z
1/2-x,1/2-y,1/2+z
1/2+x,1/2-y,-z
-x,y,1/2-z
-x,-y,-z
1/2+x,1/2+y,1/2-z
1/2-x,1/2+y,z
x,-y,1/2+z
loop_
_atom_site_type_symbol
_atom_site_label
_atom_site_fract_x
_atom_site_fract_y
_atom_site_fract_z
Si Si1 0.379639 0.355808 0.662025
Si Si2 0.611795 0.149899 0.201900
Si Si3 0.767385 0.960543 0.379956
Si Si4 0.775008 0.657268 0.121838
Si Si5 0.965296 0.747986 0.015495
O O1 0.392390 0.643745 0.700980
O O2 0.321183 0.378631 0.612859
O O3 0.418175 0.259811 0.569327
O O4 0.385084 0.144999 0.758111
O O5 0.662497 0.192623 0.124896
O O6 0.559206 0.211785 0.135092
O O7 0.773143 0.673545 0.323159
O O8 0.746556 0.854127 0.497188
O O9 0.752257 0.403476 0.181414
O O10 0.000000 0.500000 0.000000
O O11 0.000000 0.000000 0.000000
#
# Coordination Sequence:
#
# PCOD8247428 Si02
#       5
#     8   8   8   8   8
#     4  12  27  46  72 107 144 186 240 297 358 430
#     4  12  27  46  72 107 144 186 240 297 358 430
#     4  10  21  39  65  97 141 185 225 274 333 409
#     4  10  21  39  65  97 141 185 225 274 333 409
#     4  12  28  50  76 102 136 184 238 306 374 428
#
# _framework density 24.689056000000001
#
# number of rings (size 3 to 8) (size 9 to 14) (size 15 to 20)
#    0.000    0.800    0.000    7.200    0.000   16.000 
#    0.000    0.000    0.000    0.000    0.000    0.000 
#    0.000    0.000    0.000    0.000    0.000    0.000 
#
# Total GULP energy -495804.916999 kJ/mol
# GULP energy per Si atom -12395.122925 kJ/mol
# Density = 2.463286 g / cm^3
# Si number density = 24.689056 Si / 1000 Ang^3
#
#
#
# Elastic Constant Matrix: (Units=GPa)
#
#
# Indices 1 2 3 4 5 6 
#
# 1 119.4514 63.7345 21.3772 0.0000 0.0000 0.0000
# 2 63.7345 235.6711 39.1038 0.0000 0.0000 0.0000
# 3 21.3772 39.1038 62.1067 0.0000 0.0000 0.0000
# 4 0.0000 0.0000 0.0000 37.8035 0.0000 0.0000
# 5 0.0000 0.0000 0.0000 0.0000 33.7366 0.0000
# 6 0.0000 0.0000 0.0000 0.0000 0.0000 54.9646
#
#
#
# Elastic Compliance Matrix: (Units=1/GPa)
#
#
# Indices 1 2 3 4 5 6 
#
# 1 0.009988 -0.002379 -0.001940 0.000000 0.000000 0.000000
# 2 -0.002379 0.005305 -0.002521 0.000000 0.000000 0.000000
# 3 -0.001940 -0.002521 0.018356 0.000000 0.000000 0.000000
# 4 0.000000 0.000000 0.000000 0.026453 0.000000 0.000000
# 5 0.000000 0.000000 0.000000 0.000000 0.029641 0.000000
# 6 0.000000 0.000000 0.000000 0.000000 0.000000 0.018194
#
#
# Mechanical properties :
#
#
# Convention : Reuss Voigt Hill
#
# Bulk Modulus (GPa) = 50.07787 73.96223 62.02005
# Shear Modulus (GPa) = 38.97896 44.83519 41.90708
#
# Velocity S-wave (km/s) = 3.97772 4.26607 4.12441
# Velocity P-wave (km/s) = 6.43613 7.36806 6.91781
#
# Compressibility (1/GPa) = 0.01996890
#
# Stress axis : x y z
#
# Youngs Moduli (GPa) = 100.11725 188.50167 54.47683
#
# Poissons Ratio (x) = 0.44851 0.10568
# Poissons Ratio (y) = 0.23821 0.13735
# Poissons Ratio (z) = 0.19422 0.47525
#
# Static dielectric constant tensor:
#      x y z
#    x 4.583150 0.000000 0.000000 
#    y 0.000000 5.706420 0.000000 
#    z 0.000000 0.000000 4.721020 
# 
# 
# High freq. dielectric constant tensor:
#      x y z
#    x 1.973090 0.000000 0.000000 
#    y 0.000000 2.031430 0.000000 
#    z 0.000000 0.000000 2.015190 
# 
# From -- ./inp_files/17848.got.cif
#   From: 2010.03.12/outbox.cif.g09.slc.cpg/sg60_9_cif.got.tgz:17848.got - 2010.04.10 18:46:24.
