data_PCOD8247053
_publ_section_title
;
Structure prediction by ZEFSAII (Michael W. Deem and Ramdas Pophale) SiO2 
 PCOD8247053
Probable space group: P B C N
;
_chemical_formula_sum "Si O2"
_cell_formula_units_Z 48
_cell_length_a 11.566029
_cell_length_b 13.811302
_cell_length_c 14.719530
_cell_angle_alpha 90.000000
_cell_angle_beta 90.000000
_cell_angle_gamma 90.000000
_cell_volume 2351.325976
_symmetry_space_group_name_H-M "P B C N"
_symmetry_group_IT_number 60
_symmetry_cell_setting 'orthorhombic'
loop_
_space_group_symop_operation_xyz
x,y,z
1/2-x,1/2-y,1/2+z
1/2+x,1/2-y,-z
-x,y,1/2-z
-x,-y,-z
1/2+x,1/2+y,1/2-z
1/2-x,1/2+y,z
x,-y,1/2+z
loop_
_atom_site_type_symbol
_atom_site_label
_atom_site_fract_x
_atom_site_fract_y
_atom_site_fract_z
Si Si1 0.680490 0.008562 0.954056
Si Si2 0.941278 0.458383 0.134161
Si Si3 0.736589 0.693838 0.046642
Si Si4 0.521953 0.262333 0.652868
Si Si5 0.875830 0.346855 0.719337
Si Si6 0.278589 0.326906 0.607692
O O1 0.780061 0.942306 0.908736
O O2 0.574370 0.013906 0.883806
O O3 0.634534 0.959050 0.044740
O O4 0.738937 0.109927 0.974484
O O5 0.936933 0.348334 0.170147
O O6 0.887381 0.535643 0.206103
O O7 0.618141 0.675338 0.100986
O O8 0.839350 0.700534 0.122124
O O9 0.713936 0.785854 0.981917
O O10 0.500000 0.312379 0.750000
O O11 0.401770 0.273719 0.599865
O O12 0.784526 0.311382 0.795476
O O13 0.000000 0.304584 0.750000
#
# Coordination Sequence:
#
# PCOD8247053 Si02
#       6
#     8   8   8   8   8   8
#     4  10  21  39  64  95 123 174 220 281 330 390
#     4  10  20  38  67  95 123 164 234 279 323 379
#     4  11  25  42  64 100 139 174 227 273 342 405
#     4  12  24  41  63  97 137 177 215 278 337 402
#     4  11  23  41  67  99 132 169 226 289 324 386
#     4  12  24  41  67  99 137 176 222 279 344 393
#
# _framework density 20.414014999999999
#
# number of rings (size 3 to 8) (size 9 to 14) (size 15 to 20)
#    0.000    1.000    6.667    0.500    2.333    0.667 
#    0.000    0.000    0.000    0.000    0.000    0.000 
#    0.000    0.000    0.000    0.000    0.000    0.000 
#
# Total GULP energy -594822.908620 kJ/mol
# GULP energy per Si atom -12392.143930 kJ/mol
# Density = 2.036755 g / cm^3
# Si number density = 20.414015 Si / 1000 Ang^3
#
#
#
# Elastic Constant Matrix: (Units=GPa)
#
#
# Indices 1 2 3 4 5 6 
#
# 1 85.1533 24.5712 19.6791 0.0000 0.0000 0.0000
# 2 24.5712 57.9343 23.1191 0.0000 0.0000 0.0000
# 3 19.6791 23.1191 103.3018 0.0000 0.0000 0.0000
# 4 0.0000 0.0000 0.0000 26.2617 0.0000 0.0000
# 5 0.0000 0.0000 0.0000 0.0000 23.7911 0.0000
# 6 0.0000 0.0000 0.0000 0.0000 0.0000 -11.1952
#
#
#
# Elastic Compliance Matrix: (Units=1/GPa)
#
#
# Indices 1 2 3 4 5 6 
#
# 1 0.013569 -0.005187 -0.001424 0.000000 0.000000 0.000000
# 2 -0.005187 0.020936 -0.003697 0.000000 0.000000 0.000000
# 3 -0.001424 -0.003697 0.010779 0.000000 0.000000 0.000000
# 4 0.000000 0.000000 0.000000 0.038078 0.000000 0.000000
# 5 0.000000 0.000000 0.000000 0.000000 0.042033 0.000000
# 6 0.000000 0.000000 0.000000 0.000000 0.000000 -0.089324
#
#
# Mechanical properties :
#
#
# Convention : Reuss Voigt Hill
#
# Bulk Modulus (GPa) = 40.53840 42.34759 41.44300
# Shear Modulus (GPa) = 77.02874 19.70618 48.36746
#
# Velocity S-wave (km/s) = 6.14940 3.11034 4.87285
# Velocity P-wave (km/s) = 8.38579 5.80417 7.21144
#
# Compressibility (1/GPa) = 0.02466797
#
# Stress axis : x y z
#
# Youngs Moduli (GPa) = 73.69579 47.76408 92.77134
#
# Poissons Ratio (x) = 0.24774 0.13212
# Poissons Ratio (y) = 0.38224 0.34302
# Poissons Ratio (z) = 0.10496 0.17661
#
# Static dielectric constant tensor:
#      x y z
#    x 3.624080 0.000000 0.000000 
#    y 0.000000 3.468930 0.000000 
#    z 0.000000 0.000000 3.932810 
# 
# 
# High freq. dielectric constant tensor:
#      x y z
#    x 1.782630 0.000000 0.000000 
#    y 0.000000 1.776660 0.000000 
#    z 0.000000 0.000000 1.823280 
# 
# From -- ./inp_files/16059.got.cif
#   From: 2010.03.12/outbox.cif.g09.slc.cpg/sg60_9_cif.got.tgz:16059.got - 2010.04.10 18:46:24.
