data_PCOD8247244
_publ_section_title
;
Structure prediction by ZEFSAII (Michael W. Deem and Ramdas Pophale) SiO2 
 PCOD8247244
Probable space group: P B C N
;
_chemical_formula_sum "Si O2"
_cell_formula_units_Z 52
_cell_length_a 6.224160
_cell_length_b 21.174916
_cell_length_c 21.846454
_cell_angle_alpha 90.000000
_cell_angle_beta 90.000000
_cell_angle_gamma 90.000000
_cell_volume 2879.276675
_symmetry_space_group_name_H-M "P B C N"
_symmetry_group_IT_number 60
_symmetry_cell_setting 'orthorhombic'
loop_
_space_group_symop_operation_xyz
x,y,z
1/2-x,1/2-y,1/2+z
1/2+x,1/2-y,-z
-x,y,1/2-z
-x,-y,-z
1/2+x,1/2+y,1/2-z
1/2-x,1/2+y,z
x,-y,1/2+z
loop_
_atom_site_type_symbol
_atom_site_label
_atom_site_fract_x
_atom_site_fract_y
_atom_site_fract_z
Si Si1 0.365350 0.049996 0.460188
Si Si2 0.616640 0.135844 0.811120
Si Si3 0.624226 0.825820 0.978908
Si Si4 0.500000 0.569168 0.750000
Si Si5 0.811194 0.289082 0.419995
Si Si6 0.724569 0.960961 0.140410
Si Si7 0.007192 0.103760 0.536614
O O1 0.472251 0.118722 0.454829
O O2 0.131323 0.055104 0.491796
O O3 0.500000 0.000000 0.500000
O O4 0.350002 0.026974 0.389543
O O5 0.500000 0.156317 0.750000
O O6 0.617391 0.200982 0.849876
O O7 0.484302 0.081856 0.847468
O O8 0.855032 0.111931 0.794579
O O9 0.667920 0.773881 0.926117
O O10 0.516683 0.787645 0.035095
O O11 0.853197 0.853427 0.996122
O O12 0.648751 0.527154 0.704482
O O13 0.681460 0.353079 0.431169
O O14 0.873399 0.930876 0.088530
#
# Coordination Sequence:
#
# PCOD8247244 Si02
#       7
#     8   8   8   4   8   8   8
#     4  11  23  34  54  89 119 149 186 231 295 359
#     4  10  21  36  57  89 109 146 197 242 287 333
#     4  11  22  33  55  90 114 155 182 234 304 345
#     4  10  22  34  58  88 104 156 192 242 294 318
#     4  11  20  36  55  84 121 145 191 238 287 359
#     4  11  20  36  57  84 118 145 193 239 286 348
#     4  11  20  34  58  87 116 149 181 234 297 339
#
# _framework density 18.060092000000001
#
# number of rings (size 3 to 8) (size 9 to 14) (size 15 to 20)
#    0.000    1.231    6.154    1.385    0.000    0.000 
#    0.000    0.000    0.000    0.000   26.000    0.000 
#    0.000    0.000    0.000    0.000    0.000    0.000 
#
# Total GULP energy -644637.551246 kJ/mol
# GULP energy per Si atom -12396.875986 kJ/mol
# Density = 1.801899 g / cm^3
# Si number density = 18.060092 Si / 1000 Ang^3
#
#
#
# Elastic Constant Matrix: (Units=GPa)
#
#
# Indices 1 2 3 4 5 6 
#
# 1 95.8897 35.5298 39.6270 0.0000 0.0000 0.0000
# 2 35.5298 90.5796 60.6866 0.0000 0.0000 0.0000
# 3 39.6270 60.6866 117.2743 0.0000 0.0000 0.0000
# 4 0.0000 0.0000 0.0000 33.1147 0.0000 0.0000
# 5 0.0000 0.0000 0.0000 0.0000 29.8551 0.0000
# 6 0.0000 0.0000 0.0000 0.0000 0.0000 32.2249
#
#
#
# Elastic Compliance Matrix: (Units=1/GPa)
#
#
# Indices 1 2 3 4 5 6 
#
# 1 0.012709 -0.003227 -0.002625 0.000000 0.000000 0.000000
# 2 -0.003227 0.017718 -0.008078 0.000000 0.000000 0.000000
# 3 -0.002625 -0.008078 0.013594 0.000000 0.000000 0.000000
# 4 0.000000 0.000000 0.000000 0.030198 0.000000 0.000000
# 5 0.000000 0.000000 0.000000 0.000000 0.033495 0.000000
# 6 0.000000 0.000000 0.000000 0.000000 0.000000 0.031032
#
#
# Mechanical properties :
#
#
# Convention : Reuss Voigt Hill
#
# Bulk Modulus (GPa) = 61.87391 63.93670 62.90531
# Shear Modulus (GPa) = 29.07101 30.23228 29.65164
#
# Velocity S-wave (km/s) = 4.01644 4.09587 4.05635
# Velocity P-wave (km/s) = 7.47285 7.60574 7.53959
#
# Compressibility (1/GPa) = 0.01616190
#
# Stress axis : x y z
#
# Youngs Moduli (GPa) = 78.68541 56.43978 73.56054
#
# Poissons Ratio (x) = 0.18211 0.19307
# Poissons Ratio (y) = 0.25388 0.59425
# Poissons Ratio (z) = 0.20652 0.45594
#
# Static dielectric constant tensor:
#      x y z
#    x 3.686720 0.000000 0.000000 
#    y 0.000000 3.211730 0.000000 
#    z 0.000000 0.000000 3.439920 
# 
# 
# High freq. dielectric constant tensor:
#      x y z
#    x 1.721660 0.000000 0.000000 
#    y 0.000000 1.673920 0.000000 
#    z 0.000000 0.000000 1.690340 
# 
# From -- ./inp_files/21647.got.cif
#   From: 2010.03.12/outbox.cif.g09.slc.cpg/sg60_11_cif.got.tgz:21647.got - 2010.04.10 18:46:24.
