data_PCOD8247780
_publ_section_title
;
Structure prediction by ZEFSAII (Michael W. Deem and Ramdas Pophale) SiO2 
 PCOD8247780
Probable space group: P B C N
;
_chemical_formula_sum "Si O2"
_cell_formula_units_Z 40
_cell_length_a 6.606967
_cell_length_b 24.179801
_cell_length_c 11.096830
_cell_angle_alpha 90.000000
_cell_angle_beta 90.000000
_cell_angle_gamma 90.000000
_cell_volume 1772.775711
_symmetry_space_group_name_H-M "P B C N"
_symmetry_group_IT_number 60
_symmetry_cell_setting 'orthorhombic'
loop_
_space_group_symop_operation_xyz
x,y,z
1/2-x,1/2-y,1/2+z
1/2+x,1/2-y,-z
-x,y,1/2-z
-x,-y,-z
1/2+x,1/2+y,1/2-z
1/2-x,1/2+y,z
x,-y,1/2+z
loop_
_atom_site_type_symbol
_atom_site_label
_atom_site_fract_x
_atom_site_fract_y
_atom_site_fract_z
Si Si1 0.000000 0.957928 0.250000
Si Si2 0.800294 0.548048 0.328353
Si Si3 0.926093 0.694028 0.878435
Si Si4 0.000000 0.860288 0.750000
Si Si5 0.279191 0.106725 0.933535
Si Si6 0.027065 0.196919 0.492228
O O1 0.865255 0.920637 0.163753
O O2 0.848014 0.995582 0.327565
O O3 0.692978 0.602449 0.279348
O O4 0.844817 0.560865 0.468356
O O5 0.000000 0.535105 0.250000
O O6 0.000000 0.718916 0.750000
O O7 0.011862 0.631491 0.883955
O O8 0.988738 0.737182 0.983933
O O9 0.685752 0.686103 0.899146
O O10 0.910060 0.824156 0.640545
O O11 0.174549 0.162989 0.979151
#
# Coordination Sequence:
#
# PCOD8247780 Si02
#       6
#     4   8   8   4   8   8
#     4  11  24  42  64  96 132 170 222 285 338 402
#     4  10  22  41  67  93 123 170 221 279 339 395
#     4  12  24  40  64  96 133 176 219 269 336 406
#     4   9  20  40  62  92 126 164 218 267 326 398
#     4  11  24  43  64  96 132 175 220 274 343 404
#     4  11  22  40  62  92 132 172 216 268 329 404
#
# _framework density 22.563486000000001
#
# number of rings (size 3 to 8) (size 9 to 14) (size 15 to 20)
#    0.000    1.200    3.000    3.000    0.000    3.200 
#    0.000    2.000    0.000    0.000    0.000    0.000 
#    0.000    0.000    0.000    0.000    0.000    0.000 
#
# Total GULP energy -495700.797302 kJ/mol
# GULP energy per Si atom -12392.519933 kJ/mol
# Density = 2.251213 g / cm^3
# Si number density = 22.563486 Si / 1000 Ang^3
#
#
#
# Elastic Constant Matrix: (Units=GPa)
#
#
# Indices 1 2 3 4 5 6 
#
# 1 75.7039 17.2529 5.6883 0.0000 0.0000 0.0000
# 2 17.2529 102.7618 14.0070 0.0000 0.0000 0.0000
# 3 5.6883 14.0070 77.9203 0.0000 0.0000 0.0000
# 4 0.0000 0.0000 0.0000 23.9720 0.0000 0.0000
# 5 0.0000 0.0000 0.0000 0.0000 43.7260 0.0000
# 6 0.0000 0.0000 0.0000 0.0000 0.0000 33.8360
#
#
#
# Elastic Compliance Matrix: (Units=1/GPa)
#
#
# Indices 1 2 3 4 5 6 
#
# 1 0.013763 -0.002228 -0.000604 0.000000 0.000000 0.000000
# 2 -0.002228 0.010336 -0.001695 0.000000 0.000000 0.000000
# 3 -0.000604 -0.001695 0.013183 0.000000 0.000000 0.000000
# 4 0.000000 0.000000 0.000000 0.041715 0.000000 0.000000
# 5 0.000000 0.000000 0.000000 0.000000 0.022870 0.000000
# 6 0.000000 0.000000 0.000000 0.000000 0.000000 0.029554
#
#
# Mechanical properties :
#
#
# Convention : Reuss Voigt Hill
#
# Bulk Modulus (GPa) = 35.42849 36.69803 36.06326
# Shear Modulus (GPa) = 33.35887 34.93597 34.14742
#
# Velocity S-wave (km/s) = 3.84923 3.93917 3.89446
# Velocity P-wave (km/s) = 5.95745 6.08186 6.01997
#
# Compressibility (1/GPa) = 0.02822587
#
# Stress axis : x y z
#
# Youngs Moduli (GPa) = 72.66079 96.74505 75.85812
#
# Poissons Ratio (x) = 0.21558 0.04583
# Poissons Ratio (y) = 0.16191 0.12861
# Poissons Ratio (z) = 0.04390 0.16402
#
# Static dielectric constant tensor:
#      x y z
#    x 3.959740 0.000000 0.000000 
#    y 0.000000 4.088020 0.000000 
#    z 0.000000 0.000000 4.244590 
# 
# 
# High freq. dielectric constant tensor:
#      x y z
#    x 1.884890 0.000000 0.000000 
#    y 0.000000 1.904040 0.000000 
#    z 0.000000 0.000000 1.883440 
# 
# From -- ./inp_files/9113.got.cif
#   From: 2010.03.12/outbox.cif.g09.slc.cpg/sg60_5_cif.got.tgz:9113.got - 2010.04.10 18:46:24.
