data_PCOD8247023
_publ_section_title
;
Structure prediction by ZEFSAII (Michael W. Deem and Ramdas Pophale) SiO2 
 PCOD8247023
Probable space group: P B C N
;
_chemical_formula_sum "Si O2"
_cell_formula_units_Z 60
_cell_length_a 9.016916
_cell_length_b 11.545136
_cell_length_c 28.408753
_cell_angle_alpha 90.000000
_cell_angle_beta 90.000000
_cell_angle_gamma 90.000000
_cell_volume 2957.394412
_symmetry_space_group_name_H-M "P B C N"
_symmetry_group_IT_number 60
_symmetry_cell_setting 'orthorhombic'
loop_
_space_group_symop_operation_xyz
x,y,z
1/2-x,1/2-y,1/2+z
1/2+x,1/2-y,-z
-x,y,1/2-z
-x,-y,-z
1/2+x,1/2+y,1/2-z
1/2-x,1/2+y,z
x,-y,1/2+z
loop_
_atom_site_type_symbol
_atom_site_label
_atom_site_fract_x
_atom_site_fract_y
_atom_site_fract_z
Si Si1 0.164394 0.422498 0.300751
Si Si2 0.514176 0.409267 0.439411
Si Si3 0.958180 0.403581 0.852395
Si Si4 0.248920 0.499545 0.993566
Si Si5 0.702964 0.469661 0.788700
Si Si6 0.509769 0.148945 0.460748
Si Si7 0.013504 0.142928 0.833127
Si Si8 0.500000 0.727270 0.250000
O O1 0.184843 0.492809 0.252336
O O2 0.317034 0.387198 0.324606
O O3 0.072578 0.305768 0.290657
O O4 0.081210 0.503633 0.337690
O O5 0.655008 0.477806 0.459552
O O6 0.358960 0.472044 0.450593
O O7 0.511165 0.285758 0.464526
O O8 0.535361 0.401276 0.384047
O O9 0.797022 0.446670 0.835689
O O10 0.958652 0.396875 0.908420
O O11 0.991294 0.280094 0.827964
O O12 0.136509 0.604303 0.004007
O O13 0.152607 0.388993 0.978273
O O14 0.587198 0.574548 0.795671
O O15 0.621753 0.351189 0.775418
#
# Coordination Sequence:
#
# PCOD8247023 Si02
#       8
#     8   8   8   8   8   8   8   4
#     4  12  23  42  62  87 121 161 204 248 303 354
#     4  10  21  38  61  88 118 153 193 240 292 352
#     4  11  24  40  62  89 122 157 201 251 298 353
#     4  10  20  38  62  86 120 152 192 236 294 354
#     4  12  23  42  62  87 121 161 204 248 303 354
#     4  10  21  38  61  88 118 153 193 240 292 352
#     4  11  24  40  62  89 122 157 201 251 298 353
#     4  12  24  40  64  88 116 164 210 250 300 364
#
# _framework density 20.288129999999999
#
# number of rings (size 3 to 8) (size 9 to 14) (size 15 to 20)
#    0.000    1.067    2.667    4.000    0.000    1.067 
#    0.000    0.000    5.867    0.000    0.000    0.000 
#    0.000    0.000    0.000    0.000    0.000    0.000 
#
# Total GULP energy -744362.401562 kJ/mol
# GULP energy per Si atom -12406.040026 kJ/mol
# Density = 2.024195 g / cm^3
# Si number density = 20.288130 Si / 1000 Ang^3
#
#
#
# Elastic Constant Matrix: (Units=GPa)
#
#
# Indices 1 2 3 4 5 6 
#
# 1 97.5737 29.7988 2.4441 0.0000 0.0000 0.0000
# 2 29.7988 80.9411 0.9008 0.0000 0.0000 0.0000
# 3 2.4441 0.9008 37.6577 0.0000 0.0000 0.0000
# 4 0.0000 0.0000 0.0000 34.5569 0.0000 0.0000
# 5 0.0000 0.0000 0.0000 0.0000 -81.3339 0.0000
# 6 0.0000 0.0000 0.0000 0.0000 0.0000 34.0122
#
#
#
# Elastic Compliance Matrix: (Units=1/GPa)
#
#
# Indices 1 2 3 4 5 6 
#
# 1 0.011563 -0.004250 -0.000649 0.000000 0.000000 0.000000
# 2 -0.004250 0.013920 -0.000057 0.000000 0.000000 0.000000
# 3 -0.000649 -0.000057 0.026598 0.000000 0.000000 0.000000
# 4 0.000000 0.000000 0.000000 0.028938 0.000000 0.000000
# 5 0.000000 0.000000 0.000000 0.000000 -0.012295 0.000000
# 6 0.000000 0.000000 0.000000 0.000000 0.000000 0.029401
#
#
# Mechanical properties :
#
#
# Convention : Reuss Voigt Hill
#
# Bulk Modulus (GPa) = 23.71365 31.38443 27.54904
# Shear Modulus (GPa) = 40.95245 9.64896 25.30071
#
# Velocity S-wave (km/s) = 4.49769 2.18318 3.53522
# Velocity P-wave (km/s) = 6.21982 4.67525 5.50201
#
# Compressibility (1/GPa) = 0.04216980
#
# Stress axis : x y z
#
# Youngs Moduli (GPa) = 86.48466 71.83997 37.59618
#
# Poissons Ratio (x) = 0.30529 0.02439
# Poissons Ratio (y) = 0.36753 0.00215
# Poissons Ratio (z) = 0.05611 0.00411
#
# Static dielectric constant tensor:
#      x y z
#    x 3.736030 0.000000 0.000000 
#    y 0.000000 3.743310 0.000000 
#    z 0.000000 0.000000 3.531710 
# 
# 
# High freq. dielectric constant tensor:
#      x y z
#    x 1.810010 0.000000 0.000000 
#    y 0.000000 1.800180 0.000000 
#    z 0.000000 0.000000 1.788760 
# 
# From -- ./inp_files/8166.got.cif
#   From: 2010.03.12/outbox.cif.g09.slc.cpg/sg60_5_cif.got.tgz:8166.got - 2010.04.10 18:46:24.
