data_PCOD8247798
_publ_section_title
;
Structure prediction by ZEFSAII (Michael W. Deem and Ramdas Pophale) SiO2 
 PCOD8247798
Probable space group: P B C N
;
_chemical_formula_sum "Si O2"
_cell_formula_units_Z 60
_cell_length_a 23.610272
_cell_length_b 9.958886
_cell_length_c 12.204497
_cell_angle_alpha 90.000000
_cell_angle_beta 90.000000
_cell_angle_gamma 90.000000
_cell_volume 2869.667877
_symmetry_space_group_name_H-M "P B C N"
_symmetry_group_IT_number 60
_symmetry_cell_setting 'orthorhombic'
loop_
_space_group_symop_operation_xyz
x,y,z
1/2-x,1/2-y,1/2+z
1/2+x,1/2-y,-z
-x,y,1/2-z
-x,-y,-z
1/2+x,1/2+y,1/2-z
1/2-x,1/2+y,z
x,-y,1/2+z
loop_
_atom_site_type_symbol
_atom_site_label
_atom_site_fract_x
_atom_site_fract_y
_atom_site_fract_z
Si Si1 0.590574 0.853775 0.396787
Si Si2 0.157795 0.104892 0.139407
Si Si3 0.237667 0.592929 0.300846
Si Si4 0.038811 0.253616 0.882754
Si Si5 0.919049 0.847140 0.331354
Si Si6 0.000000 0.500005 0.750000
Si Si7 0.241261 0.151364 0.951326
Si Si8 0.157977 0.386958 0.605919
O O1 0.628590 0.746241 0.332662
O O2 0.562789 0.769408 0.495939
O O3 0.544697 0.905692 0.310685
O O4 0.630115 0.975627 0.440406
O O5 0.205114 0.088194 0.231180
O O6 0.111563 0.986642 0.142844
O O7 0.185010 0.109252 0.017896
O O8 0.237364 0.462574 0.372768
O O9 0.230196 0.717936 0.380490
O O10 0.181990 0.584775 0.226577
O O11 0.082347 0.179043 0.800109
O O12 0.982660 0.159844 0.880050
O O13 0.028827 0.405044 0.840133
O O14 0.889252 0.725750 0.393471
O O15 0.292007 0.176761 0.035144
#
# Coordination Sequence:
#
# PCOD8247798 Si02
#       8
#     8   8   8   8   8   4   8   8
#     4  12  24  41  68  99 128 167 225 273 323 393
#     4  11  26  41  64 100 130 171 222 262 327 404
#     4  11  24  43  63  94 135 168 212 272 318 391
#     4  10  23  43  70  92 130 174 218 266 340 380
#     4  10  22  45  64  92 133 173 211 272 327 388
#     4  10  22  42  62 100 130 160 216 284 306 388
#     4  11  24  42  65  97 130 173 216 266 327 389
#     4  11  23  40  68  97 126 170 226 263 324 391
#
# _framework density 20.908342999999999
#
# number of rings (size 3 to 8) (size 9 to 14) (size 15 to 20)
#    0.000    1.333    2.667    3.600    5.600    6.933 
#    2.400    0.000    0.000    0.000    0.000    0.000 
#    0.000    0.000    0.000    0.000    0.000    0.000 
#
# Total GULP energy -744005.555530 kJ/mol
# GULP energy per Si atom -12400.092592 kJ/mol
# Density = 2.086075 g / cm^3
# Si number density = 20.908343 Si / 1000 Ang^3
#
#
#
# Elastic Constant Matrix: (Units=GPa)
#
#
# Indices 1 2 3 4 5 6 
#
# 1 70.1461 15.5202 19.1503 0.0000 0.0000 0.0000
# 2 15.5202 92.4734 8.9316 0.0000 0.0000 0.0000
# 3 19.1503 8.9316 70.4656 0.0000 0.0000 0.0000
# 4 0.0000 0.0000 0.0000 27.2706 0.0000 0.0000
# 5 0.0000 0.0000 0.0000 0.0000 15.6055 0.0000
# 6 0.0000 0.0000 0.0000 0.0000 0.0000 43.4175
#
#
#
# Elastic Compliance Matrix: (Units=1/GPa)
#
#
# Indices 1 2 3 4 5 6 
#
# 1 0.015857 -0.002273 -0.004021 0.000000 0.000000 0.000000
# 2 -0.002273 0.011274 -0.000811 0.000000 0.000000 0.000000
# 3 -0.004021 -0.000811 0.015387 0.000000 0.000000 0.000000
# 4 0.000000 0.000000 0.000000 0.036670 0.000000 0.000000
# 5 0.000000 0.000000 0.000000 0.000000 0.064080 0.000000
# 6 0.000000 0.000000 0.000000 0.000000 0.000000 0.023032
#
#
# Mechanical properties :
#
#
# Convention : Reuss Voigt Hill
#
# Bulk Modulus (GPa) = 35.32745 35.58771 35.45758
# Shear Modulus (GPa) = 26.32334 29.89091 28.10713
#
# Velocity S-wave (km/s) = 3.55207 3.78513 3.67045
# Velocity P-wave (km/s) = 5.80999 6.01338 5.91256
#
# Compressibility (1/GPa) = 0.02830660
#
# Stress axis : x y z
#
# Youngs Moduli (GPa) = 63.06488 88.70166 64.98996
#
# Poissons Ratio (x) = 0.20161 0.26134
# Poissons Ratio (y) = 0.14334 0.05272
# Poissons Ratio (z) = 0.25360 0.07196
#
# Static dielectric constant tensor:
#      x y z
#    x 3.996220 0.000000 0.000000 
#    y 0.000000 3.746240 0.000000 
#    z 0.000000 0.000000 3.839220 
# 
# 
# High freq. dielectric constant tensor:
#      x y z
#    x 1.833910 0.000000 0.000000 
#    y 0.000000 1.821390 0.000000 
#    z 0.000000 0.000000 1.817680 
# 
# From -- ./inp_files/13279.got.cif
#   From: 2010.03.12/outbox.cif.g09.slc.cpg/sg60_7_cif.got.tgz:13279.got - 2010.04.10 18:46:24.
