data_PCOD8247994
_publ_section_title
;
Structure prediction by ZEFSAII (Michael W. Deem and Ramdas Pophale) SiO2 
 PCOD8247994
Probable space group: P B C N
;
_chemical_formula_sum "Si O2"
_cell_formula_units_Z 48
_cell_length_a 12.395596
_cell_length_b 17.612301
_cell_length_c 9.939075
_cell_angle_alpha 90.000000
_cell_angle_beta 90.000000
_cell_angle_gamma 90.000000
_cell_volume 2169.848839
_symmetry_space_group_name_H-M "P B C N"
_symmetry_group_IT_number 60
_symmetry_cell_setting 'orthorhombic'
loop_
_space_group_symop_operation_xyz
x,y,z
1/2-x,1/2-y,1/2+z
1/2+x,1/2-y,-z
-x,y,1/2-z
-x,-y,-z
1/2+x,1/2+y,1/2-z
1/2-x,1/2+y,z
x,-y,1/2+z
loop_
_atom_site_type_symbol
_atom_site_label
_atom_site_fract_x
_atom_site_fract_y
_atom_site_fract_z
Si Si1 0.073930 0.258512 0.123390
Si Si2 0.898013 0.319803 0.948793
Si Si3 0.616060 0.037546 0.277094
Si Si4 0.195907 0.169475 0.650070
Si Si5 0.175542 0.869241 0.445367
Si Si6 0.747765 0.528286 0.007591
O O1 0.182993 0.299285 0.170259
O O2 0.000000 0.234784 0.250000
O O3 0.100786 0.181565 0.041409
O O4 0.009815 0.319391 0.031522
O O5 0.904042 0.375925 0.822507
O O6 0.882971 0.235121 0.896623
O O7 0.800670 0.345470 0.044295
O O8 0.500000 0.999688 0.250000
O O9 0.694545 0.038291 0.150158
O O10 0.663885 0.985700 0.393352
O O11 0.146098 0.139026 0.789149
O O12 0.186748 0.105184 0.534375
O O13 0.163922 0.957787 0.487226
#
# Coordination Sequence:
#
# PCOD8247994 Si02
#       6
#     8   8   8   8   8   8
#     4  11  23  43  71  96 133 176 226 279 331 394
#     4  10  24  39  65  97 126 170 226 270 328 388
#     4  11  23  38  61  95 130 170 217 273 334 400
#     4  11  23  41  69  94 137 170 219 276 336 388
#     4  10  23  43  63  97 131 176 218 269 331 400
#     4  11  23  42  63  91 136 177 215 268 340 401
#
# _framework density 22.121358000000001
#
# number of rings (size 3 to 8) (size 9 to 14) (size 15 to 20)
#    0.000    1.333    3.333    1.500    7.000    3.333 
#    0.000    0.833    0.000    0.000    0.000    0.000 
#    0.000    0.000    0.000    0.000    0.000    0.000 
#
# Total GULP energy -595296.198048 kJ/mol
# GULP energy per Si atom -12402.004126 kJ/mol
# Density = 2.207101 g / cm^3
# Si number density = 22.121358 Si / 1000 Ang^3
#
#
#
# Elastic Constant Matrix: (Units=GPa)
#
#
# Indices 1 2 3 4 5 6 
#
# 1 42.3762 5.8868 21.2111 0.0000 0.0000 0.0000
# 2 5.8868 85.9956 33.9827 0.0000 0.0000 0.0000
# 3 21.2111 33.9827 120.7095 0.0000 0.0000 0.0000
# 4 0.0000 0.0000 0.0000 25.5558 0.0000 0.0000
# 5 0.0000 0.0000 0.0000 0.0000 22.5158 0.0000
# 6 0.0000 0.0000 0.0000 0.0000 0.0000 15.8786
#
#
#
# Elastic Compliance Matrix: (Units=1/GPa)
#
#
# Indices 1 2 3 4 5 6 
#
# 1 0.025874 0.000029 -0.004555 0.000000 0.000000 0.000000
# 2 0.000029 0.013084 -0.003689 0.000000 0.000000 0.000000
# 3 -0.004555 -0.003689 0.010123 0.000000 0.000000 0.000000
# 4 0.000000 0.000000 0.000000 0.039130 0.000000 0.000000
# 5 0.000000 0.000000 0.000000 0.000000 0.044413 0.000000
# 6 0.000000 0.000000 0.000000 0.000000 0.000000 0.062978
#
#
# Mechanical properties :
#
#
# Convention : Reuss Voigt Hill
#
# Bulk Modulus (GPa) = 30.62588 41.24917 35.93753
# Shear Modulus (GPa) = 22.43003 25.32342 23.87673
#
# Velocity S-wave (km/s) = 3.18772 3.38709 3.28891
# Velocity P-wave (km/s) = 5.23672 5.82955 5.54107
#
# Compressibility (1/GPa) = 0.03265213
#
# Stress axis : x y z
#
# Youngs Moduli (GPa) = 38.64893 76.42844 98.78381
#
# Poissons Ratio (x) = -0.00219 0.44993
# Poissons Ratio (y) = -0.00111 0.36437
# Poissons Ratio (z) = 0.17603 0.28191
#
# Static dielectric constant tensor:
#      x y z
#    x 3.799590 0.000000 0.000000 
#    y 0.000000 4.129780 0.000000 
#    z 0.000000 0.000000 4.161230 
# 
# 
# High freq. dielectric constant tensor:
#      x y z
#    x 1.850020 0.000000 0.000000 
#    y 0.000000 1.876500 0.000000 
#    z 0.000000 0.000000 1.883300 
# 
# From -- ./inp_files/5935.got.cif
#   From: 2010.03.12/outbox.cif.g09.slc.cpg/sg60_3_cif.got.tgz:5935.got - 2010.04.10 18:46:24.
