data_PCOD8247520
_publ_section_title
;
Structure prediction by ZEFSAII (Michael W. Deem and Ramdas Pophale) SiO2 
 PCOD8247520
Probable space group: P B C N
;
_chemical_formula_sum "Si O2"
_cell_formula_units_Z 56
_cell_length_a 10.589882
_cell_length_b 11.795584
_cell_length_c 21.304242
_cell_angle_alpha 90.000000
_cell_angle_beta 90.000000
_cell_angle_gamma 90.000000
_cell_volume 2661.194734
_symmetry_space_group_name_H-M "P B C N"
_symmetry_group_IT_number 60
_symmetry_cell_setting 'orthorhombic'
loop_
_space_group_symop_operation_xyz
x,y,z
1/2-x,1/2-y,1/2+z
1/2+x,1/2-y,-z
-x,y,1/2-z
-x,-y,-z
1/2+x,1/2+y,1/2-z
1/2-x,1/2+y,z
x,-y,1/2+z
loop_
_atom_site_type_symbol
_atom_site_label
_atom_site_fract_x
_atom_site_fract_y
_atom_site_fract_z
Si Si1 0.120970 0.892141 0.831630
Si Si2 0.548079 0.592261 0.584810
Si Si3 0.828214 0.055126 0.458254
Si Si4 0.591607 0.996102 0.882004
Si Si5 0.882590 0.326683 0.641016
Si Si6 0.793988 0.360806 0.772599
Si Si7 0.889853 0.755744 0.861322
O O1 0.234134 0.839444 0.875828
O O2 0.174400 0.918143 0.762256
O O3 0.011455 0.800127 0.823872
O O4 0.076891 0.011666 0.857289
O O5 0.409626 0.558121 0.558602
O O6 0.656240 0.578810 0.531955
O O7 0.548187 0.719618 0.610413
O O8 0.879891 0.165603 0.422648
O O9 0.682207 0.036706 0.440243
O O10 0.578322 0.130130 0.882928
O O11 0.455621 0.935870 0.887404
O O12 0.646951 0.958220 0.815047
O O13 0.891311 0.317506 0.718110
O O14 0.737187 0.261710 0.818092
#
# Coordination Sequence:
#
# PCOD8247520 Si02
#       7
#     8   8   8   8   8   8   8
#     4   9  22  38  61  93 126 168 209 253 329 373
#     4  10  21  45  64  88 129 163 210 271 313 381
#     4   9  23  43  66  90 119 169 214 262 320 378
#     4  11  23  41  65  94 128 161 218 261 319 380
#     4  10  24  37  63  96 128 159 209 260 322 374
#     4   9  22  37  60  98 121 166 204 256 320 377
#     4  10  21  41  66  88 125 170 212 260 313 380
#
# _framework density 21.043178999999999
#
# number of rings (size 3 to 8) (size 9 to 14) (size 15 to 20)
#    0.857    1.429    0.000    0.857    8.000    3.429 
#    5.143    2.857    0.000    0.000    0.000    0.000 
#    0.000    0.000    0.000    0.000    0.000    0.000 
#
# Total GULP energy -693881.216418 kJ/mol
# GULP energy per Si atom -12390.736007 kJ/mol
# Density = 2.099528 g / cm^3
# Si number density = 21.043179 Si / 1000 Ang^3
#
#
#
# Elastic Constant Matrix: (Units=GPa)
#
#
# Indices 1 2 3 4 5 6 
#
# 1 62.0112 8.6595 -3.0666 0.0000 0.0000 0.0000
# 2 8.6595 109.9062 3.1121 0.0000 0.0000 0.0000
# 3 -3.0666 3.1121 58.8325 0.0000 0.0000 0.0000
# 4 0.0000 0.0000 0.0000 19.6819 0.0000 0.0000
# 5 0.0000 0.0000 0.0000 0.0000 29.1685 0.0000
# 6 0.0000 0.0000 0.0000 0.0000 0.0000 24.0067
#
#
#
# Elastic Compliance Matrix: (Units=1/GPa)
#
#
# Indices 1 2 3 4 5 6 
#
# 1 0.016355 -0.001315 0.000922 0.000000 0.000000 0.000000
# 2 -0.001315 0.009218 -0.000556 0.000000 0.000000 0.000000
# 3 0.000922 -0.000556 0.017075 0.000000 0.000000 0.000000
# 4 0.000000 0.000000 0.000000 0.050808 0.000000 0.000000
# 5 0.000000 0.000000 0.000000 0.000000 0.034284 0.000000
# 6 0.000000 0.000000 0.000000 0.000000 0.000000 0.041655
#
#
# Mechanical properties :
#
#
# Convention : Reuss Voigt Hill
#
# Bulk Modulus (GPa) = 24.53955 27.57332 26.05643
# Shear Modulus (GPa) = 27.04513 29.37440 28.20977
#
# Velocity S-wave (km/s) = 3.58889 3.74024 3.66535
# Velocity P-wave (km/s) = 5.37218 5.63775 5.50657
#
# Compressibility (1/GPa) = 0.04075054
#
# Stress axis : x y z
#
# Youngs Moduli (GPa) = 61.14223 108.48332 58.56550
#
# Poissons Ratio (x) = 0.14263 -0.05400
# Poissons Ratio (y) = 0.08039 0.03257
# Poissons Ratio (z) = -0.05638 0.06033
#
# Static dielectric constant tensor:
#      x y z
#    x 3.909590 0.000000 0.000000 
#    y 0.000000 3.494930 0.000000 
#    z 0.000000 0.000000 3.736920 
# 
# 
# High freq. dielectric constant tensor:
#      x y z
#    x 1.828920 0.000000 0.000000 
#    y 0.000000 1.805160 0.000000 
#    z 0.000000 0.000000 1.817220 
# 
# From -- ./inp_files/24276.got.cif
#   From: 2010.03.12/outbox.cif.g09.slc.cpg/sg60_13_cif.got.tgz:24276.got - 2010.04.10 18:46:24.
