data_PCOD8247075
_publ_section_title
;
Structure prediction by ZEFSAII (Michael W. Deem and Ramdas Pophale) SiO2 
 PCOD8247075
Probable space group: P B C N
;
_chemical_formula_sum "Si O2"
_cell_formula_units_Z 32
_cell_length_a 8.118002
_cell_length_b 19.378489
_cell_length_c 9.857832
_cell_angle_alpha 90.000000
_cell_angle_beta 90.000000
_cell_angle_gamma 90.000000
_cell_volume 1550.781021
_symmetry_space_group_name_H-M "P B C N"
_symmetry_group_IT_number 60
_symmetry_cell_setting 'orthorhombic'
loop_
_space_group_symop_operation_xyz
x,y,z
1/2-x,1/2-y,1/2+z
1/2+x,1/2-y,-z
-x,y,1/2-z
-x,-y,-z
1/2+x,1/2+y,1/2-z
1/2-x,1/2+y,z
x,-y,1/2+z
loop_
_atom_site_type_symbol
_atom_site_label
_atom_site_fract_x
_atom_site_fract_y
_atom_site_fract_z
Si Si1 0.886241 0.977029 0.874695
Si Si2 0.425037 0.222632 0.599305
Si Si3 0.688060 0.378646 0.284332
Si Si4 0.222922 0.651894 0.006902
O O1 0.000000 0.952713 0.750000
O O2 0.781797 0.044276 0.837039
O O3 0.754302 0.916460 0.903768
O O4 0.000000 0.000000 0.000000
O O5 0.500000 0.233830 0.750000
O O6 0.262564 0.174504 0.606510
O O7 0.545661 0.190015 0.483088
O O8 0.371490 0.296321 0.540278
O O9 0.500000 0.361784 0.250000
O O10 0.787857 0.372552 0.146997
#
# Coordination Sequence:
#
# PCOD8247075 Si02
#       4
#     8   8   8   8
#     4  11  21  38  67  92 124 173 216 269 335 399
#     4  10  23  39  65  92 133 171 218 276 334 398
#     4  10  20  39  62  90 123 166 211 269 325 391
#     4  11  21  39  62  93 125 169 216 272 326 397
#
# _framework density 20.634763
#
# number of rings (size 3 to 8) (size 9 to 14) (size 15 to 20)
#    0.000    1.500    5.000    2.250    0.000    1.000 
#    0.000    0.000    0.000    0.000    0.000    0.000 
#    0.000    0.000    0.000    0.000    0.000    0.000 
#
# Total GULP energy -396538.565728 kJ/mol
# GULP energy per Si atom -12391.830179 kJ/mol
# Density = 2.058780 g / cm^3
# Si number density = 20.634763 Si / 1000 Ang^3
#
#
#
# Elastic Constant Matrix: (Units=GPa)
#
#
# Indices 1 2 3 4 5 6 
#
# 1 90.6870 54.9967 23.6380 0.0000 0.0000 0.0000
# 2 54.9967 156.0276 47.2088 0.0000 0.0000 0.0000
# 3 23.6380 47.2088 84.2163 0.0000 0.0000 0.0000
# 4 0.0000 0.0000 0.0000 30.3586 0.0000 0.0000
# 5 0.0000 0.0000 0.0000 0.0000 29.6929 0.0000
# 6 0.0000 0.0000 0.0000 0.0000 0.0000 36.8008
#
#
#
# Elastic Compliance Matrix: (Units=1/GPa)
#
#
# Indices 1 2 3 4 5 6 
#
# 1 0.014164 -0.004564 -0.001417 0.000000 0.000000 0.000000
# 2 -0.004564 0.009189 -0.003870 0.000000 0.000000 0.000000
# 3 -0.001417 -0.003870 0.014441 0.000000 0.000000 0.000000
# 4 0.000000 0.000000 0.000000 0.032940 0.000000 0.000000
# 5 0.000000 0.000000 0.000000 0.000000 0.033678 0.000000
# 6 0.000000 0.000000 0.000000 0.000000 0.000000 0.027173
#
#
# Mechanical properties :
#
#
# Convention : Reuss Voigt Hill
#
# Bulk Modulus (GPa) = 55.27262 64.73534 60.00398
# Shear Modulus (GPa) = 31.78287 33.04297 32.41292
#
# Velocity S-wave (km/s) = 3.92887 4.00600 3.96762
# Velocity P-wave (km/s) = 6.88663 7.26894 7.08036
#
# Compressibility (1/GPa) = 0.01809214
#
# Stress axis : x y z
#
# Youngs Moduli (GPa) = 70.60155 108.83005 69.24562
#
# Poissons Ratio (x) = 0.49667 0.09814
# Poissons Ratio (y) = 0.32220 0.26797
# Poissons Ratio (z) = 0.10007 0.42116
#
# Static dielectric constant tensor:
#      x y z
#    x 3.391690 0.000000 0.000000 
#    y 0.000000 3.956510 0.000000 
#    z 0.000000 0.000000 3.825410 
# 
# 
# High freq. dielectric constant tensor:
#      x y z
#    x 1.793700 0.000000 0.000000 
#    y 0.000000 1.822100 0.000000 
#    z 0.000000 0.000000 1.801120 
# 
# From -- ./inp_files/3611.got.cif
#   From: 2010.03.12/outbox.cif.g09.slc.cpg/sg60_2_cif.got.tgz:3611.got - 2010.04.10 18:46:24.
