data_PCOD8247835
_publ_section_title
;
Structure prediction by ZEFSAII (Michael W. Deem and Ramdas Pophale) SiO2 
 PCOD8247835
Probable space group: P B C N
;
_chemical_formula_sum "Si O2"
_cell_formula_units_Z 32
_cell_length_a 13.447620
_cell_length_b 8.311168
_cell_length_c 11.896877
_cell_angle_alpha 90.000000
_cell_angle_beta 90.000000
_cell_angle_gamma 90.000000
_cell_volume 1329.659562
_symmetry_space_group_name_H-M "P B C N"
_symmetry_group_IT_number 60
_symmetry_cell_setting 'orthorhombic'
loop_
_space_group_symop_operation_xyz
x,y,z
1/2-x,1/2-y,1/2+z
1/2+x,1/2-y,-z
-x,y,1/2-z
-x,-y,-z
1/2+x,1/2+y,1/2-z
1/2-x,1/2+y,z
x,-y,1/2+z
loop_
_atom_site_type_symbol
_atom_site_label
_atom_site_fract_x
_atom_site_fract_y
_atom_site_fract_z
Si Si1 0.403549 0.222904 0.512347
Si Si2 0.932513 0.428127 0.148455
Si Si3 0.785149 0.782666 0.776597
Si Si4 0.390219 0.605335 0.795407
O O1 0.503224 0.213713 0.587769
O O2 0.308685 0.241154 0.593878
O O3 0.401898 0.376830 0.430004
O O4 0.397145 0.060532 0.439880
O O5 0.833622 0.347682 0.194218
O O6 0.000000 0.501693 0.250000
O O7 0.665918 0.764540 0.756041
O O8 0.822480 0.957516 0.742518
O O9 0.500000 0.585960 0.750000
#
# Coordination Sequence:
#
# PCOD8247835 Si02
#       4
#     8   8   8   8
#     4  10  22  42  72 101 141 186 225 288 352 403
#     4   9  19  41  71 105 138 178 232 285 348 423
#     4  11  26  45  67 102 140 180 235 287 343 420
#     4  12  27  46  70 103 141 183 236 286 343 417
#
# _framework density 24.066312
#
# number of rings (size 3 to 8) (size 9 to 14) (size 15 to 20)
#    0.000    1.500    0.000    4.500    0.000   14.000 
#    0.000    1.250    0.000    0.000    0.000    0.000 
#    0.000    0.000    0.000    0.000    0.000    0.000 
#
# Total GULP energy -396771.628826 kJ/mol
# GULP energy per Si atom -12399.113401 kJ/mol
# Density = 2.401154 g / cm^3
# Si number density = 24.066312 Si / 1000 Ang^3
#
#
#
# Elastic Constant Matrix: (Units=GPa)
#
#
# Indices 1 2 3 4 5 6 
#
# 1 88.8301 41.6983 19.8703 0.0000 0.0000 0.0000
# 2 41.6983 84.1070 36.1130 0.0000 0.0000 0.0000
# 3 19.8703 36.1130 148.6761 0.0000 0.0000 0.0000
# 4 0.0000 0.0000 0.0000 43.5539 0.0000 0.0000
# 5 0.0000 0.0000 0.0000 0.0000 21.6971 0.0000
# 6 0.0000 0.0000 0.0000 0.0000 0.0000 34.2019
#
#
#
# Elastic Compliance Matrix: (Units=1/GPa)
#
#
# Indices 1 2 3 4 5 6 
#
# 1 0.014678 -0.007184 -0.000217 0.000000 0.000000 0.000000
# 2 -0.007184 0.016790 -0.003118 0.000000 0.000000 0.000000
# 3 -0.000217 -0.003118 0.007512 0.000000 0.000000 0.000000
# 4 0.000000 0.000000 0.000000 0.022960 0.000000 0.000000
# 5 0.000000 0.000000 0.000000 0.000000 0.046089 0.000000
# 6 0.000000 0.000000 0.000000 0.000000 0.000000 0.029238
#
#
# Mechanical properties :
#
#
# Convention : Reuss Voigt Hill
#
# Bulk Modulus (GPa) = 55.73240 57.44183 56.58711
# Shear Modulus (GPa) = 30.43458 34.81937 32.62697
#
# Velocity S-wave (km/s) = 3.56000 3.80782 3.68599
# Velocity P-wave (km/s) = 6.33295 6.57667 6.45596
#
# Compressibility (1/GPa) = 0.01794288
#
# Stress axis : x y z
#
# Youngs Moduli (GPa) = 68.12804 59.55878 133.11360
#
# Poissons Ratio (x) = 0.42787 0.02885
# Poissons Ratio (y) = 0.48944 0.41507
# Poissons Ratio (z) = 0.01477 0.18571
#
# Static dielectric constant tensor:
#      x y z
#    x 4.428170 0.000000 0.000000 
#    y 0.000000 4.265360 0.000000 
#    z 0.000000 0.000000 4.674630 
# 
# 
# High freq. dielectric constant tensor:
#      x y z
#    x 1.959440 0.000000 0.000000 
#    y 0.000000 1.948790 0.000000 
#    z 0.000000 0.000000 1.967330 
# 
# From -- ./inp_files/11517.got.cif
#   From: 2010.03.12/outbox.cif.g09.slc.cpg/sg60_6_cif.got.tgz:11517.got - 2010.04.10 18:46:24.
