data_PCOD8247387
_publ_section_title
;
Structure prediction by ZEFSAII (Michael W. Deem and Ramdas Pophale) SiO2 
 PCOD8247387
Probable space group: P B C N
;
_chemical_formula_sum "Si O2"
_cell_formula_units_Z 48
_cell_length_a 10.703557
_cell_length_b 25.265252
_cell_length_c 8.227125
_cell_angle_alpha 90.000000
_cell_angle_beta 90.000000
_cell_angle_gamma 90.000000
_cell_volume 2224.845493
_symmetry_space_group_name_H-M "P B C N"
_symmetry_group_IT_number 60
_symmetry_cell_setting 'orthorhombic'
loop_
_space_group_symop_operation_xyz
x,y,z
1/2-x,1/2-y,1/2+z
1/2+x,1/2-y,-z
-x,y,1/2-z
-x,-y,-z
1/2+x,1/2+y,1/2-z
1/2-x,1/2+y,z
x,-y,1/2+z
loop_
_atom_site_type_symbol
_atom_site_label
_atom_site_fract_x
_atom_site_fract_y
_atom_site_fract_z
Si Si1 0.006820 0.155712 0.059947
Si Si2 0.927744 0.954480 0.913650
Si Si3 0.648980 0.966983 0.841420
Si Si4 0.763492 0.325119 0.443227
Si Si5 0.418436 0.071287 0.504990
Si Si6 0.368704 0.263715 0.335717
O O1 0.070803 0.101676 0.996510
O O2 0.000000 0.166447 0.250000
O O3 0.096364 0.200053 0.987600
O O4 0.868893 0.150957 0.988992
O O5 0.786972 0.972427 0.905586
O O6 0.000000 0.942058 0.750000
O O7 0.000000 0.000000 0.000000
O O8 0.656688 0.947670 0.655619
O O9 0.564570 0.925883 0.948544
O O10 0.592484 0.026394 0.855514
O O11 0.864789 0.373067 0.424105
O O12 0.809577 0.289308 0.592364
O O13 0.737450 0.291162 0.278641
O O14 0.500000 0.249396 0.250000
#
# Coordination Sequence:
#
# PCOD8247387 Si02
#       6
#     8   8   8   8   8   8
#     4  10  21  40  63  89 124 163 212 274 331 398
#     4  11  22  36  60  93 124 168 216 267 334 394
#     4  10  21  39  60  94 129 171 221 276 331 429
#     4  11  22  42  64  92 126 176 221 281 347 403
#     4  10  22  39  65  89 132 177 216 276 348 406
#     4  10  24  41  65  94 130 169 229 285 339 407
#
# _framework density 21.574532999999999
#
# number of rings (size 3 to 8) (size 9 to 14) (size 15 to 20)
#    0.000    1.667    0.000    5.000    2.333    4.667 
#    3.000    0.000    7.333    0.000    0.000    0.000 
#    0.000    0.000    0.000    0.000    0.000    0.000 
#
# Total GULP energy -594811.528494 kJ/mol
# GULP energy per Si atom -12391.906844 kJ/mol
# Density = 2.152543 g / cm^3
# Si number density = 21.574533 Si / 1000 Ang^3
#
#
#
# Elastic Constant Matrix: (Units=GPa)
#
#
# Indices 1 2 3 4 5 6 
#
# 1 123.8678 26.5390 22.7777 0.0000 0.0000 0.0000
# 2 26.5390 91.0757 38.2215 0.0000 0.0000 0.0000
# 3 22.7777 38.2215 77.6710 0.0000 0.0000 0.0000
# 4 0.0000 0.0000 0.0000 26.3518 0.0000 0.0000
# 5 0.0000 0.0000 0.0000 0.0000 29.4711 0.0000
# 6 0.0000 0.0000 0.0000 0.0000 0.0000 17.8677
#
#
#
# Elastic Compliance Matrix: (Units=1/GPa)
#
#
# Indices 1 2 3 4 5 6 
#
# 1 0.008777 -0.001862 -0.001658 0.000000 0.000000 0.000000
# 2 -0.001862 0.014233 -0.006458 0.000000 0.000000 0.000000
# 3 -0.001658 -0.006458 0.016539 0.000000 0.000000 0.000000
# 4 0.000000 0.000000 0.000000 0.037948 0.000000 0.000000
# 5 0.000000 0.000000 0.000000 0.000000 0.033932 0.000000
# 6 0.000000 0.000000 0.000000 0.000000 0.000000 0.055967
#
#
# Mechanical properties :
#
#
# Convention : Reuss Voigt Hill
#
# Bulk Modulus (GPa) = 51.03712 51.96567 51.50139
# Shear Modulus (GPa) = 25.78910 28.40987 27.09948
#
# Velocity S-wave (km/s) = 3.46113 3.63274 3.54798
# Velocity P-wave (km/s) = 6.29922 6.46024 6.38023
#
# Compressibility (1/GPa) = 0.01959358
#
# Stress axis : x y z
#
# Youngs Moduli (GPa) = 113.93601 70.26168 60.46401
#
# Poissons Ratio (x) = 0.13082 0.10023
# Poissons Ratio (y) = 0.21213 0.39046
# Poissons Ratio (z) = 0.18887 0.45373
#
# Static dielectric constant tensor:
#      x y z
#    x 3.889800 0.000000 0.000000 
#    y 0.000000 3.820680 0.000000 
#    z 0.000000 0.000000 4.003690 
# 
# 
# High freq. dielectric constant tensor:
#      x y z
#    x 1.858580 0.000000 0.000000 
#    y 0.000000 1.847050 0.000000 
#    z 0.000000 0.000000 1.844120 
# 
# From -- ./inp_files/5057.got.cif
#   From: 2010.03.12/outbox.cif.g09.slc.cpg/sg60_3_cif.got.tgz:5057.got - 2010.04.10 18:46:24.
