data_PCOD8247048
_publ_section_title
;
Structure prediction by ZEFSAII (Michael W. Deem and Ramdas Pophale) SiO2 
 PCOD8247048
Probable space group: P B C N
;
_chemical_formula_sum "Si O2"
_cell_formula_units_Z 56
_cell_length_a 13.494914
_cell_length_b 14.174098
_cell_length_c 14.548258
_cell_angle_alpha 90.000000
_cell_angle_beta 90.000000
_cell_angle_gamma 90.000000
_cell_volume 2782.765091
_symmetry_space_group_name_H-M "P B C N"
_symmetry_group_IT_number 60
_symmetry_cell_setting 'orthorhombic'
loop_
_space_group_symop_operation_xyz
x,y,z
1/2-x,1/2-y,1/2+z
1/2+x,1/2-y,-z
-x,y,1/2-z
-x,-y,-z
1/2+x,1/2+y,1/2-z
1/2-x,1/2+y,z
x,-y,1/2+z
loop_
_atom_site_type_symbol
_atom_site_label
_atom_site_fract_x
_atom_site_fract_y
_atom_site_fract_z
Si Si1 0.831241 0.258083 0.900300
Si Si2 0.210456 0.596991 0.518553
Si Si3 0.814156 0.029467 0.157142
Si Si4 0.515059 0.578977 0.423839
Si Si5 0.774513 0.060625 0.353821
Si Si6 0.391901 0.669156 0.785602
Si Si7 0.454014 0.232951 0.463353
O O1 0.793440 0.177625 0.969049
O O2 0.755198 0.344051 0.905198
O O3 0.833352 0.217958 0.797090
O O4 0.935759 0.297997 0.935416
O O5 0.240069 0.537747 0.428625
O O6 0.211211 0.526657 0.605551
O O7 0.101978 0.644595 0.510378
O O8 0.756447 0.071798 0.244950
O O9 0.917519 0.084690 0.139450
O O10 0.832969 0.920100 0.176887
O O11 0.500000 0.500000 0.500000
O O12 0.608353 0.542291 0.365471
O O13 0.540091 0.679657 0.467248
O O14 0.500000 0.637704 0.750000
O O15 0.396300 0.741596 0.870082
#
# Coordination Sequence:
#
# PCOD8247048 Si02
#       7
#     8   8   8   8   8   8   8
#     4  11  23  42  64  91 132 175 216 269 333 393
#     4  12  24  41  64  97 131 171 220 269 326 397
#     4  12  23  37  64  99 128 160 217 280 327 377
#     4  12  20  37  65  97 126 160 213 279 330 369
#     4  12  24  41  65  93 131 172 214 266 331 395
#     4  10  20  38  65  95 125 166 217 274 332 386
#     4  11  22  40  65  93 131 171 217 264 325 399
#
# _framework density 20.123867000000001
#
# number of rings (size 3 to 8) (size 9 to 14) (size 15 to 20)
#    0.000    0.571    7.143    2.143    0.000    0.571 
#    0.000    0.000    0.000    0.000    0.000    0.000 
#    0.000    0.000    0.000    0.000    0.000    0.000 
#
# Total GULP energy -694600.899832 kJ/mol
# GULP energy per Si atom -12403.587497 kJ/mol
# Density = 2.007806 g / cm^3
# Si number density = 20.123867 Si / 1000 Ang^3
#
#
#
# Elastic Constant Matrix: (Units=GPa)
#
#
# Indices 1 2 3 4 5 6 
#
# 1 75.1496 42.7987 37.9145 0.0000 0.0000 0.0000
# 2 42.7987 100.1426 37.1096 0.0000 0.0000 0.0000
# 3 37.9145 37.1096 109.2598 0.0000 0.0000 0.0000
# 4 0.0000 0.0000 0.0000 26.8335 0.0000 0.0000
# 5 0.0000 0.0000 0.0000 0.0000 29.7612 0.0000
# 6 0.0000 0.0000 0.0000 0.0000 0.0000 37.8977
#
#
#
# Elastic Compliance Matrix: (Units=1/GPa)
#
#
# Indices 1 2 3 4 5 6 
#
# 1 0.019318 -0.006603 -0.004461 0.000000 0.000000 0.000000
# 2 -0.006603 0.013680 -0.002355 0.000000 0.000000 0.000000
# 3 -0.004461 -0.002355 0.011500 0.000000 0.000000 0.000000
# 4 0.000000 0.000000 0.000000 0.037267 0.000000 0.000000
# 5 0.000000 0.000000 0.000000 0.000000 0.033601 0.000000
# 6 0.000000 0.000000 0.000000 0.000000 0.000000 0.026387
#
#
# Mechanical properties :
#
#
# Convention : Reuss Voigt Hill
#
# Bulk Modulus (GPa) = 56.62296 57.79972 57.21134
# Shear Modulus (GPa) = 28.65688 30.01377 29.33532
#
# Velocity S-wave (km/s) = 3.77772 3.86612 3.82218
# Velocity P-wave (km/s) = 6.87215 6.97951 6.92604
#
# Compressibility (1/GPa) = 0.01766068
#
# Stress axis : x y z
#
# Youngs Moduli (GPa) = 51.76556 73.09681 86.95349
#
# Poissons Ratio (x) = 0.48266 0.38789
# Poissons Ratio (y) = 0.34181 0.20479
# Poissons Ratio (z) = 0.23092 0.17216
#
# Static dielectric constant tensor:
#      x y z
#    x 3.610150 0.000000 0.000000 
#    y 0.000000 3.592280 0.000000 
#    z 0.000000 0.000000 3.932500 
# 
# 
# High freq. dielectric constant tensor:
#      x y z
#    x 1.770900 0.000000 0.000000 
#    y 0.000000 1.779530 0.000000 
#    z 0.000000 0.000000 1.795880 
# 
# From -- ./inp_files/16872.got.cif
#   From: 2010.03.12/outbox.cif.g09.slc.cpg/sg60_9_cif.got.tgz:16872.got - 2010.04.10 18:46:24.
