data_PCOD8247759
_publ_section_title
;
Structure prediction by ZEFSAII (Michael W. Deem and Ramdas Pophale) SiO2 
 PCOD8247759
Probable space group: P B C N
;
_chemical_formula_sum "Si O2"
_cell_formula_units_Z 24
_cell_length_a 7.889958
_cell_length_b 26.690043
_cell_length_c 4.818303
_cell_angle_alpha 90.000000
_cell_angle_beta 90.000000
_cell_angle_gamma 90.000000
_cell_volume 1014.654234
_symmetry_space_group_name_H-M "P B C N"
_symmetry_group_IT_number 60
_symmetry_cell_setting 'orthorhombic'
loop_
_space_group_symop_operation_xyz
x,y,z
1/2-x,1/2-y,1/2+z
1/2+x,1/2-y,-z
-x,y,1/2-z
-x,-y,-z
1/2+x,1/2+y,1/2-z
1/2-x,1/2+y,z
x,-y,1/2+z
loop_
_atom_site_type_symbol
_atom_site_label
_atom_site_fract_x
_atom_site_fract_y
_atom_site_fract_z
Si Si1 0.314524 0.777735 0.119841
Si Si2 0.304895 0.967202 0.249136
Si Si3 0.616120 0.371631 0.483588
O O1 0.188525 0.762787 0.371752
O O2 0.500000 0.780835 0.250000
O O3 0.263583 0.830570 0.973108
O O4 0.500000 0.949982 0.250000
O O5 0.189947 0.922705 0.141128
O O6 0.265692 0.983365 0.564118
O O7 0.500000 0.347142 0.250000
O O8 0.500000 0.382244 0.750000
#
# Coordination Sequence:
#
# PCOD8247759 Si02
#       3
#     8   8   8
#     4  12  25  44  68  94 128 168 214 267 326 388
#     4  10  22  41  64  91 127 170 215 264 321 382
#     4  12  25  41  64  95 130 167 214 265 322 386
#
# _framework density 23.653376999999999
#
# number of rings (size 3 to 8) (size 9 to 14) (size 15 to 20)
#    0.000    0.667    0.000    9.000    0.000    4.000 
#    0.000   10.000    0.000    0.000    0.000    0.000 
#    0.000    0.000    0.000    0.000    0.000    0.000 
#
# Total GULP energy -297500.111541 kJ/mol
# GULP energy per Si atom -12395.837981 kJ/mol
# Density = 2.359954 g / cm^3
# Si number density = 23.653377 Si / 1000 Ang^3
#
#
#
# Elastic Constant Matrix: (Units=GPa)
#
#
# Indices 1 2 3 4 5 6 
#
# 1 108.4957 56.6384 35.8111 0.0000 0.0000 0.0000
# 2 56.6384 102.9903 17.5188 0.0000 0.0000 0.0000
# 3 35.8111 17.5188 119.5168 0.0000 0.0000 0.0000
# 4 0.0000 0.0000 0.0000 25.7159 0.0000 0.0000
# 5 0.0000 0.0000 0.0000 0.0000 48.4696 0.0000
# 6 0.0000 0.0000 0.0000 0.0000 0.0000 24.2480
#
#
#
# Elastic Compliance Matrix: (Units=1/GPa)
#
#
# Indices 1 2 3 4 5 6 
#
# 1 0.013992 -0.007160 -0.003143 0.000000 0.000000 0.000000
# 2 -0.007160 0.013622 0.000149 0.000000 0.000000 0.000000
# 3 -0.003143 0.000149 0.009287 0.000000 0.000000 0.000000
# 4 0.000000 0.000000 0.000000 0.038886 0.000000 0.000000
# 5 0.000000 0.000000 0.000000 0.000000 0.020632 0.000000
# 6 0.000000 0.000000 0.000000 0.000000 0.000000 0.041241
#
#
# Mechanical properties :
#
#
# Convention : Reuss Voigt Hill
#
# Bulk Modulus (GPa) = 60.26914 61.21549 60.74231
# Shear Modulus (GPa) = 30.58112 34.42231 32.50172
#
# Velocity S-wave (km/s) = 3.59957 3.81895 3.71088
# Velocity P-wave (km/s) = 6.54304 6.73664 6.64054
#
# Compressibility (1/GPa) = 0.01659224
#
# Stress axis : x y z
#
# Youngs Moduli (GPa) = 71.46813 73.41035 107.67776
#
# Poissons Ratio (x) = 0.52564 0.33843
# Poissons Ratio (y) = 0.51173 -0.01601
# Poissons Ratio (z) = 0.22462 -0.01092
#
# Static dielectric constant tensor:
#      x y z
#    x 4.213630 0.000000 0.000000 
#    y 0.000000 3.978620 0.000000 
#    z 0.000000 0.000000 4.508740 
# 
# 
# High freq. dielectric constant tensor:
#      x y z
#    x 1.940820 0.000000 0.000000 
#    y 0.000000 1.936210 0.000000 
#    z 0.000000 0.000000 1.955280 
# 
# From -- ./inp_files/219.got.cif
#   From: 2010.03.12/outbox.cif.g09.slc.cpg/sg60_1_cif.got.tgz:219.got - 2010.04.10 18:46:24.
