data_PCOD8247789
_publ_section_title
;
Structure prediction by ZEFSAII (Michael W. Deem and Ramdas Pophale) SiO2 
 PCOD8247789
Probable space group: P B C N
;
_chemical_formula_sum "Si O2"
_cell_formula_units_Z 40
_cell_length_a 10.486379
_cell_length_b 15.972583
_cell_length_c 10.670441
_cell_angle_alpha 90.000000
_cell_angle_beta 90.000000
_cell_angle_gamma 90.000000
_cell_volume 1787.240809
_symmetry_space_group_name_H-M "P B C N"
_symmetry_group_IT_number 60
_symmetry_cell_setting 'orthorhombic'
loop_
_space_group_symop_operation_xyz
x,y,z
1/2-x,1/2-y,1/2+z
1/2+x,1/2-y,-z
-x,y,1/2-z
-x,-y,-z
1/2+x,1/2+y,1/2-z
1/2-x,1/2+y,z
x,-y,1/2+z
loop_
_atom_site_type_symbol
_atom_site_label
_atom_site_fract_x
_atom_site_fract_y
_atom_site_fract_z
Si Si1 0.593653 0.662453 0.651720
Si Si2 0.485553 0.761448 0.436336
Si Si3 0.363282 0.054720 0.212284
Si Si4 0.296922 0.283215 0.741922
Si Si5 0.174740 0.429517 0.439539
O O1 0.500000 0.613786 0.750000
O O2 0.501857 0.724242 0.573779
O O3 0.686937 0.717789 0.734315
O O4 0.677588 0.601869 0.562768
O O5 0.623562 0.758613 0.370897
O O6 0.386503 0.702566 0.362434
O O7 0.428633 0.854876 0.438263
O O8 0.500000 0.093609 0.250000
O O9 0.257565 0.126368 0.209431
O O10 0.661511 0.982803 0.186659
O O11 0.355596 0.018902 0.068333
#
# Coordination Sequence:
#
# PCOD8247789 Si02
#       5
#     8   8   8   8   8
#     4  11  23  41  71 102 134 186 246 296 353 428
#     4  10  22  44  71  97 136 189 245 294 342 428
#     4  12  25  46  68 108 145 188 228 305 368 432
#     4  10  22  41  71  95 138 179 243 291 353 419
#     4  11  26  45  71 106 147 186 241 296 369 430
#
# _framework density 22.380866000000001
#
# number of rings (size 3 to 8) (size 9 to 14) (size 15 to 20)
#    0.000    1.200    2.000    3.600    8.400    1.600 
#    3.600    2.000    0.000    0.000    0.000    0.000 
#    0.000    0.000    0.000    0.000    0.000    0.000 
#
# Total GULP energy -495739.294962 kJ/mol
# GULP energy per Si atom -12393.482374 kJ/mol
# Density = 2.232993 g / cm^3
# Si number density = 22.380866 Si / 1000 Ang^3
#
#
#
# Elastic Constant Matrix: (Units=GPa)
#
#
# Indices 1 2 3 4 5 6 
#
# 1 102.0966 20.0603 64.9552 0.0000 0.0000 0.0000
# 2 20.0603 56.8977 41.3264 0.0000 0.0000 0.0000
# 3 64.9552 41.3264 169.7687 0.0000 0.0000 0.0000
# 4 0.0000 0.0000 0.0000 38.7130 0.0000 0.0000
# 5 0.0000 0.0000 0.0000 0.0000 41.9893 0.0000
# 6 0.0000 0.0000 0.0000 0.0000 0.0000 14.8536
#
#
#
# Elastic Compliance Matrix: (Units=1/GPa)
#
#
# Indices 1 2 3 4 5 6 
#
# 1 0.013011 -0.001180 -0.004691 0.000000 0.000000 0.000000
# 2 -0.001180 0.021457 -0.004772 0.000000 0.000000 0.000000
# 3 -0.004691 -0.004772 0.008847 0.000000 0.000000 0.000000
# 4 0.000000 0.000000 0.000000 0.025831 0.000000 0.000000
# 5 0.000000 0.000000 0.000000 0.000000 0.023816 0.000000
# 6 0.000000 0.000000 0.000000 0.000000 0.000000 0.067324
#
#
# Mechanical properties :
#
#
# Convention : Reuss Voigt Hill
#
# Bulk Modulus (GPa) = 45.39373 64.60519 54.99946
# Shear Modulus (GPa) = 26.46708 32.60593 29.53650
#
# Velocity S-wave (km/s) = 3.44259 3.82103 3.63674
# Velocity P-wave (km/s) = 6.01068 6.95672 6.50093
#
# Compressibility (1/GPa) = 0.02202948
#
# Stress axis : x y z
#
# Youngs Moduli (GPa) = 76.85875 46.60403 113.03656
#
# Poissons Ratio (x) = 0.05500 0.53023
# Poissons Ratio (y) = 0.09071 0.53938
# Poissons Ratio (z) = 0.36053 0.22238
#
# Static dielectric constant tensor:
#      x y z
#    x 4.583760 0.000000 0.000000 
#    y 0.000000 3.642650 0.000000 
#    z 0.000000 0.000000 4.539950 
# 
# 
# High freq. dielectric constant tensor:
#      x y z
#    x 1.902350 0.000000 0.000000 
#    y 0.000000 1.839760 0.000000 
#    z 0.000000 0.000000 1.906650 
# 
# From -- ./inp_files/9761.got.cif
#   From: 2010.03.12/outbox.cif.g09.slc.cpg/sg60_5_cif.got.tgz:9761.got - 2010.04.10 18:46:24.
