data_PCOD8247190
_publ_section_title
;
Structure prediction by ZEFSAII (Michael W. Deem and Ramdas Pophale) SiO2 
 PCOD8247190
Probable space group: P B C N
;
_chemical_formula_sum "Si O2"
_cell_formula_units_Z 24
_cell_length_a 8.079791
_cell_length_b 11.106920
_cell_length_c 10.022385
_cell_angle_alpha 90.000000
_cell_angle_beta 90.000000
_cell_angle_gamma 90.000000
_cell_volume 899.424788
_symmetry_space_group_name_H-M "P B C N"
_symmetry_group_IT_number 60
_symmetry_cell_setting 'orthorhombic'
loop_
_space_group_symop_operation_xyz
x,y,z
1/2-x,1/2-y,1/2+z
1/2+x,1/2-y,-z
-x,y,1/2-z
-x,-y,-z
1/2+x,1/2+y,1/2-z
1/2-x,1/2+y,z
x,-y,1/2+z
loop_
_atom_site_type_symbol
_atom_site_label
_atom_site_fract_x
_atom_site_fract_y
_atom_site_fract_z
Si Si1 0.774824 0.536375 0.105678
Si Si2 0.354839 0.608356 0.117601
Si Si3 0.954344 0.317586 0.016372
O O1 0.659377 0.551906 0.235159
O O2 0.909913 0.426564 0.120139
O O3 0.645727 0.501221 0.988540
O O4 0.877764 0.655621 0.067413
O O5 0.519258 0.693136 0.098956
O O6 0.194236 0.694046 0.091110
#
# Coordination Sequence:
#
# PCOD8247190 Si02
#       3
#     8   8   8
#     4   9  21  40  71  95 143 182 232 294 349 410
#     4  10  20  43  71  99 138 192 228 291 356 417
#     4   9  21  39  72  98 139 188 228 286 357 418
#
# _framework density 26.683721999999999
#
# number of rings (size 3 to 8) (size 9 to 14) (size 15 to 20)
#    2.000    0.667    0.000    1.000    0.000    2.667 
#    6.000    1.667    7.333    0.000    0.000    0.000 
#    0.000    0.000    0.000    0.000    0.000    0.000 
#
# Total GULP energy -297432.797084 kJ/mol
# GULP energy per Si atom -12393.033212 kJ/mol
# Density = 2.662299 g / cm^3
# Si number density = 26.683722 Si / 1000 Ang^3
#
#
#
# Elastic Constant Matrix: (Units=GPa)
#
#
# Indices 1 2 3 4 5 6 
#
# 1 87.2728 -4.2184 23.8158 0.0000 0.0000 0.0000
# 2 -4.2184 87.1637 60.9755 0.0000 0.0000 0.0000
# 3 23.8158 60.9755 196.4572 0.0000 0.0000 0.0000
# 4 0.0000 0.0000 0.0000 40.9413 0.0000 0.0000
# 5 0.0000 0.0000 0.0000 0.0000 31.1487 0.0000
# 6 0.0000 0.0000 0.0000 0.0000 0.0000 61.3884
#
#
#
# Elastic Compliance Matrix: (Units=1/GPa)
#
#
# Indices 1 2 3 4 5 6 
#
# 1 0.012134 0.002065 -0.002112 0.000000 0.000000 0.000000
# 2 0.002065 0.015006 -0.004908 0.000000 0.000000 0.000000
# 3 -0.002112 -0.004908 0.006869 0.000000 0.000000 0.000000
# 4 0.000000 0.000000 0.000000 0.024425 0.000000 0.000000
# 5 0.000000 0.000000 0.000000 0.000000 0.032104 0.000000
# 6 0.000000 0.000000 0.000000 0.000000 0.000000 0.016290
#
#
# Mechanical properties :
#
#
# Convention : Reuss Voigt Hill
#
# Bulk Modulus (GPa) = 41.49427 59.11551 50.30489
# Shear Modulus (GPa) = 40.07317 46.05039 43.06178
#
# Velocity S-wave (km/s) = 3.87949 4.15876 4.02155
# Velocity P-wave (km/s) = 5.97088 6.72775 6.36059
#
# Compressibility (1/GPa) = 0.02409971
#
# Stress axis : x y z
#
# Youngs Moduli (GPa) = 82.41031 66.64098 145.57295
#
# Poissons Ratio (x) = -0.13759 0.30742
# Poissons Ratio (y) = -0.17014 0.71443
# Poissons Ratio (z) = 0.17403 0.32705
#
# Static dielectric constant tensor:
#      x y z
#    x 4.901700 0.000000 0.000000 
#    y 0.000000 4.534460 0.000000 
#    z 0.000000 0.000000 4.242810 
# 
# 
# High freq. dielectric constant tensor:
#      x y z
#    x 2.109600 0.000000 0.000000 
#    y 0.000000 2.060620 0.000000 
#    z 0.000000 0.000000 2.038560 
# 
# From -- ./inp_files/9329.got.cif
#   From: 2010.03.12/outbox.cif.g09.slc.cpg/sg60_5_cif.got.tgz:9329.got - 2010.04.10 18:46:24.
