data_PCOD8247844
_publ_section_title
;
Structure prediction by ZEFSAII (Michael W. Deem and Ramdas Pophale) SiO2 
 PCOD8247844
Probable space group: P B C N
;
_chemical_formula_sum "Si O2"
_cell_formula_units_Z 64
_cell_length_a 9.254892
_cell_length_b 14.285256
_cell_length_c 24.780377
_cell_angle_alpha 90.000000
_cell_angle_beta 90.000000
_cell_angle_gamma 90.000000
_cell_volume 3276.176509
_symmetry_space_group_name_H-M "P B C N"
_symmetry_group_IT_number 60
_symmetry_cell_setting 'orthorhombic'
loop_
_space_group_symop_operation_xyz
x,y,z
1/2-x,1/2-y,1/2+z
1/2+x,1/2-y,-z
-x,y,1/2-z
-x,-y,-z
1/2+x,1/2+y,1/2-z
1/2-x,1/2+y,z
x,-y,1/2+z
loop_
_atom_site_type_symbol
_atom_site_label
_atom_site_fract_x
_atom_site_fract_y
_atom_site_fract_z
Si Si1 0.208018 0.481642 0.327809
Si Si2 0.102441 0.573601 0.634257
Si Si3 0.150738 0.260436 0.059593
Si Si4 0.926782 0.994466 0.080972
Si Si5 0.196226 0.084746 0.128938
Si Si6 0.830083 0.339630 0.258792
Si Si7 0.078117 0.855546 0.007242
Si Si8 0.672660 0.628275 0.251477
O O1 0.289919 0.465694 0.383731
O O2 0.253352 0.400978 0.285703
O O3 0.249012 0.579812 0.299410
O O4 0.039515 0.475320 0.341797
O O5 0.069814 0.656072 0.591658
O O6 0.194385 0.492423 0.604264
O O7 0.200541 0.619749 0.681638
O O8 0.218968 0.185204 0.101075
O O9 0.280259 0.299084 0.023431
O O10 0.032707 0.214537 0.021099
O O11 0.032637 0.053325 0.119097
O O12 0.874284 0.059409 0.031651
O O13 0.001140 0.899659 0.059668
O O14 0.229402 0.086046 0.192500
O O15 0.774108 0.234978 0.250694
O O16 0.000000 0.343307 0.250000
O O17 0.500000 0.619070 0.250000
#
# Coordination Sequence:
#
# PCOD8247844 Si02
#       8
#     8   8   8   8   8   8   8   8
#     4  11  23  37  64  96 128 164 205 260 309 375
#     4  11  22  40  62  92 131 165 202 260 323 373
#     4  11  24  43  67  91 121 167 210 269 323 378
#     4  10  22  43  63  89 123 165 214 263 311 377
#     4  11  21  39  67  88 122 172 204 246 324 381
#     4   9  20  36  58  89 127 165 201 242 305 377
#     4  10  24  43  65  90 122 162 219 268 318 375
#     4  11  20  36  62  92 125 165 209 242 301 384
#
# _framework density 19.534967999999999
#
# number of rings (size 3 to 8) (size 9 to 14) (size 15 to 20)
#    0.000    1.500    5.000    0.000    1.750    1.000 
#    2.250    1.250    2.750    0.000    0.000    0.000 
#    0.000    0.000    0.000    0.000    0.000    0.000 
#
# Total GULP energy -793677.551993 kJ/mol
# GULP energy per Si atom -12401.211750 kJ/mol
# Density = 1.949051 g / cm^3
# Si number density = 19.534968 Si / 1000 Ang^3
#
#
#
# Elastic Constant Matrix: (Units=GPa)
#
#
# Indices 1 2 3 4 5 6 
#
# 1 67.1660 47.0309 37.2753 0.0000 0.0000 0.0000
# 2 47.0309 103.8987 27.0630 0.0000 0.0000 0.0000
# 3 37.2753 27.0630 90.6646 0.0000 0.0000 0.0000
# 4 0.0000 0.0000 0.0000 31.9484 0.0000 0.0000
# 5 0.0000 0.0000 0.0000 0.0000 33.3760 0.0000
# 6 0.0000 0.0000 0.0000 0.0000 0.0000 31.0796
#
#
#
# Elastic Compliance Matrix: (Units=1/GPa)
#
#
# Indices 1 2 3 4 5 6 
#
# 1 0.026050 -0.009761 -0.007796 0.000000 0.000000 0.000000
# 2 -0.009761 0.014094 -0.000194 0.000000 0.000000 0.000000
# 3 -0.007796 -0.000194 0.014293 0.000000 0.000000 0.000000
# 4 0.000000 0.000000 0.000000 0.031300 0.000000 0.000000
# 5 0.000000 0.000000 0.000000 0.000000 0.029962 0.000000
# 6 0.000000 0.000000 0.000000 0.000000 0.000000 0.032175
#
#
# Mechanical properties :
#
#
# Convention : Reuss Voigt Hill
#
# Bulk Modulus (GPa) = 52.81487 53.82976 53.32232
# Shear Modulus (GPa) = 26.35899 29.30481 27.83190
#
# Velocity S-wave (km/s) = 3.67730 3.87734 3.77864
# Velocity P-wave (km/s) = 6.71750 6.90365 6.81121
#
# Compressibility (1/GPa) = 0.01893406
#
# Stress axis : x y z
#
# Youngs Moduli (GPa) = 38.38735 70.95354 69.96479
#
# Poissons Ratio (x) = 0.69259 0.54548
# Poissons Ratio (y) = 0.37470 0.01356
# Poissons Ratio (z) = 0.29929 0.01375
#
# Static dielectric constant tensor:
#      x y z
#    x 3.211820 0.000000 0.000000 
#    y 0.000000 3.723090 0.000000 
#    z 0.000000 0.000000 3.654770 
# 
# 
# High freq. dielectric constant tensor:
#      x y z
#    x 1.736410 0.000000 0.000000 
#    y 0.000000 1.773810 0.000000 
#    z 0.000000 0.000000 1.767960 
# 
# From -- ./inp_files/24105.got.cif
#   From: 2010.03.12/outbox.cif.g09.slc.cpg/sg60_13_cif.got.tgz:24105.got - 2010.04.10 18:46:24.
