data_PCOD8247475
_publ_section_title
;
Structure prediction by ZEFSAII (Michael W. Deem and Ramdas Pophale) SiO2 
 PCOD8247475
Probable space group: P B C N
;
_chemical_formula_sum "Si O2"
_cell_formula_units_Z 64
_cell_length_a 18.669992
_cell_length_b 9.634919
_cell_length_c 18.561638
_cell_angle_alpha 90.000000
_cell_angle_beta 90.000000
_cell_angle_gamma 90.000000
_cell_volume 3338.939103
_symmetry_space_group_name_H-M "P B C N"
_symmetry_group_IT_number 60
_symmetry_cell_setting 'orthorhombic'
loop_
_space_group_symop_operation_xyz
x,y,z
1/2-x,1/2-y,1/2+z
1/2+x,1/2-y,-z
-x,y,1/2-z
-x,-y,-z
1/2+x,1/2+y,1/2-z
1/2-x,1/2+y,z
x,-y,1/2+z
loop_
_atom_site_type_symbol
_atom_site_label
_atom_site_fract_x
_atom_site_fract_y
_atom_site_fract_z
Si Si1 0.068191 0.289747 0.828780
Si Si2 0.680521 0.532752 0.042571
Si Si3 0.339762 0.149649 0.612950
Si Si4 0.819211 0.293433 0.547866
Si Si5 0.589893 0.883720 0.829226
Si Si6 0.173972 0.139633 0.614487
Si Si7 0.407139 0.591652 0.182423
Si Si8 0.063642 0.035186 0.338000
O O1 0.122667 0.325756 0.891948
O O2 0.098925 0.358362 0.756078
O O3 0.991676 0.352477 0.851544
O O4 0.059553 0.126198 0.817278
O O5 0.699954 0.369699 0.042285
O O6 0.748188 0.621852 0.068927
O O7 0.615158 0.565843 0.095689
O O8 0.654965 0.582472 0.964480
O O9 0.351018 0.150131 0.527074
O O10 0.257339 0.121476 0.631277
O O11 0.357142 0.299077 0.643891
O O12 0.392453 0.042296 0.651944
O O13 0.647025 0.797380 0.877012
O O14 0.130203 0.056864 0.674248
O O15 0.484334 0.589152 0.143074
O O16 0.411161 0.620420 0.267717
#
# Coordination Sequence:
#
# PCOD8247475 Si02
#       8
#     8   8   8   8   8   8   8   8
#     4  10  21  42  64  87 120 162 202 243 300 365
#     4  10  23  40  60  90 121 159 200 249 304 353
#     4  11  25  37  58  95 122 154 201 253 300 345
#     4  10  23  42  60  87 125 156 201 250 300 362
#     4  11  22  41  64  89 121 163 201 248 300 353
#     4  11  21  39  63  84 118 161 202 241 293 364
#     4  11  20  41  62  89 119 154 205 247 293 356
#     4  10  21  40  65  87 120 160 202 248 296 362
#
# _framework density 19.167764999999999
#
# number of rings (size 3 to 8) (size 9 to 14) (size 15 to 20)
#    0.000    1.500    3.750    1.500    5.250    6.000 
#    4.500    0.000    0.000    0.000    0.000    0.000 
#    0.000    0.000    0.000    0.000    0.000    0.000 
#
# Total GULP energy -793781.800323 kJ/mol
# GULP energy per Si atom -12402.840630 kJ/mol
# Density = 1.912414 g / cm^3
# Si number density = 19.167765 Si / 1000 Ang^3
#
#
#
# Elastic Constant Matrix: (Units=GPa)
#
#
# Indices 1 2 3 4 5 6 
#
# 1 115.3369 31.1943 72.6041 0.0000 0.0000 0.0000
# 2 31.1943 49.0479 27.8346 0.0000 0.0000 0.0000
# 3 72.6041 27.8346 92.0110 0.0000 0.0000 0.0000
# 4 0.0000 0.0000 0.0000 25.9663 0.0000 0.0000
# 5 0.0000 0.0000 0.0000 0.0000 36.1835 0.0000
# 6 0.0000 0.0000 0.0000 0.0000 0.0000 32.5249
#
#
#
# Elastic Compliance Matrix: (Units=1/GPa)
#
#
# Indices 1 2 3 4 5 6 
#
# 1 0.017873 -0.004061 -0.012875 0.000000 0.000000 0.000000
# 2 -0.004061 0.025536 -0.004521 0.000000 0.000000 0.000000
# 3 -0.012875 -0.004521 0.022395 0.000000 0.000000 0.000000
# 4 0.000000 0.000000 0.000000 0.038511 0.000000 0.000000
# 5 0.000000 0.000000 0.000000 0.000000 0.027637 0.000000
# 6 0.000000 0.000000 0.000000 0.000000 0.000000 0.030746
#
#
# Mechanical properties :
#
#
# Convention : Reuss Voigt Hill
#
# Bulk Modulus (GPa) = 43.68386 57.74021 50.71203
# Shear Modulus (GPa) = 23.44741 27.25246 25.34994
#
# Velocity S-wave (km/s) = 3.50133 3.77475 3.64061
# Velocity P-wave (km/s) = 6.25983 7.01337 6.64728
#
# Compressibility (1/GPa) = 0.02289175
#
# Stress axis : x y z
#
# Youngs Moduli (GPa) = 55.94922 39.15971 44.65214
#
# Poissons Ratio (x) = 0.15902 0.57490
# Poissons Ratio (y) = 0.22720 0.20186
# Poissons Ratio (z) = 0.72035 0.17703
#
# Static dielectric constant tensor:
#      x y z
#    x 3.515320 0.000000 0.000000 
#    y 0.000000 3.444260 0.000000 
#    z 0.000000 0.000000 3.469310 
# 
# 
# High freq. dielectric constant tensor:
#      x y z
#    x 1.753810 0.000000 0.000000 
#    y 0.000000 1.744000 0.000000 
#    z 0.000000 0.000000 1.749100 
# 
# From -- ./inp_files/21067.got.cif
#   From: 2010.03.12/outbox.cif.g09.slc.cpg/sg60_11_cif.got.tgz:21067.got - 2010.04.10 18:46:24.
