data_PCOD8247630
_publ_section_title
;
Structure prediction by ZEFSAII (Michael W. Deem and Ramdas Pophale) SiO2 
 PCOD8247630
Probable space group: P B C N
;
_chemical_formula_sum "Si O2"
_cell_formula_units_Z 64
_cell_length_a 10.270002
_cell_length_b 13.112903
_cell_length_c 22.177577
_cell_angle_alpha 90.000000
_cell_angle_beta 90.000000
_cell_angle_gamma 90.000000
_cell_volume 2986.644094
_symmetry_space_group_name_H-M "P B C N"
_symmetry_group_IT_number 60
_symmetry_cell_setting 'orthorhombic'
loop_
_space_group_symop_operation_xyz
x,y,z
1/2-x,1/2-y,1/2+z
1/2+x,1/2-y,-z
-x,y,1/2-z
-x,-y,-z
1/2+x,1/2+y,1/2-z
1/2-x,1/2+y,z
x,-y,1/2+z
loop_
_atom_site_type_symbol
_atom_site_label
_atom_site_fract_x
_atom_site_fract_y
_atom_site_fract_z
Si Si1 0.091389 0.386028 0.466819
Si Si2 0.202656 0.374629 0.036723
Si Si3 0.019002 0.327352 0.818512
Si Si4 0.086378 0.019106 0.086356
Si Si5 0.873750 0.166440 0.066551
Si Si6 0.716245 0.021328 0.133431
Si Si7 0.428358 0.398338 0.313623
Si Si8 0.215917 0.321789 0.594766
O O1 0.059526 0.573135 0.530291
O O2 0.074415 0.281469 0.427868
O O3 0.185100 0.463316 0.430156
O O4 0.147313 0.361672 0.533014
O O5 0.313927 0.458517 0.044877
O O6 0.212194 0.286923 0.086987
O O7 0.243402 0.324275 0.973777
O O8 0.083951 0.429091 0.844356
O O9 0.097708 0.221456 0.824627
O O10 0.000000 0.355137 0.750000
O O11 0.884829 0.307932 0.851974
O O12 0.176735 0.100891 0.121189
O O13 0.989023 0.088409 0.044589
O O14 0.014557 0.943790 0.132178
O O15 0.821102 0.113822 0.127438
O O16 0.783063 0.946674 0.182712
O O17 0.500000 0.419078 0.250000
#
# Coordination Sequence:
#
# PCOD8247630 Si02
#       8
#     8   8   8   8   8   8   8   8
#     4  11  23  40  62  97 134 166 208 267 327 386
#     4  11  21  37  60  92 130 167 206 260 316 391
#     4  11  24  44  65  93 125 169 217 266 323 376
#     4  11  21  39  63  89 122 166 215 255 326 386
#     4  10  22  37  59  91 128 164 204 252 321 390
#     4  11  23  41  66  94 126 167 215 264 320 387
#     4  10  24  44  67  91 128 172 217 272 324 382
#     4  11  23  39  65  95 131 168 214 268 323 396
#
# _framework density 21.428733000000001
#
# number of rings (size 3 to 8) (size 9 to 14) (size 15 to 20)
#    0.000    1.250    2.500    3.375    1.750    3.500 
#    0.000    0.000    0.000    1.500    0.000    0.000 
#    0.000    0.000    0.000    0.000    0.000    0.000 
#
# Total GULP energy -792972.768761 kJ/mol
# GULP energy per Si atom -12390.199512 kJ/mol
# Density = 2.137996 g / cm^3
# Si number density = 21.428733 Si / 1000 Ang^3
#
#
#
# Elastic Constant Matrix: (Units=GPa)
#
#
# Indices 1 2 3 4 5 6 
#
# 1 92.8047 15.6239 14.8110 0.0000 0.0000 0.0000
# 2 15.6239 64.4606 10.3487 0.0000 0.0000 0.0000
# 3 14.8110 10.3487 69.2854 0.0000 0.0000 0.0000
# 4 0.0000 0.0000 0.0000 27.0567 0.0000 0.0000
# 5 0.0000 0.0000 0.0000 0.0000 21.3099 0.0000
# 6 0.0000 0.0000 0.0000 0.0000 0.0000 38.0381
#
#
#
# Elastic Compliance Matrix: (Units=1/GPa)
#
#
# Indices 1 2 3 4 5 6 
#
# 1 0.011523 -0.002456 -0.002096 0.000000 0.000000 0.000000
# 2 -0.002456 0.016418 -0.001927 0.000000 0.000000 0.000000
# 3 -0.002096 -0.001927 0.015169 0.000000 0.000000 0.000000
# 4 0.000000 0.000000 0.000000 0.036959 0.000000 0.000000
# 5 0.000000 0.000000 0.000000 0.000000 0.046927 0.000000
# 6 0.000000 0.000000 0.000000 0.000000 0.000000 0.026289
#
#
# Mechanical properties :
#
#
# Convention : Reuss Voigt Hill
#
# Bulk Modulus (GPa) = 33.16692 34.23531 33.70112
# Shear Modulus (GPa) = 28.36134 29.66542 29.01338
#
# Velocity S-wave (km/s) = 3.64197 3.72476 3.68359
# Velocity P-wave (km/s) = 5.76165 5.87448 5.81834
#
# Compressibility (1/GPa) = 0.03015052
#
# Stress axis : x y z
#
# Youngs Moduli (GPa) = 86.77961 60.90822 65.92370
#
# Poissons Ratio (x) = 0.14962 0.13820
# Poissons Ratio (y) = 0.21317 0.12705
# Poissons Ratio (z) = 0.18193 0.11738
#
# Static dielectric constant tensor:
#      x y z
#    x 4.045500 0.000000 0.000000 
#    y 0.000000 4.330400 0.000000 
#    z 0.000000 0.000000 3.471440 
# 
# 
# High freq. dielectric constant tensor:
#      x y z
#    x 1.851010 0.000000 0.000000 
#    y 0.000000 1.867820 0.000000 
#    z 0.000000 0.000000 1.797650 
# 
# From -- ./inp_files/24300.got.cif
#   From: 2010.03.12/outbox.cif.g09.slc.cpg/sg60_13_cif.got.tgz:24300.got - 2010.04.10 18:46:24.
