data_PCOD8247313
_publ_section_title
;
Structure prediction by ZEFSAII (Michael W. Deem and Ramdas Pophale) SiO2 
 PCOD8247313
Probable space group: P B C N
;
_chemical_formula_sum "Si O2"
_cell_formula_units_Z 32
_cell_length_a 8.148005
_cell_length_b 12.704314
_cell_length_c 14.844691
_cell_angle_alpha 90.000000
_cell_angle_beta 90.000000
_cell_angle_gamma 90.000000
_cell_volume 1536.645428
_symmetry_space_group_name_H-M "P B C N"
_symmetry_group_IT_number 60
_symmetry_cell_setting 'orthorhombic'
loop_
_space_group_symop_operation_xyz
x,y,z
1/2-x,1/2-y,1/2+z
1/2+x,1/2-y,-z
-x,y,1/2-z
-x,-y,-z
1/2+x,1/2+y,1/2-z
1/2-x,1/2+y,z
x,-y,1/2+z
loop_
_atom_site_type_symbol
_atom_site_label
_atom_site_fract_x
_atom_site_fract_y
_atom_site_fract_z
Si Si1 0.886442 0.988055 0.172806
Si Si2 0.224483 0.323773 0.929656
Si Si3 0.091807 0.787776 0.108864
Si Si4 0.685744 0.813211 0.229615
O O1 0.734740 0.935775 0.226622
O O2 0.000000 0.044484 0.250000
O O3 0.988602 0.895456 0.122910
O O4 0.805085 0.066531 0.101737
O O5 0.299047 0.232660 0.869526
O O6 0.026232 0.310808 0.918799
O O7 0.271837 0.306434 0.032911
O O8 0.191624 0.755680 0.199275
O O9 0.500000 0.797673 0.250000
#
# Coordination Sequence:
#
# PCOD8247313 Si02
#       4
#     8   8   8   8
#     4   9  20  37  58  83 116 152 190 237 288 338
#     4  11  20  37  60  82 114 156 189 231 291 342
#     4  10  22  38  57  87 117 147 194 241 279 339
#     4  10  21  38  57  84 117 147 189 243 286 337
#
# _framework density 20.824581999999999
#
# number of rings (size 3 to 8) (size 9 to 14) (size 15 to 20)
#    0.000    2.000    0.000    5.250    0.000    2.000 
#    0.000   16.250    0.000    0.000    0.000    0.000 
#    0.000    0.000    0.000    0.000    0.000    0.000 
#
# Total GULP energy -396433.074241 kJ/mol
# GULP energy per Si atom -12388.533570 kJ/mol
# Density = 2.077718 g / cm^3
# Si number density = 20.824582 Si / 1000 Ang^3
#
#
#
# Elastic Constant Matrix: (Units=GPa)
#
#
# Indices 1 2 3 4 5 6 
#
# 1 108.4186 23.6470 7.6004 0.0000 0.0000 0.0000
# 2 23.6470 55.1504 12.4656 0.0000 0.0000 0.0000
# 3 7.6004 12.4656 67.9909 0.0000 0.0000 0.0000
# 4 0.0000 0.0000 0.0000 24.2531 0.0000 0.0000
# 5 0.0000 0.0000 0.0000 0.0000 28.4564 0.0000
# 6 0.0000 0.0000 0.0000 0.0000 0.0000 11.1326
#
#
#
# Elastic Compliance Matrix: (Units=1/GPa)
#
#
# Indices 1 2 3 4 5 6 
#
# 1 0.010183 -0.004287 -0.000352 0.000000 0.000000 0.000000
# 2 -0.004287 0.020721 -0.003320 0.000000 0.000000 0.000000
# 3 -0.000352 -0.003320 0.015356 0.000000 0.000000 0.000000
# 4 0.000000 0.000000 0.000000 0.041232 0.000000 0.000000
# 5 0.000000 0.000000 0.000000 0.000000 0.035142 0.000000
# 6 0.000000 0.000000 0.000000 0.000000 0.000000 0.089826
#
#
# Mechanical properties :
#
#
# Convention : Reuss Voigt Hill
#
# Bulk Modulus (GPa) = 32.95755 35.44287 34.20021
# Shear Modulus (GPa) = 20.96519 25.29155 23.12837
#
# Velocity S-wave (km/s) = 3.17638 3.48876 3.33622
# Velocity P-wave (km/s) = 5.41416 5.76933 5.59457
#
# Compressibility (1/GPa) = 0.03034206
#
# Stress axis : x y z
#
# Youngs Moduli (GPa) = 98.20130 48.26119 65.12158
#
# Poissons Ratio (x) = 0.20688 0.02295
# Poissons Ratio (y) = 0.42095 0.21619
# Poissons Ratio (z) = 0.03461 0.16022
#
# Static dielectric constant tensor:
#      x y z
#    x 4.317210 0.000000 0.000000 
#    y 0.000000 3.559070 0.000000 
#    z 0.000000 0.000000 3.880970 
# 
# 
# High freq. dielectric constant tensor:
#      x y z
#    x 1.827200 0.000000 0.000000 
#    y 0.000000 1.785850 0.000000 
#    z 0.000000 0.000000 1.823400 
# 
# From -- ./inp_files/9506.got.cif
#   From: 2010.03.12/outbox.cif.g09.slc.cpg/sg60_5_cif.got.tgz:9506.got - 2010.04.10 18:46:24.
