data_PCOD8247656
_publ_section_title
;
Structure prediction by ZEFSAII (Michael W. Deem and Ramdas Pophale) SiO2 
 PCOD8247656
Probable space group: P B C N
;
_chemical_formula_sum "Si O2"
_cell_formula_units_Z 40
_cell_length_a 17.247995
_cell_length_b 18.933293
_cell_length_c 5.291319
_cell_angle_alpha 90.000000
_cell_angle_beta 90.000000
_cell_angle_gamma 90.000000
_cell_volume 1727.940239
_symmetry_space_group_name_H-M "P B C N"
_symmetry_group_IT_number 60
_symmetry_cell_setting 'orthorhombic'
loop_
_space_group_symop_operation_xyz
x,y,z
1/2-x,1/2-y,1/2+z
1/2+x,1/2-y,-z
-x,y,1/2-z
-x,-y,-z
1/2+x,1/2+y,1/2-z
1/2-x,1/2+y,z
x,-y,1/2+z
loop_
_atom_site_type_symbol
_atom_site_label
_atom_site_fract_x
_atom_site_fract_y
_atom_site_fract_z
Si Si1 0.158385 0.809811 0.829927
Si Si2 0.048168 0.736954 0.503326
Si Si3 0.168349 0.318647 0.673239
Si Si4 0.158227 0.525416 0.003601
Si Si5 0.169119 0.966049 0.982354
O O1 0.097800 0.806111 0.594450
O O2 0.245174 0.797391 0.740456
O O3 0.151715 0.883072 0.978438
O O4 0.133304 0.744710 0.006549
O O5 0.111434 0.676672 0.418632
O O6 0.000000 0.709067 0.750000
O O7 0.000000 0.756643 0.250000
O O8 0.170369 0.391092 0.517640
O O9 0.112187 0.494816 0.247157
O O10 0.238866 0.481530 0.974635
O O11 0.130882 0.002079 0.734944
#
# Coordination Sequence:
#
# PCOD8247656 Si02
#       5
#     8   8   8   8   8
#     4  12  25  40  77 110 137 181 255 302 343 422
#     4  12  28  48  66 104 150 194 228 298 368 426
#     4  12  25  40  77 110 137 181 255 302 343 422
#     4  10  22  38  61 102 148 176 216 299 372 401
#     4  10  22  38  61 102 148 176 216 299 372 401
#
# _framework density 23.148947
#
# number of rings (size 3 to 8) (size 9 to 14) (size 15 to 20)
#    0.000    0.800    8.000    0.000   11.200    0.000 
#    0.000    0.000    0.000    7.200    0.000    0.000 
#    0.000    0.000    0.000    0.000    0.000    0.000 
#
# Total GULP energy -495556.382219 kJ/mol
# GULP energy per Si atom -12388.909555 kJ/mol
# Density = 2.309626 g / cm^3
# Si number density = 23.148947 Si / 1000 Ang^3
#
#
#
# Elastic Constant Matrix: (Units=GPa)
#
#
# Indices 1 2 3 4 5 6 
#
# 1 69.0693 -4.1139 28.7659 0.0000 0.0000 0.0000
# 2 -4.1139 132.9384 54.1825 0.0000 0.0000 0.0000
# 3 28.7659 54.1825 201.2143 0.0000 0.0000 0.0000
# 4 0.0000 0.0000 0.0000 40.5141 0.0000 0.0000
# 5 0.0000 0.0000 0.0000 0.0000 35.5867 0.0000
# 6 0.0000 0.0000 0.0000 0.0000 0.0000 1.0399
#
#
#
# Elastic Compliance Matrix: (Units=1/GPa)
#
#
# Indices 1 2 3 4 5 6 
#
# 1 0.015682 0.001572 -0.002665 0.000000 0.000000 0.000000
# 2 0.001572 0.008607 -0.002542 0.000000 0.000000 0.000000
# 3 -0.002665 -0.002542 0.006035 0.000000 0.000000 0.000000
# 4 0.000000 0.000000 0.000000 0.024683 0.000000 0.000000
# 5 0.000000 0.000000 0.000000 0.000000 0.028100 0.000000
# 6 0.000000 0.000000 0.000000 0.000000 0.000000 0.961607
#
#
# Mechanical properties :
#
#
# Convention : Reuss Voigt Hill
#
# Bulk Modulus (GPa) = 43.37933 62.32121 52.85027
# Shear Modulus (GPa) = 4.71845 37.05399 20.88622
#
# Velocity S-wave (km/s) = 1.42924 4.00519 3.00701
# Velocity P-wave (km/s) = 4.63719 6.95478 5.91069
#
# Compressibility (1/GPa) = 0.02305245
#
# Stress axis : x y z
#
# Youngs Moduli (GPa) = 63.76841 116.18289 165.68828
#
# Poissons Ratio (x) = -0.18258 0.44157
# Poissons Ratio (y) = -0.10021 0.42124
# Poissons Ratio (z) = 0.16995 0.29538
#
# Static dielectric constant tensor:
#      x y z
#    x 4.033840 0.000000 0.000000 
#    y 0.000000 3.918280 0.000000 
#    z 0.000000 0.000000 5.586480 
# 
# 
# High freq. dielectric constant tensor:
#      x y z
#    x 1.876560 0.000000 0.000000 
#    y 0.000000 1.896410 0.000000 
#    z 0.000000 0.000000 1.946490 
# 
# From -- ./inp_files/1635.got.cif
#   From: 2010.03.12/outbox.cif.g09.slc.cpg/sg60_1_cif.got.tgz:1635.got - 2010.04.10 18:46:24.
