data_PCOD8247812
_publ_section_title
;
Structure prediction by ZEFSAII (Michael W. Deem and Ramdas Pophale) SiO2 
 PCOD8247812
Probable space group: P B C N
;
_chemical_formula_sum "Si O2"
_cell_formula_units_Z 36
_cell_length_a 8.722390
_cell_length_b 21.965947
_cell_length_c 8.992109
_cell_angle_alpha 90.000000
_cell_angle_beta 90.000000
_cell_angle_gamma 90.000000
_cell_volume 1722.848128
_symmetry_space_group_name_H-M "P B C N"
_symmetry_group_IT_number 60
_symmetry_cell_setting 'orthorhombic'
loop_
_space_group_symop_operation_xyz
x,y,z
1/2-x,1/2-y,1/2+z
1/2+x,1/2-y,-z
-x,y,1/2-z
-x,-y,-z
1/2+x,1/2+y,1/2-z
1/2-x,1/2+y,z
x,-y,1/2+z
loop_
_atom_site_type_symbol
_atom_site_label
_atom_site_fract_x
_atom_site_fract_y
_atom_site_fract_z
Si Si1 0.500000 0.626437 0.250000
Si Si2 0.318345 0.066275 0.756737
Si Si3 0.343206 0.468013 0.952366
Si Si4 0.275312 0.202664 0.817328
Si Si5 0.423551 0.737579 0.062195
O O1 0.625642 0.585623 0.165548
O O2 0.419320 0.669461 0.128850
O O3 0.500000 0.063779 0.750000
O O4 0.243553 0.058066 0.595226
O O5 0.264736 0.130293 0.824055
O O6 0.265821 0.015677 0.872083
O O7 0.500000 0.500000 0.000000
O O8 0.418188 0.226957 0.915889
O O9 0.290962 0.224300 0.647815
O O10 0.121846 0.231642 0.889463
#
# Coordination Sequence:
#
# PCOD8247812 Si02
#       5
#     4   8   8   8   8
#     4  10  22  42  66  96 128 170 232 276 322 412
#     4  12  25  44  67  99 143 174 228 287 348 401
#     4  12  24  44  68  98 134 184 227 276 335 415
#     4  10  23  43  64  97 127 175 215 278 335 402
#     4  10  23  42  66  89 135 164 224 272 330 403
#
# _framework density 20.895631999999999
#
# number of rings (size 3 to 8) (size 9 to 14) (size 15 to 20)
#    0.000    1.333    4.444    2.000    6.222    0.889 
#    0.000    0.000    0.000    0.000    0.000    0.000 
#    0.000    0.000    0.000    0.000    0.000    0.000 
#
# Total GULP energy -446352.645708 kJ/mol
# GULP energy per Si atom -12398.684603 kJ/mol
# Density = 2.084807 g / cm^3
# Si number density = 20.895632 Si / 1000 Ang^3
#
#
#
# Elastic Constant Matrix: (Units=GPa)
#
#
# Indices 1 2 3 4 5 6 
#
# 1 33.3106 11.1791 32.8999 0.0000 0.0000 0.0000
# 2 11.1791 121.7566 27.5765 0.0000 0.0000 0.0000
# 3 32.8999 27.5765 80.6691 0.0000 0.0000 0.0000
# 4 0.0000 0.0000 0.0000 19.1698 0.0000 0.0000
# 5 0.0000 0.0000 0.0000 0.0000 50.0525 0.0000
# 6 0.0000 0.0000 0.0000 0.0000 0.0000 17.6115
#
#
#
# Elastic Compliance Matrix: (Units=1/GPa)
#
#
# Indices 1 2 3 4 5 6 
#
# 1 0.050270 0.000030 -0.020512 0.000000 0.000000 0.000000
# 2 0.000030 0.008902 -0.003056 0.000000 0.000000 0.000000
# 3 -0.020512 -0.003056 0.021807 0.000000 0.000000 0.000000
# 4 0.000000 0.000000 0.000000 0.052165 0.000000 0.000000
# 5 0.000000 0.000000 0.000000 0.000000 0.019979 0.000000
# 6 0.000000 0.000000 0.000000 0.000000 0.000000 0.056781
#
#
# Mechanical properties :
#
#
# Convention : Reuss Voigt Hill
#
# Bulk Modulus (GPa) = 29.49549 42.11638 35.80594
# Shear Modulus (GPa) = 18.63722 28.30547 23.47135
#
# Velocity S-wave (km/s) = 2.98974 3.68450 3.35515
# Velocity P-wave (km/s) = 5.10533 6.18870 5.67294
#
# Compressibility (1/GPa) = 0.03390349
#
# Stress axis : x y z
#
# Youngs Moduli (GPa) = 19.89270 112.32944 45.85781
#
# Poissons Ratio (x) = -0.00340 0.94065
# Poissons Ratio (y) = -0.00060 0.14012
# Poissons Ratio (z) = 0.40804 0.34323
#
# Static dielectric constant tensor:
#      x y z
#    x 3.975580 0.000000 0.000000 
#    y 0.000000 4.057530 0.000000 
#    z 0.000000 0.000000 3.803550 
# 
# 
# High freq. dielectric constant tensor:
#      x y z
#    x 1.812310 0.000000 0.000000 
#    y 0.000000 1.835010 0.000000 
#    z 0.000000 0.000000 1.825370 
# 
# From -- ./inp_files/3679.got.cif
#   From: 2010.03.12/outbox.cif.g09.slc.cpg/sg60_2_cif.got.tgz:3679.got - 2010.04.10 18:46:24.
