data_PCOD8247283
_publ_section_title
;
Structure prediction by ZEFSAII (Michael W. Deem and Ramdas Pophale) SiO2 
 PCOD8247283
Probable space group: P B C N
;
_chemical_formula_sum "Si O2"
_cell_formula_units_Z 52
_cell_length_a 13.807329
_cell_length_b 22.553169
_cell_length_c 8.652830
_cell_angle_alpha 90.000000
_cell_angle_beta 90.000000
_cell_angle_gamma 90.000000
_cell_volume 2694.482820
_symmetry_space_group_name_H-M "P B C N"
_symmetry_group_IT_number 60
_symmetry_cell_setting 'orthorhombic'
loop_
_space_group_symop_operation_xyz
x,y,z
1/2-x,1/2-y,1/2+z
1/2+x,1/2-y,-z
-x,y,1/2-z
-x,-y,-z
1/2+x,1/2+y,1/2-z
1/2-x,1/2+y,z
x,-y,1/2+z
loop_
_atom_site_type_symbol
_atom_site_label
_atom_site_fract_x
_atom_site_fract_y
_atom_site_fract_z
Si Si1 0.392897 0.950717 0.217164
Si Si2 0.500000 0.875883 0.750000
Si Si3 0.805197 0.780274 0.561142
Si Si4 0.215087 0.174737 0.092624
Si Si5 0.111537 0.666948 0.522514
Si Si6 0.016896 0.212225 0.080925
Si Si7 0.840720 0.435034 0.940620
O O1 0.500000 0.977027 0.250000
O O2 0.406358 0.892859 0.114283
O O3 0.338182 0.935774 0.374985
O O4 0.326837 0.998829 0.127007
O O5 0.579572 0.837454 0.657885
O O6 0.444773 0.913614 0.620323
O O7 0.796506 0.790549 0.744702
O O8 0.786828 0.710855 0.521139
O O9 0.726021 0.819472 0.471661
O O10 0.913219 0.795322 0.494541
O O11 0.107653 0.174885 0.010795
O O12 0.254033 0.108070 0.115655
O O13 0.047103 0.718771 0.595295
O O14 0.000000 0.186180 0.250000
#
# Coordination Sequence:
#
# PCOD8247283 Si02
#       7
#     8   4   8   8   8   8   8
#     4  12  24  38  58  85 121 159 194 243 301 359
#     4  12  20  34  54  86 116 156 186 246 278 354
#     4  10  21  37  58  87 118 153 198 236 298 350
#     4  10  22  37  59  84 117 155 193 242 294 353
#     4  11  22  35  59  86 121 156 194 239 298 350
#     4   9  20  37  57  84 114 156 194 237 292 346
#     4  12  24  38  57  84 121 152 200 238 303 352
#
# _framework density 19.298694000000001
#
# number of rings (size 3 to 8) (size 9 to 14) (size 15 to 20)
#    0.000    1.231    3.846    2.769    6.462    0.000 
#    0.000    0.000    0.000    0.923    0.000    0.000 
#    0.000    0.000    0.000    0.000    0.000    0.000 
#
# Total GULP energy -644489.177046 kJ/mol
# GULP energy per Si atom -12394.022635 kJ/mol
# Density = 1.925477 g / cm^3
# Si number density = 19.298694 Si / 1000 Ang^3
#
#
#
# Elastic Constant Matrix: (Units=GPa)
#
#
# Indices 1 2 3 4 5 6 
#
# 1 145.3306 44.5954 24.4614 0.0000 0.0000 0.0000
# 2 44.5954 100.5825 25.3530 0.0000 0.0000 0.0000
# 3 24.4614 25.3530 70.8787 0.0000 0.0000 0.0000
# 4 0.0000 0.0000 0.0000 17.5807 0.0000 0.0000
# 5 0.0000 0.0000 0.0000 0.0000 21.5477 0.0000
# 6 0.0000 0.0000 0.0000 0.0000 0.0000 21.8353
#
#
#
# Elastic Compliance Matrix: (Units=1/GPa)
#
#
# Indices 1 2 3 4 5 6 
#
# 1 0.008140 -0.003188 -0.001669 0.000000 0.000000 0.000000
# 2 -0.003188 0.012176 -0.003255 0.000000 0.000000 0.000000
# 3 -0.001669 -0.003255 0.015849 0.000000 0.000000 0.000000
# 4 0.000000 0.000000 0.000000 0.056881 0.000000 0.000000
# 5 0.000000 0.000000 0.000000 0.000000 0.046409 0.000000
# 6 0.000000 0.000000 0.000000 0.000000 0.000000 0.045797
#
#
# Mechanical properties :
#
#
# Convention : Reuss Voigt Hill
#
# Bulk Modulus (GPa) = 50.14871 56.17904 53.16388
# Shear Modulus (GPa) = 24.02423 27.01821 25.52122
#
# Velocity S-wave (km/s) = 3.53209 3.74572 3.64047
# Velocity P-wave (km/s) = 6.53270 6.91959 6.72892
#
# Compressibility (1/GPa) = 0.01994069
#
# Stress axis : x y z
#
# Youngs Moduli (GPa) = 122.84793 82.12723 63.09612
#
# Poissons Ratio (x) = 0.26186 0.10529
# Poissons Ratio (y) = 0.39170 0.20538
# Poissons Ratio (z) = 0.20501 0.26732
#
# Static dielectric constant tensor:
#      x y z
#    x 3.812410 0.000000 0.000000 
#    y 0.000000 3.340340 0.000000 
#    z 0.000000 0.000000 3.466970 
# 
# 
# High freq. dielectric constant tensor:
#      x y z
#    x 1.747300 0.000000 0.000000 
#    y 0.000000 1.727210 0.000000 
#    z 0.000000 0.000000 1.748360 
# 
# From -- ./inp_files/6106.got.cif
#   From: 2010.03.12/outbox.cif.g09.slc.cpg/sg60_4_cif.got.tgz:6106.got - 2010.04.10 18:46:24.
