data_PCOD8247277
_publ_section_title
;
Structure prediction by ZEFSAII (Michael W. Deem and Ramdas Pophale) SiO2 
 PCOD8247277
Probable space group: P B C N
;
_chemical_formula_sum "Si O2"
_cell_formula_units_Z 56
_cell_length_a 13.986458
_cell_length_b 20.857065
_cell_length_c 9.108041
_cell_angle_alpha 90.000000
_cell_angle_beta 90.000000
_cell_angle_gamma 90.000000
_cell_volume 2656.965511
_symmetry_space_group_name_H-M "P B C N"
_symmetry_group_IT_number 60
_symmetry_cell_setting 'orthorhombic'
loop_
_space_group_symop_operation_xyz
x,y,z
1/2-x,1/2-y,1/2+z
1/2+x,1/2-y,-z
-x,y,1/2-z
-x,-y,-z
1/2+x,1/2+y,1/2-z
1/2-x,1/2+y,z
x,-y,1/2+z
loop_
_atom_site_type_symbol
_atom_site_label
_atom_site_fract_x
_atom_site_fract_y
_atom_site_fract_z
Si Si1 0.717656 0.378308 0.402395
Si Si2 0.428205 0.826422 0.638364
Si Si3 0.028600 0.190054 0.592314
Si Si4 0.286694 0.842195 0.403008
Si Si5 0.070797 0.009614 0.631906
Si Si6 0.378145 0.370111 0.612817
Si Si7 0.749507 0.696372 0.165573
O O1 0.641276 0.321008 0.417982
O O2 0.787550 0.370871 0.261775
O O3 0.662876 0.446286 0.403145
O O4 0.777702 0.360786 0.549138
O O5 0.500000 0.866405 0.750000
O O6 0.492413 0.766071 0.584495
O O7 0.385100 0.861390 0.492348
O O8 0.337888 0.798804 0.725436
O O9 0.000000 0.160935 0.750000
O O10 0.976384 0.155181 0.457528
O O11 0.198750 0.876324 0.483029
O O12 0.270332 0.765719 0.405555
O O13 0.000000 0.042086 0.750000
O O14 0.108847 0.940370 0.683817
O O15 0.000000 0.000000 0.500000
O O16 0.345018 0.323020 0.742359
#
# Coordination Sequence:
#
# PCOD8247277 Si02
#       7
#     8   8   8   8   8   8   8
#     4  12  21  36  56  82 122 163 200 241 289 355
#     4  10  21  37  58  82 114 153 202 258 312 359
#     4  11  18  33  56  84 120 167 198 229 292 358
#     4  11  20  38  58  80 112 159 205 253 308 355
#     4  12  24  37  55  87 128 169 204 228 273 372
#     4  11  23  36  57  85 124 169 200 236 294 365
#     4  11  22  38  55  86 118 156 209 255 303 359
#
# _framework density 21.076675000000002
#
# number of rings (size 3 to 8) (size 9 to 14) (size 15 to 20)
#    0.000    0.857    5.714    3.857    0.000    0.000 
#    0.000    2.143    0.000    0.000    0.000   16.000 
#    0.000    0.000    0.000    0.000    0.000    0.000 
#
# Total GULP energy -693818.157082 kJ/mol
# GULP energy per Si atom -12389.609948 kJ/mol
# Density = 2.102870 g / cm^3
# Si number density = 21.076675 Si / 1000 Ang^3
#
#
#
# Elastic Constant Matrix: (Units=GPa)
#
#
# Indices 1 2 3 4 5 6 
#
# 1 61.9693 22.7095 32.9430 0.0000 0.0000 0.0000
# 2 22.7095 77.4701 17.9910 0.0000 0.0000 0.0000
# 3 32.9430 17.9910 113.0758 0.0000 0.0000 0.0000
# 4 0.0000 0.0000 0.0000 21.5673 0.0000 0.0000
# 5 0.0000 0.0000 0.0000 0.0000 49.5055 0.0000
# 6 0.0000 0.0000 0.0000 0.0000 0.0000 30.3312
#
#
#
# Elastic Compliance Matrix: (Units=1/GPa)
#
#
# Indices 1 2 3 4 5 6 
#
# 1 0.020712 -0.004849 -0.005262 0.000000 0.000000 0.000000
# 2 -0.004849 0.014539 -0.000900 0.000000 0.000000 0.000000
# 3 -0.005262 -0.000900 0.010520 0.000000 0.000000 0.000000
# 4 0.000000 0.000000 0.000000 0.046367 0.000000 0.000000
# 5 0.000000 0.000000 0.000000 0.000000 0.020200 0.000000
# 6 0.000000 0.000000 0.000000 0.000000 0.000000 0.032969
#
#
# Mechanical properties :
#
#
# Convention : Reuss Voigt Hill
#
# Bulk Modulus (GPa) = 42.11220 44.42248 43.26734
# Shear Modulus (GPa) = 28.53133 32.20558 30.36845
#
# Velocity S-wave (km/s) = 3.68325 3.91323 3.79998
# Velocity P-wave (km/s) = 6.17351 6.44517 6.31080
#
# Compressibility (1/GPa) = 0.02374609
#
# Stress axis : x y z
#
# Youngs Moduli (GPa) = 48.28199 68.78133 95.05669
#
# Poissons Ratio (x) = 0.33354 0.50023
# Poissons Ratio (y) = 0.23413 0.08559
# Poissons Ratio (z) = 0.25408 0.06193
#
# Static dielectric constant tensor:
#      x y z
#    x 3.850680 0.000000 0.000000 
#    y 0.000000 3.689600 0.000000 
#    z 0.000000 0.000000 4.617460 
# 
# 
# High freq. dielectric constant tensor:
#      x y z
#    x 1.804710 0.000000 0.000000 
#    y 0.000000 1.786190 0.000000 
#    z 0.000000 0.000000 1.848200 
# 
# From -- ./inp_files/6154.got.cif
#   From: 2010.03.12/outbox.cif.g09.slc.cpg/sg60_4_cif.got.tgz:6154.got - 2010.04.10 18:46:24.
