data_PCOD8247214
_publ_section_title
;
Structure prediction by ZEFSAII (Michael W. Deem and Ramdas Pophale) SiO2 
 PCOD8247214
Probable space group: P B C N
;
_chemical_formula_sum "Si O2"
_cell_formula_units_Z 40
_cell_length_a 12.940769
_cell_length_b 16.444663
_cell_length_c 9.573325
_cell_angle_alpha 90.000000
_cell_angle_beta 90.000000
_cell_angle_gamma 90.000000
_cell_volume 2037.266602
_symmetry_space_group_name_H-M "P B C N"
_symmetry_group_IT_number 60
_symmetry_cell_setting 'orthorhombic'
loop_
_space_group_symop_operation_xyz
x,y,z
1/2-x,1/2-y,1/2+z
1/2+x,1/2-y,-z
-x,y,1/2-z
-x,-y,-z
1/2+x,1/2+y,1/2-z
1/2-x,1/2+y,z
x,-y,1/2+z
loop_
_atom_site_type_symbol
_atom_site_label
_atom_site_fract_x
_atom_site_fract_y
_atom_site_fract_z
Si Si1 0.385984 0.967935 0.713182
Si Si2 0.953548 0.763016 0.603816
Si Si3 0.334443 0.699725 0.994477
Si Si4 0.244379 0.824996 0.793421
Si Si5 0.842113 0.403377 0.073188
O O1 0.500000 0.935201 0.750000
O O2 0.296361 0.912401 0.778995
O O3 0.373079 0.969275 0.545474
O O4 0.370061 0.058347 0.776507
O O5 0.864874 0.831389 0.624626
O O6 0.904063 0.680409 0.540360
O O7 0.000000 0.734526 0.750000
O O8 0.041486 0.806171 0.509938
O O9 0.278432 0.717357 0.143427
O O10 0.321443 0.771039 0.883474
O O11 0.280846 0.617591 0.933211
#
# Coordination Sequence:
#
# PCOD8247214 Si02
#       5
#     8   8   8   8   8
#     4  11  21  33  49  75 107 134 164 211 264 312
#     4   9  17  34  56  75  99 138 179 215 258 307
#     4   9  18  34  53  74 101 135 177 217 253 304
#     4   9  19  32  51  76 102 134 174 215 258 310
#     4  10  21  33  51  78 104 135 169 208 261 313
#
# _framework density 19.634152
#
# number of rings (size 3 to 8) (size 9 to 14) (size 15 to 20)
#    0.000    2.400    0.000    2.400    0.000    4.800 
#    0.000    1.000    0.000    0.000    0.000    4.200 
#    0.000    0.000    0.000    0.000    0.000    0.000 
#
# Total GULP energy -495627.758627 kJ/mol
# GULP energy per Si atom -12390.693966 kJ/mol
# Density = 1.958946 g / cm^3
# Si number density = 19.634152 Si / 1000 Ang^3
#
#
#
# Elastic Constant Matrix: (Units=GPa)
#
#
# Indices 1 2 3 4 5 6 
#
# 1 119.2716 45.5007 31.7704 0.0000 0.0000 0.0000
# 2 45.5007 55.9918 10.5138 0.0000 0.0000 0.0000
# 3 31.7704 10.5138 36.4347 0.0000 0.0000 0.0000
# 4 0.0000 0.0000 0.0000 25.2190 0.0000 0.0000
# 5 0.0000 0.0000 0.0000 0.0000 28.0887 0.0000
# 6 0.0000 0.0000 0.0000 0.0000 0.0000 24.2351
#
#
#
# Elastic Compliance Matrix: (Units=1/GPa)
#
#
# Indices 1 2 3 4 5 6 
#
# 1 0.015006 -0.010295 -0.010114 0.000000 0.000000 0.000000
# 2 -0.010295 0.025946 0.001490 0.000000 0.000000 0.000000
# 3 -0.010114 0.001490 0.035836 0.000000 0.000000 0.000000
# 4 0.000000 0.000000 0.000000 0.039653 0.000000 0.000000
# 5 0.000000 0.000000 0.000000 0.000000 0.035602 0.000000
# 6 0.000000 0.000000 0.000000 0.000000 0.000000 0.041262
#
#
# Mechanical properties :
#
#
# Convention : Reuss Voigt Hill
#
# Bulk Modulus (GPa) = 25.67441 43.02977 34.35209
# Shear Modulus (GPa) = 20.48132 23.76943 22.12537
#
# Velocity S-wave (km/s) = 3.23328 3.48317 3.36055
# Velocity P-wave (km/s) = 5.20035 6.17576 5.70892
#
# Compressibility (1/GPa) = 0.03894929
#
# Stress axis : x y z
#
# Youngs Moduli (GPa) = 66.64145 38.54157 27.90527
#
# Poissons Ratio (x) = 0.39678 0.28223
# Poissons Ratio (y) = 0.68607 -0.04158
# Poissons Ratio (z) = 0.67400 -0.05742
#
# Static dielectric constant tensor:
#      x y z
#    x 3.980090 0.000000 0.000000 
#    y 0.000000 3.134490 0.000000 
#    z 0.000000 0.000000 3.678690 
# 
# 
# High freq. dielectric constant tensor:
#      x y z
#    x 1.777660 0.000000 0.000000 
#    y 0.000000 1.721920 0.000000 
#    z 0.000000 0.000000 1.768790 
# 
# From -- ./inp_files/4775.got.cif
#   From: 2010.03.12/outbox.cif.g09.slc.cpg/sg60_3_cif.got.tgz:4775.got - 2010.04.10 18:46:24.
