data_PCOD8247785
_publ_section_title
;
Structure prediction by ZEFSAII (Michael W. Deem and Ramdas Pophale) SiO2 
 PCOD8247785
Probable space group: P B C N
;
_chemical_formula_sum "Si O2"
_cell_formula_units_Z 64
_cell_length_a 13.088526
_cell_length_b 10.258459
_cell_length_c 21.089961
_cell_angle_alpha 90.000000
_cell_angle_beta 90.000000
_cell_angle_gamma 90.000000
_cell_volume 2831.709147
_symmetry_space_group_name_H-M "P B C N"
_symmetry_group_IT_number 60
_symmetry_cell_setting 'orthorhombic'
loop_
_space_group_symop_operation_xyz
x,y,z
1/2-x,1/2-y,1/2+z
1/2+x,1/2-y,-z
-x,y,1/2-z
-x,-y,-z
1/2+x,1/2+y,1/2-z
1/2-x,1/2+y,z
x,-y,1/2+z
loop_
_atom_site_type_symbol
_atom_site_label
_atom_site_fract_x
_atom_site_fract_y
_atom_site_fract_z
Si Si1 0.784826 0.983102 0.503519
Si Si2 0.518895 0.481767 0.319662
Si Si3 0.796312 0.340974 0.107703
Si Si4 0.395002 0.963882 0.273819
Si Si5 0.730668 0.368937 0.312423
Si Si6 0.816287 0.241761 0.436944
Si Si7 0.628357 0.247814 0.191820
Si Si8 0.041838 0.148471 0.436900
O O1 0.742052 0.029646 0.571591
O O2 0.766941 0.101646 0.454097
O O3 0.720928 0.857180 0.482475
O O4 0.908143 0.950777 0.510205
O O5 0.500000 0.545377 0.250000
O O6 0.637849 0.459024 0.338842
O O7 0.467153 0.341054 0.319403
O O8 0.467321 0.576698 0.369693
O O9 0.857334 0.374394 0.170260
O O10 0.699324 0.255609 0.129748
O O11 0.868635 0.255392 0.063736
O O12 0.500000 0.901026 0.250000
O O13 0.314808 0.967187 0.215875
O O14 0.417844 0.105537 0.301759
O O15 0.784013 0.278025 0.365458
O O16 0.689203 0.279502 0.256040
O O17 0.937040 0.223493 0.451685
#
# Coordination Sequence:
#
# PCOD8247785 Si02
#       8
#     8   8   8   8   8   8   8   8
#     4  12  26  51  72 102 139 192 245 292 358 427
#     4  10  22  42  72 107 141 186 231 290 368 440
#     4  11  24  44  70 101 136 182 235 294 347 428
#     4  11  23  41  67 103 143 179 227 292 364 423
#     4  10  24  42  66 106 141 183 228 301 356 426
#     4  12  28  47  73 103 145 190 244 300 357 421
#     4  10  22  41  69 100 139 184 228 283 361 437
#     4  12  25  46  72 102 137 188 244 296 359 430
#
# _framework density 22.601191
#
# number of rings (size 3 to 8) (size 9 to 14) (size 15 to 20)
#    0.000    1.000    2.500    3.750    7.000    2.000 
#    2.250    0.000    0.000    0.000    0.000    0.000 
#    0.000    0.000    0.000    0.000    0.000    0.000 
#
# Total GULP energy -793451.188404 kJ/mol
# GULP energy per Si atom -12397.674819 kJ/mol
# Density = 2.254975 g / cm^3
# Si number density = 22.601191 Si / 1000 Ang^3
#
#
#
# Elastic Constant Matrix: (Units=GPa)
#
#
# Indices 1 2 3 4 5 6 
#
# 1 126.3739 38.2699 28.3329 0.0000 0.0000 0.0000
# 2 38.2699 100.8457 34.2172 0.0000 0.0000 0.0000
# 3 28.3329 34.2172 65.7728 0.0000 0.0000 0.0000
# 4 0.0000 0.0000 0.0000 31.3714 0.0000 0.0000
# 5 0.0000 0.0000 0.0000 0.0000 35.6097 0.0000
# 6 0.0000 0.0000 0.0000 0.0000 0.0000 35.0832
#
#
#
# Elastic Compliance Matrix: (Units=1/GPa)
#
#
# Indices 1 2 3 4 5 6 
#
# 1 0.009302 -0.002636 -0.002636 0.000000 0.000000 0.000000
# 2 -0.002636 0.012788 -0.005518 0.000000 0.000000 0.000000
# 3 -0.002636 -0.005518 0.019210 0.000000 0.000000 0.000000
# 4 0.000000 0.000000 0.000000 0.031876 0.000000 0.000000
# 5 0.000000 0.000000 0.000000 0.000000 0.028082 0.000000
# 6 0.000000 0.000000 0.000000 0.000000 0.000000 0.028504
#
#
# Mechanical properties :
#
#
# Convention : Reuss Voigt Hill
#
# Bulk Modulus (GPa) = 50.70486 54.95916 52.83201
# Shear Modulus (GPa) = 31.66260 33.22435 32.44348
#
# Velocity S-wave (km/s) = 3.74696 3.83825 3.79288
# Velocity P-wave (km/s) = 6.41895 6.63420 6.52746
#
# Compressibility (1/GPa) = 0.01972198
#
# Stress axis : x y z
#
# Youngs Moduli (GPa) = 107.50178 78.19527 52.05680
#
# Poissons Ratio (x) = 0.20610 0.13722
# Poissons Ratio (y) = 0.28334 0.28723
# Poissons Ratio (z) = 0.28337 0.43145
#
# Static dielectric constant tensor:
#      x y z
#    x 4.291350 0.000000 0.000000 
#    y 0.000000 3.959770 0.000000 
#    z 0.000000 0.000000 4.202920 
# 
# 
# High freq. dielectric constant tensor:
#      x y z
#    x 1.899820 0.000000 0.000000 
#    y 0.000000 1.890960 0.000000 
#    z 0.000000 0.000000 1.893520 
# 
# From -- ./inp_files/24323.got.cif
#   From: 2010.03.12/outbox.cif.g09.slc.cpg/sg60_13_cif.got.tgz:24323.got - 2010.04.10 18:46:24.
