data_PCOD8247515
_publ_section_title
;
Structure prediction by ZEFSAII (Michael W. Deem and Ramdas Pophale) SiO2 
 PCOD8247515
Probable space group: P B C N
;
_chemical_formula_sum "Si O2"
_cell_formula_units_Z 40
_cell_length_a 8.992447
_cell_length_b 23.994301
_cell_length_c 8.569415
_cell_angle_alpha 90.000000
_cell_angle_beta 90.000000
_cell_angle_gamma 90.000000
_cell_volume 1849.001080
_symmetry_space_group_name_H-M "P B C N"
_symmetry_group_IT_number 60
_symmetry_cell_setting 'orthorhombic'
loop_
_space_group_symop_operation_xyz
x,y,z
1/2-x,1/2-y,1/2+z
1/2+x,1/2-y,-z
-x,y,1/2-z
-x,-y,-z
1/2+x,1/2+y,1/2-z
1/2-x,1/2+y,z
x,-y,1/2+z
loop_
_atom_site_type_symbol
_atom_site_label
_atom_site_fract_x
_atom_site_fract_y
_atom_site_fract_z
Si Si1 0.189025 0.549016 0.570857
Si Si2 0.209959 0.319581 0.569527
Si Si3 0.840696 0.434903 0.077806
Si Si4 0.994840 0.775093 0.070595
Si Si5 0.640872 0.635486 0.142312
O O1 0.217537 0.484266 0.532448
O O2 0.229209 0.556367 0.751413
O O3 0.289411 0.583606 0.450347
O O4 0.017709 0.566817 0.558287
O O5 0.223110 0.376008 0.473019
O O6 0.331780 0.276365 0.503878
O O7 0.234884 0.334890 0.750370
O O8 0.053422 0.288258 0.549638
O O9 0.000000 0.792729 0.250000
O O10 0.096955 0.819198 0.983579
O O11 0.500000 0.616662 0.250000
#
# Coordination Sequence:
#
# PCOD8247515 Si02
#       5
#     8   8   8   8   8
#     4  10  21  41  65  96 128 165 212 264 325 381
#     4  11  24  41  64  96 128 169 214 262 319 375
#     4  10  22  39  67  96 126 166 213 266 318 389
#     4  11  24  42  62  93 128 173 214 261 315 378
#     4  10  23  42  64  93 130 169 216 265 320 390
#
# _framework density 21.633302
#
# number of rings (size 3 to 8) (size 9 to 14) (size 15 to 20)
#    0.000    1.600    0.000    3.600    5.600    1.600 
#    7.200   10.000    0.000    0.000    0.000    0.000 
#    0.000    0.000    0.000    0.000    0.000    0.000 
#
# Total GULP energy -495977.626961 kJ/mol
# GULP energy per Si atom -12399.440674 kJ/mol
# Density = 2.158406 g / cm^3
# Si number density = 21.633302 Si / 1000 Ang^3
#
#
#
# Elastic Constant Matrix: (Units=GPa)
#
#
# Indices 1 2 3 4 5 6 
#
# 1 66.2287 61.8980 41.1650 0.0000 0.0000 0.0000
# 2 61.8980 146.0221 81.9479 0.0000 0.0000 0.0000
# 3 41.1650 81.9479 173.4258 0.0000 0.0000 0.0000
# 4 0.0000 0.0000 0.0000 34.2378 0.0000 0.0000
# 5 0.0000 0.0000 0.0000 0.0000 37.1685 0.0000
# 6 0.0000 0.0000 0.0000 0.0000 0.0000 120.4857
#
#
#
# Elastic Compliance Matrix: (Units=1/GPa)
#
#
# Indices 1 2 3 4 5 6 
#
# 1 0.025210 -0.009973 -0.001272 0.000000 0.000000 0.000000
# 2 -0.009973 0.013265 -0.003901 0.000000 0.000000 0.000000
# 3 -0.001272 -0.003901 0.007911 0.000000 0.000000 0.000000
# 4 0.000000 0.000000 0.000000 0.029207 0.000000 0.000000
# 5 0.000000 0.000000 0.000000 0.000000 0.026905 0.000000
# 6 0.000000 0.000000 0.000000 0.000000 0.000000 0.008300
#
#
# Mechanical properties :
#
#
# Convention : Reuss Voigt Hill
#
# Bulk Modulus (GPa) = 62.12769 83.96649 73.04709
# Shear Modulus (GPa) = 34.14042 51.75611 42.94827
#
# Velocity S-wave (km/s) = 3.97689 4.89655 4.46049
# Velocity P-wave (km/s) = 7.06176 8.41820 7.76964
#
# Compressibility (1/GPa) = 0.01609588
#
# Stress axis : x y z
#
# Youngs Moduli (GPa) = 39.66621 75.38716 126.40337
#
# Poissons Ratio (x) = 0.75183 0.16073
# Poissons Ratio (y) = 0.39559 0.49307
# Poissons Ratio (z) = 0.05044 0.29407
#
# Static dielectric constant tensor:
#      x y z
#    x 3.849040 0.000000 0.000000 
#    y 0.000000 3.795630 0.000000 
#    z 0.000000 0.000000 4.121290 
# 
# 
# High freq. dielectric constant tensor:
#      x y z
#    x 1.839940 0.000000 0.000000 
#    y 0.000000 1.855030 0.000000 
#    z 0.000000 0.000000 1.867410 
# 
# From -- ./inp_files/3878.got.cif
#   From: 2010.03.12/outbox.cif.g09.slc.cpg/sg60_2_cif.got.tgz:3878.got - 2010.04.10 18:46:24.
