data_PCOD8247823
_publ_section_title
;
Structure prediction by ZEFSAII (Michael W. Deem and Ramdas Pophale) SiO2 
 PCOD8247823
Probable space group: P B C N
;
_chemical_formula_sum "Si O2"
_cell_formula_units_Z 56
_cell_length_a 9.712111
_cell_length_b 19.205698
_cell_length_c 13.976456
_cell_angle_alpha 90.000000
_cell_angle_beta 90.000000
_cell_angle_gamma 90.000000
_cell_volume 2606.998579
_symmetry_space_group_name_H-M "P B C N"
_symmetry_group_IT_number 60
_symmetry_cell_setting 'orthorhombic'
loop_
_space_group_symop_operation_xyz
x,y,z
1/2-x,1/2-y,1/2+z
1/2+x,1/2-y,-z
-x,y,1/2-z
-x,-y,-z
1/2+x,1/2+y,1/2-z
1/2-x,1/2+y,z
x,-y,1/2+z
loop_
_atom_site_type_symbol
_atom_site_label
_atom_site_fract_x
_atom_site_fract_y
_atom_site_fract_z
Si Si1 0.090937 0.277948 0.489890
Si Si2 0.374466 0.949970 0.113573
Si Si3 0.174563 0.711570 0.603369
Si Si4 0.159697 0.487557 0.905978
Si Si5 0.266662 0.709912 0.810019
Si Si6 0.847314 0.941643 0.227967
Si Si7 0.938920 0.655038 0.149168
O O1 0.183410 0.220519 0.544304
O O2 0.164849 0.310323 0.396422
O O3 0.947221 0.244462 0.449698
O O4 0.058181 0.338411 0.568066
O O5 0.374086 0.867853 0.094003
O O6 0.260416 0.968383 0.192432
O O7 0.528184 0.974088 0.143735
O O8 0.338992 0.995144 0.020029
O O9 0.186989 0.735178 0.713930
O O10 0.299568 0.523626 0.870787
O O11 0.165333 0.405748 0.879654
O O12 0.352350 0.641907 0.780443
O O13 0.365865 0.770452 0.845616
O O14 0.000000 0.968649 0.250000
O O15 0.000000 0.633435 0.250000
#
# Coordination Sequence:
#
# PCOD8247823 Si02
#       7
#     8   8   8   8   8   8   8
#     4  12  22  39  65  99 130 171 220 277 339 387
#     4  10  22  42  68  94 129 179 229 271 325 407
#     4  11  23  41  65  97 137 172 224 281 331 414
#     4  11  23  44  70  95 133 175 230 278 325 398
#     4  11  24  42  67  98 133 177 226 274 337 405
#     4  11  25  42  68  99 134 177 220 276 339 409
#     4  12  23  41  69  98 130 173 219 281 332 399
#
# _framework density 21.480640999999999
#
# number of rings (size 3 to 8) (size 9 to 14) (size 15 to 20)
#    0.000    0.857    4.286    3.000    4.000    2.857 
#    0.000    2.857    0.000    0.000    0.000    0.000 
#    0.000    0.000    0.000    0.000    0.000    0.000 
#
# Total GULP energy -694319.927535 kJ/mol
# GULP energy per Si atom -12398.570135 kJ/mol
# Density = 2.143175 g / cm^3
# Si number density = 21.480641 Si / 1000 Ang^3
#
#
#
# Elastic Constant Matrix: (Units=GPa)
#
#
# Indices 1 2 3 4 5 6 
#
# 1 121.3737 31.1141 46.2508 0.0000 0.0000 0.0000
# 2 31.1141 73.7842 14.0767 0.0000 0.0000 0.0000
# 3 46.2508 14.0767 129.5677 0.0000 0.0000 0.0000
# 4 0.0000 0.0000 0.0000 23.5726 0.0000 0.0000
# 5 0.0000 0.0000 0.0000 0.0000 33.9800 0.0000
# 6 0.0000 0.0000 0.0000 0.0000 0.0000 32.4536
#
#
#
# Elastic Compliance Matrix: (Units=1/GPa)
#
#
# Indices 1 2 3 4 5 6 
#
# 1 0.010477 -0.003783 -0.003329 0.000000 0.000000 0.000000
# 2 -0.003783 0.015206 -0.000302 0.000000 0.000000 0.000000
# 3 -0.003329 -0.000302 0.008939 0.000000 0.000000 0.000000
# 4 0.000000 0.000000 0.000000 0.042422 0.000000 0.000000
# 5 0.000000 0.000000 0.000000 0.000000 0.029429 0.000000
# 6 0.000000 0.000000 0.000000 0.000000 0.000000 0.030813
#
#
# Mechanical properties :
#
#
# Convention : Reuss Voigt Hill
#
# Bulk Modulus (GPa) = 50.51809 56.40099 53.45954
# Shear Modulus (GPa) = 31.50350 33.55349 32.52850
#
# Velocity S-wave (km/s) = 3.83378 3.95655 3.89564
# Velocity P-wave (km/s) = 6.57009 6.86921 6.72131
#
# Compressibility (1/GPa) = 0.01979489
#
# Stress axis : x y z
#
# Youngs Moduli (GPa) = 95.44373 65.76409 111.86844
#
# Poissons Ratio (x) = 0.24879 0.37241
# Poissons Ratio (y) = 0.36107 0.03374
# Poissons Ratio (z) = 0.31773 0.01983
#
# Static dielectric constant tensor:
#      x y z
#    x 3.850100 0.000000 0.000000 
#    y 0.000000 3.562120 0.000000 
#    z 0.000000 0.000000 4.360700 
# 
# 
# High freq. dielectric constant tensor:
#      x y z
#    x 1.830330 0.000000 0.000000 
#    y 0.000000 1.816900 0.000000 
#    z 0.000000 0.000000 1.873970 
# 
# From -- ./inp_files/15255.got.cif
#   From: 2010.03.12/outbox.cif.g09.slc.cpg/sg60_8_cif.got.tgz:15255.got - 2010.04.10 18:46:24.
