data_PCOD8247942
_publ_section_title
;
Structure prediction by ZEFSAII (Michael W. Deem and Ramdas Pophale) SiO2 
 PCOD8247942
Probable space group: P B C N
;
_chemical_formula_sum "Si O2"
_cell_formula_units_Z 40
_cell_length_a 8.329434
_cell_length_b 23.827435
_cell_length_c 8.995434
_cell_angle_alpha 90.000000
_cell_angle_beta 90.000000
_cell_angle_gamma 90.000000
_cell_volume 1785.315215
_symmetry_space_group_name_H-M "P B C N"
_symmetry_group_IT_number 60
_symmetry_cell_setting 'orthorhombic'
loop_
_space_group_symop_operation_xyz
x,y,z
1/2-x,1/2-y,1/2+z
1/2+x,1/2-y,-z
-x,y,1/2-z
-x,-y,-z
1/2+x,1/2+y,1/2-z
1/2-x,1/2+y,z
x,-y,1/2+z
loop_
_atom_site_type_symbol
_atom_site_label
_atom_site_fract_x
_atom_site_fract_y
_atom_site_fract_z
Si Si1 0.162062 0.865788 0.486688
Si Si2 0.178290 0.416321 0.209787
Si Si3 0.810824 0.225609 0.277922
Si Si4 0.202522 0.825441 0.033178
Si Si5 0.614232 0.522342 0.374640
O O1 0.242911 0.872315 0.326268
O O2 0.234601 0.817589 0.590624
O O3 0.210245 0.924627 0.564411
O O4 0.974309 0.852197 0.469309
O O5 0.180797 0.379269 0.058775
O O6 0.273814 0.474147 0.193122
O O7 0.000000 0.434243 0.250000
O O8 0.722774 0.282282 0.328753
O O9 0.000000 0.235258 0.250000
O O10 0.741183 0.203792 0.120460
O O11 0.500000 0.547814 0.250000
O O12 0.500000 0.500000 0.500000
#
# Coordination Sequence:
#
# PCOD8247942 Si02
#       5
#     8   8   8   8   8
#     4  11  24  45  71  99 135 185 230 275 339 414
#     4  12  26  43  66  99 140 177 225 290 341 400
#     4  10  23  40  68 101 134 174 227 287 338 408
#     4  11  21  42  68  97 133 177 231 276 343 412
#     4  12  22  44  74 102 132 183 229 273 336 415
#
# _framework density 22.405007000000001
#
# number of rings (size 3 to 8) (size 9 to 14) (size 15 to 20)
#    0.000    0.800    4.000    4.200    0.000    4.000 
#    0.000    5.000    0.000    0.000    0.000    0.000 
#    0.000    0.000    0.000    0.000    0.000    0.000 
#
# Total GULP energy -495769.548567 kJ/mol
# GULP energy per Si atom -12394.238714 kJ/mol
# Density = 2.235401 g / cm^3
# Si number density = 22.405007 Si / 1000 Ang^3
#
#
#
# Elastic Constant Matrix: (Units=GPa)
#
#
# Indices 1 2 3 4 5 6 
#
# 1 75.5749 35.3183 34.0266 0.0000 0.0000 0.0000
# 2 35.3183 132.9664 37.7699 0.0000 0.0000 0.0000
# 3 34.0266 37.7699 90.2624 0.0000 0.0000 0.0000
# 4 0.0000 0.0000 0.0000 53.2543 0.0000 0.0000
# 5 0.0000 0.0000 0.0000 0.0000 28.8776 0.0000
# 6 0.0000 0.0000 0.0000 0.0000 0.0000 26.7927
#
#
#
# Elastic Compliance Matrix: (Units=1/GPa)
#
#
# Indices 1 2 3 4 5 6 
#
# 1 0.016962 -0.003052 -0.005117 0.000000 0.000000 0.000000
# 2 -0.003052 0.009084 -0.002651 0.000000 0.000000 0.000000
# 3 -0.005117 -0.002651 0.014117 0.000000 0.000000 0.000000
# 4 0.000000 0.000000 0.000000 0.018778 0.000000 0.000000
# 5 0.000000 0.000000 0.000000 0.000000 0.034629 0.000000
# 6 0.000000 0.000000 0.000000 0.000000 0.000000 0.037324
#
#
# Mechanical properties :
#
#
# Convention : Reuss Voigt Hill
#
# Bulk Modulus (GPa) = 53.98497 57.00371 55.49434
# Shear Modulus (GPa) = 31.50437 34.56419 33.03428
#
# Velocity S-wave (km/s) = 3.75391 3.93198 3.84398
# Velocity P-wave (km/s) = 6.55259 6.79055 6.67263
#
# Compressibility (1/GPa) = 0.01852367
#
# Stress axis : x y z
#
# Youngs Moduli (GPa) = 58.95503 110.07991 70.83614
#
# Poissons Ratio (x) = 0.33595 0.36248
# Poissons Ratio (y) = 0.17992 0.18777
# Poissons Ratio (z) = 0.30169 0.29180
#
# Static dielectric constant tensor:
#      x y z
#    x 3.563620 0.000000 0.000000 
#    y 0.000000 12.962340 0.000000 
#    z 0.000000 0.000000 4.227880 
# 
# 
# High freq. dielectric constant tensor:
#      x y z
#    x 1.846250 0.000000 0.000000 
#    y 0.000000 1.905800 0.000000 
#    z 0.000000 0.000000 1.902510 
# 
# From -- ./inp_files/3802.got.cif
#   From: 2010.03.12/outbox.cif.g09.slc.cpg/sg60_2_cif.got.tgz:3802.got - 2010.04.10 18:46:24.
