data_PCOD8247574
_publ_section_title
;
Structure prediction by ZEFSAII (Michael W. Deem and Ramdas Pophale) SiO2 
 PCOD8247574
Probable space group: P B C N
;
_chemical_formula_sum "Si O2"
_cell_formula_units_Z 60
_cell_length_a 8.374313
_cell_length_b 12.297410
_cell_length_c 26.800954
_cell_angle_alpha 90.000000
_cell_angle_beta 90.000000
_cell_angle_gamma 90.000000
_cell_volume 2760.025505
_symmetry_space_group_name_H-M "P B C N"
_symmetry_group_IT_number 60
_symmetry_cell_setting 'orthorhombic'
loop_
_space_group_symop_operation_xyz
x,y,z
1/2-x,1/2-y,1/2+z
1/2+x,1/2-y,-z
-x,y,1/2-z
-x,-y,-z
1/2+x,1/2+y,1/2-z
1/2-x,1/2+y,z
x,-y,1/2+z
loop_
_atom_site_type_symbol
_atom_site_label
_atom_site_fract_x
_atom_site_fract_y
_atom_site_fract_z
Si Si1 0.224666 0.303406 0.047618
Si Si2 0.000000 0.164726 0.750000
Si Si3 0.176123 0.202622 0.242368
Si Si4 0.561893 0.774014 0.558926
Si Si5 0.195702 0.647461 0.877813
Si Si6 0.071502 0.813517 0.636450
Si Si7 0.391176 0.508020 0.317184
Si Si8 0.512847 0.009880 0.942181
O O1 0.414589 0.303881 0.046284
O O2 0.157992 0.206918 0.083606
O O3 0.173456 0.421227 0.070231
O O4 0.165102 0.286800 0.991165
O O5 0.164613 0.232089 0.758134
O O6 0.985040 0.083813 0.797276
O O7 0.195564 0.182712 0.182810
O O8 0.168080 0.089814 0.273503
O O9 0.000000 0.260032 0.250000
O O10 0.659373 0.723219 0.604434
O O11 0.493994 0.888965 0.580487
O O12 0.238724 0.556292 0.837477
O O13 0.060262 0.720667 0.852659
O O14 0.135619 0.583828 0.926352
O O15 0.977586 0.928679 0.637151
O O16 0.500000 0.000000 0.000000
#
# Coordination Sequence:
#
# PCOD8247574 Si02
#       8
#     8   4   8   8   8   8   8   8
#     4  10  22  39  64  94 137 179 219 278 334 391
#     4  12  24  44  76  94 138 180 226 280 364 406
#     4  10  23  47  67  98 139 169 227 296 336 409
#     4  11  22  41  64  97 135 178 224 272 330 408
#     4  11  23  39  70  95 132 180 220 274 349 398
#     4  10  21  44  62  94 137 168 219 287 330 399
#     4  11  22  44  67 100 132 173 227 288 338 417
#     4   9  20  40  60  92 134 171 222 273 326 402
#
# _framework density 21.738928999999999
#
# number of rings (size 3 to 8) (size 9 to 14) (size 15 to 20)
#    0.000    1.600    2.000    4.800    1.867    2.133 
#    6.000    4.000    0.000    0.000    0.000    0.000 
#    0.000    0.000    0.000    0.000    0.000    0.000 
#
# Total GULP energy -743340.616114 kJ/mol
# GULP energy per Si atom -12389.010269 kJ/mol
# Density = 2.168945 g / cm^3
# Si number density = 21.738929 Si / 1000 Ang^3
#
#
#
# Elastic Constant Matrix: (Units=GPa)
#
#
# Indices 1 2 3 4 5 6 
#
# 1 100.7406 46.8241 21.4434 0.0000 0.0000 0.0000
# 2 46.8241 120.1172 37.7983 0.0000 0.0000 0.0000
# 3 21.4434 37.7983 74.4954 0.0000 0.0000 0.0000
# 4 0.0000 0.0000 0.0000 33.9167 0.0000 0.0000
# 5 0.0000 0.0000 0.0000 0.0000 26.2791 0.0000
# 6 0.0000 0.0000 0.0000 0.0000 0.0000 19.2986
#
#
#
# Elastic Compliance Matrix: (Units=1/GPa)
#
#
# Indices 1 2 3 4 5 6 
#
# 1 0.012230 -0.004355 -0.001311 0.000000 0.000000 0.000000
# 2 -0.004355 0.011458 -0.004560 0.000000 0.000000 0.000000
# 3 -0.001311 -0.004560 0.016115 0.000000 0.000000 0.000000
# 4 0.000000 0.000000 0.000000 0.029484 0.000000 0.000000
# 5 0.000000 0.000000 0.000000 0.000000 0.038053 0.000000
# 6 0.000000 0.000000 0.000000 0.000000 0.000000 0.051817
#
#
# Mechanical properties :
#
#
# Convention : Reuss Voigt Hill
#
# Bulk Modulus (GPa) = 51.67723 56.38720 54.03222
# Shear Modulus (GPa) = 26.87336 28.51803 27.69570
#
# Velocity S-wave (km/s) = 3.51976 3.62586 3.57321
# Velocity P-wave (km/s) = 6.35151 6.59726 6.47555
#
# Compressibility (1/GPa) = 0.01935088
#
# Stress axis : x y z
#
# Youngs Moduli (GPa) = 81.76863 87.27691 62.05545
#
# Poissons Ratio (x) = 0.38009 0.08133
# Poissons Ratio (y) = 0.35610 0.28297
# Poissons Ratio (z) = 0.10717 0.39798
#
# Static dielectric constant tensor:
#      x y z
#    x 3.806350 0.000000 0.000000 
#    y 0.000000 5.256100 0.000000 
#    z 0.000000 0.000000 4.020940 
# 
# 
# High freq. dielectric constant tensor:
#      x y z
#    x 1.841520 0.000000 0.000000 
#    y 0.000000 1.857930 0.000000 
#    z 0.000000 0.000000 1.855320 
# 
# From -- ./inp_files/25199.got.cif
#   From: 2010.03.12/outbox.cif.g09.slc.cpg/sg60_13_cif.got.tgz:25199.got - 2010.04.10 18:46:24.
