data_PCOD8247416
_publ_section_title
;
Structure prediction by ZEFSAII (Michael W. Deem and Ramdas Pophale) SiO2 
 PCOD8247416
Probable space group: P B C N
;
_chemical_formula_sum "Si O2"
_cell_formula_units_Z 56
_cell_length_a 15.017095
_cell_length_b 30.242650
_cell_length_c 5.211582
_cell_angle_alpha 90.000000
_cell_angle_beta 90.000000
_cell_angle_gamma 90.000000
_cell_volume 2366.875134
_symmetry_space_group_name_H-M "P B C N"
_symmetry_group_IT_number 60
_symmetry_cell_setting 'orthorhombic'
loop_
_space_group_symop_operation_xyz
x,y,z
1/2-x,1/2-y,1/2+z
1/2+x,1/2-y,-z
-x,y,1/2-z
-x,-y,-z
1/2+x,1/2+y,1/2-z
1/2-x,1/2+y,z
x,-y,1/2+z
loop_
_atom_site_type_symbol
_atom_site_label
_atom_site_fract_x
_atom_site_fract_y
_atom_site_fract_z
Si Si1 0.500000 0.106117 0.750000
Si Si2 0.819696 0.025002 0.842224
Si Si3 0.232595 0.159855 0.316150
Si Si4 0.843460 0.879792 0.164123
Si Si5 0.404764 0.730324 0.376397
Si Si6 0.000000 0.825186 0.250000
Si Si7 0.414794 0.178972 0.097660
Si Si8 0.390747 0.026115 0.619682
O O1 0.558184 0.135419 0.556634
O O2 0.431588 0.075259 0.592265
O O3 0.863439 0.070488 0.751258
O O4 0.714254 0.031219 0.858744
O O5 0.850610 0.989373 0.626604
O O6 0.208368 0.143059 0.597909
O O7 0.177635 0.204897 0.241090
O O8 0.337926 0.169706 0.305444
O O9 0.215580 0.123082 0.094328
O O10 0.938548 0.858248 0.081396
O O11 0.500000 0.722308 0.250000
O O12 0.421081 0.705271 0.641967
O O13 0.382212 0.782170 0.404884
O O14 0.500000 0.197692 0.250000
O O15 0.424519 0.996569 0.382201
#
# Coordination Sequence:
#
# PCOD8247416 Si02
#       8
#     4   8   8   8   8   4   8   8
#     4  12  26  42  66  93 144 175 230 288 348 398
#     4  10  21  39  63  95 135 174 219 280 346 411
#     4  11  27  44  73  99 139 185 241 280 344 412
#     4  11  23  44  72 103 135 178 237 284 351 412
#     4  11  22  46  70  97 135 180 234 285 347 412
#     4  10  22  42  70  99 130 179 228 294 332 426
#     4  12  29  43  67 104 145 186 229 294 353 409
#     4  10  23  41  65  92 126 181 233 274 330 409
#
# _framework density 23.659887000000001
#
# number of rings (size 3 to 8) (size 9 to 14) (size 15 to 20)
#    0.000    1.143    2.857    2.143    6.000    4.571 
#    0.000    0.714    0.000    0.000    0.000    0.000 
#    0.000    0.000    0.000    0.000    0.000    0.000 
#
# Total GULP energy -694059.870905 kJ/mol
# GULP energy per Si atom -12393.926266 kJ/mol
# Density = 2.360604 g / cm^3
# Si number density = 23.659887 Si / 1000 Ang^3
#
#
#
# Elastic Constant Matrix: (Units=GPa)
#
#
# Indices 1 2 3 4 5 6 
#
# 1 74.2071 23.8172 14.9176 0.0000 0.0000 0.0000
# 2 23.8172 138.2803 18.5561 0.0000 0.0000 0.0000
# 3 14.9176 18.5561 89.1718 0.0000 0.0000 0.0000
# 4 0.0000 0.0000 0.0000 33.3820 0.0000 0.0000
# 5 0.0000 0.0000 0.0000 0.0000 26.7398 0.0000
# 6 0.0000 0.0000 0.0000 0.0000 0.0000 32.4897
#
#
#
# Elastic Compliance Matrix: (Units=1/GPa)
#
#
# Indices 1 2 3 4 5 6 
#
# 1 0.014594 -0.002249 -0.001974 0.000000 0.000000 0.000000
# 2 -0.002249 0.007786 -0.001244 0.000000 0.000000 0.000000
# 3 -0.001974 -0.001244 0.011803 0.000000 0.000000 0.000000
# 4 0.000000 0.000000 0.000000 0.029956 0.000000 0.000000
# 5 0.000000 0.000000 0.000000 0.000000 0.037397 0.000000
# 6 0.000000 0.000000 0.000000 0.000000 0.000000 0.030779
#
#
# Mechanical properties :
#
#
# Convention : Reuss Voigt Hill
#
# Bulk Modulus (GPa) = 43.00920 46.24900 44.62910
# Shear Modulus (GPa) = 33.11274 34.81353 33.96314
#
# Velocity S-wave (km/s) = 3.74509 3.84007 3.79287
# Velocity P-wave (km/s) = 6.07606 6.26509 6.17130
#
# Compressibility (1/GPa) = 0.02325084
#
# Stress axis : x y z
#
# Youngs Moduli (GPa) = 68.51980 128.43620 84.72192
#
# Poissons Ratio (x) = 0.28884 0.16720
# Poissons Ratio (y) = 0.15409 0.10539
# Poissons Ratio (z) = 0.13522 0.15977
#
# Static dielectric constant tensor:
#      x y z
#    x 4.335510 0.000000 0.000000 
#    y 0.000000 4.274850 0.000000 
#    z 0.000000 0.000000 4.508480 
# 
# 
# High freq. dielectric constant tensor:
#      x y z
#    x 1.936230 0.000000 0.000000 
#    y 0.000000 1.942480 0.000000 
#    z 0.000000 0.000000 1.929270 
# 
# From -- ./inp_files/1513.got.cif
#   From: 2010.03.12/outbox.cif.g09.slc.cpg/sg60_1_cif.got.tgz:1513.got - 2010.04.10 18:46:24.
