data_PCOD8247080
_publ_section_title
;
Structure prediction by ZEFSAII (Michael W. Deem and Ramdas Pophale) SiO2 
 PCOD8247080
Probable space group: P B C N
;
_chemical_formula_sum "Si O2"
_cell_formula_units_Z 60
_cell_length_a 20.138789
_cell_length_b 10.999014
_cell_length_c 12.136475
_cell_angle_alpha 90.000000
_cell_angle_beta 90.000000
_cell_angle_gamma 90.000000
_cell_volume 2688.312009
_symmetry_space_group_name_H-M "P B C N"
_symmetry_group_IT_number 60
_symmetry_cell_setting 'orthorhombic'
loop_
_space_group_symop_operation_xyz
x,y,z
1/2-x,1/2-y,1/2+z
1/2+x,1/2-y,-z
-x,y,1/2-z
-x,-y,-z
1/2+x,1/2+y,1/2-z
1/2-x,1/2+y,z
x,-y,1/2+z
loop_
_atom_site_type_symbol
_atom_site_label
_atom_site_fract_x
_atom_site_fract_y
_atom_site_fract_z
Si Si1 0.000000 0.172108 0.750000
Si Si2 0.462708 0.229528 0.917685
Si Si3 0.825331 0.159289 0.450683
Si Si4 0.396851 0.592548 0.581813
Si Si5 0.179892 0.317528 0.625771
Si Si6 0.578429 0.990066 0.972427
Si Si7 0.879724 0.689271 0.143056
Si Si8 0.910332 0.312535 0.308067
O O1 0.951954 0.086426 0.821822
O O2 0.951924 0.256999 0.676055
O O3 0.531165 0.270954 0.861618
O O4 0.410193 0.189073 0.823564
O O5 0.434857 0.346255 0.979381
O O6 0.482892 0.101019 0.986715
O O7 0.749474 0.133748 0.420249
O O8 0.836738 0.213572 0.572319
O O9 0.843190 0.256450 0.355240
O O10 0.870112 0.039324 0.446191
O O11 0.332501 0.672238 0.616807
O O12 0.128059 0.375782 0.541353
O O13 0.165242 0.352557 0.753194
O O14 0.576388 0.050150 0.850949
O O15 0.607844 0.073542 0.067483
#
# Coordination Sequence:
#
# PCOD8247080 Si02
#       8
#     4   8   8   8   8   8   8   8
#     4  10  22  44  66 102 132 170 224 268 342 394
#     4  10  21  38  61  94 126 166 210 267 329 385
#     4  11  25  42  63  93 130 178 216 268 325 398
#     4  10  23  42  67  93 130 172 218 274 326 392
#     4  10  24  43  63  92 129 170 221 265 324 397
#     4  10  20  39  64  94 125 169 210 271 324 382
#     4  10  23  43  69  95 131 173 216 280 330 387
#     4  10  22  36  60  94 128 162 214 266 322 387
#
# _framework density 22.318838
#
# number of rings (size 3 to 8) (size 9 to 14) (size 15 to 20)
#    0.000    1.867    0.000    2.800    3.733   10.667 
#    4.800    0.000    0.000    0.000    0.000    0.000 
#    0.000    0.000    0.000    0.000    0.000    0.000 
#
# Total GULP energy -743559.616008 kJ/mol
# GULP energy per Si atom -12392.660267 kJ/mol
# Density = 2.226804 g / cm^3
# Si number density = 22.318838 Si / 1000 Ang^3
#
#
#
# Elastic Constant Matrix: (Units=GPa)
#
#
# Indices 1 2 3 4 5 6 
#
# 1 46.4592 21.2816 12.1926 0.0000 0.0000 0.0000
# 2 21.2816 91.7268 36.1707 0.0000 0.0000 0.0000
# 3 12.1926 36.1707 111.8779 0.0000 0.0000 0.0000
# 4 0.0000 0.0000 0.0000 20.7144 0.0000 0.0000
# 5 0.0000 0.0000 0.0000 0.0000 35.4503 0.0000
# 6 0.0000 0.0000 0.0000 0.0000 0.0000 21.0247
#
#
#
# Elastic Compliance Matrix: (Units=1/GPa)
#
#
# Indices 1 2 3 4 5 6 
#
# 1 0.024170 -0.005237 -0.000941 0.000000 0.000000 0.000000
# 2 -0.005237 0.013629 -0.003836 0.000000 0.000000 0.000000
# 3 -0.000941 -0.003836 0.010281 0.000000 0.000000 0.000000
# 4 0.000000 0.000000 0.000000 0.048276 0.000000 0.000000
# 5 0.000000 0.000000 0.000000 0.000000 0.028209 0.000000
# 6 0.000000 0.000000 0.000000 0.000000 0.000000 0.047563
#
#
# Mechanical properties :
#
#
# Convention : Reuss Voigt Hill
#
# Bulk Modulus (GPa) = 35.64611 43.26153 39.45382
# Shear Modulus (GPa) = 24.81320 27.46582 26.13951
#
# Velocity S-wave (km/s) = 3.33792 3.51181 3.42597
# Velocity P-wave (km/s) = 5.55533 5.98910 5.77628
#
# Compressibility (1/GPa) = 0.02805355
#
# Stress axis : x y z
#
# Youngs Moduli (GPa) = 41.37363 73.37057 97.26681
#
# Poissons Ratio (x) = 0.38421 0.09153
# Poissons Ratio (y) = 0.21666 0.37309
# Poissons Ratio (z) = 0.03894 0.28143
#
# Static dielectric constant tensor:
#      x y z
#    x 4.017190 0.000000 0.000000 
#    y 0.000000 3.889180 0.000000 
#    z 0.000000 0.000000 4.198040 
# 
# 
# High freq. dielectric constant tensor:
#      x y z
#    x 1.871530 0.000000 0.000000 
#    y 0.000000 1.878700 0.000000 
#    z 0.000000 0.000000 1.890300 
# 
# From -- ./inp_files/12867.got.cif
#   From: 2010.03.12/outbox.cif.g09.slc.cpg/sg60_7_cif.got.tgz:12867.got - 2010.04.10 18:46:24.
