data_PCOD8247861
_publ_section_title
;
Structure prediction by ZEFSAII (Michael W. Deem and Ramdas Pophale) SiO2 
 PCOD8247861
Probable space group: P B C N
;
_chemical_formula_sum "Si O2"
_cell_formula_units_Z 32
_cell_length_a 7.228579
_cell_length_b 23.029085
_cell_length_c 8.675957
_cell_angle_alpha 90.000000
_cell_angle_beta 90.000000
_cell_angle_gamma 90.000000
_cell_volume 1444.265394
_symmetry_space_group_name_H-M "P B C N"
_symmetry_group_IT_number 60
_symmetry_cell_setting 'orthorhombic'
loop_
_space_group_symop_operation_xyz
x,y,z
1/2-x,1/2-y,1/2+z
1/2+x,1/2-y,-z
-x,y,1/2-z
-x,-y,-z
1/2+x,1/2+y,1/2-z
1/2-x,1/2+y,z
x,-y,1/2+z
loop_
_atom_site_type_symbol
_atom_site_label
_atom_site_fract_x
_atom_site_fract_y
_atom_site_fract_z
Si Si1 0.566237 0.162888 0.079528
Si Si2 0.500000 0.337178 0.250000
Si Si3 0.330714 0.763979 0.358122
Si Si4 0.500000 0.513535 0.250000
Si Si5 0.163098 0.923548 0.035114
O O1 0.500000 0.145486 0.250000
O O2 0.744545 0.204925 0.077901
O O3 0.395195 0.194460 0.997072
O O4 0.632422 0.105254 0.985066
O O5 0.679943 0.297466 0.242218
O O6 0.515504 0.376140 0.403708
O O7 0.500000 0.746796 0.250000
O O8 0.395058 0.554566 0.368196
O O9 0.657286 0.475626 0.339266
#
# Coordination Sequence:
#
# PCOD8247861 Si02
#       5
#     8   4   8   4   8
#     4  12  25  40  68 103 139 186 225 273 344 422
#     4  11  22  44  72  98 138 182 220 279 350 412
#     4  12  24  45  64 105 148 179 225 274 339 430
#     4   9  22  44  72  92 134 172 244 301 346 390
#     4  10  22  43  70  97 127 185 226 286 349 397
#
# _framework density 22.156593999999998
#
# number of rings (size 3 to 8) (size 9 to 14) (size 15 to 20)
#    0.000    1.000    3.750    3.000    5.250    0.000 
#    0.000    1.250    0.000    0.000    0.000    0.000 
#    0.000    0.000    0.000    0.000    0.000    0.000 
#
# Total GULP energy -396768.747243 kJ/mol
# GULP energy per Si atom -12399.023351 kJ/mol
# Density = 2.210616 g / cm^3
# Si number density = 22.156594 Si / 1000 Ang^3
#
#
#
# Elastic Constant Matrix: (Units=GPa)
#
#
# Indices 1 2 3 4 5 6 
#
# 1 113.2622 45.6742 40.1258 0.0000 0.0000 0.0000
# 2 45.6742 95.1422 44.0467 0.0000 0.0000 0.0000
# 3 40.1258 44.0467 128.3454 0.0000 0.0000 0.0000
# 4 0.0000 0.0000 0.0000 49.6522 0.0000 0.0000
# 5 0.0000 0.0000 0.0000 0.0000 42.0884 0.0000
# 6 0.0000 0.0000 0.0000 0.0000 0.0000 15.9335
#
#
#
# Elastic Compliance Matrix: (Units=1/GPa)
#
#
# Indices 1 2 3 4 5 6 
#
# 1 0.011364 -0.004530 -0.001998 0.000000 0.000000 0.000000
# 2 -0.004530 0.014302 -0.003492 0.000000 0.000000 0.000000
# 3 -0.001998 -0.003492 0.009615 0.000000 0.000000 0.000000
# 4 0.000000 0.000000 0.000000 0.020140 0.000000 0.000000
# 5 0.000000 0.000000 0.000000 0.000000 0.023760 0.000000
# 6 0.000000 0.000000 0.000000 0.000000 0.000000 0.062761
#
#
# Mechanical properties :
#
#
# Convention : Reuss Voigt Hill
#
# Bulk Modulus (GPa) = 65.61767 66.27147 65.94457
# Shear Modulus (GPa) = 29.92911 35.32837 32.62874
#
# Velocity S-wave (km/s) = 3.67931 3.99743 3.84167
# Velocity P-wave (km/s) = 6.90865 7.16110 7.03601
#
# Compressibility (1/GPa) = 0.01523980
#
# Stress axis : x y z
#
# Youngs Moduli (GPa) = 87.99861 69.92006 104.00928
#
# Poissons Ratio (x) = 0.31676 0.20781
# Poissons Ratio (y) = 0.39866 0.36319
# Poissons Ratio (z) = 0.17582 0.24416
#
# Static dielectric constant tensor:
#      x y z
#    x 3.968950 0.000000 0.000000 
#    y 0.000000 4.181070 0.000000 
#    z 0.000000 0.000000 4.343810 
# 
# 
# High freq. dielectric constant tensor:
#      x y z
#    x 1.849210 0.000000 0.000000 
#    y 0.000000 1.872670 0.000000 
#    z 0.000000 0.000000 1.893700 
# 
# From -- ./inp_files/3647.got.cif
#   From: 2010.03.12/outbox.cif.g09.slc.cpg/sg60_2_cif.got.tgz:3647.got - 2010.04.10 18:46:24.
