data_PCOD8247937
_publ_section_title
;
Structure prediction by ZEFSAII (Michael W. Deem and Ramdas Pophale) SiO2 
 PCOD8247937
Probable space group: P B C N
;
_chemical_formula_sum "Si O2"
_cell_formula_units_Z 28
_cell_length_a 7.234542
_cell_length_b 16.849926
_cell_length_c 10.035423
_cell_angle_alpha 90.000000
_cell_angle_beta 90.000000
_cell_angle_gamma 90.000000
_cell_volume 1223.333090
_symmetry_space_group_name_H-M "P B C N"
_symmetry_group_IT_number 60
_symmetry_cell_setting 'orthorhombic'
loop_
_space_group_symop_operation_xyz
x,y,z
1/2-x,1/2-y,1/2+z
1/2+x,1/2-y,-z
-x,y,1/2-z
-x,-y,-z
1/2+x,1/2+y,1/2-z
1/2-x,1/2+y,z
x,-y,1/2+z
loop_
_atom_site_type_symbol
_atom_site_label
_atom_site_fract_x
_atom_site_fract_y
_atom_site_fract_z
Si Si1 0.788606 0.083984 0.410765
Si Si2 0.487292 0.150902 0.605072
Si Si3 0.110851 0.089140 0.618667
Si Si4 0.000000 0.198931 0.250000
O O1 0.604336 0.106334 0.491835
O O2 0.970476 0.088453 0.498876
O O3 0.822204 0.144466 0.287651
O O4 0.781717 0.994455 0.355999
O O5 0.500000 0.106563 0.750000
O O6 0.268555 0.150959 0.572545
O O7 0.552932 0.242872 0.624804
O O8 0.000000 0.116425 0.750000
#
# Coordination Sequence:
#
# PCOD8247937 Si02
#       4
#     8   8   8   4
#     4  11  23  42  64  95 133 171 227 275 337 407
#     4  10  23  40  64  96 131 169 222 272 338 395
#     4  11  21  42  68  92 129 176 221 278 337 401
#     4  10  24  40  66  98 132 176 222 278 346 394
#
# _framework density 22.888286999999998
#
# number of rings (size 3 to 8) (size 9 to 14) (size 15 to 20)
#    0.857    0.571    4.286    0.857    4.000    0.000 
#    0.000    1.429    0.000    0.000    0.000    0.000 
#    0.000    0.000    0.000    0.000    0.000    0.000 
#
# Total GULP energy -346900.404157 kJ/mol
# GULP energy per Si atom -12389.300148 kJ/mol
# Density = 2.283619 g / cm^3
# Si number density = 22.888287 Si / 1000 Ang^3
#
#
#
# Elastic Constant Matrix: (Units=GPa)
#
#
# Indices 1 2 3 4 5 6 
#
# 1 138.9879 35.6405 41.6245 0.0000 0.0000 0.0000
# 2 35.6405 91.2544 20.2111 0.0000 0.0000 0.0000
# 3 41.6245 20.2111 55.2178 0.0000 0.0000 0.0000
# 4 0.0000 0.0000 0.0000 10.5204 0.0000 0.0000
# 5 0.0000 0.0000 0.0000 0.0000 50.6223 0.0000
# 6 0.0000 0.0000 0.0000 0.0000 0.0000 2.3909
#
#
#
# Elastic Compliance Matrix: (Units=1/GPa)
#
#
# Indices 1 2 3 4 5 6 
#
# 1 0.009742 -0.002371 -0.006476 0.000000 0.000000 0.000000
# 2 -0.002371 0.012502 -0.002789 0.000000 0.000000 0.000000
# 3 -0.006476 -0.002789 0.024013 0.000000 0.000000 0.000000
# 4 0.000000 0.000000 0.000000 0.095054 0.000000 0.000000
# 5 0.000000 0.000000 0.000000 0.000000 0.019754 0.000000
# 6 0.000000 0.000000 0.000000 0.000000 0.000000 0.418245
#
#
# Mechanical properties :
#
#
# Convention : Reuss Voigt Hill
#
# Bulk Modulus (GPa) = 43.50587 53.37915 48.44251
# Shear Modulus (GPa) = 8.19345 25.23898 16.71622
#
# Velocity S-wave (km/s) = 1.89408 3.32430 2.70541
# Velocity P-wave (km/s) = 4.88186 6.17307 5.56504
#
# Compressibility (1/GPa) = 0.02298540
#
# Stress axis : x y z
#
# Youngs Moduli (GPa) = 102.64519 79.98745 41.64424
#
# Poissons Ratio (x) = 0.18962 0.26970
# Poissons Ratio (y) = 0.24333 0.11615
# Poissons Ratio (z) = 0.66476 0.22309
#
# Static dielectric constant tensor:
#      x y z
#    x 3.957890 0.000000 0.000000 
#    y 0.000000 4.277950 0.000000 
#    z 0.000000 0.000000 4.072930 
# 
# 
# High freq. dielectric constant tensor:
#      x y z
#    x 1.893860 0.000000 0.000000 
#    y 0.000000 1.900990 0.000000 
#    z 0.000000 0.000000 1.890020 
# 
# From -- ./inp_files/13553.got.cif
#   From: 2010.03.12/outbox.cif.g09.slc.cpg/sg60_7_cif.got.tgz:13553.got - 2010.04.10 18:46:24.
