data_PCOD8247378
_publ_section_title
;
Structure prediction by ZEFSAII (Michael W. Deem and Ramdas Pophale) SiO2 
 PCOD8247378
Probable space group: P B C N
;
_chemical_formula_sum "Si O2"
_cell_formula_units_Z 48
_cell_length_a 15.225208
_cell_length_b 9.066666
_cell_length_c 16.264958
_cell_angle_alpha 90.000000
_cell_angle_beta 90.000000
_cell_angle_gamma 90.000000
_cell_volume 2245.245311
_symmetry_space_group_name_H-M "P B C N"
_symmetry_group_IT_number 60
_symmetry_cell_setting 'orthorhombic'
loop_
_space_group_symop_operation_xyz
x,y,z
1/2-x,1/2-y,1/2+z
1/2+x,1/2-y,-z
-x,y,1/2-z
-x,-y,-z
1/2+x,1/2+y,1/2-z
1/2-x,1/2+y,z
x,-y,1/2+z
loop_
_atom_site_type_symbol
_atom_site_label
_atom_site_fract_x
_atom_site_fract_y
_atom_site_fract_z
Si Si1 0.670594 0.060718 0.638489
Si Si2 0.482236 0.857309 0.154651
Si Si3 0.996086 0.960742 0.593974
Si Si4 0.155991 0.142660 0.613512
Si Si5 0.812924 0.870896 0.574918
Si Si6 0.186357 0.462144 0.677448
O O1 0.566529 0.053544 0.619342
O O2 0.702893 0.228756 0.631682
O O3 0.723586 0.964657 0.571742
O O4 0.695187 0.997121 0.726925
O O5 0.500000 0.822077 0.250000
O O6 0.466835 0.703915 0.108088
O O7 0.398002 0.957629 0.138737
O O8 0.892569 0.964978 0.618395
O O9 0.000000 0.000000 0.500000
O O10 0.059646 0.078406 0.639900
O O11 0.159667 0.179241 0.516506
O O12 0.176031 0.287361 0.666115
O O13 0.226670 0.015805 0.631700
#
# Coordination Sequence:
#
# PCOD8247378 Si02
#       6
#     8   8   8   8   8   8
#     4  10  21  39  60  84 115 152 191 236 286 340
#     4   9  20  39  60  82 116 153 190 238 289 337
#     4   9  20  38  58  83 116 152 190 230 285 344
#     4  11  22  37  59  89 117 151 192 236 286 342
#     4  10  21  39  59  85 118 153 189 234 287 340
#     4  11  22  38  60  87 116 151 195 240 286 341
#
# _framework density 21.378511
#
# number of rings (size 3 to 8) (size 9 to 14) (size 15 to 20)
#    0.000    2.000    0.000    3.000    0.000    5.333 
#    0.000   17.500    0.000    0.000    0.000    0.000 
#    0.000    0.000    0.000    0.000    0.000    0.000 
#
# Total GULP energy -595090.084710 kJ/mol
# GULP energy per Si atom -12397.710098 kJ/mol
# Density = 2.132985 g / cm^3
# Si number density = 21.378511 Si / 1000 Ang^3
#
#
#
# Elastic Constant Matrix: (Units=GPa)
#
#
# Indices 1 2 3 4 5 6 
#
# 1 85.1367 50.0890 32.6097 0.0000 0.0000 0.0000
# 2 50.0890 116.2697 41.0863 0.0000 0.0000 0.0000
# 3 32.6097 41.0863 55.5178 0.0000 0.0000 0.0000
# 4 0.0000 0.0000 0.0000 32.1745 0.0000 0.0000
# 5 0.0000 0.0000 0.0000 0.0000 27.0521 0.0000
# 6 0.0000 0.0000 0.0000 0.0000 0.0000 46.6696
#
#
#
# Elastic Compliance Matrix: (Units=1/GPa)
#
#
# Indices 1 2 3 4 5 6 
#
# 1 0.017201 -0.005200 -0.006255 0.000000 0.000000 0.000000
# 2 -0.005200 0.013218 -0.006728 0.000000 0.000000 0.000000
# 3 -0.006255 -0.006728 0.026666 0.000000 0.000000 0.000000
# 4 0.000000 0.000000 0.000000 0.031081 0.000000 0.000000
# 5 0.000000 0.000000 0.000000 0.000000 0.036966 0.000000
# 6 0.000000 0.000000 0.000000 0.000000 0.000000 0.021427
#
#
# Mechanical properties :
#
#
# Convention : Reuss Voigt Hill
#
# Bulk Modulus (GPa) = 48.26581 56.05493 52.16037
# Shear Modulus (GPa) = 26.33927 30.05517 28.19722
#
# Velocity S-wave (km/s) = 3.51386 3.75355 3.63568
# Velocity P-wave (km/s) = 6.25210 6.71287 6.48658
#
# Compressibility (1/GPa) = 0.02071860
#
# Stress axis : x y z
#
# Youngs Moduli (GPa) = 58.13632 75.65305 37.50154
#
# Poissons Ratio (x) = 0.39338 0.23458
# Poissons Ratio (y) = 0.30229 0.25231
# Poissons Ratio (z) = 0.36366 0.50900
#
# Static dielectric constant tensor:
#      x y z
#    x 4.365540 0.000000 0.000000 
#    y 0.000000 3.790910 0.000000 
#    z 0.000000 0.000000 3.629160 
# 
# 
# High freq. dielectric constant tensor:
#      x y z
#    x 1.855900 0.000000 0.000000 
#    y 0.000000 1.834410 0.000000 
#    z 0.000000 0.000000 1.823520 
# 
# From -- ./inp_files/20536.got.cif
#   From: 2010.03.12/outbox.cif.g09.slc.cpg/sg60_11_cif.got.tgz:20536.got - 2010.04.10 18:46:24.
