data_PCOD8247559
_publ_section_title
;
Structure prediction by ZEFSAII (Michael W. Deem and Ramdas Pophale) SiO2 
 PCOD8247559
Probable space group: P B C N
;
_chemical_formula_sum "Si O2"
_cell_formula_units_Z 52
_cell_length_a 23.968821
_cell_length_b 5.285997
_cell_length_c 18.194433
_cell_angle_alpha 90.000000
_cell_angle_beta 90.000000
_cell_angle_gamma 90.000000
_cell_volume 2305.218575
_symmetry_space_group_name_H-M "P B C N"
_symmetry_group_IT_number 60
_symmetry_cell_setting 'orthorhombic'
loop_
_space_group_symop_operation_xyz
x,y,z
1/2-x,1/2-y,1/2+z
1/2+x,1/2-y,-z
-x,y,1/2-z
-x,-y,-z
1/2+x,1/2+y,1/2-z
1/2-x,1/2+y,z
x,-y,1/2+z
loop_
_atom_site_type_symbol
_atom_site_label
_atom_site_fract_x
_atom_site_fract_y
_atom_site_fract_z
Si Si1 0.030136 0.355126 0.134622
Si Si2 0.774928 0.225372 0.467220
Si Si3 0.578694 0.618735 0.095695
Si Si4 0.225062 0.106525 0.200202
Si Si5 0.897709 0.616149 0.005720
Si Si6 0.500000 0.214012 0.250000
Si Si7 0.397435 0.576483 0.244037
O O1 0.990809 0.563695 0.173300
O O2 0.987403 0.128356 0.115373
O O3 0.076261 0.303679 0.197076
O O4 0.059068 0.438077 0.059718
O O5 0.737065 0.449824 0.504700
O O6 0.757257 0.162612 0.383710
O O7 0.838090 0.317959 0.471895
O O8 0.585130 0.352734 0.055203
O O9 0.614132 0.636005 0.170789
O O10 0.601775 0.853182 0.048854
O O11 0.237699 0.381093 0.237449
O O12 0.161474 0.012731 0.206866
O O13 0.442279 0.356311 0.237283
#
# Coordination Sequence:
#
# PCOD8247559 Si02
#       7
#     8   8   8   8   8   4   8
#     4  12  25  44  70 103 139 190 237 283 350 437
#     4  10  21  42  69  98 130 177 242 290 341 413
#     4  12  26  45  65 106 147 181 227 288 360 434
#     4  10  24  43  71 104 133 177 242 302 342 408
#     4  12  27  44  69 102 142 190 227 292 353 424
#     4  12  24  42  76 104 142 182 248 288 362 418
#     4  12  25  45  73 103 143 187 240 293 365 424
#
# _framework density 22.557514000000001
#
# number of rings (size 3 to 8) (size 9 to 14) (size 15 to 20)
#    0.000    0.615    4.615    2.769    4.308    1.231 
#    0.000    4.615    0.000    0.000    0.000    0.000 
#    0.000    0.000    0.000    0.000    0.000    0.000 
#
# Total GULP energy -644329.310851 kJ/mol
# GULP energy per Si atom -12390.948286 kJ/mol
# Density = 2.250617 g / cm^3
# Si number density = 22.557514 Si / 1000 Ang^3
#
#
#
# Elastic Constant Matrix: (Units=GPa)
#
#
# Indices 1 2 3 4 5 6 
#
# 1 97.6166 23.3632 -8.8593 0.0000 0.0000 0.0000
# 2 23.3632 119.4478 23.9133 0.0000 0.0000 0.0000
# 3 -8.8593 23.9133 76.1694 0.0000 0.0000 0.0000
# 4 0.0000 0.0000 0.0000 12.1846 0.0000 0.0000
# 5 0.0000 0.0000 0.0000 0.0000 21.7088 0.0000
# 6 0.0000 0.0000 0.0000 0.0000 0.0000 29.6149
#
#
#
# Elastic Compliance Matrix: (Units=1/GPa)
#
#
# Indices 1 2 3 4 5 6 
#
# 1 0.011052 -0.002581 0.002096 0.000000 0.000000 0.000000
# 2 -0.002581 0.009536 -0.003294 0.000000 0.000000 0.000000
# 3 0.002096 -0.003294 0.014407 0.000000 0.000000 0.000000
# 4 0.000000 0.000000 0.000000 0.082071 0.000000 0.000000
# 5 0.000000 0.000000 0.000000 0.000000 0.046064 0.000000
# 6 0.000000 0.000000 0.000000 0.000000 0.000000 0.033767
#
#
# Mechanical properties :
#
#
# Convention : Reuss Voigt Hill
#
# Bulk Modulus (GPa) = 36.44861 41.11867 38.78364
# Shear Modulus (GPa) = 23.40811 29.68944 26.54878
#
# Velocity S-wave (km/s) = 3.22484 3.63184 3.43437
# Velocity P-wave (km/s) = 5.48264 5.98790 5.74083
#
# Compressibility (1/GPa) = 0.02743589
#
# Stress axis : x y z
#
# Youngs Moduli (GPa) = 90.47986 104.86329 69.41271
#
# Poissons Ratio (x) = 0.27069 -0.14548
# Poissons Ratio (y) = 0.23356 0.22865
# Poissons Ratio (z) = -0.18964 0.34543
#
# Static dielectric constant tensor:
#      x y z
#    x 3.945490 0.000000 0.000000 
#    y 0.000000 4.513170 0.000000 
#    z 0.000000 0.000000 4.199450 
# 
# 
# High freq. dielectric constant tensor:
#      x y z
#    x 1.886300 0.000000 0.000000 
#    y 0.000000 1.905850 0.000000 
#    z 0.000000 0.000000 1.877150 
# 
# From -- ./inp_files/21189.got.cif
#   From: 2010.03.12/outbox.cif.g09.slc.cpg/sg60_11_cif.got.tgz:21189.got - 2010.04.10 18:46:24.
