data_PCOD8247816
_publ_section_title
;
Structure prediction by ZEFSAII (Michael W. Deem and Ramdas Pophale) SiO2 
 PCOD8247816
Probable space group: P B C N
;
_chemical_formula_sum "Si O2"
_cell_formula_units_Z 48
_cell_length_a 4.897436
_cell_length_b 16.534479
_cell_length_c 25.593842
_cell_angle_alpha 90.000000
_cell_angle_beta 90.000000
_cell_angle_gamma 90.000000
_cell_volume 2072.501095
_symmetry_space_group_name_H-M "P B C N"
_symmetry_group_IT_number 60
_symmetry_cell_setting 'orthorhombic'
loop_
_space_group_symop_operation_xyz
x,y,z
1/2-x,1/2-y,1/2+z
1/2+x,1/2-y,-z
-x,y,1/2-z
-x,-y,-z
1/2+x,1/2+y,1/2-z
1/2-x,1/2+y,z
x,-y,1/2+z
loop_
_atom_site_type_symbol
_atom_site_label
_atom_site_fract_x
_atom_site_fract_y
_atom_site_fract_z
Si Si1 0.389507 0.295929 0.980752
Si Si2 0.689069 0.947715 0.463198
Si Si3 0.314880 0.449898 0.626372
Si Si4 0.051273 0.188698 0.810794
Si Si5 0.197441 0.342094 0.869411
Si Si6 0.944191 0.393660 0.356295
O O1 0.316397 0.295837 0.919690
O O2 0.698523 0.266538 0.987876
O O3 0.369895 0.386515 0.003266
O O4 0.512958 0.897519 0.419432
O O5 0.500000 0.000000 0.500000
O O6 0.883071 0.009830 0.430557
O O7 0.592534 0.412208 0.649369
O O8 0.187221 0.520329 0.663543
O O9 0.094630 0.379541 0.617501
O O10 0.169111 0.277404 0.823002
O O11 0.266246 0.120310 0.828881
O O12 0.000000 0.179694 0.750000
O O13 0.767551 0.177388 0.841603
#
# Coordination Sequence:
#
# PCOD8247816 Si02
#       6
#     8   8   8   8   8   8
#     4  12  24  37  60  95 137 181 228 275 332 418
#     4  10  22  42  67 101 141 188 221 271 357 419
#     4  10  24  41  68  94 140 179 220 282 341 416
#     4  12  25  46  72  97 135 183 238 299 357 404
#     4  12  23  43  63  99 135 181 232 284 349 410
#     4  10  23  44  68 103 133 183 231 292 344 425
#
# _framework density 23.160423000000002
#
# number of rings (size 3 to 8) (size 9 to 14) (size 15 to 20)
#    1.000    0.000    1.667    5.500    0.000    2.000 
#    0.000    3.333    0.000    0.000    0.000    0.000 
#    0.000    0.000    0.000    0.000    0.000    0.000 
#
# Total GULP energy -595149.021126 kJ/mol
# GULP energy per Si atom -12398.937940 kJ/mol
# Density = 2.310771 g / cm^3
# Si number density = 23.160423 Si / 1000 Ang^3
#
#
#
# Elastic Constant Matrix: (Units=GPa)
#
#
# Indices 1 2 3 4 5 6 
#
# 1 79.3446 10.1812 23.7161 0.0000 0.0000 0.0000
# 2 10.1812 84.0916 24.0719 0.0000 0.0000 0.0000
# 3 23.7161 24.0719 98.4818 0.0000 0.0000 0.0000
# 4 0.0000 0.0000 0.0000 34.3959 0.0000 0.0000
# 5 0.0000 0.0000 0.0000 0.0000 25.1292 0.0000
# 6 0.0000 0.0000 0.0000 0.0000 0.0000 11.4709
#
#
#
# Elastic Compliance Matrix: (Units=1/GPa)
#
#
# Indices 1 2 3 4 5 6 
#
# 1 0.013626 -0.000764 -0.003095 0.000000 0.000000 0.000000
# 2 -0.000764 0.012829 -0.002952 0.000000 0.000000 0.000000
# 3 -0.003095 -0.002952 0.011621 0.000000 0.000000 0.000000
# 4 0.000000 0.000000 0.000000 0.029073 0.000000 0.000000
# 5 0.000000 0.000000 0.000000 0.000000 0.039794 0.000000
# 6 0.000000 0.000000 0.000000 0.000000 0.000000 0.087177
#
#
# Mechanical properties :
#
#
# Convention : Reuss Voigt Hill
#
# Bulk Modulus (GPa) = 40.89058 41.98402 41.43730
# Shear Modulus (GPa) = 23.15955 27.79580 25.47767
#
# Velocity S-wave (km/s) = 3.16565 3.46807 3.32030
# Velocity P-wave (km/s) = 5.57274 5.84837 5.71222
#
# Compressibility (1/GPa) = 0.02445551
#
# Stress axis : x y z
#
# Youngs Moduli (GPa) = 73.38764 77.94672 86.05143
#
# Poissons Ratio (x) = 0.05954 0.26631
# Poissons Ratio (y) = 0.05606 0.25402
# Poissons Ratio (z) = 0.22711 0.23009
#
# Static dielectric constant tensor:
#      x y z
#    x 4.101810 0.000000 0.000000 
#    y 0.000000 4.350540 0.000000 
#    z 0.000000 0.000000 3.772800 
# 
# 
# High freq. dielectric constant tensor:
#      x y z
#    x 1.917240 0.000000 0.000000 
#    y 0.000000 1.932260 0.000000 
#    z 0.000000 0.000000 1.879460 
# 
# From -- ./inp_files/24851.got.cif
#   From: 2010.03.12/outbox.cif.g09.slc.cpg/sg60_13_cif.got.tgz:24851.got - 2010.04.10 18:46:24.
