data_PCOD8247804
_publ_section_title
;
Structure prediction by ZEFSAII (Michael W. Deem and Ramdas Pophale) SiO2 
 PCOD8247804
Probable space group: P B C N
;
_chemical_formula_sum "Si O2"
_cell_formula_units_Z 52
_cell_length_a 10.787335
_cell_length_b 9.003015
_cell_length_c 25.087088
_cell_angle_alpha 90.000000
_cell_angle_beta 90.000000
_cell_angle_gamma 90.000000
_cell_volume 2436.421330
_symmetry_space_group_name_H-M "P B C N"
_symmetry_group_IT_number 60
_symmetry_cell_setting 'orthorhombic'
loop_
_space_group_symop_operation_xyz
x,y,z
1/2-x,1/2-y,1/2+z
1/2+x,1/2-y,-z
-x,y,1/2-z
-x,-y,-z
1/2+x,1/2+y,1/2-z
1/2-x,1/2+y,z
x,-y,1/2+z
loop_
_atom_site_type_symbol
_atom_site_label
_atom_site_fract_x
_atom_site_fract_y
_atom_site_fract_z
Si Si1 0.269176 0.952603 0.383305
Si Si2 0.005358 0.578044 0.443195
Si Si3 0.500000 0.144049 0.750000
Si Si4 0.642214 0.066388 0.850064
Si Si5 0.009326 0.077906 0.944063
Si Si6 0.138958 0.176155 0.321393
Si Si7 0.376318 0.401619 0.641394
O O1 0.142809 0.936827 0.416148
O O2 0.332304 0.796336 0.368322
O O3 0.359142 0.050441 0.419256
O O4 0.239387 0.044804 0.328023
O O5 0.977401 0.750450 0.451191
O O6 0.000000 0.500000 0.500000
O O7 0.902566 0.519245 0.402414
O O8 0.538389 0.052083 0.802731
O O9 0.374035 0.241008 0.764229
O O10 0.668405 0.233830 0.868896
O O11 0.767374 0.990092 0.827903
O O12 0.901667 0.994219 0.911943
O O13 0.000000 0.000000 0.000000
O O14 0.002515 0.104738 0.325482
#
# Coordination Sequence:
#
# PCOD8247804 Si02
#       7
#     8   8   4   8   8   8   8
#     4  11  22  44  66  94 141 178 229 283 347 431
#     4  12  25  41  68 100 136 188 228 284 362 418
#     4  10  22  42  72 102 136 184 234 294 348 422
#     4  11  23  44  67  97 142 178 232 289 348 418
#     4  11  25  41  67  98 135 185 234 285 347 421
#     4  10  22  42  68  97 132 180 229 286 346 412
#     4  10  22  42  63  95 136 173 228 286 342 410
#
# _framework density 21.342777000000002
#
# number of rings (size 3 to 8) (size 9 to 14) (size 15 to 20)
#    0.000    1.231    4.615    1.846    4.308    2.462 
#    0.000    0.000    0.000    5.538    0.000    0.000 
#    0.000    0.000    0.000    0.000    0.000    0.000 
#
# Total GULP energy -644366.385601 kJ/mol
# GULP energy per Si atom -12391.661262 kJ/mol
# Density = 2.129420 g / cm^3
# Si number density = 21.342777 Si / 1000 Ang^3
#
#
#
# Elastic Constant Matrix: (Units=GPa)
#
#
# Indices 1 2 3 4 5 6 
#
# 1 104.8780 41.8911 25.1023 0.0000 0.0000 0.0000
# 2 41.8911 147.5973 30.8554 0.0000 0.0000 0.0000
# 3 25.1023 30.8554 85.1814 0.0000 0.0000 0.0000
# 4 0.0000 0.0000 0.0000 26.1910 0.0000 0.0000
# 5 0.0000 0.0000 0.0000 0.0000 30.3882 0.0000
# 6 0.0000 0.0000 0.0000 0.0000 0.0000 43.4629
#
#
#
# Elastic Compliance Matrix: (Units=1/GPa)
#
#
# Indices 1 2 3 4 5 6 
#
# 1 0.011161 -0.002683 -0.002317 0.000000 0.000000 0.000000
# 2 -0.002683 0.007975 -0.002098 0.000000 0.000000 0.000000
# 3 -0.002317 -0.002098 0.013183 0.000000 0.000000 0.000000
# 4 0.000000 0.000000 0.000000 0.038181 0.000000 0.000000
# 5 0.000000 0.000000 0.000000 0.000000 0.032908 0.000000
# 6 0.000000 0.000000 0.000000 0.000000 0.000000 0.023008
#
#
# Mechanical properties :
#
#
# Convention : Reuss Voigt Hill
#
# Bulk Modulus (GPa) = 55.18209 59.26159 57.22184
# Shear Modulus (GPa) = 34.09386 35.99562 35.04474
#
# Velocity S-wave (km/s) = 4.00114 4.11122 4.05655
# Velocity P-wave (km/s) = 6.87436 7.09669 6.98641
#
# Compressibility (1/GPa) = 0.01812182
#
# Stress axis : x y z
#
# Youngs Moduli (GPa) = 89.59517 125.38521 75.85807
#
# Poissons Ratio (x) = 0.33646 0.17577
# Poissons Ratio (y) = 0.24042 0.15916
# Poissons Ratio (z) = 0.20760 0.26308
#
# Static dielectric constant tensor:
#      x y z
#    x 4.162430 0.000000 0.000000 
#    y 0.000000 4.107820 0.000000 
#    z 0.000000 0.000000 3.893040 
# 
# 
# High freq. dielectric constant tensor:
#      x y z
#    x 1.843180 0.000000 0.000000 
#    y 0.000000 1.846500 0.000000 
#    z 0.000000 0.000000 1.827140 
# 
# From -- ./inp_files/25293.got.cif
#   From: 2010.03.12/outbox.cif.g09.slc.cpg/sg60_13_cif.got.tgz:25293.got - 2010.04.10 18:46:24.
