data_PCOD8247702
_publ_section_title
;
Structure prediction by ZEFSAII (Michael W. Deem and Ramdas Pophale) SiO2 
 PCOD8247702
Probable space group: P B C N
;
_chemical_formula_sum "Si O2"
_cell_formula_units_Z 32
_cell_length_a 16.066651
_cell_length_b 9.103480
_cell_length_c 10.107832
_cell_angle_alpha 90.000000
_cell_angle_beta 90.000000
_cell_angle_gamma 90.000000
_cell_volume 1478.396131
_symmetry_space_group_name_H-M "P B C N"
_symmetry_group_IT_number 60
_symmetry_cell_setting 'orthorhombic'
loop_
_space_group_symop_operation_xyz
x,y,z
1/2-x,1/2-y,1/2+z
1/2+x,1/2-y,-z
-x,y,1/2-z
-x,-y,-z
1/2+x,1/2+y,1/2-z
1/2-x,1/2+y,z
x,-y,1/2+z
loop_
_atom_site_type_symbol
_atom_site_label
_atom_site_fract_x
_atom_site_fract_y
_atom_site_fract_z
Si Si1 0.966135 0.397666 0.885610
Si Si2 0.584374 0.359450 0.098997
Si Si3 0.304514 0.780469 0.705128
Si Si4 0.351228 0.471818 0.672647
O O1 0.865720 0.387085 0.880537
O O2 0.000000 0.468435 0.750000
O O3 0.996964 0.227616 0.897922
O O4 0.000000 0.500000 0.000000
O O5 0.656596 0.243719 0.146396
O O6 0.586287 0.495332 0.203891
O O7 0.596023 0.416685 0.951344
O O8 0.299953 0.619933 0.635241
O O9 0.213334 0.846591 0.716916
#
# Coordination Sequence:
#
# PCOD8247702 Si02
#       4
#     8   8   8   8
#     4  10  22  45  63  93 128 168 217 265 321 393
#     4   9  23  41  64  96 128 168 215 263 321 389
#     4   9  23  38  65  93 129 163 217 259 323 384
#     4  10  22  39  67  92 135 164 212 270 317 382
#
# _framework density 21.645078999999999
#
# number of rings (size 3 to 8) (size 9 to 14) (size 15 to 20)
#    1.500    1.000    0.000    0.000    7.000    3.000 
#    4.500    0.000    0.000    0.000    0.000    0.000 
#    0.000    0.000    0.000    0.000    0.000    0.000 
#
# Total GULP energy -396424.968420 kJ/mol
# GULP energy per Si atom -12388.280263 kJ/mol
# Density = 2.159581 g / cm^3
# Si number density = 21.645079 Si / 1000 Ang^3
#
#
#
# Elastic Constant Matrix: (Units=GPa)
#
#
# Indices 1 2 3 4 5 6 
#
# 1 48.7307 14.2015 25.7344 0.0000 0.0000 0.0000
# 2 14.2015 58.1469 25.0394 0.0000 0.0000 0.0000
# 3 25.7344 25.0394 124.3740 0.0000 0.0000 0.0000
# 4 0.0000 0.0000 0.0000 37.7641 0.0000 0.0000
# 5 0.0000 0.0000 0.0000 0.0000 19.6026 0.0000
# 6 0.0000 0.0000 0.0000 0.0000 0.0000 44.1979
#
#
#
# Elastic Compliance Matrix: (Units=1/GPa)
#
#
# Indices 1 2 3 4 5 6 
#
# 1 0.023881 -0.004056 -0.004125 0.000000 0.000000 0.000000
# 2 -0.004056 0.019519 -0.003090 0.000000 0.000000 0.000000
# 3 -0.004125 -0.003090 0.009516 0.000000 0.000000 0.000000
# 4 0.000000 0.000000 0.000000 0.026480 0.000000 0.000000
# 5 0.000000 0.000000 0.000000 0.000000 0.051014 0.000000
# 6 0.000000 0.000000 0.000000 0.000000 0.000000 0.022625
#
#
# Mechanical properties :
#
#
# Convention : Reuss Voigt Hill
#
# Bulk Modulus (GPa) = 32.92342 40.13358 36.52850
# Shear Modulus (GPa) = 26.92467 31.39801 29.16134
#
# Velocity S-wave (km/s) = 3.53075 3.81279 3.67447
# Velocity P-wave (km/s) = 5.64492 6.16158 5.90890
#
# Compressibility (1/GPa) = 0.03037352
#
# Stress axis : x y z
#
# Youngs Moduli (GPa) = 41.87372 51.23122 105.08764
#
# Poissons Ratio (x) = 0.20782 0.43345
# Poissons Ratio (y) = 0.16986 0.32476
# Poissons Ratio (z) = 0.17271 0.15832
#
# Static dielectric constant tensor:
#      x y z
#    x 3.615900 0.000000 0.000000 
#    y 0.000000 3.762390 0.000000 
#    z 0.000000 0.000000 3.828290 
# 
# 
# High freq. dielectric constant tensor:
#      x y z
#    x 1.839870 0.000000 0.000000 
#    y 0.000000 1.838690 0.000000 
#    z 0.000000 0.000000 1.837970 
# 
# From -- ./inp_files/7225.got.cif
#   From: 2010.03.12/outbox.cif.g09.slc.cpg/sg60_4_cif.got.tgz:7225.got - 2010.04.10 18:46:24.
