data_PCOD8247683
_publ_section_title
;
Structure prediction by ZEFSAII (Michael W. Deem and Ramdas Pophale) SiO2 
 PCOD8247683
Probable space group: P B C N
;
_chemical_formula_sum "Si O2"
_cell_formula_units_Z 48
_cell_length_a 16.344229
_cell_length_b 16.253272
_cell_length_c 9.423335
_cell_angle_alpha 90.000000
_cell_angle_beta 90.000000
_cell_angle_gamma 90.000000
_cell_volume 2503.282553
_symmetry_space_group_name_H-M "P B C N"
_symmetry_group_IT_number 60
_symmetry_cell_setting 'orthorhombic'
loop_
_space_group_symop_operation_xyz
x,y,z
1/2-x,1/2-y,1/2+z
1/2+x,1/2-y,-z
-x,y,1/2-z
-x,-y,-z
1/2+x,1/2+y,1/2-z
1/2-x,1/2+y,z
x,-y,1/2+z
loop_
_atom_site_type_symbol
_atom_site_label
_atom_site_fract_x
_atom_site_fract_y
_atom_site_fract_z
Si Si1 0.663979 0.834256 0.531357
Si Si2 0.998887 0.582511 0.414176
Si Si3 0.814957 0.132596 0.840043
Si Si4 0.681719 0.646419 0.508653
Si Si5 0.938390 0.984168 0.879372
Si Si6 0.839823 0.678696 0.358850
O O1 0.574557 0.870966 0.515052
O O2 0.730887 0.881032 0.430986
O O3 0.655785 0.740173 0.484926
O O4 0.684866 0.842393 0.697458
O O5 0.921621 0.642290 0.427227
O O6 0.000000 0.558344 0.250000
O O7 0.000000 0.500000 0.500000
O O8 0.805120 0.122539 0.671921
O O9 0.881921 0.064710 0.875610
O O10 0.847555 0.223178 0.880328
O O11 0.616921 0.593903 0.419043
O O12 0.770641 0.632744 0.445793
O O13 0.000000 0.967273 0.750000
O O14 0.000000 0.000000 0.000000
#
# Coordination Sequence:
#
# PCOD8247683 Si02
#       6
#     8   8   8   8   8   8
#     4   9  21  41  65  88 119 164 203 252 304 363
#     4  10  22  39  60  88 118 155 204 248 300 353
#     4  10  22  41  63  89 124 161 202 249 310 363
#     4  10  22  42  62  91 124 159 206 249 308 364
#     4  12  26  41  62  94 125 164 204 253 312 371
#     4   9  21  40  66  87 118 164 203 253 302 363
#
# _framework density 19.174824000000001
#
# number of rings (size 3 to 8) (size 9 to 14) (size 15 to 20)
#    0.000    2.000    1.667    0.000    7.000    2.000 
#    0.000    0.833    0.000    0.000    0.000    0.000 
#    0.000    0.000    0.000    0.000    0.000    0.000 
#
# Total GULP energy -594638.288541 kJ/mol
# GULP energy per Si atom -12388.297678 kJ/mol
# Density = 1.913118 g / cm^3
# Si number density = 19.174824 Si / 1000 Ang^3
#
#
#
# Elastic Constant Matrix: (Units=GPa)
#
#
# Indices 1 2 3 4 5 6 
#
# 1 182.4543 88.4192 96.5992 0.0000 0.0000 0.0000
# 2 88.4192 95.4859 60.2697 0.0000 0.0000 0.0000
# 3 96.5992 60.2697 106.8515 0.0000 0.0000 0.0000
# 4 0.0000 0.0000 0.0000 33.9037 0.0000 0.0000
# 5 0.0000 0.0000 0.0000 0.0000 41.2789 0.0000
# 6 0.0000 0.0000 0.0000 0.0000 0.0000 38.6094
#
#
#
# Elastic Compliance Matrix: (Units=1/GPa)
#
#
# Indices 1 2 3 4 5 6 
#
# 1 0.013089 -0.007223 -0.007759 0.000000 0.000000 0.000000
# 2 -0.007223 0.020248 -0.004891 0.000000 0.000000 0.000000
# 3 -0.007759 -0.004891 0.019132 0.000000 0.000000 0.000000
# 4 0.000000 0.000000 0.000000 0.029495 0.000000 0.000000
# 5 0.000000 0.000000 0.000000 0.000000 0.024225 0.000000
# 6 0.000000 0.000000 0.000000 0.000000 0.000000 0.025900
#
#
# Mechanical properties :
#
#
# Convention : Reuss Voigt Hill
#
# Bulk Modulus (GPa) = 78.59613 97.26309 87.92961
# Shear Modulus (GPa) = 28.39634 32.05864 30.22749
#
# Velocity S-wave (km/s) = 3.85244 4.09334 3.97472
# Velocity P-wave (km/s) = 7.80171 8.55424 8.18663
#
# Compressibility (1/GPa) = 0.01272327
#
# Stress axis : x y z
#
# Youngs Moduli (GPa) = 76.39898 49.38651 52.26746
#
# Poissons Ratio (x) = 0.35672 0.40555
# Poissons Ratio (y) = 0.55183 0.25565
# Poissons Ratio (z) = 0.59279 0.24156
#
# Static dielectric constant tensor:
#      x y z
#    x 3.732550 0.000000 0.000000 
#    y 0.000000 3.741630 0.000000 
#    z 0.000000 0.000000 3.699080 
# 
# 
# High freq. dielectric constant tensor:
#      x y z
#    x 1.758230 0.000000 0.000000 
#    y 0.000000 1.750810 0.000000 
#    z 0.000000 0.000000 1.754660 
# 
# From -- ./inp_files/5914.got.cif
#   From: 2010.03.12/outbox.cif.g09.slc.cpg/sg60_3_cif.got.tgz:5914.got - 2010.04.10 18:46:24.
