data_PCOD8247639
_publ_section_title
;
Structure prediction by ZEFSAII (Michael W. Deem and Ramdas Pophale) SiO2 
 PCOD8247639
Probable space group: P B C N
;
_chemical_formula_sum "Si O2"
_cell_formula_units_Z 32
_cell_length_a 15.914456
_cell_length_b 8.958960
_cell_length_c 10.338176
_cell_angle_alpha 90.000000
_cell_angle_beta 90.000000
_cell_angle_gamma 90.000000
_cell_volume 1473.985858
_symmetry_space_group_name_H-M "P B C N"
_symmetry_group_IT_number 60
_symmetry_cell_setting 'orthorhombic'
loop_
_space_group_symop_operation_xyz
x,y,z
1/2-x,1/2-y,1/2+z
1/2+x,1/2-y,-z
-x,y,1/2-z
-x,-y,-z
1/2+x,1/2+y,1/2-z
1/2-x,1/2+y,z
x,-y,1/2+z
loop_
_atom_site_type_symbol
_atom_site_label
_atom_site_fract_x
_atom_site_fract_y
_atom_site_fract_z
Si Si1 0.377851 0.374134 0.406561
Si Si2 0.449481 0.942714 0.878263
Si Si3 0.707425 0.111995 0.708736
Si Si4 0.343618 0.579493 0.188016
O O1 0.438958 0.234930 0.388052
O O2 0.279816 0.324062 0.387470
O O3 0.400480 0.501586 0.300103
O O4 0.388112 0.444100 0.549678
O O5 0.500000 0.984298 0.750000
O O6 0.360222 0.024892 0.876860
O O7 0.500000 0.000000 0.000000
O O8 0.663441 0.244392 0.787263
O O9 0.750959 0.997562 0.811006
#
# Coordination Sequence:
#
# PCOD8247639 Si02
#       4
#     8   8   8   8
#     4  10  23  43  67 103 128 189 234 292 335 435
#     4  12  27  45  69 105 149 183 228 298 377 416
#     4  10  22  41  69  99 132 181 238 281 343 426
#     4  10  22  37  74  93 132 166 255 274 340 393
#
# _framework density 21.709841999999998
#
# number of rings (size 3 to 8) (size 9 to 14) (size 15 to 20)
#    1.500    0.000    2.500    1.500   10.500    2.000 
#    0.000    6.250    0.000    0.000    0.000    0.000 
#    0.000    0.000    0.000    0.000    0.000    0.000 
#
# Total GULP energy -396728.839327 kJ/mol
# GULP energy per Si atom -12397.776229 kJ/mol
# Density = 2.166043 g / cm^3
# Si number density = 21.709842 Si / 1000 Ang^3
#
#
#
# Elastic Constant Matrix: (Units=GPa)
#
#
# Indices 1 2 3 4 5 6 
#
# 1 40.6359 14.9102 18.2461 0.0000 0.0000 0.0000
# 2 14.9102 107.9543 42.4676 0.0000 0.0000 0.0000
# 3 18.2461 42.4676 170.2402 0.0000 0.0000 0.0000
# 4 0.0000 0.0000 0.0000 37.8484 0.0000 0.0000
# 5 0.0000 0.0000 0.0000 0.0000 22.8319 0.0000
# 6 0.0000 0.0000 0.0000 0.0000 0.0000 41.6392
#
#
#
# Elastic Compliance Matrix: (Units=1/GPa)
#
#
# Indices 1 2 3 4 5 6 
#
# 1 0.026611 -0.002831 -0.002146 0.000000 0.000000 0.000000
# 2 -0.002831 0.010572 -0.002334 0.000000 0.000000 0.000000
# 3 -0.002146 -0.002334 0.006686 0.000000 0.000000 0.000000
# 4 0.000000 0.000000 0.000000 0.026421 0.000000 0.000000
# 5 0.000000 0.000000 0.000000 0.000000 0.043798 0.000000
# 6 0.000000 0.000000 0.000000 0.000000 0.000000 0.024016
#
#
# Mechanical properties :
#
#
# Convention : Reuss Voigt Hill
#
# Bulk Modulus (GPa) = 34.19072 52.23090 43.21081
# Shear Modulus (GPa) = 30.77372 36.67769 33.72571
#
# Velocity S-wave (km/s) = 3.76906 4.11475 3.94569
# Velocity P-wave (km/s) = 5.89272 6.83270 6.38004
#
# Compressibility (1/GPa) = 0.02924770
#
# Stress axis : x y z
#
# Youngs Moduli (GPa) = 37.57821 94.58646 149.56066
#
# Poissons Ratio (x) = 0.26780 0.32094
# Poissons Ratio (y) = 0.10639 0.34906
# Poissons Ratio (z) = 0.08064 0.22075
#
# Static dielectric constant tensor:
#      x y z
#    x 3.616840 0.000000 0.000000 
#    y 0.000000 3.735610 0.000000 
#    z 0.000000 0.000000 3.703030 
# 
# 
# High freq. dielectric constant tensor:
#      x y z
#    x 1.832300 0.000000 0.000000 
#    y 0.000000 1.854960 0.000000 
#    z 0.000000 0.000000 1.850850 
# 
# From -- ./inp_files/11504.got.cif
#   From: 2010.03.12/outbox.cif.g09.slc.cpg/sg60_6_cif.got.tgz:11504.got - 2010.04.10 18:46:24.
