data_PCOD8247211
_publ_section_title
;
Structure prediction by ZEFSAII (Michael W. Deem and Ramdas Pophale) SiO2 
 PCOD8247211
Probable space group: P B C N
;
_chemical_formula_sum "Si O2"
_cell_formula_units_Z 36
_cell_length_a 6.078253
_cell_length_b 10.307145
_cell_length_c 24.298137
_cell_angle_alpha 90.000000
_cell_angle_beta 90.000000
_cell_angle_gamma 90.000000
_cell_volume 1522.264555
_symmetry_space_group_name_H-M "P B C N"
_symmetry_group_IT_number 60
_symmetry_cell_setting 'orthorhombic'
loop_
_space_group_symop_operation_xyz
x,y,z
1/2-x,1/2-y,1/2+z
1/2+x,1/2-y,-z
-x,y,1/2-z
-x,-y,-z
1/2+x,1/2+y,1/2-z
1/2-x,1/2+y,z
x,-y,1/2+z
loop_
_atom_site_type_symbol
_atom_site_label
_atom_site_fract_x
_atom_site_fract_y
_atom_site_fract_z
Si Si1 0.217988 0.940876 0.348661
Si Si2 0.928150 0.485608 0.937914
Si Si3 0.000000 0.489538 0.250000
Si Si4 0.619246 0.353258 0.803700
Si Si5 0.654984 0.288508 0.392643
O O1 0.091170 0.811923 0.369080
O O2 0.370040 0.990900 0.397397
O O3 0.347105 0.906507 0.291886
O O4 0.034683 0.048720 0.336563
O O5 0.838147 0.340347 0.929619
O O6 0.732722 0.588239 0.927784
O O7 0.000000 0.500000 0.000000
O O8 0.848708 0.577555 0.289301
O O9 0.500000 0.297613 0.750000
O O10 0.675233 0.229533 0.841694
#
# Coordination Sequence:
#
# PCOD8247211 Si02
#       5
#     8   8   4   8   8
#     4  11  24  47  76 109 158 197 257 304 386 452
#     4  12  31  51  80 111 151 205 259 321 382 448
#     4  10  20  48  70 114 152 204 246 304 378 458
#     4  10  23  47  73 110 156 205 248 307 376 461
#     4  12  26  52  73 119 156 197 257 316 385 454
#
# _framework density 23.648979000000001
#
# number of rings (size 3 to 8) (size 9 to 14) (size 15 to 20)
#    0.000    0.889    4.444    0.000    6.222    0.889 
#   26.000    0.000    0.000    0.000    0.000    0.000 
#    0.000    0.000    0.000    0.000    0.000    0.000 
#
# Total GULP energy -446546.393062 kJ/mol
# GULP energy per Si atom -12404.066474 kJ/mol
# Density = 2.359515 g / cm^3
# Si number density = 23.648979 Si / 1000 Ang^3
#
#
#
# Elastic Constant Matrix: (Units=GPa)
#
#
# Indices 1 2 3 4 5 6 
#
# 1 117.7130 49.1873 58.0774 0.0000 0.0000 0.0000
# 2 49.1873 136.5718 58.7044 0.0000 0.0000 0.0000
# 3 58.0774 58.7044 162.3169 0.0000 0.0000 0.0000
# 4 0.0000 0.0000 0.0000 21.2923 0.0000 0.0000
# 5 0.0000 0.0000 0.0000 0.0000 39.8003 0.0000
# 6 0.0000 0.0000 0.0000 0.0000 0.0000 39.0388
#
#
#
# Elastic Compliance Matrix: (Units=1/GPa)
#
#
# Indices 1 2 3 4 5 6 
#
# 1 0.011105 -0.002714 -0.002992 0.000000 0.000000 0.000000
# 2 -0.002714 0.009333 -0.002405 0.000000 0.000000 0.000000
# 3 -0.002992 -0.002405 0.008101 0.000000 0.000000 0.000000
# 4 0.000000 0.000000 0.000000 0.046965 0.000000 0.000000
# 5 0.000000 0.000000 0.000000 0.000000 0.025125 0.000000
# 6 0.000000 0.000000 0.000000 0.000000 0.000000 0.025616
#
#
# Mechanical properties :
#
#
# Convention : Reuss Voigt Hill
#
# Bulk Modulus (GPa) = 81.17526 83.17111 82.17319
# Shear Modulus (GPa) = 34.11282 36.73512 35.42397
#
# Velocity S-wave (km/s) = 3.80210 3.94553 3.87448
# Velocity P-wave (km/s) = 7.32627 7.48342 7.40526
#
# Compressibility (1/GPa) = 0.01231902
#
# Stress axis : x y z
#
# Youngs Moduli (GPa) = 90.04644 107.14650 123.44133
#
# Poissons Ratio (x) = 0.29075 0.36935
# Poissons Ratio (y) = 0.24434 0.29682
# Poissons Ratio (z) = 0.26943 0.25764
#
# Static dielectric constant tensor:
#      x y z
#    x 4.796880 0.000000 0.000000 
#    y 0.000000 4.149040 0.000000 
#    z 0.000000 0.000000 4.479840 
# 
# 
# High freq. dielectric constant tensor:
#      x y z
#    x 1.954150 0.000000 0.000000 
#    y 0.000000 1.941840 0.000000 
#    z 0.000000 0.000000 1.936360 
# 
# From -- ./inp_files/23472.got.cif
#   From: 2010.03.12/outbox.cif.g09.slc.cpg/sg60_12_cif.got.tgz:23472.got - 2010.04.10 18:46:24.
