data_PCOD8247709
_publ_section_title
;
Structure prediction by ZEFSAII (Michael W. Deem and Ramdas Pophale) SiO2 
 PCOD8247709
Probable space group: P B C N
;
_chemical_formula_sum "Si O2"
_cell_formula_units_Z 56
_cell_length_a 14.053872
_cell_length_b 20.592274
_cell_length_c 9.211460
_cell_angle_alpha 90.000000
_cell_angle_beta 90.000000
_cell_angle_gamma 90.000000
_cell_volume 2665.807421
_symmetry_space_group_name_H-M "P B C N"
_symmetry_group_IT_number 60
_symmetry_cell_setting 'orthorhombic'
loop_
_space_group_symop_operation_xyz
x,y,z
1/2-x,1/2-y,1/2+z
1/2+x,1/2-y,-z
-x,y,1/2-z
-x,-y,-z
1/2+x,1/2+y,1/2-z
1/2-x,1/2+y,z
x,-y,1/2+z
loop_
_atom_site_type_symbol
_atom_site_label
_atom_site_fract_x
_atom_site_fract_y
_atom_site_fract_z
Si Si1 0.097776 0.174568 0.309415
Si Si2 0.560049 0.804083 0.029838
Si Si3 0.704657 0.996828 0.806340
Si Si4 0.650177 0.200652 0.050563
Si Si5 0.234490 0.724790 0.164888
Si Si6 0.080096 0.549704 0.944774
Si Si7 0.729836 0.415594 0.552881
O O1 0.083293 0.250832 0.347789
O O2 0.180885 0.171316 0.187050
O O3 0.136249 0.131381 0.444695
O O4 0.000000 0.144338 0.250000
O O5 0.543434 0.877168 0.086481
O O6 0.460402 0.782203 0.958647
O O7 0.646001 0.806535 0.917296
O O8 0.619797 0.027947 0.711338
O O9 0.776629 0.963104 0.692568
O O10 0.765862 0.050101 0.896372
O O11 0.660232 0.949295 0.928731
O O12 0.694040 0.246000 0.177748
O O13 0.671102 0.124529 0.080107
O O14 0.714846 0.214133 0.909045
O O15 0.000000 0.500000 0.000000
#
# Coordination Sequence:
#
# PCOD8247709 Si02
#       7
#     8   8   8   8   8   8   8
#     4  11  23  40  66  95 128 169 219 276 342 387
#     4  12  23  38  66  95 132 174 214 265 330 402
#     4  10  22  40  60  88 125 175 217 267 329 382
#     4  11  23  38  62  93 133 166 211 261 330 395
#     4  11  22  40  59  93 134 167 209 263 332 388
#     4  11  23  36  60  94 133 173 219 258 322 406
#     4  10  22  43  65  91 130 168 220 279 325 401
#
# _framework density 21.006768000000001
#
# number of rings (size 3 to 8) (size 9 to 14) (size 15 to 20)
#    0.000    1.143    4.286    4.286    2.000    2.286 
#    0.000    0.714    0.000    0.000    0.000    0.000 
#    0.000    0.000    0.000    0.000    0.000    0.000 
#
# Total GULP energy -693856.258696 kJ/mol
# GULP energy per Si atom -12390.290334 kJ/mol
# Density = 2.095896 g / cm^3
# Si number density = 21.006768 Si / 1000 Ang^3
#
#
#
# Elastic Constant Matrix: (Units=GPa)
#
#
# Indices 1 2 3 4 5 6 
#
# 1 149.7739 40.5699 42.5527 0.0000 0.0000 0.0000
# 2 40.5699 104.8636 37.8814 0.0000 0.0000 0.0000
# 3 42.5527 37.8814 115.5190 0.0000 0.0000 0.0000
# 4 0.0000 0.0000 0.0000 29.0918 0.0000 0.0000
# 5 0.0000 0.0000 0.0000 0.0000 34.7995 0.0000
# 6 0.0000 0.0000 0.0000 0.0000 0.0000 23.1201
#
#
#
# Elastic Compliance Matrix: (Units=1/GPa)
#
#
# Indices 1 2 3 4 5 6 
#
# 1 0.007909 -0.002277 -0.002167 0.000000 0.000000 0.000000
# 2 -0.002277 0.011473 -0.002924 0.000000 0.000000 0.000000
# 3 -0.002167 -0.002924 0.010413 0.000000 0.000000 0.000000
# 4 0.000000 0.000000 0.000000 0.034374 0.000000 0.000000
# 5 0.000000 0.000000 0.000000 0.000000 0.028736 0.000000
# 6 0.000000 0.000000 0.000000 0.000000 0.000000 0.043252
#
#
# Mechanical properties :
#
#
# Convention : Reuss Voigt Hill
#
# Bulk Modulus (GPa) = 66.39650 68.01826 67.20738
# Shear Modulus (GPa) = 32.06909 34.01246 33.04077
#
# Velocity S-wave (km/s) = 3.91142 4.02819 3.97024
# Velocity P-wave (km/s) = 7.21628 7.35423 7.28558
#
# Compressibility (1/GPa) = 0.01506103
#
# Stress axis : x y z
#
# Youngs Moduli (GPa) = 126.43592 87.15869 96.03018
#
# Poissons Ratio (x) = 0.19848 0.20807
# Poissons Ratio (y) = 0.28792 0.28075
# Poissons Ratio (z) = 0.27394 0.25481
#
# Static dielectric constant tensor:
#      x y z
#    x 3.913600 0.000000 0.000000 
#    y 0.000000 3.755450 0.000000 
#    z 0.000000 0.000000 3.950620 
# 
# 
# High freq. dielectric constant tensor:
#      x y z
#    x 1.816480 0.000000 0.000000 
#    y 0.000000 1.805190 0.000000 
#    z 0.000000 0.000000 1.827100 
# 
# From -- ./inp_files/6167.got.cif
#   From: 2010.03.12/outbox.cif.g09.slc.cpg/sg60_4_cif.got.tgz:6167.got - 2010.04.10 18:46:24.
