data_PCOD8247978
_publ_section_title
;
Structure prediction by ZEFSAII (Michael W. Deem and Ramdas Pophale) SiO2 
 PCOD8247978
Probable space group: P B C N
;
_chemical_formula_sum "Si O2"
_cell_formula_units_Z 48
_cell_length_a 8.570769
_cell_length_b 9.404470
_cell_length_c 25.946781
_cell_angle_alpha 90.000000
_cell_angle_beta 90.000000
_cell_angle_gamma 90.000000
_cell_volume 2091.402399
_symmetry_space_group_name_H-M "P B C N"
_symmetry_group_IT_number 60
_symmetry_cell_setting 'orthorhombic'
loop_
_space_group_symop_operation_xyz
x,y,z
1/2-x,1/2-y,1/2+z
1/2+x,1/2-y,-z
-x,y,1/2-z
-x,-y,-z
1/2+x,1/2+y,1/2-z
1/2-x,1/2+y,z
x,-y,1/2+z
loop_
_atom_site_type_symbol
_atom_site_label
_atom_site_fract_x
_atom_site_fract_y
_atom_site_fract_z
Si Si1 0.674428 0.054008 0.494585
Si Si2 0.630371 0.413054 0.324324
Si Si3 0.166955 0.628396 0.235953
Si Si4 0.261496 0.188649 0.570578
Si Si5 0.200076 0.950438 0.840645
Si Si6 0.625490 0.822835 0.098624
O O1 0.697966 0.158997 0.446333
O O2 0.725405 0.128185 0.548093
O O3 0.500000 0.000000 0.500000
O O4 0.774576 0.915932 0.478029
O O5 0.746962 0.539604 0.308604
O O6 0.647195 0.289380 0.282620
O O7 0.662976 0.357166 0.380837
O O8 0.454670 0.464949 0.326769
O O9 0.262188 0.634191 0.288722
O O10 0.000000 0.559324 0.250000
O O11 0.442851 0.185820 0.586452
O O12 0.336277 0.060615 0.857263
O O13 0.180669 0.834014 0.885579
#
# Coordination Sequence:
#
# PCOD8247978 Si02
#       6
#     8   8   8   8   8   8
#     4  10  23  42  67  99 133 175 224 276 335 401
#     4  12  26  44  70 100 134 176 223 278 335 398
#     4  12  25  44  66  95 131 174 219 271 329 396
#     4  11  23  44  67  97 134 177 225 276 335 402
#     4  12  25  43  66  99 133 170 221 274 334 398
#     4  11  24  43  68  98 134 178 221 277 337 403
#
# _framework density 22.951108000000001
#
# number of rings (size 3 to 8) (size 9 to 14) (size 15 to 20)
#    0.000    0.667    0.000    8.500    0.000    8.000 
#    0.000    5.833    0.000    0.000    0.000    0.000 
#    0.000    0.000    0.000    0.000    0.000    0.000 
#
# Total GULP energy -595219.594024 kJ/mol
# GULP energy per Si atom -12400.408209 kJ/mol
# Density = 2.289887 g / cm^3
# Si number density = 22.951108 Si / 1000 Ang^3
#
#
#
# Elastic Constant Matrix: (Units=GPa)
#
#
# Indices 1 2 3 4 5 6 
#
# 1 103.0304 49.5763 35.9171 0.0000 0.0000 0.0000
# 2 49.5763 139.5683 41.2467 0.0000 0.0000 0.0000
# 3 35.9171 41.2467 88.4232 0.0000 0.0000 0.0000
# 4 0.0000 0.0000 0.0000 51.8677 0.0000 0.0000
# 5 0.0000 0.0000 0.0000 0.0000 35.8721 0.0000
# 6 0.0000 0.0000 0.0000 0.0000 0.0000 32.9305
#
#
#
# Elastic Compliance Matrix: (Units=1/GPa)
#
#
# Indices 1 2 3 4 5 6 
#
# 1 0.012581 -0.003432 -0.003509 0.000000 0.000000 0.000000
# 2 -0.003432 0.009247 -0.002919 0.000000 0.000000 0.000000
# 3 -0.003509 -0.002919 0.014097 0.000000 0.000000 0.000000
# 4 0.000000 0.000000 0.000000 0.019280 0.000000 0.000000
# 5 0.000000 0.000000 0.000000 0.000000 0.027877 0.000000
# 6 0.000000 0.000000 0.000000 0.000000 0.000000 0.030367
#
#
# Mechanical properties :
#
#
# Convention : Reuss Voigt Hill
#
# Bulk Modulus (GPa) = 61.71721 64.94468 63.33094
# Shear Modulus (GPa) = 36.08307 37.75284 36.91796
#
# Velocity S-wave (km/s) = 3.96936 4.06017 4.01502
# Velocity P-wave (km/s) = 6.92509 7.09495 7.01054
#
# Compressibility (1/GPa) = 0.01620294
#
# Stress axis : x y z
#
# Youngs Moduli (GPa) = 79.48808 108.14709 70.93933
#
# Poissons Ratio (x) = 0.37112 0.24895
# Poissons Ratio (y) = 0.27277 0.20710
# Poissons Ratio (z) = 0.27896 0.31572
#
# Static dielectric constant tensor:
#      x y z
#    x 4.108110 0.000000 0.000000 
#    y 0.000000 4.395480 0.000000 
#    z 0.000000 0.000000 5.365520 
# 
# 
# High freq. dielectric constant tensor:
#      x y z
#    x 1.896430 0.000000 0.000000 
#    y 0.000000 1.923270 0.000000 
#    z 0.000000 0.000000 1.927000 
# 
# From -- ./inp_files/25908.got.cif
#   From: 2010.03.12/outbox.cif.g09.slc.cpg/sg60_13_cif.got.tgz:25908.got - 2010.04.10 18:46:24.
