data_PCOD8247497
_publ_section_title
;
Structure prediction by ZEFSAII (Michael W. Deem and Ramdas Pophale) SiO2 
 PCOD8247497
Probable space group: P B C N
;
_chemical_formula_sum "Si O2"
_cell_formula_units_Z 52
_cell_length_a 14.650990
_cell_length_b 19.209741
_cell_length_c 8.595021
_cell_angle_alpha 90.000000
_cell_angle_beta 90.000000
_cell_angle_gamma 90.000000
_cell_volume 2418.997522
_symmetry_space_group_name_H-M "P B C N"
_symmetry_group_IT_number 60
_symmetry_cell_setting 'orthorhombic'
loop_
_space_group_symop_operation_xyz
x,y,z
1/2-x,1/2-y,1/2+z
1/2+x,1/2-y,-z
-x,y,1/2-z
-x,-y,-z
1/2+x,1/2+y,1/2-z
1/2-x,1/2+y,z
x,-y,1/2+z
loop_
_atom_site_type_symbol
_atom_site_label
_atom_site_fract_x
_atom_site_fract_y
_atom_site_fract_z
Si Si1 0.000000 0.525217 0.750000
Si Si2 0.671428 0.220424 0.348307
Si Si3 0.154838 0.787023 0.468950
Si Si4 0.965767 0.168388 0.926803
Si Si5 0.694912 0.561706 0.589334
Si Si6 0.113875 0.570710 0.031403
Si Si7 0.584563 0.480265 0.358713
O O1 0.075058 0.476614 0.668843
O O2 0.953391 0.573636 0.618317
O O3 0.779294 0.229823 0.385755
O O4 0.657565 0.226660 0.162245
O O5 0.619090 0.279855 0.446289
O O6 0.629884 0.147142 0.400663
O O7 0.051482 0.802662 0.529257
O O8 0.195054 0.855690 0.385994
O O9 0.000000 0.169252 0.750000
O O10 0.936344 0.089026 0.962342
O O11 0.791226 0.535637 0.523594
O O12 0.609057 0.541633 0.478040
O O13 0.676201 0.529269 0.757562
O O14 0.500000 0.502108 0.250000
#
# Coordination Sequence:
#
# PCOD8247497 Si02
#       7
#     4   8   8   8   8   8   8
#     4  10  22  46  62  98 122 164 210 266 308 390
#     4  10  21  42  63  89 119 166 207 257 310 366
#     4  10  21  41  60  87 124 159 215 253 304 378
#     4   9  18  38  61  84 120 166 199 243 309 375
#     4  11  21  39  60  95 126 161 201 259 306 377
#     4  10  23  41  67  90 128 160 210 261 320 369
#     4  11  20  36  64  88 130 166 196 247 315 374
#
# _framework density 21.496509
#
# number of rings (size 3 to 8) (size 9 to 14) (size 15 to 20)
#    0.000    1.846    4.615    1.385    3.231    0.000 
#   13.846    0.000    0.000    0.000    0.000    0.000 
#    0.000    0.000    0.000    0.000    0.000    0.000 
#
# Total GULP energy -644525.530106 kJ/mol
# GULP energy per Si atom -12394.721733 kJ/mol
# Density = 2.144758 g / cm^3
# Si number density = 21.496509 Si / 1000 Ang^3
#
#
#
# Elastic Constant Matrix: (Units=GPa)
#
#
# Indices 1 2 3 4 5 6 
#
# 1 117.2746 34.1883 20.6662 0.0000 0.0000 0.0000
# 2 34.1883 71.8007 36.1235 0.0000 0.0000 0.0000
# 3 20.6662 36.1235 63.0804 0.0000 0.0000 0.0000
# 4 0.0000 0.0000 0.0000 26.9451 0.0000 0.0000
# 5 0.0000 0.0000 0.0000 0.0000 40.6765 0.0000
# 6 0.0000 0.0000 0.0000 0.0000 0.0000 28.8105
#
#
#
# Elastic Compliance Matrix: (Units=1/GPa)
#
#
# Indices 1 2 3 4 5 6 
#
# 1 0.009928 -0.004342 -0.000766 0.000000 0.000000 0.000000
# 2 -0.004342 0.021463 -0.010868 0.000000 0.000000 0.000000
# 3 -0.000766 -0.010868 0.022328 0.000000 0.000000 0.000000
# 4 0.000000 0.000000 0.000000 0.037112 0.000000 0.000000
# 5 0.000000 0.000000 0.000000 0.000000 0.024584 0.000000
# 6 0.000000 0.000000 0.000000 0.000000 0.000000 0.034710
#
#
# Mechanical properties :
#
#
# Convention : Reuss Voigt Hill
#
# Bulk Modulus (GPa) = 45.94407 48.23465 47.08936
# Shear Modulus (GPa) = 26.40861 30.03160 28.22011
#
# Velocity S-wave (km/s) = 3.50881 3.74176 3.62716
# Velocity P-wave (km/s) = 6.15100 6.41520 6.28449
#
# Compressibility (1/GPa) = 0.02176560
#
# Stress axis : x y z
#
# Youngs Moduli (GPa) = 100.72815 46.59235 44.78737
#
# Poissons Ratio (x) = 0.20229 0.03432
# Poissons Ratio (y) = 0.43733 0.48677
# Poissons Ratio (z) = 0.07718 0.50639
#
# Static dielectric constant tensor:
#      x y z
#    x 4.457210 0.000000 0.000000 
#    y 0.000000 3.772010 0.000000 
#    z 0.000000 0.000000 3.641070 
# 
# 
# High freq. dielectric constant tensor:
#      x y z
#    x 1.860930 0.000000 0.000000 
#    y 0.000000 1.831310 0.000000 
#    z 0.000000 0.000000 1.819340 
# 
# From -- ./inp_files/6079.got.cif
#   From: 2010.03.12/outbox.cif.g09.slc.cpg/sg60_4_cif.got.tgz:6079.got - 2010.04.10 18:46:24.
