data_PCOD8247535
_publ_section_title
;
Structure prediction by ZEFSAII (Michael W. Deem and Ramdas Pophale) SiO2 
 PCOD8247535
Probable space group: P B C N
;
_chemical_formula_sum "Si O2"
_cell_formula_units_Z 56
_cell_length_a 7.872832
_cell_length_b 19.646723
_cell_length_c 15.794510
_cell_angle_alpha 90.000000
_cell_angle_beta 90.000000
_cell_angle_gamma 90.000000
_cell_volume 2443.021355
_symmetry_space_group_name_H-M "P B C N"
_symmetry_group_IT_number 60
_symmetry_cell_setting 'orthorhombic'
loop_
_space_group_symop_operation_xyz
x,y,z
1/2-x,1/2-y,1/2+z
1/2+x,1/2-y,-z
-x,y,1/2-z
-x,-y,-z
1/2+x,1/2+y,1/2-z
1/2-x,1/2+y,z
x,-y,1/2+z
loop_
_atom_site_type_symbol
_atom_site_label
_atom_site_fract_x
_atom_site_fract_y
_atom_site_fract_z
Si Si1 0.350315 0.874201 0.701097
Si Si2 0.292595 0.583701 0.943353
Si Si3 0.573156 0.728357 0.342634
Si Si4 0.082943 0.368069 0.078006
Si Si5 0.364189 0.531417 0.320198
Si Si6 0.402572 0.364654 0.964770
Si Si7 0.871257 0.511962 0.423848
O O1 0.500000 0.833904 0.750000
O O2 0.238348 0.819692 0.650777
O O3 0.263017 0.919385 0.772390
O O4 0.433883 0.928152 0.636518
O O5 0.118542 0.629276 0.946191
O O6 0.287865 0.539162 0.857158
O O7 0.464605 0.628285 0.955515
O O8 0.299408 0.534215 0.026787
O O9 0.500000 0.717349 0.250000
O O10 0.619640 0.806990 0.357132
O O11 0.441068 0.705899 0.415288
O O12 0.207332 0.360198 0.996219
O O13 0.143503 0.438964 0.123590
O O14 0.500000 0.509250 0.250000
O O15 0.438306 0.574583 0.398271
O O16 0.000000 0.500000 0.500000
#
# Coordination Sequence:
#
# PCOD8247535 Si02
#       7
#     8   8   8   8   8   8   8
#     4  12  24  42  76 103 142 198 252 294 379 452
#     4  11  24  45  73 110 145 182 250 305 366 444
#     4  12  27  51  68 104 154 197 247 312 372 455
#     4  11  28  44  74 107 151 192 246 309 377 433
#     4  12  23  43  72 109 146 185 241 312 370 434
#     4  12  24  46  75 104 141 198 246 303 359 447
#     4  10  21  41  72 109 139 180 246 306 359 440
#
# _framework density 22.922433999999999
#
# number of rings (size 3 to 8) (size 9 to 14) (size 15 to 20)
#    0.000    0.571    5.714    2.143    6.000    1.714 
#    2.571    0.000    0.000    0.000    0.000    0.000 
#    0.000    0.000    0.000    0.000    0.000    0.000 
#
# Total GULP energy -693734.655598 kJ/mol
# GULP energy per Si atom -12388.118850 kJ/mol
# Density = 2.287026 g / cm^3
# Si number density = 22.922434 Si / 1000 Ang^3
#
#
#
# Elastic Constant Matrix: (Units=GPa)
#
#
# Indices 1 2 3 4 5 6 
#
# 1 118.8925 36.3435 39.8097 0.0000 0.0000 0.0000
# 2 36.3435 131.7018 34.8518 0.0000 0.0000 0.0000
# 3 39.8097 34.8518 64.1449 0.0000 0.0000 0.0000
# 4 0.0000 0.0000 0.0000 30.0156 0.0000 0.0000
# 5 0.0000 0.0000 0.0000 0.0000 39.2918 0.0000
# 6 0.0000 0.0000 0.0000 0.0000 0.0000 18.4371
#
#
#
# Elastic Compliance Matrix: (Units=1/GPa)
#
#
# Indices 1 2 3 4 5 6 
#
# 1 0.010838 -0.001414 -0.005958 0.000000 0.000000 0.000000
# 2 -0.001414 0.009052 -0.004041 0.000000 0.000000 0.000000
# 3 -0.005958 -0.004041 0.021483 0.000000 0.000000 0.000000
# 4 0.000000 0.000000 0.000000 0.033316 0.000000 0.000000
# 5 0.000000 0.000000 0.000000 0.000000 0.025451 0.000000
# 6 0.000000 0.000000 0.000000 0.000000 0.000000 0.054238
#
#
# Mechanical properties :
#
#
# Convention : Reuss Voigt Hill
#
# Bulk Modulus (GPa) = 53.91564 59.63879 56.77722
# Shear Modulus (GPa) = 27.26471 31.13120 29.19795
#
# Velocity S-wave (km/s) = 3.45256 3.68925 3.57287
# Velocity P-wave (km/s) = 6.28216 6.64993 6.46866
#
# Compressibility (1/GPa) = 0.01854749
#
# Stress axis : x y z
#
# Youngs Moduli (GPa) = 92.26590 110.46717 46.54858
#
# Poissons Ratio (x) = 0.15622 0.27734
# Poissons Ratio (y) = 0.13048 0.18809
# Poissons Ratio (z) = 0.54973 0.44638
#
# Static dielectric constant tensor:
#      x y z
#    x 1.904500 0.000000 0.000000 
#    y 0.000000 4.517140 0.000000 
#    z 0.000000 0.000000 3.841460 
# 
# 
# High freq. dielectric constant tensor:
#      x y z
#    x 1.911860 0.000000 0.000000 
#    y 0.000000 1.888330 0.000000 
#    z 0.000000 0.000000 1.896830 
# 
# From -- ./inp_files/15256.got.cif
#   From: 2010.03.12/outbox.cif.g09.slc.cpg/sg60_8_cif.got.tgz:15256.got - 2010.04.10 18:46:24.
