data_PCOD8247893
_publ_section_title
;
Structure prediction by ZEFSAII (Michael W. Deem and Ramdas Pophale) SiO2 
 PCOD8247893
Probable space group: P B C N
;
_chemical_formula_sum "Si O2"
_cell_formula_units_Z 40
_cell_length_a 11.250450
_cell_length_b 9.653012
_cell_length_c 15.789386
_cell_angle_alpha 90.000000
_cell_angle_beta 90.000000
_cell_angle_gamma 90.000000
_cell_volume 1714.738828
_symmetry_space_group_name_H-M "P B C N"
_symmetry_group_IT_number 60
_symmetry_cell_setting 'orthorhombic'
loop_
_space_group_symop_operation_xyz
x,y,z
1/2-x,1/2-y,1/2+z
1/2+x,1/2-y,-z
-x,y,1/2-z
-x,-y,-z
1/2+x,1/2+y,1/2-z
1/2-x,1/2+y,z
x,-y,1/2+z
loop_
_atom_site_type_symbol
_atom_site_label
_atom_site_fract_x
_atom_site_fract_y
_atom_site_fract_z
Si Si1 0.438660 0.850758 0.902728
Si Si2 0.260369 0.444664 0.799148
Si Si3 0.122413 0.949698 0.465134
Si Si4 0.346688 0.005735 0.560793
Si Si5 0.367166 0.188741 0.715828
O O1 0.368526 0.875099 0.815523
O O2 0.398700 0.704844 0.936565
O O3 0.581008 0.878168 0.893452
O O4 0.397464 0.970244 0.967358
O O5 0.336665 0.455796 0.885679
O O6 0.332050 0.349387 0.731889
O O7 0.233255 0.595823 0.762192
O O8 0.211934 0.956933 0.545158
O O9 0.000000 0.000000 0.500000
O O10 0.359521 0.145761 0.617007
O O11 0.500000 0.161159 0.750000
#
# Coordination Sequence:
#
# PCOD8247893 Si02
#       5
#     8   8   8   8   8
#     4  10  22  45  68  99 136 186 240 289 358 431
#     4  11  25  46  69 103 144 185 239 297 364 430
#     4  11  26  42  72 103 140 186 241 300 353 441
#     4  10  25  42  71 100 139 191 237 300 366 438
#     4  12  26  46  71 105 147 191 237 302 372 436
#
# _framework density 23.327166999999999
#
# number of rings (size 3 to 8) (size 9 to 14) (size 15 to 20)
#    0.000    1.200    4.000    0.000   11.200    0.000 
#    0.000    1.000    0.000    0.000    0.000    0.000 
#    0.000    0.000    0.000    0.000    0.000    0.000 
#
# Total GULP energy -495797.239001 kJ/mol
# GULP energy per Si atom -12394.930975 kJ/mol
# Density = 2.327407 g / cm^3
# Si number density = 23.327167 Si / 1000 Ang^3
#
#
#
# Elastic Constant Matrix: (Units=GPa)
#
#
# Indices 1 2 3 4 5 6 
#
# 1 135.5074 32.8759 22.0659 0.0000 0.0000 0.0000
# 2 32.8759 92.7858 1.9524 0.0000 0.0000 0.0000
# 3 22.0659 1.9524 65.8814 0.0000 0.0000 0.0000
# 4 0.0000 0.0000 0.0000 36.8336 0.0000 0.0000
# 5 0.0000 0.0000 0.0000 0.0000 19.6599 0.0000
# 6 0.0000 0.0000 0.0000 0.0000 0.0000 40.4624
#
#
#
# Elastic Compliance Matrix: (Units=1/GPa)
#
#
# Indices 1 2 3 4 5 6 
#
# 1 0.008553 -0.002972 -0.002777 0.000000 0.000000 0.000000
# 2 -0.002972 0.011817 0.000645 0.000000 0.000000 0.000000
# 3 -0.002777 0.000645 0.016090 0.000000 0.000000 0.000000
# 4 0.000000 0.000000 0.000000 0.027149 0.000000 0.000000
# 5 0.000000 0.000000 0.000000 0.000000 0.050865 0.000000
# 6 0.000000 0.000000 0.000000 0.000000 0.000000 0.024714
#
#
# Mechanical properties :
#
#
# Convention : Reuss Voigt Hill
#
# Bulk Modulus (GPa) = 38.09122 45.32922 41.71022
# Shear Modulus (GPa) = 31.61644 35.20987 33.41315
#
# Velocity S-wave (km/s) = 3.68550 3.88931 3.78877
# Velocity P-wave (km/s) = 5.87155 6.29627 6.08762
#
# Compressibility (1/GPa) = 0.02625277
#
# Stress axis : x y z
#
# Youngs Moduli (GPa) = 116.91994 84.62396 62.15182
#
# Poissons Ratio (x) = 0.25150 0.17257
# Poissons Ratio (y) = 0.34749 -0.04010
# Poissons Ratio (z) = 0.32464 -0.05460
#
# Static dielectric constant tensor:
#      x y z
#    x 4.608740 0.000000 0.000000 
#    y 0.000000 3.883730 0.000000 
#    z 0.000000 0.000000 4.158930 
# 
# 
# High freq. dielectric constant tensor:
#      x y z
#    x 1.933830 0.000000 0.000000 
#    y 0.000000 1.911350 0.000000 
#    z 0.000000 0.000000 1.920120 
# 
# From -- ./inp_files/19829.got.cif
#   From: 2010.03.12/outbox.cif.g09.slc.cpg/sg60_10_cif.got.tgz:19829.got - 2010.04.10 18:46:24.
