data_PCOD8247340
_publ_section_title
;
Structure prediction by ZEFSAII (Michael W. Deem and Ramdas Pophale) SiO2 
 PCOD8247340
Probable space group: P B C N
;
_chemical_formula_sum "Si O2"
_cell_formula_units_Z 56
_cell_length_a 5.334247
_cell_length_b 32.385351
_cell_length_c 14.681036
_cell_angle_alpha 90.000000
_cell_angle_beta 90.000000
_cell_angle_gamma 90.000000
_cell_volume 2536.170424
_symmetry_space_group_name_H-M "P B C N"
_symmetry_group_IT_number 60
_symmetry_cell_setting 'orthorhombic'
loop_
_space_group_symop_operation_xyz
x,y,z
1/2-x,1/2-y,1/2+z
1/2+x,1/2-y,-z
-x,y,1/2-z
-x,-y,-z
1/2+x,1/2+y,1/2-z
1/2-x,1/2+y,z
x,-y,1/2+z
loop_
_atom_site_type_symbol
_atom_site_label
_atom_site_fract_x
_atom_site_fract_y
_atom_site_fract_z
Si Si1 0.830554 0.116871 0.008823
Si Si2 0.685132 0.090399 0.577990
Si Si3 0.828038 0.327258 0.162305
Si Si4 0.190754 0.295901 0.021277
Si Si5 0.749347 0.512917 0.693467
Si Si6 0.984792 0.749825 0.149772
Si Si7 0.251804 0.580807 0.305879
O O1 0.741785 0.112938 0.112176
O O2 0.604832 0.096379 0.950292
O O3 0.879182 0.165062 0.984245
O O4 0.101251 0.095070 0.999391
O O5 0.752285 0.124529 0.656467
O O6 0.727530 0.043905 0.609860
O O7 0.602969 0.295875 0.174536
O O8 0.000000 0.320460 0.250000
O O9 0.939492 0.315237 0.062824
O O10 0.263751 0.258809 0.091140
O O11 0.180506 0.277908 0.918397
O O12 0.500000 0.523745 0.750000
O O13 0.736023 0.466149 0.656481
O O14 0.000000 0.519567 0.750000
O O15 0.000000 0.727404 0.250000
O O16 0.500000 0.590989 0.250000
O O17 0.000000 0.588266 0.250000
#
# Coordination Sequence:
#
# PCOD8247340 Si02
#       7
#     8   8   8   8   8   8   8
#     4  11  24  41  63  93 126 169 212 265 331 378
#     4  11  23  38  62  95 130 166 210 265 320 392
#     4  11  22  38  61  90 124 166 211 261 334 393
#     4  11  24  41  61  92 130 162 214 277 320 391
#     4  10  21  38  61  92 129 169 211 262 316 375
#     4  12  23  40  66  89 122 170 212 265 335 392
#     4  10  22  42  65  89 126 170 216 266 317 382
#
# _framework density 22.080535999999999
#
# number of rings (size 3 to 8) (size 9 to 14) (size 15 to 20)
#    0.000    1.143    4.286    2.143    0.000    3.429 
#    0.000    2.143    0.000    0.000    0.000    0.000 
#    0.000    0.000    0.000    0.000    0.000    0.000 
#
# Total GULP energy -693806.412544 kJ/mol
# GULP energy per Si atom -12389.400224 kJ/mol
# Density = 2.203028 g / cm^3
# Si number density = 22.080536 Si / 1000 Ang^3
#
#
#
# Elastic Constant Matrix: (Units=GPa)
#
#
# Indices 1 2 3 4 5 6 
#
# 1 101.6954 8.9854 18.2744 0.0000 0.0000 0.0000
# 2 8.9854 43.6757 27.7119 0.0000 0.0000 0.0000
# 3 18.2744 27.7119 129.7089 0.0000 0.0000 0.0000
# 4 0.0000 0.0000 0.0000 33.7487 0.0000 0.0000
# 5 0.0000 0.0000 0.0000 0.0000 28.3470 0.0000
# 6 0.0000 0.0000 0.0000 0.0000 0.0000 29.3426
#
#
#
# Elastic Compliance Matrix: (Units=1/GPa)
#
#
# Indices 1 2 3 4 5 6 
#
# 1 0.010159 -0.001367 -0.001139 0.000000 0.000000 0.000000
# 2 -0.001367 0.026670 -0.005505 0.000000 0.000000 0.000000
# 3 -0.001139 -0.005505 0.009046 0.000000 0.000000 0.000000
# 4 0.000000 0.000000 0.000000 0.029631 0.000000 0.000000
# 5 0.000000 0.000000 0.000000 0.000000 0.035277 0.000000
# 6 0.000000 0.000000 0.000000 0.000000 0.000000 0.034080
#
#
# Mechanical properties :
#
#
# Convention : Reuss Voigt Hill
#
# Bulk Modulus (GPa) = 33.49861 42.78037 38.13949
# Shear Modulus (GPa) = 29.26756 32.96157 31.11456
#
# Velocity S-wave (km/s) = 3.64468 3.86785 3.75792
# Velocity P-wave (km/s) = 5.73721 6.27406 6.01163
#
# Compressibility (1/GPa) = 0.02985198
#
# Stress axis : x y z
#
# Youngs Moduli (GPa) = 98.43690 37.49470 110.54266
#
# Poissons Ratio (x) = 0.05126 0.12593
# Poissons Ratio (y) = 0.13458 0.60859
# Poissons Ratio (z) = 0.11214 0.20642
#
# Static dielectric constant tensor:
#      x y z
#    x 3.985000 0.000000 0.000000 
#    y 0.000000 4.109580 0.000000 
#    z 0.000000 0.000000 4.112250 
# 
# 
# High freq. dielectric constant tensor:
#      x y z
#    x 1.873630 0.000000 0.000000 
#    y 0.000000 1.865580 0.000000 
#    z 0.000000 0.000000 1.861710 
# 
# From -- ./inp_files/14097.got.cif
#   From: 2010.03.12/outbox.cif.g09.slc.cpg/sg60_8_cif.got.tgz:14097.got - 2010.04.10 18:46:24.
