data_PCOD8247310
_publ_section_title
;
Structure prediction by ZEFSAII (Michael W. Deem and Ramdas Pophale) SiO2 
 PCOD8247310
Probable space group: P B C N
;
_chemical_formula_sum "Si O2"
_cell_formula_units_Z 64
_cell_length_a 8.852970
_cell_length_b 14.463605
_cell_length_c 24.894913
_cell_angle_alpha 90.000000
_cell_angle_beta 90.000000
_cell_angle_gamma 90.000000
_cell_volume 3187.690574
_symmetry_space_group_name_H-M "P B C N"
_symmetry_group_IT_number 60
_symmetry_cell_setting 'orthorhombic'
loop_
_space_group_symop_operation_xyz
x,y,z
1/2-x,1/2-y,1/2+z
1/2+x,1/2-y,-z
-x,y,1/2-z
-x,-y,-z
1/2+x,1/2+y,1/2-z
1/2-x,1/2+y,z
x,-y,1/2+z
loop_
_atom_site_type_symbol
_atom_site_label
_atom_site_fract_x
_atom_site_fract_y
_atom_site_fract_z
Si Si1 0.302049 0.047360 0.096720
Si Si2 0.257066 0.944792 0.361487
Si Si3 0.841394 0.223599 0.042883
Si Si4 0.533418 0.125386 0.921102
Si Si5 0.965267 0.582851 0.188288
Si Si6 0.478172 0.467179 0.938997
Si Si7 0.798937 0.241029 0.924799
Si Si8 0.901396 0.230485 0.632976
O O1 0.387332 0.049067 0.154482
O O2 0.307226 0.148581 0.071486
O O3 0.126883 0.015027 0.098040
O O4 0.390278 0.971609 0.059392
O O5 0.415048 0.897711 0.375215
O O6 0.158751 0.861115 0.335611
O O7 0.307006 0.028328 0.322668
O O8 0.166840 0.981823 0.413606
O O9 0.951287 0.142271 0.061994
O O10 0.711412 0.235127 0.086727
O O11 0.941533 0.316950 0.033866
O O12 0.773765 0.200128 0.984786
O O13 0.656799 0.195281 0.893952
O O14 0.932227 0.690031 0.176110
O O15 0.000000 0.569409 0.250000
O O16 0.500000 0.500000 0.000000
O O17 0.947186 0.199978 0.897483
#
# Coordination Sequence:
#
# PCOD8247310 Si02
#       8
#     8   8   8   8   8   8   8   8
#     4  10  23  39  61  91 124 167 214 269 313 391
#     4  10  22  40  64  89 127 167 207 271 319 389
#     4  11  21  35  56  85 130 170 206 254 309 388
#     4  10  21  38  55  84 122 166 212 256 307 372
#     4  10  22  46  68  89 123 167 220 279 331 371
#     4  12  23  38  58  94 134 175 210 253 316 391
#     4  11  21  36  56  90 129 170 213 254 311 384
#     4  10  21  38  62  90 124 165 211 265 319 382
#
# _framework density 20.077231000000001
#
# number of rings (size 3 to 8) (size 9 to 14) (size 15 to 20)
#    0.000    1.500    2.500    3.000    3.500    0.500 
#    0.000    6.875    0.000    0.000    0.000    0.000 
#    0.000    0.000    0.000    0.000    0.000    0.000 
#
# Total GULP energy -792882.320686 kJ/mol
# GULP energy per Si atom -12388.786261 kJ/mol
# Density = 2.003153 g / cm^3
# Si number density = 20.077231 Si / 1000 Ang^3
#
#
#
# Elastic Constant Matrix: (Units=GPa)
#
#
# Indices 1 2 3 4 5 6 
#
# 1 120.4459 43.5529 44.6348 0.0000 0.0000 0.0000
# 2 43.5529 110.0105 29.1935 0.0000 0.0000 0.0000
# 3 44.6348 29.1935 87.5922 0.0000 0.0000 0.0000
# 4 0.0000 0.0000 0.0000 16.1730 0.0000 0.0000
# 5 0.0000 0.0000 0.0000 0.0000 21.4481 0.0000
# 6 0.0000 0.0000 0.0000 0.0000 0.0000 43.2530
#
#
#
# Elastic Compliance Matrix: (Units=1/GPa)
#
#
# Indices 1 2 3 4 5 6 
#
# 1 0.011173 -0.003195 -0.004629 0.000000 0.000000 0.000000
# 2 -0.003195 0.010886 -0.002000 0.000000 0.000000 0.000000
# 3 -0.004629 -0.002000 0.014442 0.000000 0.000000 0.000000
# 4 0.000000 0.000000 0.000000 0.061831 0.000000 0.000000
# 5 0.000000 0.000000 0.000000 0.000000 0.046624 0.000000
# 6 0.000000 0.000000 0.000000 0.000000 0.000000 0.023120
#
#
# Mechanical properties :
#
#
# Convention : Reuss Voigt Hill
#
# Bulk Modulus (GPa) = 59.33598 61.42342 60.37970
# Shear Modulus (GPa) = 25.86103 29.55265 27.70684
#
# Velocity S-wave (km/s) = 3.59287 3.84076 3.71888
# Velocity P-wave (km/s) = 6.84322 7.09426 6.96987
#
# Compressibility (1/GPa) = 0.01685318
#
# Stress axis : x y z
#
# Youngs Moduli (GPa) = 89.50065 91.86368 69.24378
#
# Poissons Ratio (x) = 0.29351 0.32050
# Poissons Ratio (y) = 0.28596 0.13848
# Poissons Ratio (z) = 0.41427 0.18372
#
# Static dielectric constant tensor:
#      x y z
#    x 4.123660 0.000000 0.000000 
#    y 0.000000 4.110640 0.000000 
#    z 0.000000 0.000000 2.994940 
# 
# 
# High freq. dielectric constant tensor:
#      x y z
#    x 1.808270 0.000000 0.000000 
#    y 0.000000 1.813440 0.000000 
#    z 0.000000 0.000000 1.709770 
# 
# From -- ./inp_files/24108.got.cif
#   From: 2010.03.12/outbox.cif.g09.slc.cpg/sg60_13_cif.got.tgz:24108.got - 2010.04.10 18:46:24.
