data_PCOD8247851
_publ_section_title
;
Structure prediction by ZEFSAII (Michael W. Deem and Ramdas Pophale) SiO2 
 PCOD8247851
Probable space group: P B C N
;
_chemical_formula_sum "Si O2"
_cell_formula_units_Z 56
_cell_length_a 14.954398
_cell_length_b 8.459450
_cell_length_c 20.939825
_cell_angle_alpha 90.000000
_cell_angle_beta 90.000000
_cell_angle_gamma 90.000000
_cell_volume 2649.013128
_symmetry_space_group_name_H-M "P B C N"
_symmetry_group_IT_number 60
_symmetry_cell_setting 'orthorhombic'
loop_
_space_group_symop_operation_xyz
x,y,z
1/2-x,1/2-y,1/2+z
1/2+x,1/2-y,-z
-x,y,1/2-z
-x,-y,-z
1/2+x,1/2+y,1/2-z
1/2-x,1/2+y,z
x,-y,1/2+z
loop_
_atom_site_type_symbol
_atom_site_label
_atom_site_fract_x
_atom_site_fract_y
_atom_site_fract_z
Si Si1 0.344572 0.410798 0.145222
Si Si2 0.686877 0.359428 0.053322
Si Si3 0.592312 0.480804 0.221417
Si Si4 0.498894 0.079238 0.569310
Si Si5 0.974031 0.741507 0.123811
Si Si6 0.345591 0.312892 0.895470
Si Si7 0.680787 0.740663 0.415536
O O1 0.341446 0.434342 0.221639
O O2 0.427064 0.311081 0.117699
O O3 0.354821 0.581985 0.115456
O O4 0.255206 0.320380 0.127741
O O5 0.587388 0.290627 0.063602
O O6 0.758929 0.301752 0.106827
O O7 0.680409 0.548451 0.055229
O O8 0.721436 0.302406 0.984621
O O9 0.500000 0.551595 0.250000
O O10 0.572838 0.314020 0.186361
O O11 0.634149 0.612131 0.174154
O O12 0.521358 0.948691 0.623932
O O13 0.500000 0.000000 0.500000
O O14 0.569447 0.220943 0.576121
O O15 0.399683 0.137470 0.581552
#
# Coordination Sequence:
#
# PCOD8247851 Si02
#       7
#     8   8   8   8   8   8   8
#     4  11  25  43  69  97 135 179 224 282 329 400
#     4  11  23  39  65  99 134 179 217 283 336 410
#     4   9  21  47  69  94 133 180 234 274 327 396
#     4  12  25  41  67 103 137 176 217 277 342 407
#     4  10  22  43  66  96 133 176 223 271 335 391
#     4  11  25  42  67  97 136 177 228 273 337 402
#     4  12  25  40  67 102 137 172 225 275 350 395
#
# _framework density 21.139949999999999
#
# number of rings (size 3 to 8) (size 9 to 14) (size 15 to 20)
#    0.000    1.143    1.429    5.143    6.000    3.429 
#    0.000    9.286    0.000    0.000    0.000    0.000 
#    0.000    0.000    0.000    0.000    0.000    0.000 
#
# Total GULP energy -694433.344818 kJ/mol
# GULP energy per Si atom -12400.595443 kJ/mol
# Density = 2.109183 g / cm^3
# Si number density = 21.139950 Si / 1000 Ang^3
#
#
#
# Elastic Constant Matrix: (Units=GPa)
#
#
# Indices 1 2 3 4 5 6 
#
# 1 138.5364 61.2176 54.9948 0.0000 0.0000 0.0000
# 2 61.2176 131.4370 62.2024 0.0000 0.0000 0.0000
# 3 54.9948 62.2024 123.9855 0.0000 0.0000 0.0000
# 4 0.0000 0.0000 0.0000 27.1944 0.0000 0.0000
# 5 0.0000 0.0000 0.0000 0.0000 34.8058 0.0000
# 6 0.0000 0.0000 0.0000 0.0000 0.0000 43.1648
#
#
#
# Elastic Compliance Matrix: (Units=1/GPa)
#
#
# Indices 1 2 3 4 5 6 
#
# 1 0.009722 -0.003262 -0.002676 0.000000 0.000000 0.000000
# 2 -0.003262 0.011071 -0.004108 0.000000 0.000000 0.000000
# 3 -0.002676 -0.004108 0.011313 0.000000 0.000000 0.000000
# 4 0.000000 0.000000 0.000000 0.036772 0.000000 0.000000
# 5 0.000000 0.000000 0.000000 0.000000 0.028731 0.000000
# 6 0.000000 0.000000 0.000000 0.000000 0.000000 0.023167
#
#
# Mechanical properties :
#
#
# Convention : Reuss Voigt Hill
#
# Bulk Modulus (GPa) = 83.22272 83.42095 83.32183
# Shear Modulus (GPa) = 34.51320 35.40258 34.95789
#
# Velocity S-wave (km/s) = 4.04494 4.09672 4.07091
# Velocity P-wave (km/s) = 7.82741 7.86921 7.84834
#
# Compressibility (1/GPa) = 0.01201595
#
# Stress axis : x y z
#
# Youngs Moduli (GPa) = 102.86114 90.32378 88.39296
#
# Poissons Ratio (x) = 0.29461 0.23653
# Poissons Ratio (y) = 0.33550 0.36309
# Poissons Ratio (z) = 0.27524 0.37102
#
# Static dielectric constant tensor:
#      x y z
#    x 3.986910 0.000000 0.000000 
#    y 0.000000 4.056490 0.000000 
#    z 0.000000 0.000000 3.947750 
# 
# 
# High freq. dielectric constant tensor:
#      x y z
#    x 1.840700 0.000000 0.000000 
#    y 0.000000 1.838820 0.000000 
#    z 0.000000 0.000000 1.821500 
# 
# From -- ./inp_files/22928.got.cif
#   From: 2010.03.12/outbox.cif.g09.slc.cpg/sg60_12_cif.got.tgz:22928.got - 2010.04.10 18:46:24.
