data_PCOD8247666
_publ_section_title
;
Structure prediction by ZEFSAII (Michael W. Deem and Ramdas Pophale) SiO2 
 PCOD8247666
Probable space group: P B C N
;
_chemical_formula_sum "Si O2"
_cell_formula_units_Z 64
_cell_length_a 8.669891
_cell_length_b 19.830119
_cell_length_c 16.516634
_cell_angle_alpha 90.000000
_cell_angle_beta 90.000000
_cell_angle_gamma 90.000000
_cell_volume 2839.621809
_symmetry_space_group_name_H-M "P B C N"
_symmetry_group_IT_number 60
_symmetry_cell_setting 'orthorhombic'
loop_
_space_group_symop_operation_xyz
x,y,z
1/2-x,1/2-y,1/2+z
1/2+x,1/2-y,-z
-x,y,1/2-z
-x,-y,-z
1/2+x,1/2+y,1/2-z
1/2-x,1/2+y,z
x,-y,1/2+z
loop_
_atom_site_type_symbol
_atom_site_label
_atom_site_fract_x
_atom_site_fract_y
_atom_site_fract_z
Si Si1 0.630078 0.789692 0.686467
Si Si2 0.294261 0.827040 0.071914
Si Si3 0.645539 0.946152 0.692150
Si Si4 0.130675 0.941022 0.310568
Si Si5 0.083722 0.918536 0.491773
Si Si6 0.821393 0.676250 0.745507
Si Si7 0.748450 0.957846 0.516992
Si Si8 0.476208 0.270999 0.480629
O O1 0.500000 0.768164 0.750000
O O2 0.677606 0.867054 0.697264
O O3 0.783668 0.748170 0.706222
O O4 0.570509 0.772208 0.597592
O O5 0.248293 0.828555 0.165134
O O6 0.154085 0.793289 0.021365
O O7 0.327606 0.904031 0.044046
O O8 0.443547 0.779534 0.055791
O O9 0.500000 0.965452 0.750000
O O10 0.635500 0.964634 0.595655
O O11 0.793040 0.989147 0.721783
O O12 0.057722 0.944504 0.399473
O O13 0.257925 0.882400 0.311694
O O14 0.000000 0.918165 0.250000
O O15 0.126320 0.839240 0.493421
O O16 0.922798 0.931477 0.539245
O O17 0.225193 0.966973 0.523475
O O18 0.000000 0.665276 0.750000
#
# Coordination Sequence:
#
# PCOD8247666 Si02
#       8
#     8   8   8   8   8   8   8   8
#     4  11  21  42  65  89 127 178 219 265 328 399
#     4  11  24  39  63  94 128 173 213 268 333 391
#     4  10  22  38  64  93 131 173 212 271 336 384
#     4  11  21  40  67  92 125 175 226 269 328 401
#     4   9  19  34  65  92 120 164 220 266 323 381
#     4  12  26  40  64  98 133 165 224 277 328 392
#     4   9  18  37  60  91 125 161 211 269 315 391
#     4  11  21  39  65  93 129 168 217 265 327 393
#
# _framework density 22.538212999999999
#
# number of rings (size 3 to 8) (size 9 to 14) (size 15 to 20)
#    0.000    1.500    3.750    2.250    1.750    0.500 
#    0.000    5.000    2.750    8.250    0.000    0.000 
#    0.000    0.000    0.000    0.000    0.000    0.000 
#
# Total GULP energy -793075.074290 kJ/mol
# GULP energy per Si atom -12391.798036 kJ/mol
# Density = 2.248691 g / cm^3
# Si number density = 22.538213 Si / 1000 Ang^3
#
#
#
# Elastic Constant Matrix: (Units=GPa)
#
#
# Indices 1 2 3 4 5 6 
#
# 1 61.2632 17.6240 2.0602 0.0000 0.0000 0.0000
# 2 17.6240 116.1874 -3.0340 0.0000 0.0000 0.0000
# 3 2.0602 -3.0340 53.4900 0.0000 0.0000 0.0000
# 4 0.0000 0.0000 0.0000 22.9246 0.0000 0.0000
# 5 0.0000 0.0000 0.0000 0.0000 32.0364 0.0000
# 6 0.0000 0.0000 0.0000 0.0000 0.0000 30.0711
#
#
#
# Elastic Compliance Matrix: (Units=1/GPa)
#
#
# Indices 1 2 3 4 5 6 
#
# 1 0.017103 -0.002615 -0.000807 0.000000 0.000000 0.000000
# 2 -0.002615 0.009019 0.000612 0.000000 0.000000 0.000000
# 3 -0.000807 0.000612 0.018761 0.000000 0.000000 0.000000
# 4 0.000000 0.000000 0.000000 0.043621 0.000000 0.000000
# 5 0.000000 0.000000 0.000000 0.000000 0.031215 0.000000
# 6 0.000000 0.000000 0.000000 0.000000 0.000000 0.033255
#
#
# Mechanical properties :
#
#
# Convention : Reuss Voigt Hill
#
# Bulk Modulus (GPa) = 25.46939 29.36012 27.41475
# Shear Modulus (GPa) = 29.12381 31.29244 30.20812
#
# Velocity S-wave (km/s) = 3.59861 3.73019 3.66499
# Velocity P-wave (km/s) = 5.34713 5.62206 5.48631
#
# Compressibility (1/GPa) = 0.03926282
#
# Stress axis : x y z
#
# Youngs Moduli (GPa) = 58.47097 110.87118 53.30237
#
# Poissons Ratio (x) = 0.28996 0.04302
# Poissons Ratio (y) = 0.15292 -0.03264
# Poissons Ratio (z) = 0.04719 -0.06789
#
# Static dielectric constant tensor:
#      x y z
#    x 3.799420 0.000000 0.000000 
#    y 0.000000 4.403590 0.000000 
#    z 0.000000 0.000000 4.097720 
# 
# 
# High freq. dielectric constant tensor:
#      x y z
#    x 1.862680 0.000000 0.000000 
#    y 0.000000 1.911630 0.000000 
#    z 0.000000 0.000000 1.874210 
# 
# From -- ./inp_files/19683.got.cif
#   From: 2010.03.12/outbox.cif.g09.slc.cpg/sg60_10_cif.got.tgz:19683.got - 2010.04.10 18:46:24.
