data_PCOD8247837
_publ_section_title
;
Structure prediction by ZEFSAII (Michael W. Deem and Ramdas Pophale) SiO2 
 PCOD8247837
Probable space group: P B C N
;
_chemical_formula_sum "Si O2"
_cell_formula_units_Z 48
_cell_length_a 9.257704
_cell_length_b 18.038198
_cell_length_c 13.702599
_cell_angle_alpha 90.000000
_cell_angle_beta 90.000000
_cell_angle_gamma 90.000000
_cell_volume 2288.228493
_symmetry_space_group_name_H-M "P B C N"
_symmetry_group_IT_number 60
_symmetry_cell_setting 'orthorhombic'
loop_
_space_group_symop_operation_xyz
x,y,z
1/2-x,1/2-y,1/2+z
1/2+x,1/2-y,-z
-x,y,1/2-z
-x,-y,-z
1/2+x,1/2+y,1/2-z
1/2-x,1/2+y,z
x,-y,1/2+z
loop_
_atom_site_type_symbol
_atom_site_label
_atom_site_fract_x
_atom_site_fract_y
_atom_site_fract_z
Si Si1 0.500000 0.895175 0.750000
Si Si2 0.917017 0.794244 0.959122
Si Si3 0.095193 0.940259 0.442797
Si Si4 0.500000 0.355272 0.250000
Si Si5 0.871620 0.468141 0.567721
Si Si6 0.787393 0.723198 0.284316
Si Si7 0.240884 0.184911 0.428607
O O1 0.424332 0.950106 0.824246
O O2 0.597628 0.839732 0.817479
O O3 0.845749 0.766463 0.858530
O O4 0.088949 0.788435 0.970703
O O5 0.872588 0.878436 0.976301
O O6 0.862646 0.744573 0.047693
O O7 0.020145 0.907797 0.344934
O O8 0.251538 0.970235 0.415031
O O9 0.000000 0.000000 0.500000
O O10 0.359539 0.303676 0.231843
O O11 0.792571 0.393944 0.526066
O O12 0.000000 0.500000 0.500000
O O13 0.722438 0.685511 0.187306
#
# Coordination Sequence:
#
# PCOD8247837 Si02
#       7
#     4   8   8   4   8   8   8
#     4   9  22  44  66  98 129 180 226 284 349 414
#     4  12  24  44  70 101 137 182 235 293 347 429
#     4  12  26  45  70 104 143 189 232 295 363 427
#     4  11  24  46  68 106 145 184 240 300 361 426
#     4  11  25  45  67  99 138 179 230 283 355 416
#     4  10  22  42  73  95 136 181 234 296 345 415
#     4  11  25  43  69 102 132 182 236 280 354 421
#
# _framework density 20.976927
#
# number of rings (size 3 to 8) (size 9 to 14) (size 15 to 20)
#    0.000    1.000    3.333    2.500    7.000    4.000 
#    0.000    0.000    0.000    0.000    0.000    0.000 
#    0.000    0.000    0.000    0.000    0.000    0.000 
#
# Total GULP energy -594962.716645 kJ/mol
# GULP energy per Si atom -12395.056597 kJ/mol
# Density = 2.092918 g / cm^3
# Si number density = 20.976927 Si / 1000 Ang^3
#
#
#
# Elastic Constant Matrix: (Units=GPa)
#
#
# Indices 1 2 3 4 5 6 
#
# 1 137.4362 57.0517 43.6395 0.0000 0.0000 0.0000
# 2 57.0517 118.2119 43.5954 0.0000 0.0000 0.0000
# 3 43.6395 43.5954 99.1688 0.0000 0.0000 0.0000
# 4 0.0000 0.0000 0.0000 41.5468 0.0000 0.0000
# 5 0.0000 0.0000 0.0000 0.0000 39.4011 0.0000
# 6 0.0000 0.0000 0.0000 0.0000 0.0000 42.7815
#
#
#
# Elastic Compliance Matrix: (Units=1/GPa)
#
#
# Indices 1 2 3 4 5 6 
#
# 1 0.009638 -0.003685 -0.002621 0.000000 0.000000 0.000000
# 2 -0.003685 0.011505 -0.003436 0.000000 0.000000 0.000000
# 3 -0.002621 -0.003436 0.012748 0.000000 0.000000 0.000000
# 4 0.000000 0.000000 0.000000 0.024069 0.000000 0.000000
# 5 0.000000 0.000000 0.000000 0.000000 0.025380 0.000000
# 6 0.000000 0.000000 0.000000 0.000000 0.000000 0.023375
#
#
# Mechanical properties :
#
#
# Convention : Reuss Voigt Hill
#
# Bulk Modulus (GPa) = 69.41431 71.48780 70.45106
# Shear Modulus (GPa) = 38.16745 38.78124 38.47434
#
# Velocity S-wave (km/s) = 4.27018 4.30438 4.28732
# Velocity P-wave (km/s) = 7.58124 7.67182 7.62667
#
# Compressibility (1/GPa) = 0.01440625
#
# Stress axis : x y z
#
# Youngs Moduli (GPa) = 103.75512 86.91879 78.44402
#
# Poissons Ratio (x) = 0.32028 0.20563
# Poissons Ratio (y) = 0.38232 0.26955
# Poissons Ratio (z) = 0.27198 0.29867
#
# Static dielectric constant tensor:
#      x y z
#    x 3.855150 0.000000 0.000000 
#    y 0.000000 4.031970 0.000000 
#    z 0.000000 0.000000 3.724920 
# 
# 
# High freq. dielectric constant tensor:
#      x y z
#    x 1.829790 0.000000 0.000000 
#    y 0.000000 1.830400 0.000000 
#    z 0.000000 0.000000 1.821560 
# 
# From -- ./inp_files/15081.got.cif
#   From: 2010.03.12/outbox.cif.g09.slc.cpg/sg60_8_cif.got.tgz:15081.got - 2010.04.10 18:46:24.
