data_PCOD8247460
_publ_section_title
;
Structure prediction by ZEFSAII (Michael W. Deem and Ramdas Pophale) SiO2 
 PCOD8247460
Probable space group: P B C N
;
_chemical_formula_sum "Si O2"
_cell_formula_units_Z 40
_cell_length_a 6.416364
_cell_length_b 13.990542
_cell_length_c 22.526026
_cell_angle_alpha 90.000000
_cell_angle_beta 90.000000
_cell_angle_gamma 90.000000
_cell_volume 2022.125538
_symmetry_space_group_name_H-M "P B C N"
_symmetry_group_IT_number 60
_symmetry_cell_setting 'orthorhombic'
loop_
_space_group_symop_operation_xyz
x,y,z
1/2-x,1/2-y,1/2+z
1/2+x,1/2-y,-z
-x,y,1/2-z
-x,-y,-z
1/2+x,1/2+y,1/2-z
1/2-x,1/2+y,z
x,-y,1/2+z
loop_
_atom_site_type_symbol
_atom_site_label
_atom_site_fract_x
_atom_site_fract_y
_atom_site_fract_z
Si Si1 0.317562 0.829955 0.377269
Si Si2 0.545834 0.010587 0.816826
Si Si3 0.565824 0.540063 0.888091
Si Si4 0.740580 0.121729 0.103784
Si Si5 0.907423 0.400937 0.479886
O O1 0.458847 0.882689 0.328164
O O2 0.306246 0.717792 0.361564
O O3 0.420234 0.843299 0.442477
O O4 0.087458 0.873619 0.372185
O O5 0.500000 0.978661 0.750000
O O6 0.792217 0.012544 0.830944
O O7 0.435652 0.935256 0.860421
O O8 0.439973 0.445430 0.906539
O O9 0.702997 0.577548 0.942020
O O10 0.652035 0.156020 0.039765
O O11 0.000000 0.500000 0.500000
#
# Coordination Sequence:
#
# PCOD8247460 Si02
#       5
#     8   8   8   8   8
#     4  10  24  38  59  97 120 161 209 253 309 374
#     4  10  23  46  62  85 123 163 214 260 308 364
#     4  10  21  40  63  81 128 163 194 256 310 360
#     4  11  23  38  61  95 122 161 212 245 317 372
#     4  11  20  37  59  88 127 162 200 248 307 383
#
# _framework density 19.781165000000001
#
# number of rings (size 3 to 8) (size 9 to 14) (size 15 to 20)
#    0.000    1.600    6.000    0.600    2.800    6.400 
#    7.200    0.000    0.000    0.000    0.000    0.000 
#    0.000    0.000    0.000    0.000    0.000    0.000 
#
# Total GULP energy -495986.522070 kJ/mol
# GULP energy per Si atom -12399.663052 kJ/mol
# Density = 1.973614 g / cm^3
# Si number density = 19.781165 Si / 1000 Ang^3
#
#
#
# Elastic Constant Matrix: (Units=GPa)
#
#
# Indices 1 2 3 4 5 6 
#
# 1 119.3142 27.1544 38.9116 0.0000 0.0000 0.0000
# 2 27.1544 106.9382 0.4263 0.0000 0.0000 0.0000
# 3 38.9116 0.4263 110.7580 0.0000 0.0000 0.0000
# 4 0.0000 0.0000 0.0000 14.4946 0.0000 0.0000
# 5 0.0000 0.0000 0.0000 0.0000 23.7997 0.0000
# 6 0.0000 0.0000 0.0000 0.0000 0.0000 9.6461
#
#
#
# Elastic Compliance Matrix: (Units=1/GPa)
#
#
# Indices 1 2 3 4 5 6 
#
# 1 0.010119 -0.002555 -0.003545 0.000000 0.000000 0.000000
# 2 -0.002555 0.009997 0.000859 0.000000 0.000000 0.000000
# 3 -0.003545 0.000859 0.010271 0.000000 0.000000 0.000000
# 4 0.000000 0.000000 0.000000 0.068991 0.000000 0.000000
# 5 0.000000 0.000000 0.000000 0.000000 0.042017 0.000000
# 6 0.000000 0.000000 0.000000 0.000000 0.000000 0.103669
#
#
# Mechanical properties :
#
#
# Convention : Reuss Voigt Hill
#
# Bulk Modulus (GPa) = 50.24116 52.22168 51.23142
# Shear Modulus (GPa) = 19.07077 27.62261 23.34669
#
# Velocity S-wave (km/s) = 3.10834 3.74091 3.43920
# Velocity P-wave (km/s) = 6.19161 6.71686 6.45958
#
# Compressibility (1/GPa) = 0.01990400
#
# Stress axis : x y z
#
# Youngs Moduli (GPa) = 98.82429 100.03368 97.36265
#
# Poissons Ratio (x) = 0.25562 0.34517
# Poissons Ratio (y) = 0.25253 -0.08366
# Poissons Ratio (z) = 0.35035 -0.08596
#
# Static dielectric constant tensor:
#      x y z
#    x 3.556030 0.000000 0.000000 
#    y 0.000000 3.423420 0.000000 
#    z 0.000000 0.000000 3.729440 
# 
# 
# High freq. dielectric constant tensor:
#      x y z
#    x 1.785810 0.000000 0.000000 
#    y 0.000000 1.761300 0.000000 
#    z 0.000000 0.000000 1.754980 
# 
# From -- ./inp_files/23525.got.cif
#   From: 2010.03.12/outbox.cif.g09.slc.cpg/sg60_12_cif.got.tgz:23525.got - 2010.04.10 18:46:24.
