data_PCOD8247882
_publ_section_title
;
Structure prediction by ZEFSAII (Michael W. Deem and Ramdas Pophale) SiO2 
 PCOD8247882
Probable space group: P B C N
;
_chemical_formula_sum "Si O2"
_cell_formula_units_Z 40
_cell_length_a 10.789368
_cell_length_b 9.715432
_cell_length_c 17.308394
_cell_angle_alpha 90.000000
_cell_angle_beta 90.000000
_cell_angle_gamma 90.000000
_cell_volume 1814.324208
_symmetry_space_group_name_H-M "P B C N"
_symmetry_group_IT_number 60
_symmetry_cell_setting 'orthorhombic'
loop_
_space_group_symop_operation_xyz
x,y,z
1/2-x,1/2-y,1/2+z
1/2+x,1/2-y,-z
-x,y,1/2-z
-x,-y,-z
1/2+x,1/2+y,1/2-z
1/2-x,1/2+y,z
x,-y,1/2+z
loop_
_atom_site_type_symbol
_atom_site_label
_atom_site_fract_x
_atom_site_fract_y
_atom_site_fract_z
Si Si1 0.818668 0.095552 0.743915
Si Si2 0.361114 0.650386 0.008762
Si Si3 0.627932 0.109609 0.207773
Si Si4 0.512215 0.530483 0.874901
Si Si5 0.132378 0.453554 0.970598
O O1 0.795032 0.247273 0.709427
O O2 0.692008 0.012666 0.756126
O O3 0.883916 0.112815 0.826880
O O4 0.898750 0.000495 0.683860
O O5 0.464921 0.629409 0.942862
O O6 0.237772 0.563391 0.991905
O O7 0.326774 0.810869 0.011327
O O8 0.426323 0.607775 0.089845
O O9 0.500000 0.140970 0.250000
O O10 0.617381 0.060592 0.120551
O O11 0.000000 0.500000 0.000000
#
# Coordination Sequence:
#
# PCOD8247882 Si02
#       5
#     8   8   8   8   8
#     4  11  23  45  71  95 137 174 225 278 338 399
#     4  11  25  44  71  96 142 177 229 280 342 404
#     4  12  24  46  68  99 136 178 225 279 336 401
#     4  10  22  44  71  96 133 181 219 277 343 393
#     4  12  27  44  69 103 137 181 233 278 343 408
#
# _framework density 22.046776999999999
#
# number of rings (size 3 to 8) (size 9 to 14) (size 15 to 20)
#    0.000    0.800    6.000    0.000    8.400    3.200 
#    3.600    0.000    0.000    0.000    0.000    0.000 
#    0.000    0.000    0.000    0.000    0.000    0.000 
#
# Total GULP energy -495979.466121 kJ/mol
# GULP energy per Si atom -12399.486653 kJ/mol
# Density = 2.199660 g / cm^3
# Si number density = 22.046777 Si / 1000 Ang^3
#
#
#
# Elastic Constant Matrix: (Units=GPa)
#
#
# Indices 1 2 3 4 5 6 
#
# 1 93.2771 83.1938 33.0961 0.0000 0.0000 0.0000
# 2 83.1938 165.8322 35.4794 0.0000 0.0000 0.0000
# 3 33.0961 35.4794 85.1617 0.0000 0.0000 0.0000
# 4 0.0000 0.0000 0.0000 28.1979 0.0000 0.0000
# 5 0.0000 0.0000 0.0000 0.0000 35.3116 0.0000
# 6 0.0000 0.0000 0.0000 0.0000 0.0000 35.9348
#
#
#
# Elastic Compliance Matrix: (Units=1/GPa)
#
#
# Indices 1 2 3 4 5 6 
#
# 1 0.020608 -0.009469 -0.004064 0.000000 0.000000 0.000000
# 2 -0.009469 0.010971 -0.000891 0.000000 0.000000 0.000000
# 3 -0.004064 -0.000891 0.013693 0.000000 0.000000 0.000000
# 4 0.000000 0.000000 0.000000 0.035464 0.000000 0.000000
# 5 0.000000 0.000000 0.000000 0.000000 0.028319 0.000000
# 6 0.000000 0.000000 0.000000 0.000000 0.000000 0.027828
#
#
# Mechanical properties :
#
#
# Convention : Reuss Voigt Hill
#
# Bulk Modulus (GPa) = 60.88456 71.97885 66.43170
# Shear Modulus (GPa) = 29.20457 32.72229 30.96343
#
# Velocity S-wave (km/s) = 3.64354 3.85674 3.75165
# Velocity P-wave (km/s) = 6.73621 7.24925 6.99744
#
# Compressibility (1/GPa) = 0.01642453
#
# Stress axis : x y z
#
# Youngs Moduli (GPa) = 48.52426 91.14767 73.03088
#
# Poissons Ratio (x) = 0.86309 0.29679
# Poissons Ratio (y) = 0.45948 0.06505
# Poissons Ratio (z) = 0.19720 0.08119
#
# Static dielectric constant tensor:
#      x y z
#    x 4.091940 0.000000 0.000000 
#    y 0.000000 3.923340 0.000000 
#    z 0.000000 0.000000 6.235740 
# 
# 
# High freq. dielectric constant tensor:
#      x y z
#    x 1.866830 0.000000 0.000000 
#    y 0.000000 1.858760 0.000000 
#    z 0.000000 0.000000 1.877790 
# 
# From -- ./inp_files/19846.got.cif
#   From: 2010.03.12/outbox.cif.g09.slc.cpg/sg60_10_cif.got.tgz:19846.got - 2010.04.10 18:46:24.
