data_PCOD8247629
_publ_section_title
;
Structure prediction by ZEFSAII (Michael W. Deem and Ramdas Pophale) SiO2 
 PCOD8247629
Probable space group: P B C N
;
_chemical_formula_sum "Si O2"
_cell_formula_units_Z 56
_cell_length_a 21.317515
_cell_length_b 7.973915
_cell_length_c 14.497719
_cell_angle_alpha 90.000000
_cell_angle_beta 90.000000
_cell_angle_gamma 90.000000
_cell_volume 2464.381029
_symmetry_space_group_name_H-M "P B C N"
_symmetry_group_IT_number 60
_symmetry_cell_setting 'orthorhombic'
loop_
_space_group_symop_operation_xyz
x,y,z
1/2-x,1/2-y,1/2+z
1/2+x,1/2-y,-z
-x,y,1/2-z
-x,-y,-z
1/2+x,1/2+y,1/2-z
1/2-x,1/2+y,z
x,-y,1/2+z
loop_
_atom_site_type_symbol
_atom_site_label
_atom_site_fract_x
_atom_site_fract_y
_atom_site_fract_z
Si Si1 0.106690 0.141697 0.397421
Si Si2 0.973695 0.151036 0.436694
Si Si3 0.714588 0.874667 0.429569
Si Si4 0.119582 0.246475 0.202435
Si Si5 0.119957 0.747666 0.428179
Si Si6 0.426630 0.884236 0.737412
Si Si7 0.842383 0.729798 0.420567
O O1 0.140592 0.177521 0.301361
O O2 0.127278 0.263025 0.479197
O O3 0.035331 0.206831 0.381830
O O4 0.119007 0.948795 0.421080
O O5 0.923168 0.111683 0.355172
O O6 0.938855 0.290672 0.501646
O O7 0.000000 0.000000 0.500000
O O8 0.685241 0.762621 0.349047
O O9 0.686249 0.813007 0.528627
O O10 0.789859 0.875378 0.419180
O O11 0.697504 0.063992 0.411275
O O12 0.082134 0.423136 0.208208
O O13 0.109913 0.653386 0.332307
O O14 0.500000 0.838857 0.750000
O O15 0.395972 0.762821 0.658780
#
# Coordination Sequence:
#
# PCOD8247629 Si02
#       7
#     8   8   8   8   8   8   8
#     4  11  21  36  61  90 119 160 203 253 314 371
#     4   9  19  36  59  90 124 161 205 255 310 372
#     4  10  23  43  60  86 119 161 211 258 320 379
#     4  10  22  39  62  90 127 166 210 266 319 384
#     4  10  22  37  59  87 124 161 202 256 309 382
#     4  11  23  40  63  96 131 169 214 267 331 392
#     4  11  24  41  65  87 121 164 209 267 317 388
#
# _framework density 22.723759999999999
#
# number of rings (size 3 to 8) (size 9 to 14) (size 15 to 20)
#    0.000    1.714    0.000    3.857    0.000    8.000 
#    0.000    8.571    0.000    0.000    0.000    0.000 
#    0.000    0.000    0.000    0.000    0.000    0.000 
#
# Total GULP energy -693847.951205 kJ/mol
# GULP energy per Si atom -12390.141986 kJ/mol
# Density = 2.267204 g / cm^3
# Si number density = 22.723760 Si / 1000 Ang^3
#
#
#
# Elastic Constant Matrix: (Units=GPa)
#
#
# Indices 1 2 3 4 5 6 
#
# 1 81.4240 5.3708 22.9755 0.0000 0.0000 0.0000
# 2 5.3708 38.7061 9.3608 0.0000 0.0000 0.0000
# 3 22.9755 9.3608 158.0770 0.0000 0.0000 0.0000
# 4 0.0000 0.0000 0.0000 33.6695 0.0000 0.0000
# 5 0.0000 0.0000 0.0000 0.0000 26.1491 0.0000
# 6 0.0000 0.0000 0.0000 0.0000 0.0000 22.3280
#
#
#
# Elastic Compliance Matrix: (Units=1/GPa)
#
#
# Indices 1 2 3 4 5 6 
#
# 1 0.012876 -0.001353 -0.001791 0.000000 0.000000 0.000000
# 2 -0.001353 0.026353 -0.001364 0.000000 0.000000 0.000000
# 3 -0.001791 -0.001364 0.006667 0.000000 0.000000 0.000000
# 4 0.000000 0.000000 0.000000 0.029700 0.000000 0.000000
# 5 0.000000 0.000000 0.000000 0.000000 0.038242 0.000000
# 6 0.000000 0.000000 0.000000 0.000000 0.000000 0.044787
#
#
# Mechanical properties :
#
#
# Convention : Reuss Voigt Hill
#
# Bulk Modulus (GPa) = 27.11537 39.29123 33.20330
# Shear Modulus (GPa) = 27.78757 32.46265 30.12511
#
# Velocity S-wave (km/s) = 3.50071 3.78375 3.64498
# Velocity P-wave (km/s) = 5.31963 6.03468 5.68840
#
# Compressibility (1/GPa) = 0.03687946
#
# Stress axis : x y z
#
# Youngs Moduli (GPa) = 77.66311 37.94579 149.98915
#
# Poissons Ratio (x) = 0.05136 0.26868
# Poissons Ratio (y) = 0.10511 0.20456
# Poissons Ratio (z) = 0.13912 0.05175
#
# Static dielectric constant tensor:
#      x y z
#    x 4.561390 0.000000 0.000000 
#    y 0.000000 3.860500 0.000000 
#    z 0.000000 0.000000 4.439820 
# 
# 
# High freq. dielectric constant tensor:
#      x y z
#    x 1.895920 0.000000 0.000000 
#    y 0.000000 1.881480 0.000000 
#    z 0.000000 0.000000 1.910050 
# 
# From -- ./inp_files/17716.got.cif
#   From: 2010.03.12/outbox.cif.g09.slc.cpg/sg60_9_cif.got.tgz:17716.got - 2010.04.10 18:46:24.
