data_PCOD8247744
_publ_section_title
;
Structure prediction by ZEFSAII (Michael W. Deem and Ramdas Pophale) SiO2 
 PCOD8247744
Probable space group: P B C N
;
_chemical_formula_sum "Si O2"
_cell_formula_units_Z 48
_cell_length_a 8.744863
_cell_length_b 27.321917
_cell_length_c 9.494355
_cell_angle_alpha 90.000000
_cell_angle_beta 90.000000
_cell_angle_gamma 90.000000
_cell_volume 2268.452260
_symmetry_space_group_name_H-M "P B C N"
_symmetry_group_IT_number 60
_symmetry_cell_setting 'orthorhombic'
loop_
_space_group_symop_operation_xyz
x,y,z
1/2-x,1/2-y,1/2+z
1/2+x,1/2-y,-z
-x,y,1/2-z
-x,-y,-z
1/2+x,1/2+y,1/2-z
1/2-x,1/2+y,z
x,-y,1/2+z
loop_
_atom_site_type_symbol
_atom_site_label
_atom_site_fract_x
_atom_site_fract_y
_atom_site_fract_z
Si Si1 0.246229 0.903064 0.919706
Si Si2 0.000000 0.841369 0.750000
Si Si3 0.738800 0.218029 0.392067
Si Si4 0.887173 0.000935 0.630618
Si Si5 0.673842 0.799421 0.201133
Si Si6 0.324350 0.603408 0.745630
Si Si7 0.000000 0.350856 0.750000
O O1 0.104492 0.874780 0.849643
O O2 0.406028 0.883511 0.860667
O O3 0.244684 0.960686 0.883662
O O4 0.238707 0.899437 0.087646
O O5 0.098709 0.806671 0.646813
O O6 0.727035 0.271267 0.319337
O O7 0.710527 0.228779 0.556223
O O8 0.605593 0.182483 0.344654
O O9 0.807324 0.052953 0.665973
O O10 0.000000 0.983542 0.750000
O O11 0.000000 0.000000 0.500000
O O12 0.500000 0.797924 0.250000
O O13 0.726331 0.855163 0.177253
O O14 0.500000 0.619331 0.750000
#
# Coordination Sequence:
#
# PCOD8247744 Si02
#       7
#     8   4   8   8   8   8   4
#     4  11  21  42  66  96 136 176 229 284 352 416
#     4  10  22  40  70  96 128 180 234 282 340 414
#     4  11  26  44  69  99 135 182 235 284 353 417
#     4  11  21  39  67 100 130 174 231 283 343 420
#     4  12  28  45  70 101 142 182 236 290 355 422
#     4  11  24  41  69  98 133 179 231 290 346 413
#     4  10  26  42  66 100 140 180 222 292 354 422
#
# _framework density 21.159803
#
# number of rings (size 3 to 8) (size 9 to 14) (size 15 to 20)
#    0.000    1.000    5.000    2.000    8.167    0.000 
#    1.500    0.833    0.000    0.000    0.000    0.000 
#    0.000    0.000    0.000    0.000    0.000    0.000 
#
# Total GULP energy -595140.241836 kJ/mol
# GULP energy per Si atom -12398.755038 kJ/mol
# Density = 2.111164 g / cm^3
# Si number density = 21.159803 Si / 1000 Ang^3
#
#
#
# Elastic Constant Matrix: (Units=GPa)
#
#
# Indices 1 2 3 4 5 6 
#
# 1 112.3067 50.7372 41.4426 0.0000 0.0000 0.0000
# 2 50.7372 130.0414 35.6049 0.0000 0.0000 0.0000
# 3 41.4426 35.6049 132.1039 0.0000 0.0000 0.0000
# 4 0.0000 0.0000 0.0000 33.8875 0.0000 0.0000
# 5 0.0000 0.0000 0.0000 0.0000 34.0809 0.0000
# 6 0.0000 0.0000 0.0000 0.0000 0.0000 9.2986
#
#
#
# Elastic Compliance Matrix: (Units=1/GPa)
#
#
# Indices 1 2 3 4 5 6 
#
# 1 0.011587 -0.003806 -0.002609 0.000000 0.000000 0.000000
# 2 -0.003806 0.009553 -0.001381 0.000000 0.000000 0.000000
# 3 -0.002609 -0.001381 0.008760 0.000000 0.000000 0.000000
# 4 0.000000 0.000000 0.000000 0.029509 0.000000 0.000000
# 5 0.000000 0.000000 0.000000 0.000000 0.029342 0.000000
# 6 0.000000 0.000000 0.000000 0.000000 0.000000 0.107543
#
#
# Mechanical properties :
#
#
# Convention : Reuss Voigt Hill
#
# Bulk Modulus (GPa) = 69.89072 70.00235 69.94654
# Shear Modulus (GPa) = 23.07818 31.89789 27.48804
#
# Velocity S-wave (km/s) = 3.30610 3.88683 3.60817
# Velocity P-wave (km/s) = 6.90474 7.30054 7.10539
#
# Compressibility (1/GPa) = 0.01430805
#
# Stress axis : x y z
#
# Youngs Moduli (GPa) = 86.30729 104.67978 114.15038
#
# Poissons Ratio (x) = 0.39844 0.29781
# Poissons Ratio (y) = 0.32851 0.15760
# Poissons Ratio (z) = 0.22517 0.14453
#
# Static dielectric constant tensor:
#      x y z
#    x 3.772080 0.000000 0.000000 
#    y 0.000000 4.156300 0.000000 
#    z 0.000000 0.000000 3.876410 
# 
# 
# High freq. dielectric constant tensor:
#      x y z
#    x 1.818030 0.000000 0.000000 
#    y 0.000000 1.843830 0.000000 
#    z 0.000000 0.000000 1.843820 
# 
# From -- ./inp_files/4256.got.cif
#   From: 2010.03.12/outbox.cif.g09.slc.cpg/sg60_3_cif.got.tgz:4256.got - 2010.04.10 18:46:24.
