data_PCOD8247494
_publ_section_title
;
Structure prediction by ZEFSAII (Michael W. Deem and Ramdas Pophale) SiO2 
 PCOD8247494
Probable space group: P B C N
;
_chemical_formula_sum "Si O2"
_cell_formula_units_Z 60
_cell_length_a 18.172545
_cell_length_b 10.150185
_cell_length_c 15.709481
_cell_angle_alpha 90.000000
_cell_angle_beta 90.000000
_cell_angle_gamma 90.000000
_cell_volume 2897.687506
_symmetry_space_group_name_H-M "P B C N"
_symmetry_group_IT_number 60
_symmetry_cell_setting 'orthorhombic'
loop_
_space_group_symop_operation_xyz
x,y,z
1/2-x,1/2-y,1/2+z
1/2+x,1/2-y,-z
-x,y,1/2-z
-x,-y,-z
1/2+x,1/2+y,1/2-z
1/2-x,1/2+y,z
x,-y,1/2+z
loop_
_atom_site_type_symbol
_atom_site_label
_atom_site_fract_x
_atom_site_fract_y
_atom_site_fract_z
Si Si1 0.155863 0.265140 0.193825
Si Si2 0.364143 0.048292 0.250048
Si Si3 0.287550 0.391080 0.446213
Si Si4 0.270540 0.644739 0.346307
Si Si5 0.055523 0.846509 0.078628
Si Si6 0.000000 0.283995 0.750000
Si Si7 0.431233 0.648109 0.043790
Si Si8 0.700644 0.796259 0.901369
O O1 0.124375 0.393737 0.238937
O O2 0.171038 0.157923 0.268765
O O3 0.091681 0.224286 0.129166
O O4 0.234297 0.285967 0.145349
O O5 0.302472 0.069951 0.319285
O O6 0.436573 0.119926 0.284596
O O7 0.341845 0.105713 0.159476
O O8 0.301333 0.541631 0.415547
O O9 0.251831 0.290316 0.378295
O O10 0.367462 0.340400 0.473388
O O11 0.233462 0.391389 0.526749
O O12 0.027721 0.805257 0.172131
O O13 0.139900 0.803937 0.061183
O O14 0.051605 0.002530 0.075651
O O15 0.003394 0.789828 0.002464
#
# Coordination Sequence:
#
# PCOD8247494 Si02
#       8
#     8   8   8   8   8   4   8   8
#     4  10  22  39  60  93 123 169 207 266 317 380
#     4  10  21  41  58  90 121 168 206 253 318 385
#     4  11  22  38  62  98 121 164 209 272 315 382
#     4  11  22  37  62  91 129 157 213 265 315 372
#     4  10  21  43  61  96 119 172 207 262 320 392
#     4  10  22  42  66  82 128 168 210 256 318 388
#     4  10  23  38  64  88 130 158 215 256 324 385
#     4   9  22  36  65  83 125 159 209 257 319 374
#
# _framework density 20.706166
#
# number of rings (size 3 to 8) (size 9 to 14) (size 15 to 20)
#    0.000    1.867    1.333    1.600    9.333    2.133 
#    2.400    3.333    0.000    0.000    0.000    0.000 
#    0.000    0.000    0.000    0.000    0.000    0.000 
#
# Total GULP energy -743805.297726 kJ/mol
# GULP energy per Si atom -12396.754962 kJ/mol
# Density = 2.065904 g / cm^3
# Si number density = 20.706166 Si / 1000 Ang^3
#
#
#
# Elastic Constant Matrix: (Units=GPa)
#
#
# Indices 1 2 3 4 5 6 
#
# 1 54.8718 10.4478 19.8504 0.0000 0.0000 0.0000
# 2 10.4478 73.2654 16.6811 0.0000 0.0000 0.0000
# 3 19.8504 16.6811 72.5243 0.0000 0.0000 0.0000
# 4 0.0000 0.0000 0.0000 28.5413 0.0000 0.0000
# 5 0.0000 0.0000 0.0000 0.0000 31.6856 0.0000
# 6 0.0000 0.0000 0.0000 0.0000 0.0000 25.9758
#
#
#
# Elastic Compliance Matrix: (Units=1/GPa)
#
#
# Indices 1 2 3 4 5 6 
#
# 1 0.020433 -0.001731 -0.005195 0.000000 0.000000 0.000000
# 2 -0.001731 0.014550 -0.002873 0.000000 0.000000 0.000000
# 3 -0.005195 -0.002873 0.015871 0.000000 0.000000 0.000000
# 4 0.000000 0.000000 0.000000 0.035037 0.000000 0.000000
# 5 0.000000 0.000000 0.000000 0.000000 0.031560 0.000000
# 6 0.000000 0.000000 0.000000 0.000000 0.000000 0.038497
#
#
# Mechanical properties :
#
#
# Convention : Reuss Voigt Hill
#
# Bulk Modulus (GPa) = 31.99258 32.73557 32.36408
# Shear Modulus (GPa) = 26.88687 27.48601 27.18644
#
# Velocity S-wave (km/s) = 3.60737 3.64735 3.62741
# Velocity P-wave (km/s) = 5.73020 5.79495 5.76266
#
# Compressibility (1/GPa) = 0.03125724
#
# Stress axis : x y z
#
# Youngs Moduli (GPa) = 48.94023 68.72881 63.00788
#
# Poissons Ratio (x) = 0.11898 0.32730
# Poissons Ratio (y) = 0.08472 0.18101
# Poissons Ratio (z) = 0.25422 0.19744
#
# Static dielectric constant tensor:
#      x y z
#    x 4.013770 0.000000 0.000000 
#    y 0.000000 3.548820 0.000000 
#    z 0.000000 0.000000 3.852270 
# 
# 
# High freq. dielectric constant tensor:
#      x y z
#    x 1.809820 0.000000 0.000000 
#    y 0.000000 1.799640 0.000000 
#    z 0.000000 0.000000 1.817090 
# 
# From -- ./inp_files/20903.got.cif
#   From: 2010.03.12/outbox.cif.g09.slc.cpg/sg60_11_cif.got.tgz:20903.got - 2010.04.10 18:46:24.
