data_PCOD8247982
_publ_section_title
;
Structure prediction by ZEFSAII (Michael W. Deem and Ramdas Pophale) SiO2 
 PCOD8247982
Probable space group: P B C N
;
_chemical_formula_sum "Si O2"
_cell_formula_units_Z 48
_cell_length_a 13.425717
_cell_length_b 8.332070
_cell_length_c 20.753244
_cell_angle_alpha 90.000000
_cell_angle_beta 90.000000
_cell_angle_gamma 90.000000
_cell_volume 2321.541174
_symmetry_space_group_name_H-M "P B C N"
_symmetry_group_IT_number 60
_symmetry_cell_setting 'orthorhombic'
loop_
_space_group_symop_operation_xyz
x,y,z
1/2-x,1/2-y,1/2+z
1/2+x,1/2-y,-z
-x,y,1/2-z
-x,-y,-z
1/2+x,1/2+y,1/2-z
1/2-x,1/2+y,z
x,-y,1/2+z
loop_
_atom_site_type_symbol
_atom_site_label
_atom_site_fract_x
_atom_site_fract_y
_atom_site_fract_z
Si Si1 0.872553 0.651465 0.925246
Si Si2 0.284488 0.191402 0.287790
Si Si3 0.548714 0.640823 0.039433
Si Si4 0.220111 0.649289 0.006977
Si Si5 0.612938 0.903450 0.274848
Si Si6 0.323076 0.539801 0.876067
O O1 0.880593 0.609182 0.851045
O O2 0.980657 0.705342 0.949536
O O3 0.796944 0.799089 0.937007
O O4 0.841719 0.502057 0.968878
O O5 0.185807 0.268151 0.255165
O O6 0.350982 0.330737 0.320747
O O7 0.350536 0.085651 0.239225
O O8 0.258501 0.078759 0.347588
O O9 0.647560 0.699212 0.002939
O O10 0.577718 0.560983 0.108044
O O11 0.500000 0.500000 0.000000
O O12 0.278081 0.617987 0.940612
O O13 0.500000 0.876861 0.250000
#
# Coordination Sequence:
#
# PCOD8247982 Si02
#       6
#     8   8   8   8   8   8
#     4  12  24  42  67  98 140 173 226 277 338 412
#     4  10  23  42  69  90 130 179 224 278 326 403
#     4  12  24  39  63 103 131 172 216 271 344 410
#     4  12  23  42  66  99 137 176 210 285 350 400
#     4  11  25  45  66  97 131 182 232 273 339 395
#     4  11  20  41  66  91 129 166 225 267 341 388
#
# _framework density 20.675920000000001
#
# number of rings (size 3 to 8) (size 9 to 14) (size 15 to 20)
#    0.000    0.667    5.000    2.500    2.333    1.333 
#    0.000    8.333    0.000    0.000    0.000    0.000 
#    0.000    0.000    0.000    0.000    0.000    0.000 
#
# Total GULP energy -595108.036369 kJ/mol
# GULP energy per Si atom -12398.084091 kJ/mol
# Density = 2.062886 g / cm^3
# Si number density = 20.675920 Si / 1000 Ang^3
#
#
#
# Elastic Constant Matrix: (Units=GPa)
#
#
# Indices 1 2 3 4 5 6 
#
# 1 101.0897 35.8988 39.2926 0.0000 0.0000 0.0000
# 2 35.8988 96.1551 36.0653 0.0000 0.0000 0.0000
# 3 39.2926 36.0653 110.1997 0.0000 0.0000 0.0000
# 4 0.0000 0.0000 0.0000 42.2509 0.0000 0.0000
# 5 0.0000 0.0000 0.0000 0.0000 29.6626 0.0000
# 6 0.0000 0.0000 0.0000 0.0000 0.0000 47.8365
#
#
#
# Elastic Compliance Matrix: (Units=1/GPa)
#
#
# Indices 1 2 3 4 5 6 
#
# 1 0.012378 -0.003381 -0.003307 0.000000 0.000000 0.000000
# 2 -0.003381 0.012779 -0.002977 0.000000 0.000000 0.000000
# 3 -0.003307 -0.002977 0.011228 0.000000 0.000000 0.000000
# 4 0.000000 0.000000 0.000000 0.023668 0.000000 0.000000
# 5 0.000000 0.000000 0.000000 0.000000 0.033712 0.000000
# 6 0.000000 0.000000 0.000000 0.000000 0.000000 0.020905
#
#
# Mechanical properties :
#
#
# Convention : Reuss Voigt Hill
#
# Bulk Modulus (GPa) = 58.63247 58.88421 58.75834
# Shear Modulus (GPa) = 35.79508 37.02919 36.41213
#
# Velocity S-wave (km/s) = 4.16534 4.23653 4.20109
# Velocity P-wave (km/s) = 7.18003 7.24378 7.21198
#
# Compressibility (1/GPa) = 0.01705539
#
# Stress axis : x y z
#
# Youngs Moduli (GPa) = 80.78677 78.25612 89.06501
#
# Poissons Ratio (x) = 0.26458 0.29455
# Poissons Ratio (y) = 0.27313 0.26511
# Poissons Ratio (z) = 0.26717 0.23293
#
# Static dielectric constant tensor:
#      x y z
#    x 3.941740 0.000000 0.000000 
#    y 0.000000 3.940240 0.000000 
#    z 0.000000 0.000000 3.498980 
# 
# 
# High freq. dielectric constant tensor:
#      x y z
#    x 1.803500 0.000000 0.000000 
#    y 0.000000 1.831430 0.000000 
#    z 0.000000 0.000000 1.809730 
# 
# From -- ./inp_files/24238.got.cif
#   From: 2010.03.12/outbox.cif.g09.slc.cpg/sg60_13_cif.got.tgz:24238.got - 2010.04.10 18:46:24.
