data_PCOD8247382
_publ_section_title
;
Structure prediction by ZEFSAII (Michael W. Deem and Ramdas Pophale) SiO2 
 PCOD8247382
Probable space group: P B C N
;
_chemical_formula_sum "Si O2"
_cell_formula_units_Z 60
_cell_length_a 15.532583
_cell_length_b 20.589341
_cell_length_c 8.959940
_cell_angle_alpha 90.000000
_cell_angle_beta 90.000000
_cell_angle_gamma 90.000000
_cell_volume 2865.439418
_symmetry_space_group_name_H-M "P B C N"
_symmetry_group_IT_number 60
_symmetry_cell_setting 'orthorhombic'
loop_
_space_group_symop_operation_xyz
x,y,z
1/2-x,1/2-y,1/2+z
1/2+x,1/2-y,-z
-x,y,1/2-z
-x,-y,-z
1/2+x,1/2+y,1/2-z
1/2-x,1/2+y,z
x,-y,1/2+z
loop_
_atom_site_type_symbol
_atom_site_label
_atom_site_fract_x
_atom_site_fract_y
_atom_site_fract_z
Si Si1 0.351212 0.294897 0.400758
Si Si2 0.500000 0.502297 0.250000
Si Si3 0.669360 0.166403 0.933740
Si Si4 0.533822 0.592904 0.507991
Si Si5 0.869897 0.823682 0.435341
Si Si6 0.403532 0.928784 0.571896
Si Si7 0.651229 0.805454 0.097988
Si Si8 0.601833 0.049161 0.103874
O O1 0.365033 0.221560 0.454266
O O2 0.404845 0.345081 0.501170
O O3 0.386761 0.298865 0.232719
O O4 0.252640 0.313339 0.428037
O O5 0.552092 0.550125 0.360331
O O6 0.441721 0.454077 0.352008
O O7 0.771299 0.154314 0.943110
O O8 0.632851 0.185085 0.771873
O O9 0.628255 0.099185 0.977239
O O10 0.434124 0.617299 0.522050
O O11 0.884864 0.764646 0.550078
O O12 0.397358 0.857117 0.505218
O O13 0.356505 0.933869 0.734222
O O14 0.499588 0.949890 0.608634
O O15 0.363696 0.978815 0.451041
#
# Coordination Sequence:
#
# PCOD8247382 Si02
#       8
#     8   4   8   8   8   8   8   8
#     4  10  21  40  62  86 121 156 200 244 300 348
#     4  10  24  42  64  90 124 150 208 250 300 350
#     4  10  22  38  59  91 120 154 198 251 293 356
#     4  11  22  44  64  90 119 164 198 254 295 366
#     4  10  21  40  62  86 121 156 200 244 300 348
#     4  10  21  39  60  84 117 155 196 240 294 352
#     4  10  22  38  59  91 120 154 198 251 293 356
#     4  10  21  39  60  84 117 155 196 240 294 352
#
# _framework density 20.939195999999999
#
# number of rings (size 3 to 8) (size 9 to 14) (size 15 to 20)
#    0.000    1.867    1.333    1.600    3.733    2.667 
#    4.800    0.000    0.000    0.000    0.000    0.000 
#    0.000    0.000    0.000    0.000    0.000    0.000 
#
# Total GULP energy -743828.746157 kJ/mol
# GULP energy per Si atom -12397.145769 kJ/mol
# Density = 2.089154 g / cm^3
# Si number density = 20.939196 Si / 1000 Ang^3
#
#
#
# Elastic Constant Matrix: (Units=GPa)
#
#
# Indices 1 2 3 4 5 6 
#
# 1 34.8828 23.5156 18.6475 0.0000 0.0000 0.0000
# 2 23.5156 96.2392 40.2901 0.0000 0.0000 0.0000
# 3 18.6475 40.2901 119.0432 0.0000 0.0000 0.0000
# 4 0.0000 0.0000 0.0000 40.9568 0.0000 0.0000
# 5 0.0000 0.0000 0.0000 0.0000 21.0869 0.0000
# 6 0.0000 0.0000 0.0000 0.0000 0.0000 17.5530
#
#
#
# Elastic Compliance Matrix: (Units=1/GPa)
#
#
# Indices 1 2 3 4 5 6 
#
# 1 0.035238 -0.007339 -0.003036 0.000000 0.000000 0.000000
# 2 -0.007339 0.013635 -0.003465 0.000000 0.000000 0.000000
# 3 -0.003036 -0.003465 0.010049 0.000000 0.000000 0.000000
# 4 0.000000 0.000000 0.000000 0.024416 0.000000 0.000000
# 5 0.000000 0.000000 0.000000 0.000000 0.047423 0.000000
# 6 0.000000 0.000000 0.000000 0.000000 0.000000 0.056970
#
#
# Mechanical properties :
#
#
# Convention : Reuss Voigt Hill
#
# Bulk Modulus (GPa) = 32.00925 46.11905 39.06415
# Shear Modulus (GPa) = 22.14111 27.10014 24.62062
#
# Velocity S-wave (km/s) = 3.25530 3.60144 3.43274
# Velocity P-wave (km/s) = 5.42671 6.27431 5.86584
#
# Compressibility (1/GPa) = 0.03124097
#
# Stress axis : x y z
#
# Youngs Moduli (GPa) = 28.37851 73.34233 99.51643
#
# Poissons Ratio (x) = 0.53828 0.30212
# Poissons Ratio (y) = 0.20828 0.34482
# Poissons Ratio (z) = 0.08615 0.25413
#
# Static dielectric constant tensor:
#      x y z
#    x 3.494240 0.000000 0.000000 
#    y 0.000000 3.807830 0.000000 
#    z 0.000000 0.000000 4.159060 
# 
# 
# High freq. dielectric constant tensor:
#      x y z
#    x 1.785450 0.000000 0.000000 
#    y 0.000000 1.831180 0.000000 
#    z 0.000000 0.000000 1.837140 
# 
# From -- ./inp_files/6934.got.cif
#   From: 2010.03.12/outbox.cif.g09.slc.cpg/sg60_4_cif.got.tgz:6934.got - 2010.04.10 18:46:24.
