data_PCOD8247970
_publ_section_title
;
Structure prediction by ZEFSAII (Michael W. Deem and Ramdas Pophale) SiO2 
 PCOD8247970
Probable space group: P B C N
;
_chemical_formula_sum "Si O2"
_cell_formula_units_Z 32
_cell_length_a 9.021778
_cell_length_b 29.714941
_cell_length_c 5.136610
_cell_angle_alpha 90.000000
_cell_angle_beta 90.000000
_cell_angle_gamma 90.000000
_cell_volume 1377.030632
_symmetry_space_group_name_H-M "P B C N"
_symmetry_group_IT_number 60
_symmetry_cell_setting 'orthorhombic'
loop_
_space_group_symop_operation_xyz
x,y,z
1/2-x,1/2-y,1/2+z
1/2+x,1/2-y,-z
-x,y,1/2-z
-x,-y,-z
1/2+x,1/2+y,1/2-z
1/2-x,1/2+y,z
x,-y,1/2+z
loop_
_atom_site_type_symbol
_atom_site_label
_atom_site_fract_x
_atom_site_fract_y
_atom_site_fract_z
Si Si1 0.500000 0.740294 0.250000
Si Si2 0.000000 0.700592 0.250000
Si Si3 0.169158 0.519231 0.531286
Si Si4 0.796589 0.159678 0.306199
Si Si5 0.158807 0.896182 0.180473
O O1 0.457005 0.770258 0.497539
O O2 0.365086 0.709029 0.158400
O O3 0.866388 0.666839 0.190837
O O4 0.246724 0.511736 0.252832
O O5 0.202738 0.570279 0.618626
O O6 0.000000 0.500000 0.500000
O O7 0.788624 0.134719 0.582286
O O8 0.881603 0.132565 0.077880
O O9 0.000000 0.919831 0.250000
#
# Coordination Sequence:
#
# PCOD8247970 Si02
#       5
#     4   4   8   8   8
#     4  12  22  46  66  96 140 176 228 278 340 394
#     4  12  26  40  68 104 132 180 228 284 334 392
#     4  10  23  42  66  96 130 170 215 274 338 396
#     4  12  25  44  69  99 137 178 229 276 336 398
#     4  12  24  44  69  96 135 181 223 274 335 408
#
# _framework density 23.238409000000001
#
# number of rings (size 3 to 8) (size 9 to 14) (size 15 to 20)
#    0.000    0.500    2.500    6.000    0.000    7.000 
#    0.000    0.000    0.000    0.000    0.000    0.000 
#    0.000    0.000    0.000    0.000    0.000    0.000 
#
# Total GULP energy -396473.532995 kJ/mol
# GULP energy per Si atom -12389.797906 kJ/mol
# Density = 2.318552 g / cm^3
# Si number density = 23.238409 Si / 1000 Ang^3
#
#
#
# Elastic Constant Matrix: (Units=GPa)
#
#
# Indices 1 2 3 4 5 6 
#
# 1 98.6322 31.1703 11.4676 0.0000 0.0000 0.0000
# 2 31.1703 90.3383 61.1771 0.0000 0.0000 0.0000
# 3 11.4676 61.1771 203.9526 0.0000 0.0000 0.0000
# 4 0.0000 0.0000 0.0000 42.3411 0.0000 0.0000
# 5 0.0000 0.0000 0.0000 0.0000 22.8247 0.0000
# 6 0.0000 0.0000 0.0000 0.0000 0.0000 34.8643
#
#
#
# Elastic Compliance Matrix: (Units=1/GPa)
#
#
# Indices 1 2 3 4 5 6 
#
# 1 0.011454 -0.004412 0.000679 0.000000 0.000000 0.000000
# 2 -0.004412 0.015591 -0.004429 0.000000 0.000000 0.000000
# 3 0.000679 -0.004429 0.006193 0.000000 0.000000 0.000000
# 4 0.000000 0.000000 0.000000 0.023618 0.000000 0.000000
# 5 0.000000 0.000000 0.000000 0.000000 0.043812 0.000000
# 6 0.000000 0.000000 0.000000 0.000000 0.000000 0.028683
#
#
# Mechanical properties :
#
#
# Convention : Reuss Voigt Hill
#
# Bulk Modulus (GPa) = 59.11698 66.72815 62.92257
# Shear Modulus (GPa) = 33.04434 39.27990 36.16212
#
# Velocity S-wave (km/s) = 3.77499 4.11579 3.94907
# Velocity P-wave (km/s) = 6.67048 7.16681 6.92310
#
# Compressibility (1/GPa) = 0.01691561
#
# Stress axis : x y z
#
# Youngs Moduli (GPa) = 87.30532 64.14001 161.46575
#
# Poissons Ratio (x) = 0.28300 -0.10971
# Poissons Ratio (y) = 0.38521 0.71505
# Poissons Ratio (z) = -0.05932 0.28405
#
# Static dielectric constant tensor:
#      x y z
#    x 4.192910 0.000000 0.000000 
#    y 0.000000 4.020900 0.000000 
#    z 0.000000 0.000000 8.272220 
# 
# 
# High freq. dielectric constant tensor:
#      x y z
#    x 1.913010 0.000000 0.000000 
#    y 0.000000 1.903930 0.000000 
#    z 0.000000 0.000000 1.953750 
# 
# From -- ./inp_files/389.got.cif
#   From: 2010.03.12/outbox.cif.g09.slc.cpg/sg60_1_cif.got.tgz:389.got - 2010.04.10 18:46:24.
