data_PCOD8247878
_publ_section_title
;
Structure prediction by ZEFSAII (Michael W. Deem and Ramdas Pophale) SiO2 
 PCOD8247878
Probable space group: P B C N
;
_chemical_formula_sum "Si O2"
_cell_formula_units_Z 40
_cell_length_a 15.738681
_cell_length_b 7.568189
_cell_length_c 14.066580
_cell_angle_alpha 90.000000
_cell_angle_beta 90.000000
_cell_angle_gamma 90.000000
_cell_volume 1675.516938
_symmetry_space_group_name_H-M "P B C N"
_symmetry_group_IT_number 60
_symmetry_cell_setting 'orthorhombic'
loop_
_space_group_symop_operation_xyz
x,y,z
1/2-x,1/2-y,1/2+z
1/2+x,1/2-y,-z
-x,y,1/2-z
-x,-y,-z
1/2+x,1/2+y,1/2-z
1/2-x,1/2+y,z
x,-y,1/2+z
loop_
_atom_site_type_symbol
_atom_site_label
_atom_site_fract_x
_atom_site_fract_y
_atom_site_fract_z
Si Si1 0.059621 0.498740 0.136170
Si Si2 0.173491 0.837535 0.620543
Si Si3 0.719123 0.739476 0.585823
Si Si4 0.884516 0.584450 0.570748
Si Si5 0.157708 0.201276 0.712821
O O1 0.115344 0.325025 0.153247
O O2 0.080003 0.657570 0.209707
O O3 0.960699 0.438069 0.147277
O O4 0.074123 0.584787 0.032783
O O5 0.180895 0.857126 0.507015
O O6 0.266590 0.808179 0.662319
O O7 0.134336 0.020848 0.658358
O O8 0.823304 0.753713 0.587518
O O9 0.688801 0.939777 0.583847
O O10 0.680695 0.647986 0.679802
#
# Coordination Sequence:
#
# PCOD8247878 Si02
#       5
#     8   8   8   8   8
#     4  10  23  44  69 100 139 180 227 293 344 405
#     4  11  22  43  67  99 138 178 230 280 347 420
#     4  11  23  42  69  98 135 180 229 284 350 412
#     4  10  22  44  69  98 137 179 230 287 347 413
#     4  12  22  41  71  99 138 184 229 285 350 409
#
# _framework density 23.873228999999998
#
# number of rings (size 3 to 8) (size 9 to 14) (size 15 to 20)
#    0.000    1.200    4.000    2.400    0.000    0.800 
#    3.600    3.000    4.400    0.000    0.000    0.000 
#    0.000    0.000    0.000    0.000    0.000    0.000 
#
# Total GULP energy -495926.306843 kJ/mol
# GULP energy per Si atom -12398.157671 kJ/mol
# Density = 2.381889 g / cm^3
# Si number density = 23.873229 Si / 1000 Ang^3
#
#
#
# Elastic Constant Matrix: (Units=GPa)
#
#
# Indices 1 2 3 4 5 6 
#
# 1 117.3778 35.2230 26.2929 0.0000 0.0000 0.0000
# 2 35.2230 113.0152 40.2080 0.0000 0.0000 0.0000
# 3 26.2929 40.2080 121.5750 0.0000 0.0000 0.0000
# 4 0.0000 0.0000 0.0000 27.2617 0.0000 0.0000
# 5 0.0000 0.0000 0.0000 0.0000 32.5296 0.0000
# 6 0.0000 0.0000 0.0000 0.0000 0.0000 28.1045
#
#
#
# Elastic Compliance Matrix: (Units=1/GPa)
#
#
# Indices 1 2 3 4 5 6 
#
# 1 0.009557 -0.002542 -0.001226 0.000000 0.000000 0.000000
# 2 -0.002542 0.010705 -0.002990 0.000000 0.000000 0.000000
# 3 -0.001226 -0.002990 0.009480 0.000000 0.000000 0.000000
# 4 0.000000 0.000000 0.000000 0.036682 0.000000 0.000000
# 5 0.000000 0.000000 0.000000 0.000000 0.030741 0.000000
# 6 0.000000 0.000000 0.000000 0.000000 0.000000 0.035581
#
#
# Mechanical properties :
#
#
# Convention : Reuss Voigt Hill
#
# Bulk Modulus (GPa) = 61.63922 61.71285 61.67604
# Shear Modulus (GPa) = 32.96604 34.26209 33.61406
#
# Velocity S-wave (km/s) = 3.72005 3.79247 3.75643
# Velocity P-wave (km/s) = 6.65786 6.71442 6.68620
#
# Compressibility (1/GPa) = 0.01622344
#
# Stress axis : x y z
#
# Youngs Moduli (GPa) = 104.63457 93.41701 105.49011
#
# Poissons Ratio (x) = 0.23750 0.12934
# Poissons Ratio (y) = 0.26602 0.31547
# Poissons Ratio (z) = 0.12829 0.27936
#
# Static dielectric constant tensor:
#      x y z
#    x 4.416550 0.000000 0.000000 
#    y 0.000000 4.185350 0.000000 
#    z 0.000000 0.000000 4.469400 
# 
# 
# High freq. dielectric constant tensor:
#      x y z
#    x 1.936340 0.000000 0.000000 
#    y 0.000000 1.937960 0.000000 
#    z 0.000000 0.000000 1.960290 
# 
# From -- ./inp_files/16620.got.cif
#   From: 2010.03.12/outbox.cif.g09.slc.cpg/sg60_9_cif.got.tgz:16620.got - 2010.04.10 18:46:24.
