data_PCOD8247527
_publ_section_title
;
Structure prediction by ZEFSAII (Michael W. Deem and Ramdas Pophale) SiO2 
 PCOD8247527
Probable space group: P B C N
;
_chemical_formula_sum "Si O2"
_cell_formula_units_Z 48
_cell_length_a 11.758399
_cell_length_b 8.274101
_cell_length_c 23.083436
_cell_angle_alpha 90.000000
_cell_angle_beta 90.000000
_cell_angle_gamma 90.000000
_cell_volume 2245.791665
_symmetry_space_group_name_H-M "P B C N"
_symmetry_group_IT_number 60
_symmetry_cell_setting 'orthorhombic'
loop_
_space_group_symop_operation_xyz
x,y,z
1/2-x,1/2-y,1/2+z
1/2+x,1/2-y,-z
-x,y,1/2-z
-x,-y,-z
1/2+x,1/2+y,1/2-z
1/2-x,1/2+y,z
x,-y,1/2+z
loop_
_atom_site_type_symbol
_atom_site_label
_atom_site_fract_x
_atom_site_fract_y
_atom_site_fract_z
Si Si1 0.036238 0.991199 0.906937
Si Si2 0.902621 0.436915 0.958387
Si Si3 0.020167 0.682062 0.155508
Si Si4 0.101148 0.122466 0.289073
Si Si5 0.338197 0.568200 0.518499
Si Si6 0.339402 0.255220 0.261017
O O1 0.027455 0.167048 0.879999
O O2 0.917269 0.954498 0.940232
O O3 0.062954 0.862329 0.856199
O O4 0.140712 0.985132 0.952229
O O5 0.946697 0.453435 0.891752
O O6 0.792883 0.549317 0.965439
O O7 0.871424 0.254209 0.973853
O O8 0.000000 0.500000 0.000000
O O9 0.133221 0.719593 0.193563
O O10 0.916349 0.635352 0.198691
O O11 0.208408 0.234393 0.275811
O O12 0.000000 0.192022 0.250000
O O13 0.126742 0.939064 0.272141
#
# Coordination Sequence:
#
# PCOD8247527 Si02
#       6
#     8   8   8   8   8   8
#     4   9  20  41  66  87 125 176 207 259 324 376
#     4  11  26  41  65  98 128 171 218 267 324 388
#     4   9  20  43  65  88 132 167 208 266 320 377
#     4  11  22  41  65  95 125 168 209 265 321 376
#     4  10  24  41  66  93 131 170 217 265 324 385
#     4  10  21  41  67  91 127 169 211 264 320 378
#
# _framework density 21.373308000000002
#
# number of rings (size 3 to 8) (size 9 to 14) (size 15 to 20)
#    0.000    2.000    3.333    0.000   11.667    1.333 
#    3.000    0.000    0.000    0.000    0.000    0.000 
#    0.000    0.000    0.000    0.000    0.000    0.000 
#
# Total GULP energy -595032.665712 kJ/mol
# GULP energy per Si atom -12396.513869 kJ/mol
# Density = 2.132466 g / cm^3
# Si number density = 21.373308 Si / 1000 Ang^3
#
#
#
# Elastic Constant Matrix: (Units=GPa)
#
#
# Indices 1 2 3 4 5 6 
#
# 1 142.2491 30.9558 39.4685 0.0000 0.0000 0.0000
# 2 30.9558 37.2036 26.8001 0.0000 0.0000 0.0000
# 3 39.4685 26.8001 138.3504 0.0000 0.0000 0.0000
# 4 0.0000 0.0000 0.0000 24.9689 0.0000 0.0000
# 5 0.0000 0.0000 0.0000 0.0000 38.5929 0.0000
# 6 0.0000 0.0000 0.0000 0.0000 0.0000 37.4809
#
#
#
# Elastic Compliance Matrix: (Units=1/GPa)
#
#
# Indices 1 2 3 4 5 6 
#
# 1 0.008771 -0.006387 -0.001265 0.000000 0.000000 0.000000
# 2 -0.006387 0.035889 -0.005130 0.000000 0.000000 0.000000
# 3 -0.001265 -0.005130 0.008583 0.000000 0.000000 0.000000
# 4 0.000000 0.000000 0.000000 0.040050 0.000000 0.000000
# 5 0.000000 0.000000 0.000000 0.000000 0.025912 0.000000
# 6 0.000000 0.000000 0.000000 0.000000 0.000000 0.026680
#
#
# Mechanical properties :
#
#
# Convention : Reuss Voigt Hill
#
# Bulk Modulus (GPa) = 36.12873 56.91686 46.52279
# Shear Modulus (GPa) = 27.67428 34.91378 31.29403
#
# Velocity S-wave (km/s) = 3.60224 4.04607 3.83059
# Velocity P-wave (km/s) = 5.85166 6.96529 6.43262
#
# Compressibility (1/GPa) = 0.02767880
#
# Stress axis : x y z
#
# Youngs Moduli (GPa) = 114.01570 27.86395 116.51423
#
# Poissons Ratio (x) = 0.17796 0.14738
# Poissons Ratio (y) = 0.72817 0.59773
# Poissons Ratio (z) = 0.14422 0.14294
#
# Static dielectric constant tensor:
#      x y z
#    x 5.188350 0.000000 0.000000 
#    y 0.000000 3.444990 0.000000 
#    z 0.000000 0.000000 4.555890 
# 
# 
# High freq. dielectric constant tensor:
#      x y z
#    x 1.841880 0.000000 0.000000 
#    y 0.000000 1.802110 0.000000 
#    z 0.000000 0.000000 1.861490 
# 
# From -- ./inp_files/24207.got.cif
#   From: 2010.03.12/outbox.cif.g09.slc.cpg/sg60_13_cif.got.tgz:24207.got - 2010.04.10 18:46:24.
