data_PCOD8247338
_publ_section_title
;
Structure prediction by ZEFSAII (Michael W. Deem and Ramdas Pophale) SiO2 
 PCOD8247338
Probable space group: P B C N
;
_chemical_formula_sum "Si O2"
_cell_formula_units_Z 64
_cell_length_a 9.192795
_cell_length_b 12.679534
_cell_length_c 23.366531
_cell_angle_alpha 90.000000
_cell_angle_beta 90.000000
_cell_angle_gamma 90.000000
_cell_volume 2723.611190
_symmetry_space_group_name_H-M "P B C N"
_symmetry_group_IT_number 60
_symmetry_cell_setting 'orthorhombic'
loop_
_space_group_symop_operation_xyz
x,y,z
1/2-x,1/2-y,1/2+z
1/2+x,1/2-y,-z
-x,y,1/2-z
-x,-y,-z
1/2+x,1/2+y,1/2-z
1/2-x,1/2+y,z
x,-y,1/2+z
loop_
_atom_site_type_symbol
_atom_site_label
_atom_site_fract_x
_atom_site_fract_y
_atom_site_fract_z
Si Si1 0.937802 0.077708 0.151968
Si Si2 0.930140 0.348019 0.074172
Si Si3 0.263664 0.220298 0.557106
Si Si4 0.842502 0.908060 0.241028
Si Si5 0.081144 0.689410 0.805961
Si Si6 0.765936 0.341898 0.562228
Si Si7 0.276963 0.455942 0.133616
Si Si8 0.576267 0.077926 0.452042
O O1 0.967036 0.193338 0.177318
O O2 0.821915 0.075834 0.100785
O O3 0.870749 0.011503 0.203441
O O4 0.087032 0.033320 0.125219
O O5 0.954873 0.387855 0.139871
O O6 0.780250 0.280189 0.076161
O O7 0.060602 0.266429 0.059345
O O8 0.933884 0.445079 0.025475
O O9 0.227331 0.141203 0.504309
O O10 0.193272 0.164077 0.612781
O O11 0.201495 0.335032 0.546424
O O12 0.752304 0.819199 0.207714
O O13 0.754443 0.945897 0.298000
O O14 0.000000 0.854528 0.250000
O O15 0.000000 0.647718 0.750000
O O16 0.936385 0.362413 0.573332
O O17 0.137868 0.489179 0.092282
#
# Coordination Sequence:
#
# PCOD8247338 Si02
#       8
#     8   8   8   8   8   8   8   8
#     4  10  23  43  60  85 126 160 196 253 309 355
#     4   9  20  38  60  88 123 160 201 248 308 364
#     4  10  21  38  61  88 121 161 203 249 302 366
#     4  10  24  42  59  87 119 154 207 254 296 364
#     4  11  21  39  66  86 114 162 201 243 307 361
#     4   9  20  37  60  90 121 160 202 248 311 366
#     4  11  23  39  63  90 119 161 209 249 301 374
#     4  10  21  39  61  90 127 159 204 258 303 367
#
# _framework density 23.498215999999999
#
# number of rings (size 3 to 8) (size 9 to 14) (size 15 to 20)
#    0.000    2.000    0.000    3.375    0.000   11.500 
#    0.000    0.625    0.000    0.000    0.000    0.000 
#    0.000    0.000    0.000    0.000    0.000    0.000 
#
# Total GULP energy -792872.091642 kJ/mol
# GULP energy per Si atom -12388.626432 kJ/mol
# Density = 2.344473 g / cm^3
# Si number density = 23.498216 Si / 1000 Ang^3
#
#
#
# Elastic Constant Matrix: (Units=GPa)
#
#
# Indices 1 2 3 4 5 6 
#
# 1 89.0276 12.9266 64.2612 0.0000 0.0000 0.0000
# 2 12.9266 33.0665 32.5573 0.0000 0.0000 0.0000
# 3 64.2612 32.5573 162.9234 0.0000 0.0000 0.0000
# 4 0.0000 0.0000 0.0000 17.4478 0.0000 0.0000
# 5 0.0000 0.0000 0.0000 0.0000 46.1134 0.0000
# 6 0.0000 0.0000 0.0000 0.0000 0.0000 27.6939
#
#
#
# Elastic Compliance Matrix: (Units=1/GPa)
#
#
# Indices 1 2 3 4 5 6 
#
# 1 0.015703 -0.000050 -0.006184 0.000000 0.000000 0.000000
# 2 -0.000050 0.037650 -0.007504 0.000000 0.000000 0.000000
# 3 -0.006184 -0.007504 0.010076 0.000000 0.000000 0.000000
# 4 0.000000 0.000000 0.000000 0.057314 0.000000 0.000000
# 5 0.000000 0.000000 0.000000 0.000000 0.021686 0.000000
# 6 0.000000 0.000000 0.000000 0.000000 0.000000 0.036109
#
#
# Mechanical properties :
#
#
# Convention : Reuss Voigt Hill
#
# Bulk Modulus (GPa) = 27.81341 56.05642 41.93492
# Shear Modulus (GPa) = 22.93593 29.93584 26.43588
#
# Velocity S-wave (km/s) = 3.12760 3.57313 3.35777
# Velocity P-wave (km/s) = 4.99045 6.39769 5.73738
#
# Compressibility (1/GPa) = 0.03595388
#
# Stress axis : x y z
#
# Youngs Moduli (GPa) = 63.68103 26.56040 99.24204
#
# Poissons Ratio (x) = 0.00134 0.61368
# Poissons Ratio (y) = 0.00321 0.74469
# Poissons Ratio (z) = 0.39378 0.19930
#
# Static dielectric constant tensor:
#      x y z
#    x 4.478120 0.000000 0.000000 
#    y 0.000000 3.979900 0.000000 
#    z 0.000000 0.000000 4.979630 
# 
# 
# High freq. dielectric constant tensor:
#      x y z
#    x 1.936040 0.000000 0.000000 
#    y 0.000000 1.912760 0.000000 
#    z 0.000000 0.000000 1.957360 
# 
# From -- ./inp_files/24083.got.cif
#   From: 2010.03.12/outbox.cif.g09.slc.cpg/sg60_13_cif.got.tgz:24083.got - 2010.04.10 18:46:24.
