data_PCOD8247342
_publ_section_title
;
Structure prediction by ZEFSAII (Michael W. Deem and Ramdas Pophale) SiO2 
 PCOD8247342
Probable space group: P B C N
;
_chemical_formula_sum "Si O2"
_cell_formula_units_Z 32
_cell_length_a 12.170691
_cell_length_b 14.025350
_cell_length_c 9.250471
_cell_angle_alpha 90.000000
_cell_angle_beta 90.000000
_cell_angle_gamma 90.000000
_cell_volume 1579.038758
_symmetry_space_group_name_H-M "P B C N"
_symmetry_group_IT_number 60
_symmetry_cell_setting 'orthorhombic'
loop_
_space_group_symop_operation_xyz
x,y,z
1/2-x,1/2-y,1/2+z
1/2+x,1/2-y,-z
-x,y,1/2-z
-x,-y,-z
1/2+x,1/2+y,1/2-z
1/2-x,1/2+y,z
x,-y,1/2+z
loop_
_atom_site_type_symbol
_atom_site_label
_atom_site_fract_x
_atom_site_fract_y
_atom_site_fract_z
Si Si1 0.596272 0.957515 0.857590
Si Si2 0.705814 0.906179 0.589070
Si Si3 0.523853 0.233290 0.092422
Si Si4 0.539050 0.590788 0.086498
O O1 0.500000 0.996444 0.750000
O O2 0.701421 0.944039 0.753833
O O3 0.557699 0.857188 0.928205
O O4 0.630992 0.028464 0.983556
O O5 0.650412 0.801793 0.582604
O O6 0.832323 0.900845 0.551491
O O7 0.500000 0.279524 0.250000
O O8 0.513211 0.311576 0.969404
O O9 0.500000 0.578543 0.250000
O O10 0.500000 0.500000 0.000000
#
# Coordination Sequence:
#
# PCOD8247342 Si02
#       4
#     8   8   8   8
#     4   9  18  37  62  92 119 150 197 244 294 357
#     4  10  21  38  62  87 121 157 189 246 300 343
#     4   9  21  40  60  87 117 150 196 244 291 353
#     4  12  26  41  58  86 119 157 201 242 295 361
#
# _framework density 20.265494
#
# number of rings (size 3 to 8) (size 9 to 14) (size 15 to 20)
#    0.000    2.500    0.000    5.250    0.000    9.000 
#    0.000    0.000    0.000    0.000    0.000    0.000 
#    0.000    0.000    0.000    0.000    0.000    0.000 
#
# Total GULP energy -396501.955722 kJ/mol
# GULP energy per Si atom -12390.686116 kJ/mol
# Density = 2.021937 g / cm^3
# Si number density = 20.265494 Si / 1000 Ang^3
#
#
#
# Elastic Constant Matrix: (Units=GPa)
#
#
# Indices 1 2 3 4 5 6 
#
# 1 117.0939 59.7228 38.6251 0.0000 0.0000 0.0000
# 2 59.7228 98.1625 80.4393 0.0000 0.0000 0.0000
# 3 38.6251 80.4393 134.3700 0.0000 0.0000 0.0000
# 4 0.0000 0.0000 0.0000 42.8454 0.0000 0.0000
# 5 0.0000 0.0000 0.0000 0.0000 27.0427 0.0000
# 6 0.0000 0.0000 0.0000 0.0000 0.0000 12.8596
#
#
#
# Elastic Compliance Matrix: (Units=1/GPa)
#
#
# Indices 1 2 3 4 5 6 
#
# 1 0.012626 -0.009241 0.001902 0.000000 0.000000 0.000000
# 2 -0.009241 0.026760 -0.013363 0.000000 0.000000 0.000000
# 3 0.001902 -0.013363 0.014895 0.000000 0.000000 0.000000
# 4 0.000000 0.000000 0.000000 0.023340 0.000000 0.000000
# 5 0.000000 0.000000 0.000000 0.000000 0.036979 0.000000
# 6 0.000000 0.000000 0.000000 0.000000 0.000000 0.077763
#
#
# Mechanical properties :
#
#
# Convention : Reuss Voigt Hill
#
# Bulk Modulus (GPa) = 77.65284 78.57788 78.11536
# Shear Modulus (GPa) = 21.00337 27.93880 24.47108
#
# Velocity S-wave (km/s) = 3.22283 3.71703 3.47872
# Velocity P-wave (km/s) = 7.22840 7.56837 7.40033
#
# Compressibility (1/GPa) = 0.01287783
#
# Stress axis : x y z
#
# Youngs Moduli (GPa) = 79.20376 37.36964 67.13649
#
# Poissons Ratio (x) = 0.34532 -0.12772
# Poissons Ratio (y) = 0.73188 0.89716
# Poissons Ratio (z) = -0.15068 0.49938
#
# Static dielectric constant tensor:
#      x y z
#    x 6.226520 0.000000 0.000000 
#    y 0.000000 3.487990 0.000000 
#    z 0.000000 0.000000 3.832200 
# 
# 
# High freq. dielectric constant tensor:
#      x y z
#    x 1.791790 0.000000 0.000000 
#    y 0.000000 1.777290 0.000000 
#    z 0.000000 0.000000 1.803980 
# 
# From -- ./inp_files/4616.got.cif
#   From: 2010.03.12/outbox.cif.g09.slc.cpg/sg60_3_cif.got.tgz:4616.got - 2010.04.10 18:46:24.
