data_PCOD8247721
_publ_section_title
;
Structure prediction by ZEFSAII (Michael W. Deem and Ramdas Pophale) SiO2 
 PCOD8247721
Probable space group: P B C N
;
_chemical_formula_sum "Si O2"
_cell_formula_units_Z 48
_cell_length_a 13.695598
_cell_length_b 16.539302
_cell_length_c 8.474025
_cell_angle_alpha 90.000000
_cell_angle_beta 90.000000
_cell_angle_gamma 90.000000
_cell_volume 1919.499123
_symmetry_space_group_name_H-M "P B C N"
_symmetry_group_IT_number 60
_symmetry_cell_setting 'orthorhombic'
loop_
_space_group_symop_operation_xyz
x,y,z
1/2-x,1/2-y,1/2+z
1/2+x,1/2-y,-z
-x,y,1/2-z
-x,-y,-z
1/2+x,1/2+y,1/2-z
1/2-x,1/2+y,z
x,-y,1/2+z
loop_
_atom_site_type_symbol
_atom_site_label
_atom_site_fract_x
_atom_site_fract_y
_atom_site_fract_z
Si Si1 0.584879 0.363588 0.849841
Si Si2 0.965662 0.760004 0.419326
Si Si3 0.588132 0.115827 0.045213
Si Si4 0.279296 0.277613 0.901710
Si Si5 0.739703 0.592797 0.571659
Si Si6 0.847521 0.495582 0.806689
O O1 0.500000 0.411105 0.750000
O O2 0.670019 0.321245 0.747268
O O3 0.527010 0.292699 0.935164
O O4 0.634653 0.419285 0.984356
O O5 0.987010 0.663933 0.430440
O O6 0.000000 0.795332 0.250000
O O7 0.851340 0.779562 0.445356
O O8 0.680412 0.175522 0.062323
O O9 0.585853 0.047723 0.178741
O O10 0.591981 0.071527 0.876473
O O11 0.254324 0.184280 0.867523
O O12 0.749430 0.531721 0.719946
O O13 0.819967 0.567524 0.442343
#
# Coordination Sequence:
#
# PCOD8247721 Si02
#       6
#     8   8   8   8   8   8
#     4  10  22  40  62  95 130 164 224 289 335 392
#     4  11  24  38  66 104 128 169 232 284 335 397
#     4  11  22  45  66 103 139 177 233 279 347 413
#     4  11  23  40  73  94 133 177 234 287 333 398
#     4  11  21  41  64  93 128 178 221 273 342 400
#     4  10  24  38  67  96 138 183 212 279 355 416
#
# _framework density 25.006523000000001
#
# number of rings (size 3 to 8) (size 9 to 14) (size 15 to 20)
#    0.000    1.333    3.333    2.000    2.333    0.000 
#    0.000   10.000    0.000    0.000    0.000    0.000 
#    0.000    0.000    0.000    0.000    0.000    0.000 
#
# Total GULP energy -594909.905649 kJ/mol
# GULP energy per Si atom -12393.956368 kJ/mol
# Density = 2.494961 g / cm^3
# Si number density = 25.006523 Si / 1000 Ang^3
#
#
#
# Elastic Constant Matrix: (Units=GPa)
#
#
# Indices 1 2 3 4 5 6 
#
# 1 71.5272 6.0323 19.9016 0.0000 0.0000 0.0000
# 2 6.0323 66.9614 34.1859 0.0000 0.0000 0.0000
# 3 19.9016 34.1859 81.9541 0.0000 0.0000 0.0000
# 4 0.0000 0.0000 0.0000 31.0388 0.0000 0.0000
# 5 0.0000 0.0000 0.0000 0.0000 23.2305 0.0000
# 6 0.0000 0.0000 0.0000 0.0000 0.0000 18.8500
#
#
#
# Elastic Compliance Matrix: (Units=1/GPa)
#
#
# Indices 1 2 3 4 5 6 
#
# 1 0.015016 0.000647 -0.003916 0.000000 0.000000 0.000000
# 2 0.000647 0.019003 -0.008084 0.000000 0.000000 0.000000
# 3 -0.003916 -0.008084 0.016525 0.000000 0.000000 0.000000
# 4 0.000000 0.000000 0.000000 0.032218 0.000000 0.000000
# 5 0.000000 0.000000 0.000000 0.000000 0.043047 0.000000
# 6 0.000000 0.000000 0.000000 0.000000 0.000000 0.053051
#
#
# Mechanical properties :
#
#
# Convention : Reuss Voigt Hill
#
# Bulk Modulus (GPa) = 35.92348 37.85359 36.88854
# Shear Modulus (GPa) = 23.71421 25.31205 24.51313
#
# Velocity S-wave (km/s) = 3.08282 3.18499 3.13432
# Velocity P-wave (km/s) = 5.20275 5.35685 5.28036
#
# Compressibility (1/GPa) = 0.02783694
#
# Stress axis : x y z
#
# Youngs Moduli (GPa) = 66.59661 52.62400 60.51450
#
# Poissons Ratio (x) = -0.03403 0.23698
# Poissons Ratio (y) = -0.04306 0.48918
# Poissons Ratio (z) = 0.26080 0.42540
#
# Static dielectric constant tensor:
#      x y z
#    x 4.821900 0.000000 0.000000 
#    y 0.000000 4.423450 0.000000 
#    z 0.000000 0.000000 4.900540 
# 
# 
# High freq. dielectric constant tensor:
#      x y z
#    x 1.993760 0.000000 0.000000 
#    y 0.000000 1.975460 0.000000 
#    z 0.000000 0.000000 2.013180 
# 
# From -- ./inp_files/5877.got.cif
#   From: 2010.03.12/outbox.cif.g09.slc.cpg/sg60_3_cif.got.tgz:5877.got - 2010.04.10 18:46:24.
