data_PCOD8247876
_publ_section_title
;
Structure prediction by ZEFSAII (Michael W. Deem and Ramdas Pophale) SiO2 
 PCOD8247876
Probable space group: P B C N
;
_chemical_formula_sum "Si O2"
_cell_formula_units_Z 60
_cell_length_a 26.796367
_cell_length_b 8.807507
_cell_length_c 12.198416
_cell_angle_alpha 90.000000
_cell_angle_beta 90.000000
_cell_angle_gamma 90.000000
_cell_volume 2878.938279
_symmetry_space_group_name_H-M "P B C N"
_symmetry_group_IT_number 60
_symmetry_cell_setting 'orthorhombic'
loop_
_space_group_symop_operation_xyz
x,y,z
1/2-x,1/2-y,1/2+z
1/2+x,1/2-y,-z
-x,y,1/2-z
-x,-y,-z
1/2+x,1/2+y,1/2-z
1/2-x,1/2+y,z
x,-y,1/2+z
loop_
_atom_site_type_symbol
_atom_site_label
_atom_site_fract_x
_atom_site_fract_y
_atom_site_fract_z
Si Si1 0.323164 0.569884 0.368538
Si Si2 0.433913 0.083499 0.327150
Si Si3 0.665046 0.780270 0.610328
Si Si4 0.000000 0.982496 0.750000
Si Si5 0.257698 0.897963 0.052598
Si Si6 0.260463 0.848974 0.706572
Si Si7 0.074197 0.760742 0.874648
Si Si8 0.034918 0.739670 0.118648
O O1 0.342843 0.398178 0.372311
O O2 0.289766 0.605692 0.474005
O O3 0.290982 0.593825 0.259597
O O4 0.368797 0.686721 0.366397
O O5 0.388399 0.141396 0.401208
O O6 0.483546 0.144835 0.386613
O O7 0.429118 0.152628 0.204623
O O8 0.433343 0.901990 0.317927
O O9 0.695092 0.812595 0.499367
O O10 0.694010 0.862683 0.709451
O O11 0.959687 0.880171 0.688986
O O12 0.973427 0.088068 0.840579
O O13 0.245383 0.824954 0.170843
O O14 0.271879 0.067828 0.090271
O O15 0.060126 0.746919 0.001531
#
# Coordination Sequence:
#
# PCOD8247876 Si02
#       8
#     8   8   8   4   8   8   8   8
#     4  11  25  41  62  98 126 167 222 262 313 398
#     4  10  24  42  66  96 131 168 222 271 320 395
#     4  11  24  42  64  94 131 165 220 261 318 395
#     4  10  22  44  68  98 130 166 214 272 328 398
#     4  11  24  42  65  92 129 175 213 264 326 375
#     4  11  24  43  65  89 132 170 208 269 317 374
#     4  12  25  42  70  98 130 172 221 272 332 393
#     4  10  23  47  68  94 133 175 211 274 342 383
#
# _framework density 20.841016
#
# number of rings (size 3 to 8) (size 9 to 14) (size 15 to 20)
#    0.000    1.333    2.667    3.200    5.600    1.067 
#    2.400    0.000    0.000    0.000    0.000    0.000 
#    0.000    0.000    0.000    0.000    0.000    0.000 
#
# Total GULP energy -744135.706494 kJ/mol
# GULP energy per Si atom -12402.261775 kJ/mol
# Density = 2.079358 g / cm^3
# Si number density = 20.841016 Si / 1000 Ang^3
#
#
#
# Elastic Constant Matrix: (Units=GPa)
#
#
# Indices 1 2 3 4 5 6 
#
# 1 64.8340 42.7590 20.9837 0.0000 0.0000 0.0000
# 2 42.7590 141.8577 33.4188 0.0000 0.0000 0.0000
# 3 20.9837 33.4188 72.2572 0.0000 0.0000 0.0000
# 4 0.0000 0.0000 0.0000 31.8105 0.0000 0.0000
# 5 0.0000 0.0000 0.0000 0.0000 12.7002 0.0000
# 6 0.0000 0.0000 0.0000 0.0000 0.0000 36.4294
#
#
#
# Elastic Compliance Matrix: (Units=1/GPa)
#
#
# Indices 1 2 3 4 5 6 
#
# 1 0.019961 -0.005220 -0.003383 0.000000 0.000000 0.000000
# 2 -0.005220 0.009276 -0.002774 0.000000 0.000000 0.000000
# 3 -0.003383 -0.002774 0.016105 0.000000 0.000000 0.000000
# 4 0.000000 0.000000 0.000000 0.031436 0.000000 0.000000
# 5 0.000000 0.000000 0.000000 0.000000 0.078739 0.000000
# 6 0.000000 0.000000 0.000000 0.000000 0.000000 0.027450
#
#
# Mechanical properties :
#
#
# Convention : Reuss Voigt Hill
#
# Bulk Modulus (GPa) = 44.26986 52.58575 48.42780
# Shear Modulus (GPa) = 23.44647 28.30717 25.87682
#
# Velocity S-wave (km/s) = 3.35776 3.68943 3.52750
# Velocity P-wave (km/s) = 6.02666 6.59059 6.31492
#
# Compressibility (1/GPa) = 0.02258873
#
# Stress axis : x y z
#
# Youngs Moduli (GPa) = 50.09662 107.80150 62.09276
#
# Poissons Ratio (x) = 0.56272 0.21004
# Poissons Ratio (y) = 0.26150 0.17227
# Poissons Ratio (z) = 0.16946 0.29908
#
# Static dielectric constant tensor:
#      x y z
#    x 3.674690 0.000000 0.000000 
#    y 0.000000 3.924760 0.000000 
#    z 0.000000 0.000000 3.673150 
# 
# 
# High freq. dielectric constant tensor:
#      x y z
#    x 1.812750 0.000000 0.000000 
#    y 0.000000 1.836830 0.000000 
#    z 0.000000 0.000000 1.816050 
# 
# From -- ./inp_files/13280.got.cif
#   From: 2010.03.12/outbox.cif.g09.slc.cpg/sg60_7_cif.got.tgz:13280.got - 2010.04.10 18:46:24.
