data_PCOD8247165
_publ_section_title
;
Structure prediction by ZEFSAII (Michael W. Deem and Ramdas Pophale) SiO2 
 PCOD8247165
Probable space group: P B C N
;
_chemical_formula_sum "Si O2"
_cell_formula_units_Z 52
_cell_length_a 8.940145
_cell_length_b 13.638896
_cell_length_c 20.506817
_cell_angle_alpha 90.000000
_cell_angle_beta 90.000000
_cell_angle_gamma 90.000000
_cell_volume 2500.472234
_symmetry_space_group_name_H-M "P B C N"
_symmetry_group_IT_number 60
_symmetry_cell_setting 'orthorhombic'
loop_
_space_group_symop_operation_xyz
x,y,z
1/2-x,1/2-y,1/2+z
1/2+x,1/2-y,-z
-x,y,1/2-z
-x,-y,-z
1/2+x,1/2+y,1/2-z
1/2-x,1/2+y,z
x,-y,1/2+z
loop_
_atom_site_type_symbol
_atom_site_label
_atom_site_fract_x
_atom_site_fract_y
_atom_site_fract_z
Si Si1 0.600607 0.552457 0.811030
Si Si2 0.615591 0.168446 0.806847
Si Si3 0.260961 0.864005 0.651949
Si Si4 0.009256 0.632078 0.447573
Si Si5 0.880666 0.189941 0.630832
Si Si6 0.500000 0.804717 0.750000
Si Si7 0.419533 0.081708 0.912122
O O1 0.500000 0.522869 0.750000
O O2 0.735241 0.616370 0.780497
O O3 0.651029 0.454521 0.845909
O O4 0.516588 0.612095 0.868671
O O5 0.500000 0.193582 0.750000
O O6 0.659024 0.268218 0.843082
O O7 0.546034 0.091691 0.857607
O O8 0.344003 0.865983 0.583035
O O9 0.387571 0.871555 0.708467
O O10 0.981995 0.637389 0.524497
O O11 0.101294 0.727612 0.424846
O O12 0.102266 0.534037 0.427164
O O13 0.728291 0.132455 0.616943
O O14 0.893512 0.239388 0.702877
#
# Coordination Sequence:
#
# PCOD8247165 Si02
#       7
#     8   8   8   8   8   4   8
#     4  12  23  39  64  96 135 169 216 272 329 381
#     4  12  24  40  67  99 131 174 223 268 330 394
#     4  11  23  40  63  95 133 169 216 274 321 387
#     4  10  24  45  66  97 134 171 222 269 327 394
#     4  11  23  43  68  95 133 172 215 277 318 388
#     4  10  20  42  62  94 136 166 212 268 336 376
#     4  11  25  44  71  94 130 181 220 261 336 394
#
# _framework density 20.796071999999999
#
# number of rings (size 3 to 8) (size 9 to 14) (size 15 to 20)
#    0.000    0.923    5.385    2.308    3.231    3.692 
#    0.000    0.769    0.000    0.000    0.000    0.000 
#    0.000    0.000    0.000    0.000    0.000    0.000 
#
# Total GULP energy -644776.231462 kJ/mol
# GULP energy per Si atom -12399.542913 kJ/mol
# Density = 2.074874 g / cm^3
# Si number density = 20.796072 Si / 1000 Ang^3
#
#
#
# Elastic Constant Matrix: (Units=GPa)
#
#
# Indices 1 2 3 4 5 6 
#
# 1 98.9465 30.6295 34.1685 0.0000 0.0000 0.0000
# 2 30.6295 89.5104 13.0620 0.0000 0.0000 0.0000
# 3 34.1685 13.0620 92.1477 0.0000 0.0000 0.0000
# 4 0.0000 0.0000 0.0000 -3.0989 0.0000 0.0000
# 5 0.0000 0.0000 0.0000 0.0000 29.1578 0.0000
# 6 0.0000 0.0000 0.0000 0.0000 0.0000 35.6190
#
#
#
# Elastic Compliance Matrix: (Units=1/GPa)
#
#
# Indices 1 2 3 4 5 6 
#
# 1 0.012708 -0.003738 -0.004182 0.000000 0.000000 0.000000
# 2 -0.003738 0.012508 -0.000387 0.000000 0.000000 0.000000
# 3 -0.004182 -0.000387 0.012458 0.000000 0.000000 0.000000
# 4 0.000000 0.000000 0.000000 -0.322694 0.000000 0.000000
# 5 0.000000 0.000000 0.000000 0.000000 0.034296 0.000000
# 6 0.000000 0.000000 0.000000 0.000000 0.000000 0.028075
#
#
# Mechanical properties :
#
#
# Convention : Reuss Voigt Hill
#
# Bulk Modulus (GPa) = 47.48638 48.48051 47.98344
# Shear Modulus (GPa) = -25.12360 25.85187 0.36414
#
# Velocity S-wave (km/s) = -3.47953 3.52961 0.41890
# Velocity P-wave (km/s) = 2.59634 6.32248 4.83295
#
# Compressibility (1/GPa) = 0.02105867
#
# Stress axis : x y z
#
# Youngs Moduli (GPa) = 78.69145 79.95195 80.27142
#
# Poissons Ratio (x) = 0.29888 0.33571
# Poissons Ratio (y) = 0.29416 0.03105
# Poissons Ratio (z) = 0.32910 0.03093
#
# Static dielectric constant tensor:
#      x y z
#    x 3.848260 0.000000 0.000000 
#    y 0.000000 3.890010 0.000000 
#    z 0.000000 0.000000 3.891130 
# 
# 
# High freq. dielectric constant tensor:
#      x y z
#    x 1.814250 0.000000 0.000000 
#    y 0.000000 1.825730 0.000000 
#    z 0.000000 0.000000 1.806220 
# 
# From -- ./inp_files/22134.got.cif
#   From: 2010.03.12/outbox.cif.g09.slc.cpg/sg60_12_cif.got.tgz:22134.got - 2010.04.10 18:46:24.
