data_PCOD8247653
_publ_section_title
;
Structure prediction by ZEFSAII (Michael W. Deem and Ramdas Pophale) SiO2 
 PCOD8247653
Probable space group: P B C N
;
_chemical_formula_sum "Si O2"
_cell_formula_units_Z 44
_cell_length_a 25.840613
_cell_length_b 15.478969
_cell_length_c 5.105274
_cell_angle_alpha 90.000000
_cell_angle_beta 90.000000
_cell_angle_gamma 90.000000
_cell_volume 2042.038369
_symmetry_space_group_name_H-M "P B C N"
_symmetry_group_IT_number 60
_symmetry_cell_setting 'orthorhombic'
loop_
_space_group_symop_operation_xyz
x,y,z
1/2-x,1/2-y,1/2+z
1/2+x,1/2-y,-z
-x,y,1/2-z
-x,-y,-z
1/2+x,1/2+y,1/2-z
1/2-x,1/2+y,z
x,-y,1/2+z
loop_
_atom_site_type_symbol
_atom_site_label
_atom_site_fract_x
_atom_site_fract_y
_atom_site_fract_z
Si Si1 0.925634 0.943924 0.057367
Si Si2 0.664678 0.660337 0.727956
Si Si3 0.500000 0.301380 0.250000
Si Si4 0.741774 0.944367 0.428982
Si Si5 0.092878 0.716472 0.018127
Si Si6 0.855010 0.330867 0.489134
O O1 0.864972 0.917387 0.076405
O O2 0.961061 0.858668 0.075674
O O3 0.939005 0.012169 0.283453
O O4 0.717089 0.629584 0.863443
O O5 0.626067 0.694238 0.957236
O O6 0.676016 0.739654 0.527086
O O7 0.532698 0.239429 0.443073
O O8 0.684605 0.905084 0.406848
O O9 0.749086 0.977481 0.724796
O O10 0.113757 0.649317 0.241772
O O11 0.101484 0.675604 0.734938
#
# Coordination Sequence:
#
# PCOD8247653 Si02
#       6
#     8   8   4   8   8   8
#     4  11  23  36  54  85 130 164 193 245 293 348
#     4   9  24  37  63  83 127 162 213 232 295 364
#     4  10  22  38  60  90 120 162 214 244 302 356
#     4  12  26  39  63  93 124 159 204 255 317 365
#     4   9  22  37  63  86 119 158 212 250 287 353
#     4  10  23  41  61  86 121 164 203 253 301 354
#
# _framework density 21.547097000000001
#
# number of rings (size 3 to 8) (size 9 to 14) (size 15 to 20)
#    1.091    0.727    0.000    2.727   10.182    2.182 
#    0.000    0.000    0.000    0.000    0.000   12.727 
#    0.000    0.000    0.000    0.000    0.000    0.000 
#
# Total GULP energy -545453.474240 kJ/mol
# GULP energy per Si atom -12396.669869 kJ/mol
# Density = 2.149806 g / cm^3
# Si number density = 21.547097 Si / 1000 Ang^3
#
#
#
# Elastic Constant Matrix: (Units=GPa)
#
#
# Indices 1 2 3 4 5 6 
#
# 1 76.7985 18.4135 5.5812 0.0000 0.0000 0.0000
# 2 18.4135 26.3811 16.9421 0.0000 0.0000 0.0000
# 3 5.5812 16.9421 76.4811 0.0000 0.0000 0.0000
# 4 0.0000 0.0000 0.0000 18.3752 0.0000 0.0000
# 5 0.0000 0.0000 0.0000 0.0000 20.9714 0.0000
# 6 0.0000 0.0000 0.0000 0.0000 0.0000 32.9656
#
#
#
# Elastic Compliance Matrix: (Units=1/GPa)
#
#
# Indices 1 2 3 4 5 6 
#
# 1 0.015785 -0.011982 0.001502 0.000000 0.000000 0.000000
# 2 -0.011982 0.053289 -0.010930 0.000000 0.000000 0.000000
# 3 0.001502 -0.010930 0.015387 0.000000 0.000000 0.000000
# 4 0.000000 0.000000 0.000000 0.054421 0.000000 0.000000
# 5 0.000000 0.000000 0.000000 0.000000 0.047684 0.000000
# 6 0.000000 0.000000 0.000000 0.000000 0.000000 0.030335
#
#
# Mechanical properties :
#
#
# Convention : Reuss Voigt Hill
#
# Bulk Modulus (GPa) = 24.01526 29.05935 26.53730
# Shear Modulus (GPa) = 18.27486 23.71071 20.99278
#
# Velocity S-wave (km/s) = 2.91544 3.32085 3.12472
# Velocity P-wave (km/s) = 4.74370 5.31223 5.03599
#
# Compressibility (1/GPa) = 0.04164020
#
# Stress axis : x y z
#
# Youngs Moduli (GPa) = 63.35190 18.76573 64.99114
#
# Poissons Ratio (x) = 0.22486 -0.09765
# Poissons Ratio (y) = 0.75911 0.71036
# Poissons Ratio (z) = -0.09518 0.20511
#
# Static dielectric constant tensor:
#      x y z
#    x 3.823510 0.000000 0.000000 
#    y 0.000000 3.550630 0.000000 
#    z 0.000000 0.000000 3.703210 
# 
# 
# High freq. dielectric constant tensor:
#      x y z
#    x 1.841320 0.000000 0.000000 
#    y 0.000000 1.806660 0.000000 
#    z 0.000000 0.000000 1.845690 
# 
# From -- ./inp_files/2538.got.cif
#   From: 2010.03.12/outbox.cif.g09.slc.cpg/sg60_2_cif.got.tgz:2538.got - 2010.04.10 18:46:24.
