data_PCOD8247572
_publ_section_title
;
Structure prediction by ZEFSAII (Michael W. Deem and Ramdas Pophale) SiO2 
 PCOD8247572
Probable space group: P B C N
;
_chemical_formula_sum "Si O2"
_cell_formula_units_Z 28
_cell_length_a 15.017338
_cell_length_b 5.104969
_cell_length_c 14.395391
_cell_angle_alpha 90.000000
_cell_angle_beta 90.000000
_cell_angle_gamma 90.000000
_cell_volume 1103.594507
_symmetry_space_group_name_H-M "P B C N"
_symmetry_group_IT_number 60
_symmetry_cell_setting 'orthorhombic'
loop_
_space_group_symop_operation_xyz
x,y,z
1/2-x,1/2-y,1/2+z
1/2+x,1/2-y,-z
-x,y,1/2-z
-x,-y,-z
1/2+x,1/2+y,1/2-z
1/2-x,1/2+y,z
x,-y,1/2+z
loop_
_atom_site_type_symbol
_atom_site_label
_atom_site_fract_x
_atom_site_fract_y
_atom_site_fract_z
Si Si1 0.973882 0.250012 0.058130
Si Si2 0.797826 0.885038 0.495023
Si Si3 0.000000 0.050677 0.250000
Si Si4 0.808817 0.857866 0.279489
O O1 0.016305 0.240665 0.161041
O O2 0.867725 0.235291 0.067055
O O3 0.000000 0.500000 0.000000
O O4 0.000000 0.000000 0.000000
O O5 0.713347 0.694949 0.513744
O O6 0.828009 0.846305 0.389097
O O7 0.908920 0.879952 0.234549
O O8 0.757071 0.594391 0.248866
#
# Coordination Sequence:
#
# PCOD8247572 Si02
#       4
#     8   8   4   8
#     4  12  27  46  71 109 144 193 252 305 376 456
#     4  10  21  43  72 100 142 190 241 311 371 440
#     4  12  28  48  80 108 156 202 248 320 382 450
#     4  10  24  43  71 108 146 191 250 309 370 449
#
# _framework density 25.371637
#
# number of rings (size 3 to 8) (size 9 to 14) (size 15 to 20)
#    0.000    1.143    2.857    1.714    8.000    6.857 
#    0.000    0.000    0.000    0.000    0.000    0.000 
#    0.000    0.000    0.000    0.000    0.000    0.000 
#
# Total GULP energy -346974.587289 kJ/mol
# GULP energy per Si atom -12391.949546 kJ/mol
# Density = 2.531389 g / cm^3
# Si number density = 25.371637 Si / 1000 Ang^3
#
#
#
# Elastic Constant Matrix: (Units=GPa)
#
#
# Indices 1 2 3 4 5 6 
#
# 1 143.4397 39.6095 23.2559 0.0000 0.0000 0.0000
# 2 39.6095 165.4522 47.8440 0.0000 0.0000 0.0000
# 3 23.2559 47.8440 106.4461 0.0000 0.0000 0.0000
# 4 0.0000 0.0000 0.0000 23.6240 0.0000 0.0000
# 5 0.0000 0.0000 0.0000 0.0000 35.7895 0.0000
# 6 0.0000 0.0000 0.0000 0.0000 0.0000 28.8905
#
#
#
# Elastic Compliance Matrix: (Units=1/GPa)
#
#
# Indices 1 2 3 4 5 6 
#
# 1 0.007550 -0.001529 -0.000962 0.000000 0.000000 0.000000
# 2 -0.001529 0.007257 -0.002928 0.000000 0.000000 0.000000
# 3 -0.000962 -0.002928 0.010920 0.000000 0.000000 0.000000
# 4 0.000000 0.000000 0.000000 0.042330 0.000000 0.000000
# 5 0.000000 0.000000 0.000000 0.000000 0.027941 0.000000
# 6 0.000000 0.000000 0.000000 0.000000 0.000000 0.034613
#
#
# Mechanical properties :
#
#
# Convention : Reuss Voigt Hill
#
# Bulk Modulus (GPa) = 67.16271 70.75076 68.95674
# Shear Modulus (GPa) = 34.15015 37.96937 36.05976
#
# Velocity S-wave (km/s) = 3.67276 3.87270 3.77405
# Velocity P-wave (km/s) = 6.67193 6.92411 6.79919
#
# Compressibility (1/GPa) = 0.01488921
#
# Stress axis : x y z
#
# Youngs Moduli (GPa) = 132.45314 137.80356 91.57118
#
# Poissons Ratio (x) = 0.21073 0.08810
# Poissons Ratio (y) = 0.20255 0.26808
# Poissons Ratio (z) = 0.12744 0.40343
#
# Static dielectric constant tensor:
#      x y z
#    x 5.513010 0.000000 0.000000 
#    y 0.000000 5.144870 0.000000 
#    z 0.000000 0.000000 5.511630 
# 
# 
# High freq. dielectric constant tensor:
#      x y z
#    x 2.023900 0.000000 0.000000 
#    y 0.000000 2.009110 0.000000 
#    z 0.000000 0.000000 2.004340 
# 
# From -- ./inp_files/16482.got.cif
#   From: 2010.03.12/outbox.cif.g09.slc.cpg/sg60_9_cif.got.tgz:16482.got - 2010.04.10 18:46:24.
