data_PCOD8247806
_publ_section_title
;
Structure prediction by ZEFSAII (Michael W. Deem and Ramdas Pophale) SiO2 
 PCOD8247806
Probable space group: P B C N
;
_chemical_formula_sum "Si O2"
_cell_formula_units_Z 28
_cell_length_a 7.359585
_cell_length_b 9.482799
_cell_length_c 17.132777
_cell_angle_alpha 90.000000
_cell_angle_beta 90.000000
_cell_angle_gamma 90.000000
_cell_volume 1195.687346
_symmetry_space_group_name_H-M "P B C N"
_symmetry_group_IT_number 60
_symmetry_cell_setting 'orthorhombic'
loop_
_space_group_symop_operation_xyz
x,y,z
1/2-x,1/2-y,1/2+z
1/2+x,1/2-y,-z
-x,y,1/2-z
-x,-y,-z
1/2+x,1/2+y,1/2-z
1/2-x,1/2+y,z
x,-y,1/2+z
loop_
_atom_site_type_symbol
_atom_site_label
_atom_site_fract_x
_atom_site_fract_y
_atom_site_fract_z
Si Si1 0.000000 0.882794 0.750000
Si Si2 0.061399 0.327184 0.945034
Si Si3 0.648601 0.529991 0.613632
Si Si4 0.852448 0.822586 0.905200
O O1 0.855534 0.985229 0.705244
O O2 0.895035 0.784616 0.813902
O O3 0.172312 0.468409 0.927408
O O4 0.857760 0.352339 0.917618
O O5 0.152387 0.197702 0.897445
O O6 0.073153 0.299521 0.037938
O O7 0.463699 0.466325 0.574230
#
# Coordination Sequence:
#
# PCOD8247806 Si02
#       4
#     4   8   8   8
#     4   8  22  44  58 100 132 158 230 252 342 370
#     4  12  23  43  74  88 141 166 228 261 330 380
#     4  10  25  43  61 104 122 179 213 270 322 396
#     4  10  22  42  64 101 127 178 210 280 310 404
#
# _framework density 23.417494999999999
#
# number of rings (size 3 to 8) (size 9 to 14) (size 15 to 20)
#    1.714    0.000    2.857    0.857    0.000    6.857 
#    0.000    0.000    0.000    0.000    0.000    0.000 
#    0.000    0.000    0.000    0.000    0.000    0.000 
#
# Total GULP energy -346947.046859 kJ/mol
# GULP energy per Si atom -12390.965959 kJ/mol
# Density = 2.336420 g / cm^3
# Si number density = 23.417495 Si / 1000 Ang^3
#
#
#
# Elastic Constant Matrix: (Units=GPa)
#
#
# Indices 1 2 3 4 5 6 
#
# 1 158.4103 22.8359 45.0924 0.0000 0.0000 0.0000
# 2 22.8359 50.3015 24.8153 0.0000 0.0000 0.0000
# 3 45.0924 24.8153 193.3912 0.0000 0.0000 0.0000
# 4 0.0000 0.0000 0.0000 8.6196 0.0000 0.0000
# 5 0.0000 0.0000 0.0000 0.0000 10.5115 0.0000
# 6 0.0000 0.0000 0.0000 0.0000 0.0000 14.7902
#
#
#
# Elastic Compliance Matrix: (Units=1/GPa)
#
#
# Indices 1 2 3 4 5 6 
#
# 1 0.007056 -0.002553 -0.001318 0.000000 0.000000 0.000000
# 2 -0.002553 0.022148 -0.002247 0.000000 0.000000 0.000000
# 3 -0.001318 -0.002247 0.005766 0.000000 0.000000 0.000000
# 4 0.000000 0.000000 0.000000 0.116014 0.000000 0.000000
# 5 0.000000 0.000000 0.000000 0.000000 0.095134 0.000000
# 6 0.000000 0.000000 0.000000 0.000000 0.000000 0.067612
#
#
# Mechanical properties :
#
#
# Convention : Reuss Voigt Hill
#
# Bulk Modulus (GPa) = 43.98500 65.28781 54.63640
# Shear Modulus (GPa) = 14.99056 27.40822 21.19939
#
# Velocity S-wave (km/s) = 2.53285 3.42485 3.01205
# Velocity P-wave (km/s) = 5.23235 6.60151 5.95640
#
# Compressibility (1/GPa) = 0.02273502
#
# Stress axis : x y z
#
# Youngs Moduli (GPa) = 141.72657 45.15171 173.41988
#
# Poissons Ratio (x) = 0.11528 0.22849
# Poissons Ratio (y) = 0.36186 0.38960
# Poissons Ratio (z) = 0.18673 0.10144
#
# Static dielectric constant tensor:
#      x y z
#    x 4.071230 0.000000 0.000000 
#    y 0.000000 3.766730 0.000000 
#    z 0.000000 0.000000 4.341010 
# 
# 
# High freq. dielectric constant tensor:
#      x y z
#    x 1.930410 0.000000 0.000000 
#    y 0.000000 1.900310 0.000000 
#    z 0.000000 0.000000 1.931230 
# 
# From -- ./inp_files/18879.got.cif
#   From: 2010.03.12/outbox.cif.g09.slc.cpg/sg60_10_cif.got.tgz:18879.got - 2010.04.10 18:46:24.
