data_PCOD8247918
_publ_section_title
;
Structure prediction by ZEFSAII (Michael W. Deem and Ramdas Pophale) SiO2 
 PCOD8247918
Probable space group: P B C N
;
_chemical_formula_sum "Si O2"
_cell_formula_units_Z 56
_cell_length_a 14.014893
_cell_length_b 8.858419
_cell_length_c 22.263273
_cell_angle_alpha 90.000000
_cell_angle_beta 90.000000
_cell_angle_gamma 90.000000
_cell_volume 2763.980766
_symmetry_space_group_name_H-M "P B C N"
_symmetry_group_IT_number 60
_symmetry_cell_setting 'orthorhombic'
loop_
_space_group_symop_operation_xyz
x,y,z
1/2-x,1/2-y,1/2+z
1/2+x,1/2-y,-z
-x,y,1/2-z
-x,-y,-z
1/2+x,1/2+y,1/2-z
1/2-x,1/2+y,z
x,-y,1/2+z
loop_
_atom_site_type_symbol
_atom_site_label
_atom_site_fract_x
_atom_site_fract_y
_atom_site_fract_z
Si Si1 0.205801 0.061079 0.071700
Si Si2 0.157023 0.128558 0.934531
Si Si3 0.627189 0.142543 0.896780
Si Si4 0.671764 0.970941 0.602210
Si Si5 0.043310 0.347703 0.476884
Si Si6 0.050707 0.167319 0.593554
Si Si7 0.995052 0.436932 0.820137
O O1 0.201434 0.218217 0.110026
O O2 0.313996 0.998015 0.074755
O O3 0.133450 0.951258 0.107405
O O4 0.178504 0.078023 0.002191
O O5 0.170371 0.309128 0.930386
O O6 0.050410 0.083592 0.915158
O O7 0.220540 0.029956 0.887121
O O8 0.545011 0.218499 0.938453
O O9 0.573896 0.078780 0.837021
O O10 0.604906 0.966415 0.660669
O O11 0.635481 0.110116 0.561284
O O12 0.077538 0.241221 0.529803
O O13 0.000000 0.500000 0.500000
O O14 0.044965 0.288630 0.646973
O O15 0.000000 0.409408 0.750000
#
# Coordination Sequence:
#
# PCOD8247918 Si02
#       7
#     8   8   8   8   8   8   8
#     4  12  23  35  58  96 128 159 188 247 306 377
#     4  11  21  34  53  93 128 158 181 239 306 374
#     4  11  23  36  59  89 123 157 201 238 305 362
#     4  10  23  34  59  86 122 156 195 238 305 362
#     4  11  17  35  54  86 123 156 187 242 298 367
#     4  11  23  36  60  91 123 162 198 243 306 361
#     4  10  23  46  65  79 112 164 212 258 298 348
#
# _framework density 20.260632000000001
#
# number of rings (size 3 to 8) (size 9 to 14) (size 15 to 20)
#    0.000    1.143    5.714    3.000    4.000    1.143 
#    0.000    6.429    0.000    0.000    0.000    0.000 
#    0.000    0.000    0.000    0.000    0.000    0.000 
#
# Total GULP energy -693939.751394 kJ/mol
# GULP energy per Si atom -12391.781275 kJ/mol
# Density = 2.021452 g / cm^3
# Si number density = 20.260632 Si / 1000 Ang^3
#
#
#
# Elastic Constant Matrix: (Units=GPa)
#
#
# Indices 1 2 3 4 5 6 
#
# 1 65.7877 34.2745 26.1173 0.0000 0.0000 0.0000
# 2 34.2745 80.5172 33.9627 0.0000 0.0000 0.0000
# 3 26.1173 33.9627 112.9797 0.0000 0.0000 0.0000
# 4 0.0000 0.0000 0.0000 10.1145 0.0000 0.0000
# 5 0.0000 0.0000 0.0000 0.0000 16.1608 0.0000
# 6 0.0000 0.0000 0.0000 0.0000 0.0000 46.0712
#
#
#
# Elastic Compliance Matrix: (Units=1/GPa)
#
#
# Indices 1 2 3 4 5 6 
#
# 1 0.020072 -0.007544 -0.002372 0.000000 0.000000 0.000000
# 2 -0.007544 0.017058 -0.003384 0.000000 0.000000 0.000000
# 3 -0.002372 -0.003384 0.010417 0.000000 0.000000 0.000000
# 4 0.000000 0.000000 0.000000 0.098868 0.000000 0.000000
# 5 0.000000 0.000000 0.000000 0.000000 0.061878 0.000000
# 6 0.000000 0.000000 0.000000 0.000000 0.000000 0.021706
#
#
# Mechanical properties :
#
#
# Convention : Reuss Voigt Hill
#
# Bulk Modulus (GPa) = 47.73885 49.77709 48.75797
# Shear Modulus (GPa) = 18.96941 25.46464 22.21702
#
# Velocity S-wave (km/s) = 3.06317 3.54906 3.31503
# Velocity P-wave (km/s) = 6.01034 6.43554 6.22657
#
# Compressibility (1/GPa) = 0.02094730
#
# Stress axis : x y z
#
# Youngs Moduli (GPa) = 49.81967 58.62250 95.99848
#
# Poissons Ratio (x) = 0.44223 0.22775
# Poissons Ratio (y) = 0.37582 0.32486
# Poissons Ratio (z) = 0.11819 0.19838
#
# Static dielectric constant tensor:
#      x y z
#    x 3.205620 0.000000 0.000000 
#    y 0.000000 3.639790 0.000000 
#    z 0.000000 0.000000 2.968360 
# 
# 
# High freq. dielectric constant tensor:
#      x y z
#    x 1.819660 0.000000 0.000000 
#    y 0.000000 1.798280 0.000000 
#    z 0.000000 0.000000 1.720090 
# 
# From -- ./inp_files/22904.got.cif
#   From: 2010.03.12/outbox.cif.g09.slc.cpg/sg60_12_cif.got.tgz:22904.got - 2010.04.10 18:46:24.
