data_PCOD8247218
_publ_section_title
;
Structure prediction by ZEFSAII (Michael W. Deem and Ramdas Pophale) SiO2 
 PCOD8247218
Probable space group: P B C N
;
_chemical_formula_sum "Si O2"
_cell_formula_units_Z 64
_cell_length_a 20.812612
_cell_length_b 17.854488
_cell_length_c 9.837093
_cell_angle_alpha 90.000000
_cell_angle_beta 90.000000
_cell_angle_gamma 90.000000
_cell_volume 3655.449310
_symmetry_space_group_name_H-M "P B C N"
_symmetry_group_IT_number 60
_symmetry_cell_setting 'orthorhombic'
loop_
_space_group_symop_operation_xyz
x,y,z
1/2-x,1/2-y,1/2+z
1/2+x,1/2-y,-z
-x,y,1/2-z
-x,-y,-z
1/2+x,1/2+y,1/2-z
1/2-x,1/2+y,z
x,-y,1/2+z
loop_
_atom_site_type_symbol
_atom_site_label
_atom_site_fract_x
_atom_site_fract_y
_atom_site_fract_z
Si Si1 0.531771 0.207846 0.395658
Si Si2 0.825509 0.196843 0.256063
Si Si3 0.894250 0.559631 0.472536
Si Si4 0.658723 0.707470 0.953957
Si Si5 0.754450 0.352846 0.255134
Si Si6 0.947346 0.730664 0.853349
Si Si7 0.614466 0.074943 0.785344
Si Si8 0.266587 0.137917 0.043979
O O1 0.500000 0.205665 0.250000
O O2 0.557681 0.126239 0.434961
O O3 0.587839 0.270219 0.402192
O O4 0.474079 0.229986 0.495147
O O5 0.781912 0.269755 0.244725
O O6 0.887537 0.213108 0.348358
O O7 0.785756 0.132385 0.335372
O O8 0.845331 0.170572 0.104451
O O9 0.913500 0.484647 0.392556
O O10 0.896164 0.544102 0.633242
O O11 0.822228 0.578719 0.423892
O O12 0.691825 0.646960 0.852679
O O13 0.702571 0.780243 0.962229
O O14 0.810201 0.407523 0.313034
O O15 0.734420 0.378845 0.103097
O O16 0.927085 0.649174 0.800815
O O17 0.000000 0.762283 0.750000
#
# Coordination Sequence:
#
# PCOD8247218 Si02
#       8
#     8   8   8   8   8   8   8   8
#     4  11  23  33  45  69  96 130 163 197 226 277
#     4   9  16  28  49  66  85 120 150 190 238 283
#     4  10  21  36  47  67  95 125 166 201 229 271
#     4   9  16  30  46  66  91 113 151 195 236 277
#     4   8  16  30  45  66  89 113 149 196 243 273
#     4  11  19  35  47  64  98 130 158 190 233 270
#     4  10  21  34  50  66  92 130 162 200 234 269
#     4   8  16  30  47  65  87 114 151 196 240 275
#
# _framework density 17.508106999999999
#
# number of rings (size 3 to 8) (size 9 to 14) (size 15 to 20)
#    0.000    2.500    2.500    1.500    3.500    2.000 
#    4.500    0.000    0.000    0.000    0.000    0.000 
#    0.000    2.000    0.000    0.125    0.000    0.125 
#
# Total GULP energy -793345.275348 kJ/mol
# GULP energy per Si atom -12396.019927 kJ/mol
# Density = 1.746826 g / cm^3
# Si number density = 17.508107 Si / 1000 Ang^3
#
#
#
# Elastic Constant Matrix: (Units=GPa)
#
#
# Indices 1 2 3 4 5 6 
#
# 1 71.8869 10.3723 37.8318 0.0000 0.0000 0.0000
# 2 10.3723 3.5068 10.9650 0.0000 0.0000 0.0000
# 3 37.8318 10.9650 105.8058 0.0000 0.0000 0.0000
# 4 0.0000 0.0000 0.0000 17.7543 0.0000 0.0000
# 5 0.0000 0.0000 0.0000 0.0000 37.9433 0.0000
# 6 0.0000 0.0000 0.0000 0.0000 0.0000 6.9490
#
#
#
# Elastic Compliance Matrix: (Units=1/GPa)
#
#
# Indices 1 2 3 4 5 6 
#
# 1 0.024510 -0.066708 -0.001850 0.000000 0.000000 0.000000
# 2 -0.066708 0.603426 -0.038683 0.000000 0.000000 0.000000
# 3 -0.001850 -0.038683 0.014122 0.000000 0.000000 0.000000
# 4 0.000000 0.000000 0.000000 0.056324 0.000000 0.000000
# 5 0.000000 0.000000 0.000000 0.000000 0.026355 0.000000
# 6 0.000000 0.000000 0.000000 0.000000 0.000000 0.143905
#
#
# Mechanical properties :
#
#
# Convention : Reuss Voigt Hill
#
# Bulk Modulus (GPa) = 2.33878 33.28196 17.81037
# Shear Modulus (GPa) = 4.07947 20.66469 12.37208
#
# Velocity S-wave (km/s) = 1.52810 3.43927 2.66117
# Velocity P-wave (km/s) = 2.11002 5.90103 4.43138
#
# Compressibility (1/GPa) = 0.42757390
#
# Stress axis : x y z
#
# Youngs Moduli (GPa) = 40.80036 1.65720 70.81261
#
# Poissons Ratio (x) = 0.11055 0.13103
# Poissons Ratio (y) = 2.72172 2.73925
# Poissons Ratio (z) = 0.07550 0.06411
#
# Static dielectric constant tensor:
#      x y z
#    x 3.382960 0.000000 0.000000 
#    y 0.000000 2.781030 0.000000 
#    z 0.000000 0.000000 3.570610 
# 
# 
# High freq. dielectric constant tensor:
#      x y z
#    x 1.673200 0.000000 0.000000 
#    y 0.000000 1.614150 0.000000 
#    z 0.000000 0.000000 1.691340 
# 
# From -- ./inp_files/7085.got.cif
#   From: 2010.03.12/outbox.cif.g09.slc.cpg/sg60_4_cif.got.tgz:7085.got - 2010.04.10 18:46:24.
