data_PCOD8247125
_publ_section_title
;
Structure prediction by ZEFSAII (Michael W. Deem and Ramdas Pophale) SiO2 
 PCOD8247125
Probable space group: P B C N
;
_chemical_formula_sum "Si O2"
_cell_formula_units_Z 48
_cell_length_a 8.407567
_cell_length_b 9.697699
_cell_length_c 29.696318
_cell_angle_alpha 90.000000
_cell_angle_beta 90.000000
_cell_angle_gamma 90.000000
_cell_volume 2421.261198
_symmetry_space_group_name_H-M "P B C N"
_symmetry_group_IT_number 60
_symmetry_cell_setting 'orthorhombic'
loop_
_space_group_symop_operation_xyz
x,y,z
1/2-x,1/2-y,1/2+z
1/2+x,1/2-y,-z
-x,y,1/2-z
-x,-y,-z
1/2+x,1/2+y,1/2-z
1/2-x,1/2+y,z
x,-y,1/2+z
loop_
_atom_site_type_symbol
_atom_site_label
_atom_site_fract_x
_atom_site_fract_y
_atom_site_fract_z
Si Si1 0.944326 0.227145 0.394967
Si Si2 0.443426 0.036915 0.950685
Si Si3 0.335013 0.861242 0.325038
Si Si4 0.414603 0.150393 0.295335
Si Si5 0.573397 0.804305 0.889739
Si Si6 0.375060 0.550125 0.906994
O O1 0.756219 0.234328 0.392588
O O2 0.008742 0.306514 0.439101
O O3 0.012897 0.293503 0.349242
O O4 0.999771 0.071139 0.401005
O O5 0.536769 0.947299 0.913846
O O6 0.251574 0.019704 0.947035
O O7 0.500000 0.000000 0.000000
O O8 0.247106 0.739399 0.298129
O O9 0.383420 0.985903 0.291930
O O10 0.223318 0.934859 0.361374
O O11 0.500000 0.198616 0.250000
O O12 0.525811 0.186040 0.337664
O O13 0.472020 0.689454 0.916569
#
# Coordination Sequence:
#
# PCOD8247125 Si02
#       6
#     8   8   8   8   8   8
#     4  11  21  39  67  92 130 169 213 265 322 384
#     4  11  23  41  64  93 127 171 219 264 325 389
#     4  10  20  42  63  91 125 175 211 259 325 374
#     4  11  23  42  66  93 129 168 221 265 323 387
#     4  11  23  40  63  96 127 169 217 266 325 387
#     4  10  20  40  67  85 126 171 208 257 321 381
#
# _framework density 19.824377999999999
#
# number of rings (size 3 to 8) (size 9 to 14) (size 15 to 20)
#    0.000    1.333    5.000    3.000    0.000    4.000 
#    3.000    3.333    0.000    0.000    0.000    0.000 
#    0.000    0.000    0.000    0.000    0.000    0.000 
#
# Total GULP energy -595286.644708 kJ/mol
# GULP energy per Si atom -12401.805098 kJ/mol
# Density = 1.977926 g / cm^3
# Si number density = 19.824378 Si / 1000 Ang^3
#
#
#
# Elastic Constant Matrix: (Units=GPa)
#
#
# Indices 1 2 3 4 5 6 
#
# 1 134.5548 24.5308 42.1705 0.0000 0.0000 0.0000
# 2 24.5308 81.2406 18.0353 0.0000 0.0000 0.0000
# 3 42.1705 18.0353 92.3987 0.0000 0.0000 0.0000
# 4 0.0000 0.0000 0.0000 12.2483 0.0000 0.0000
# 5 0.0000 0.0000 0.0000 0.0000 28.5500 0.0000
# 6 0.0000 0.0000 0.0000 0.0000 0.0000 33.7499
#
#
#
# Elastic Compliance Matrix: (Units=1/GPa)
#
#
# Indices 1 2 3 4 5 6 
#
# 1 0.008937 -0.001874 -0.003713 0.000000 0.000000 0.000000
# 2 -0.001874 0.013260 -0.001733 0.000000 0.000000 0.000000
# 3 -0.003713 -0.001733 0.012856 0.000000 0.000000 0.000000
# 4 0.000000 0.000000 0.000000 0.081644 0.000000 0.000000
# 5 0.000000 0.000000 0.000000 0.000000 0.035026 0.000000
# 6 0.000000 0.000000 0.000000 0.000000 0.000000 0.029630
#
#
# Mechanical properties :
#
#
# Convention : Reuss Voigt Hill
#
# Bulk Modulus (GPa) = 48.99024 53.07415 51.03220
# Shear Modulus (GPa) = 24.65516 29.80680 27.23098
#
# Velocity S-wave (km/s) = 3.53041 3.88176 3.71025
# Velocity P-wave (km/s) = 6.43305 6.84989 6.64474
#
# Compressibility (1/GPa) = 0.02041223
#
# Stress axis : x y z
#
# Youngs Moduli (GPa) = 111.89001 75.41624 77.78752
#
# Poissons Ratio (x) = 0.14136 0.28883
# Poissons Ratio (y) = 0.20972 0.13478
# Poissons Ratio (z) = 0.41546 0.13068
#
# Static dielectric constant tensor:
#      x y z
#    x 3.776490 0.000000 0.000000 
#    y 0.000000 3.842370 0.000000 
#    z 0.000000 0.000000 3.428440 
# 
# 
# High freq. dielectric constant tensor:
#      x y z
#    x 1.779320 0.000000 0.000000 
#    y 0.000000 1.793360 0.000000 
#    z 0.000000 0.000000 1.744550 
# 
# From -- ./inp_files/25926.got.cif
#   From: 2010.03.12/outbox.cif.g09.slc.cpg/sg60_13_cif.got.tgz:25926.got - 2010.04.10 18:46:24.
