data_PCOD8247864
_publ_section_title
;
Structure prediction by ZEFSAII (Michael W. Deem and Ramdas Pophale) SiO2 
 PCOD8247864
Probable space group: P B C N
;
_chemical_formula_sum "Si O2"
_cell_formula_units_Z 28
_cell_length_a 7.163617
_cell_length_b 14.668971
_cell_length_c 12.001872
_cell_angle_alpha 90.000000
_cell_angle_beta 90.000000
_cell_angle_gamma 90.000000
_cell_volume 1261.191396
_symmetry_space_group_name_H-M "P B C N"
_symmetry_group_IT_number 60
_symmetry_cell_setting 'orthorhombic'
loop_
_space_group_symop_operation_xyz
x,y,z
1/2-x,1/2-y,1/2+z
1/2+x,1/2-y,-z
-x,y,1/2-z
-x,-y,-z
1/2+x,1/2+y,1/2-z
1/2-x,1/2+y,z
x,-y,1/2+z
loop_
_atom_site_type_symbol
_atom_site_label
_atom_site_fract_x
_atom_site_fract_y
_atom_site_fract_z
Si Si1 0.220601 0.850159 0.553129
Si Si2 0.561814 0.318991 0.371693
Si Si3 0.187915 0.514985 0.685784
Si Si4 0.500000 0.600903 0.250000
O O1 0.362449 0.766270 0.558173
O O2 0.335041 0.943072 0.582509
O O3 0.123674 0.857534 0.432575
O O4 0.051411 0.836719 0.643655
O O5 0.500000 0.284854 0.250000
O O6 0.723546 0.393933 0.364802
O O7 0.326193 0.467363 0.776126
O O8 0.000000 0.539533 0.750000
#
# Coordination Sequence:
#
# PCOD8247864 Si02
#       4
#     8   8   8   4
#     4  10  25  42  67  97 143 172 224 289 333 391
#     4  12  25  43  70  99 138 183 232 275 344 411
#     4  10  22  43  73 101 134 181 221 282 344 405
#     4   8  22  46  64  98 144 162 226 284 336 386
#
# _framework density 22.201228
#
# number of rings (size 3 to 8) (size 9 to 14) (size 15 to 20)
#    1.714    0.000    1.429    1.714    6.000    0.000 
#    0.000    4.286    0.000    0.000    0.000    0.000 
#    0.000    0.000    0.000    0.000    0.000    0.000 
#
# Total GULP energy -346956.779717 kJ/mol
# GULP energy per Si atom -12391.313561 kJ/mol
# Density = 2.215070 g / cm^3
# Si number density = 22.201228 Si / 1000 Ang^3
#
#
#
# Elastic Constant Matrix: (Units=GPa)
#
#
# Indices 1 2 3 4 5 6 
#
# 1 103.1940 45.0693 33.1003 0.0000 0.0000 0.0000
# 2 45.0693 116.3484 13.5398 0.0000 0.0000 0.0000
# 3 33.1003 13.5398 93.4565 0.0000 0.0000 0.0000
# 4 0.0000 0.0000 0.0000 12.1509 0.0000 0.0000
# 5 0.0000 0.0000 0.0000 0.0000 52.2183 0.0000
# 6 0.0000 0.0000 0.0000 0.0000 0.0000 36.9445
#
#
#
# Elastic Compliance Matrix: (Units=1/GPa)
#
#
# Indices 1 2 3 4 5 6 
#
# 1 0.012938 -0.004555 -0.003922 0.000000 0.000000 0.000000
# 2 -0.004555 0.010346 0.000114 0.000000 0.000000 0.000000
# 3 -0.003922 0.000114 0.012073 0.000000 0.000000 0.000000
# 4 0.000000 0.000000 0.000000 0.082298 0.000000 0.000000
# 5 0.000000 0.000000 0.000000 0.000000 0.019150 0.000000
# 6 0.000000 0.000000 0.000000 0.000000 0.000000 0.027068
#
#
# Mechanical properties :
#
#
# Convention : Reuss Voigt Hill
#
# Bulk Modulus (GPa) = 53.67540 55.15750 54.41645
# Shear Modulus (GPa) = 26.76516 35.01538 30.89027
#
# Velocity S-wave (km/s) = 3.47590 3.97568 3.73416
# Velocity P-wave (km/s) = 6.35125 6.78034 6.56930
#
# Compressibility (1/GPa) = 0.01863051
#
# Stress axis : x y z
#
# Youngs Moduli (GPa) = 77.29084 96.65458 82.83067
#
# Poissons Ratio (x) = 0.44029 0.32490
# Poissons Ratio (y) = 0.35208 -0.00948
# Poissons Ratio (z) = 0.30317 -0.01106
#
# Static dielectric constant tensor:
#      x y z
#    x 3.807980 0.000000 0.000000 
#    y 0.000000 3.807490 0.000000 
#    z 0.000000 0.000000 3.785850 
# 
# 
# High freq. dielectric constant tensor:
#      x y z
#    x 1.865260 0.000000 0.000000 
#    y 0.000000 1.874270 0.000000 
#    z 0.000000 0.000000 1.856370 
# 
# From -- ./inp_files/9447.got.cif
#   From: 2010.03.12/outbox.cif.g09.slc.cpg/sg60_5_cif.got.tgz:9447.got - 2010.04.10 18:46:24.
