data_PCOD8247038
_publ_section_title
;
Structure prediction by ZEFSAII (Michael W. Deem and Ramdas Pophale) SiO2 
 PCOD8247038
Probable space group: P B C N
;
_chemical_formula_sum "Si O2"
_cell_formula_units_Z 48
_cell_length_a 11.559286
_cell_length_b 17.402496
_cell_length_c 12.212769
_cell_angle_alpha 90.000000
_cell_angle_beta 90.000000
_cell_angle_gamma 90.000000
_cell_volume 2456.725844
_symmetry_space_group_name_H-M "P B C N"
_symmetry_group_IT_number 60
_symmetry_cell_setting 'orthorhombic'
loop_
_space_group_symop_operation_xyz
x,y,z
1/2-x,1/2-y,1/2+z
1/2+x,1/2-y,-z
-x,y,1/2-z
-x,-y,-z
1/2+x,1/2+y,1/2-z
1/2-x,1/2+y,z
x,-y,1/2+z
loop_
_atom_site_type_symbol
_atom_site_label
_atom_site_fract_x
_atom_site_fract_y
_atom_site_fract_z
Si Si1 0.019995 0.646246 0.127826
Si Si2 0.127209 0.935308 0.761840
Si Si3 0.622427 0.394472 0.148016
Si Si4 0.225961 0.615595 0.455817
Si Si5 0.771400 0.443693 0.958365
Si Si6 0.113014 0.816721 0.131037
O O1 0.100865 0.585809 0.066297
O O2 0.081105 0.728070 0.132112
O O3 0.000000 0.614462 0.250000
O O4 0.899840 0.651627 0.063113
O O5 0.203286 0.882677 0.842277
O O6 0.188760 0.940108 0.645686
O O7 0.000000 0.897412 0.750000
O O8 0.110066 0.018985 0.812133
O O9 0.659380 0.338775 0.247742
O O10 0.497689 0.369090 0.101029
O O11 0.717388 0.389529 0.052734
O O12 0.215946 0.530317 0.502123
O O13 0.287200 0.670472 0.543172
#
# Coordination Sequence:
#
# PCOD8247038 Si02
#       6
#     8   8   8   8   8   8
#     4  12  25  42  63  91 130 175 206 257 322 389
#     4  11  19  36  65  98 125 158 217 267 312 366
#     4  10  20  38  63  94 127 162 204 264 318 366
#     4  11  24  42  65  93 127 169 217 265 313 378
#     4  11  23  40  66  95 124 166 216 262 312 377
#     4  11  22  41  65  90 129 165 209 258 327 372
#
# _framework density 19.538198999999999
#
# number of rings (size 3 to 8) (size 9 to 14) (size 15 to 20)
#    0.000    1.000    6.667    1.500    2.333    2.667 
#    0.000    0.833    0.000    0.000    0.000    0.000 
#    0.000    0.000    0.000    0.000    0.000    0.000 
#
# Total GULP energy -595407.724505 kJ/mol
# GULP energy per Si atom -12404.327594 kJ/mol
# Density = 1.949373 g / cm^3
# Si number density = 19.538199 Si / 1000 Ang^3
#
#
#
# Elastic Constant Matrix: (Units=GPa)
#
#
# Indices 1 2 3 4 5 6 
#
# 1 110.0938 12.5449 50.1250 0.0000 0.0000 0.0000
# 2 12.5449 38.7896 16.9099 0.0000 0.0000 0.0000
# 3 50.1250 16.9099 101.1272 0.0000 0.0000 0.0000
# 4 0.0000 0.0000 0.0000 9.8834 0.0000 0.0000
# 5 0.0000 0.0000 0.0000 0.0000 39.9739 0.0000
# 6 0.0000 0.0000 0.0000 0.0000 0.0000 13.8785
#
#
#
# Elastic Compliance Matrix: (Units=1/GPa)
#
#
# Indices 1 2 3 4 5 6 
#
# 1 0.011797 -0.001366 -0.005619 0.000000 0.000000 0.000000
# 2 -0.001366 0.027965 -0.003999 0.000000 0.000000 0.000000
# 3 -0.005619 -0.003999 0.013342 0.000000 0.000000 0.000000
# 4 0.000000 0.000000 0.000000 0.101180 0.000000 0.000000
# 5 0.000000 0.000000 0.000000 0.000000 0.025016 0.000000
# 6 0.000000 0.000000 0.000000 0.000000 0.000000 0.072054
#
#
# Mechanical properties :
#
#
# Convention : Reuss Voigt Hill
#
# Bulk Modulus (GPa) = 32.11638 45.46334 38.78986
# Shear Modulus (GPa) = 17.62413 24.10920 20.86666
#
# Velocity S-wave (km/s) = 3.00665 3.51658 3.27156
# Velocity P-wave (km/s) = 5.34104 6.30935 5.84528
#
# Compressibility (1/GPa) = 0.03113676
#
# Stress axis : x y z
#
# Youngs Moduli (GPa) = 84.76670 35.75867 74.94902
#
# Poissons Ratio (x) = 0.04884 0.42114
# Poissons Ratio (y) = 0.11577 0.29974
# Poissons Ratio (z) = 0.47630 0.14301
#
# Static dielectric constant tensor:
#      x y z
#    x 3.703520 0.000000 0.000000 
#    y 0.000000 3.453710 0.000000 
#    z 0.000000 0.000000 3.813130 
# 
# 
# High freq. dielectric constant tensor:
#      x y z
#    x 1.764580 0.000000 0.000000 
#    y 0.000000 1.748300 0.000000 
#    z 0.000000 0.000000 1.773550 
# 
# From -- ./inp_files/11012.got.cif
#   From: 2010.03.12/outbox.cif.g09.slc.cpg/sg60_6_cif.got.tgz:11012.got - 2010.04.10 18:46:24.
