data_PCOD8247199
_publ_section_title
;
Structure prediction by ZEFSAII (Michael W. Deem and Ramdas Pophale) SiO2 
 PCOD8247199
Probable space group: P B C N
;
_chemical_formula_sum "Si O2"
_cell_formula_units_Z 28
_cell_length_a 11.470299
_cell_length_b 8.202452
_cell_length_c 13.037475
_cell_angle_alpha 90.000000
_cell_angle_beta 90.000000
_cell_angle_gamma 90.000000
_cell_volume 1226.625320
_symmetry_space_group_name_H-M "P B C N"
_symmetry_group_IT_number 60
_symmetry_cell_setting 'orthorhombic'
loop_
_space_group_symop_operation_xyz
x,y,z
1/2-x,1/2-y,1/2+z
1/2+x,1/2-y,-z
-x,y,1/2-z
-x,-y,-z
1/2+x,1/2+y,1/2-z
1/2-x,1/2+y,z
x,-y,1/2+z
loop_
_atom_site_type_symbol
_atom_site_label
_atom_site_fract_x
_atom_site_fract_y
_atom_site_fract_z
Si Si1 0.563390 0.858324 0.440381
Si Si2 0.084976 0.892393 0.845879
Si Si3 0.500000 0.958877 0.750000
Si Si4 0.680701 0.746485 0.624373
O O1 0.487738 0.690831 0.438008
O O2 0.679804 0.812953 0.505310
O O3 0.500000 0.000000 0.500000
O O4 0.578497 0.923061 0.323618
O O5 0.192246 0.766511 0.824674
O O6 0.000000 0.918732 0.750000
O O7 0.145471 0.058719 0.878855
O O8 0.586370 0.845268 0.688343
#
# Coordination Sequence:
#
# PCOD8247199 Si02
#       4
#     8   8   4   8
#     4  10  22  44  70 102 144 179 242 291 364 436
#     4  12  25  48  73 109 146 195 248 299 367 439
#     4  10  20  44  72 108 138 198 236 298 368 436
#     4  11  24  46  70 104 151 188 244 305 361 433
#
# _framework density 22.826858000000001
#
# number of rings (size 3 to 8) (size 9 to 14) (size 15 to 20)
#    0.000    1.143    2.857    4.286    0.000    0.000 
#   20.571    0.000    0.000    0.000    0.000    0.000 
#    0.000    0.000    0.000    0.000    0.000    0.000 
#
# Total GULP energy -346878.801387 kJ/mol
# GULP energy per Si atom -12388.528621 kJ/mol
# Density = 2.277490 g / cm^3
# Si number density = 22.826858 Si / 1000 Ang^3
#
#
#
# Elastic Constant Matrix: (Units=GPa)
#
#
# Indices 1 2 3 4 5 6 
#
# 1 92.6332 16.7873 29.1313 0.0000 0.0000 0.0000
# 2 16.7873 132.1658 34.8152 0.0000 0.0000 0.0000
# 3 29.1313 34.8152 106.8171 0.0000 0.0000 0.0000
# 4 0.0000 0.0000 0.0000 25.1653 0.0000 0.0000
# 5 0.0000 0.0000 0.0000 0.0000 33.6546 0.0000
# 6 0.0000 0.0000 0.0000 0.0000 0.0000 34.1586
#
#
#
# Elastic Compliance Matrix: (Units=1/GPa)
#
#
# Indices 1 2 3 4 5 6 
#
# 1 0.011870 -0.000716 -0.003004 0.000000 0.000000 0.000000
# 2 -0.000716 0.008320 -0.002516 0.000000 0.000000 0.000000
# 3 -0.003004 -0.002516 0.011001 0.000000 0.000000 0.000000
# 4 0.000000 0.000000 0.000000 0.039737 0.000000 0.000000
# 5 0.000000 0.000000 0.000000 0.000000 0.029714 0.000000
# 6 0.000000 0.000000 0.000000 0.000000 0.000000 0.029275
#
#
# Mechanical properties :
#
#
# Convention : Reuss Voigt Hill
#
# Bulk Modulus (GPa) = 53.42447 54.78708 54.10577
# Shear Modulus (GPa) = 33.64074 35.32118 34.48096
#
# Velocity S-wave (km/s) = 3.84309 3.93791 3.89079
# Velocity P-wave (km/s) = 6.56867 6.68800 6.62861
#
# Compressibility (1/GPa) = 0.01871802
#
# Stress axis : x y z
#
# Youngs Moduli (GPa) = 84.24830 120.19039 90.89972
#
# Poissons Ratio (x) = 0.08611 0.27303
# Poissons Ratio (y) = 0.06036 0.22874
# Poissons Ratio (z) = 0.25305 0.30245
#
# Static dielectric constant tensor:
#      x y z
#    x 3.918270 0.000000 0.000000 
#    y 0.000000 4.566150 0.000000 
#    z 0.000000 0.000000 4.599440 
# 
# 
# High freq. dielectric constant tensor:
#      x y z
#    x 1.877660 0.000000 0.000000 
#    y 0.000000 1.934380 0.000000 
#    z 0.000000 0.000000 1.900010 
# 
# From -- ./inp_files/15514.got.cif
#   From: 2010.03.12/outbox.cif.g09.slc.cpg/sg60_8_cif.got.tgz:15514.got - 2010.04.10 18:46:24.
