data_PCOD8247357
_publ_section_title
;
Structure prediction by ZEFSAII (Michael W. Deem and Ramdas Pophale) SiO2 
 PCOD8247357
Probable space group: P B C N
;
_chemical_formula_sum "Si O2"
_cell_formula_units_Z 52
_cell_length_a 9.356638
_cell_length_b 18.993367
_cell_length_c 15.171710
_cell_angle_alpha 90.000000
_cell_angle_beta 90.000000
_cell_angle_gamma 90.000000
_cell_volume 2696.226172
_symmetry_space_group_name_H-M "P B C N"
_symmetry_group_IT_number 60
_symmetry_cell_setting 'orthorhombic'
loop_
_space_group_symop_operation_xyz
x,y,z
1/2-x,1/2-y,1/2+z
1/2+x,1/2-y,-z
-x,y,1/2-z
-x,-y,-z
1/2+x,1/2+y,1/2-z
1/2-x,1/2+y,z
x,-y,1/2+z
loop_
_atom_site_type_symbol
_atom_site_label
_atom_site_fract_x
_atom_site_fract_y
_atom_site_fract_z
Si Si1 0.845267 0.309693 0.503669
Si Si2 0.000000 0.728408 0.250000
Si Si3 0.000000 0.053544 0.250000
Si Si4 0.000000 0.492417 0.750000
Si Si5 0.956571 0.196144 0.926788
Si Si6 0.785579 0.376847 0.692873
Si Si7 0.920459 0.035210 0.921096
Si Si8 0.911137 0.451395 0.432821
O O1 0.706921 0.286875 0.448895
O O2 0.794943 0.345213 0.595080
O O3 0.939139 0.369257 0.454169
O O4 0.940132 0.239070 0.507247
O O5 0.998196 0.778058 0.167821
O O6 0.142453 0.680261 0.242304
O O7 0.876586 0.106789 0.218547
O O8 0.949947 0.003414 0.329040
O O9 0.125587 0.448316 0.795901
O O10 0.055867 0.540191 0.670392
O O11 0.984449 0.113481 0.922938
O O12 0.754895 0.031648 0.945795
O O13 0.000000 0.000000 0.000000
O O14 0.000000 0.500000 0.500000
#
# Coordination Sequence:
#
# PCOD8247357 Si02
#       8
#     8   4   4   4   8   8   8   8
#     4  10  22  41  61  89 125 169 208 257 310 382
#     4   9  21  40  64  84 120 176 204 250 310 386
#     4  12  21  38  61  95 129 158 200 274 317 366
#     4  11  20  40  61  95 127 158 204 256 309 376
#     4  10  22  42  59  86 123 163 214 252 315 375
#     4  10  21  38  63  92 125 163 209 249 318 379
#     4  11  25  39  62  93 125 161 206 269 322 369
#     4  11  22  39  65  92 125 164 213 260 307 381
#
# _framework density 19.286216
#
# number of rings (size 3 to 8) (size 9 to 14) (size 15 to 20)
#    0.000    1.538    3.077    2.308    0.000    3.692 
#    0.000    3.077    0.000    0.923    0.000    0.000 
#    0.000    0.000    0.000    0.000    0.000    0.000 
#
# Total GULP energy -644605.278649 kJ/mol
# GULP energy per Si atom -12396.255359 kJ/mol
# Density = 1.924232 g / cm^3
# Si number density = 19.286216 Si / 1000 Ang^3
#
#
#
# Elastic Constant Matrix: (Units=GPa)
#
#
# Indices 1 2 3 4 5 6 
#
# 1 102.5039 65.5656 20.9881 0.0000 0.0000 0.0000
# 2 65.5656 136.8143 44.1133 0.0000 0.0000 0.0000
# 3 20.9881 44.1133 72.2341 0.0000 0.0000 0.0000
# 4 0.0000 0.0000 0.0000 8.8365 0.0000 0.0000
# 5 0.0000 0.0000 0.0000 0.0000 33.0853 0.0000
# 6 0.0000 0.0000 0.0000 0.0000 0.0000 34.4463
#
#
#
# Elastic Compliance Matrix: (Units=1/GPa)
#
#
# Indices 1 2 3 4 5 6 
#
# 1 0.014068 -0.006754 0.000037 0.000000 0.000000 0.000000
# 2 -0.006754 0.012344 -0.005576 0.000000 0.000000 0.000000
# 3 0.000037 -0.005576 0.017238 0.000000 0.000000 0.000000
# 4 0.000000 0.000000 0.000000 0.113166 0.000000 0.000000
# 5 0.000000 0.000000 0.000000 0.000000 0.030225 0.000000
# 6 0.000000 0.000000 0.000000 0.000000 0.000000 0.029031
#
#
# Mechanical properties :
#
#
# Convention : Reuss Voigt Hill
#
# Bulk Modulus (GPa) = 52.45308 63.65403 58.05356
# Shear Modulus (GPa) = 20.24188 27.33266 23.78727
#
# Velocity S-wave (km/s) = 3.24319 3.76867 3.51576
# Velocity P-wave (km/s) = 6.42500 7.21206 6.82988
#
# Compressibility (1/GPa) = 0.01906466
#
# Stress axis : x y z
#
# Youngs Moduli (GPa) = 71.08240 81.01320 58.01019
#
# Poissons Ratio (x) = 0.54715 -0.00214
# Poissons Ratio (y) = 0.48008 0.32346
# Poissons Ratio (z) = -0.00263 0.45172
#
# Static dielectric constant tensor:
#      x y z
#    x 3.606690 0.000000 0.000000 
#    y 0.000000 3.761430 0.000000 
#    z 0.000000 0.000000 3.614940 
# 
# 
# High freq. dielectric constant tensor:
#      x y z
#    x 1.753220 0.000000 0.000000 
#    y 0.000000 1.755320 0.000000 
#    z 0.000000 0.000000 1.761210 
# 
# From -- ./inp_files/19544.got.cif
#   From: 2010.03.12/outbox.cif.g09.slc.cpg/sg60_10_cif.got.tgz:19544.got - 2010.04.10 18:46:24.
