data_PCOD8247258
_publ_section_title
;
Structure prediction by ZEFSAII (Michael W. Deem and Ramdas Pophale) SiO2 
 PCOD8247258
Probable space group: P B C N
;
_chemical_formula_sum "Si O2"
_cell_formula_units_Z 40
_cell_length_a 5.356727
_cell_length_b 10.082787
_cell_length_c 30.063670
_cell_angle_alpha 90.000000
_cell_angle_beta 90.000000
_cell_angle_gamma 90.000000
_cell_volume 1623.760984
_symmetry_space_group_name_H-M "P B C N"
_symmetry_group_IT_number 60
_symmetry_cell_setting 'orthorhombic'
loop_
_space_group_symop_operation_xyz
x,y,z
1/2-x,1/2-y,1/2+z
1/2+x,1/2-y,-z
-x,y,1/2-z
-x,-y,-z
1/2+x,1/2+y,1/2-z
1/2-x,1/2+y,z
x,-y,1/2+z
loop_
_atom_site_type_symbol
_atom_site_label
_atom_site_fract_x
_atom_site_fract_y
_atom_site_fract_z
Si Si1 0.076918 0.213927 0.699795
Si Si2 0.352425 0.569248 0.875355
Si Si3 0.926205 0.713387 0.052549
Si Si4 0.842941 0.488526 0.841805
Si Si5 0.933097 0.122256 0.469246
O O1 0.135653 0.367549 0.692289
O O2 0.318164 0.123065 0.687573
O O3 0.000000 0.188131 0.750000
O O4 0.851674 0.169835 0.666959
O O5 0.420741 0.651242 0.919649
O O6 0.588288 0.468333 0.870705
O O7 0.083400 0.496023 0.874888
O O8 0.174254 0.621727 0.059420
O O9 0.671461 0.631982 0.064515
O O10 0.913145 0.746069 0.999835
O O11 0.000000 0.000000 0.500000
#
# Coordination Sequence:
#
# PCOD8247258 Si02
#       5
#     8   8   8   8   8
#     4  10  26  44  70  95 136 170 225 276 336 403
#     4  10  24  41  65  96 131 174 225 272 336 395
#     4  10  21  39  59  91 127 164 215 263 321 390
#     4  10  25  43  66  97 129 176 216 275 329 396
#     4  10  21  36  62  90 126 168 212 263 324 388
#
# _framework density 24.634167999999999
#
# number of rings (size 3 to 8) (size 9 to 14) (size 15 to 20)
#    1.200    0.800    0.000    1.800    5.600    3.200 
#    0.000    0.000    0.000    0.000    0.000    0.000 
#    0.000    0.000    0.000    0.000    0.000    0.000 
#
# Total GULP energy -495591.686604 kJ/mol
# GULP energy per Si atom -12389.792165 kJ/mol
# Density = 2.457810 g / cm^3
# Si number density = 24.634168 Si / 1000 Ang^3
#
#
#
# Elastic Constant Matrix: (Units=GPa)
#
#
# Indices 1 2 3 4 5 6 
#
# 1 235.2023 36.4813 52.9014 0.0000 0.0000 0.0000
# 2 36.4813 57.6026 -5.2992 0.0000 0.0000 0.0000
# 3 52.9014 -5.2992 64.8699 0.0000 0.0000 0.0000
# 4 0.0000 0.0000 0.0000 37.4387 0.0000 0.0000
# 5 0.0000 0.0000 0.0000 0.0000 32.7411 0.0000
# 6 0.0000 0.0000 0.0000 0.0000 0.0000 34.5451
#
#
#
# Elastic Compliance Matrix: (Units=1/GPa)
#
#
# Indices 1 2 3 4 5 6 
#
# 1 0.006137 -0.004380 -0.005363 0.000000 0.000000 0.000000
# 2 -0.004380 0.020618 0.005256 0.000000 0.000000 0.000000
# 3 -0.005363 0.005256 0.020218 0.000000 0.000000 0.000000
# 4 0.000000 0.000000 0.000000 0.026710 0.000000 0.000000
# 5 0.000000 0.000000 0.000000 0.000000 0.030543 0.000000
# 6 0.000000 0.000000 0.000000 0.000000 0.000000 0.028948
#
#
# Mechanical properties :
#
#
# Convention : Reuss Voigt Hill
#
# Bulk Modulus (GPa) = 26.31568 58.42688 42.37128
# Shear Modulus (GPa) = 32.29682 39.18440 35.74061
#
# Velocity S-wave (km/s) = 3.62478 3.99263 3.81314
# Velocity P-wave (km/s) = 5.31267 6.71000 6.05180
#
# Compressibility (1/GPa) = 0.03800017
#
# Stress axis : x y z
#
# Youngs Moduli (GPa) = 162.93976 48.50128 49.46050
#
# Poissons Ratio (x) = 0.21245 0.26524
# Poissons Ratio (y) = 0.71371 -0.25998
# Poissons Ratio (z) = 0.87380 -0.25494
#
# Static dielectric constant tensor:
#      x y z
#    x 4.717950 0.000000 0.000000 
#    y 0.000000 4.183780 0.000000 
#    z 0.000000 0.000000 4.164910 
# 
# 
# High freq. dielectric constant tensor:
#      x y z
#    x 1.992820 0.000000 0.000000 
#    y 0.000000 1.973440 0.000000 
#    z 0.000000 0.000000 1.975880 
# 
# From -- ./inp_files/25606.got.cif
#   From: 2010.03.12/outbox.cif.g09.slc.cpg/sg60_13_cif.got.tgz:25606.got - 2010.04.10 18:46:24.
