data_PCOD8247307
_publ_section_title
;
Structure prediction by ZEFSAII (Michael W. Deem and Ramdas Pophale) SiO2 
 PCOD8247307
Probable space group: P B C N
;
_chemical_formula_sum "Si O2"
_cell_formula_units_Z 56
_cell_length_a 14.399627
_cell_length_b 13.136209
_cell_length_c 12.688264
_cell_angle_alpha 90.000000
_cell_angle_beta 90.000000
_cell_angle_gamma 90.000000
_cell_volume 2400.067734
_symmetry_space_group_name_H-M "P B C N"
_symmetry_group_IT_number 60
_symmetry_cell_setting 'orthorhombic'
loop_
_space_group_symop_operation_xyz
x,y,z
1/2-x,1/2-y,1/2+z
1/2+x,1/2-y,-z
-x,y,1/2-z
-x,-y,-z
1/2+x,1/2+y,1/2-z
1/2-x,1/2+y,z
x,-y,1/2+z
loop_
_atom_site_type_symbol
_atom_site_label
_atom_site_fract_x
_atom_site_fract_y
_atom_site_fract_z
Si Si1 0.464360 0.369876 0.586562
Si Si2 0.960787 0.077176 0.641319
Si Si3 0.345813 0.288965 0.897483
Si Si4 0.178894 0.642007 0.066688
Si Si5 0.608401 0.983398 0.275865
Si Si6 0.185306 0.274717 0.178039
Si Si7 0.262732 0.501735 0.403078
O O1 0.462768 0.347191 0.459651
O O2 0.463634 0.490204 0.610871
O O3 0.557186 0.331359 0.643061
O O4 0.380698 0.316706 0.643689
O O5 0.000000 0.128037 0.750000
O O6 0.854671 0.038099 0.657963
O O7 0.293025 0.233303 0.802126
O O8 0.279762 0.380772 0.938771
O O9 0.377830 0.198402 0.975721
O O10 0.115870 0.582719 0.150263
O O11 0.221823 0.744680 0.117788
O O12 0.250503 0.563378 0.010422
O O13 0.500000 0.967700 0.250000
O O14 0.643920 0.886568 0.344673
O O15 0.672049 0.997251 0.172156
#
# Coordination Sequence:
#
# PCOD8247307 Si02
#       7
#     8   8   8   8   8   8   8
#     4  10  21  39  65 102 135 187 238 295 380 443
#     4  10  21  37  69 105 145 178 243 317 373 436
#     4  11  23  44  71 100 141 187 247 308 379 449
#     4  12  26  47  73 106 143 198 256 315 379 454
#     4  12  28  49  77 108 154 207 253 313 383 464
#     4  12  23  46  74 104 147 200 248 307 378 464
#     4  11  23  46  71 105 146 197 252 312 385 450
#
# _framework density 23.332675999999999
#
# number of rings (size 3 to 8) (size 9 to 14) (size 15 to 20)
#    0.000    0.857    4.286    3.857    0.000    1.714 
#    2.571    2.143    0.000    0.000    0.000    0.000 
#    0.000    0.000    0.000    0.000    0.000    0.000 
#
# Total GULP energy -693840.566475 kJ/mol
# GULP energy per Si atom -12390.010116 kJ/mol
# Density = 2.327957 g / cm^3
# Si number density = 23.332676 Si / 1000 Ang^3
#
#
#
# Elastic Constant Matrix: (Units=GPa)
#
#
# Indices 1 2 3 4 5 6 
#
# 1 65.4252 15.9920 7.0783 0.0000 0.0000 0.0000
# 2 15.9920 100.2891 20.6163 0.0000 0.0000 0.0000
# 3 7.0783 20.6163 100.5108 0.0000 0.0000 0.0000
# 4 0.0000 0.0000 0.0000 46.1290 0.0000 0.0000
# 5 0.0000 0.0000 0.0000 0.0000 30.4937 0.0000
# 6 0.0000 0.0000 0.0000 0.0000 0.0000 20.5808
#
#
#
# Elastic Compliance Matrix: (Units=1/GPa)
#
#
# Indices 1 2 3 4 5 6 
#
# 1 0.015942 -0.002413 -0.000628 0.000000 0.000000 0.000000
# 2 -0.002413 0.010775 -0.002040 0.000000 0.000000 0.000000
# 3 -0.000628 -0.002040 0.010412 0.000000 0.000000 0.000000
# 4 0.000000 0.000000 0.000000 0.021678 0.000000 0.000000
# 5 0.000000 0.000000 0.000000 0.000000 0.032794 0.000000
# 6 0.000000 0.000000 0.000000 0.000000 0.000000 0.048589
#
#
# Mechanical properties :
#
#
# Convention : Reuss Voigt Hill
#
# Bulk Modulus (GPa) = 37.08179 39.28870 38.18524
# Shear Modulus (GPa) = 31.37903 34.27659 32.82781
#
# Velocity S-wave (km/s) = 3.67120 3.83696 3.75500
# Velocity P-wave (km/s) = 5.82215 6.04192 5.93305
#
# Compressibility (1/GPa) = 0.02696742
#
# Stress axis : x y z
#
# Youngs Moduli (GPa) = 62.72583 92.80421 96.04422
#
# Poissons Ratio (x) = 0.22395 0.06029
# Poissons Ratio (y) = 0.15136 0.19595
# Poissons Ratio (z) = 0.03938 0.18934
#
# Static dielectric constant tensor:
#      x y z
#    x 3.967110 0.000000 0.000000 
#    y 0.000000 4.248610 0.000000 
#    z 0.000000 0.000000 4.454720 
# 
# 
# High freq. dielectric constant tensor:
#      x y z
#    x 1.904790 0.000000 0.000000 
#    y 0.000000 1.918790 0.000000 
#    z 0.000000 0.000000 1.928500 
# 
# From -- ./inp_files/11973.got.cif
#   From: 2010.03.12/outbox.cif.g09.slc.cpg/sg60_6_cif.got.tgz:11973.got - 2010.04.10 18:46:24.
