data_PCOD8247732
_publ_section_title
;
Structure prediction by ZEFSAII (Michael W. Deem and Ramdas Pophale) SiO2 
 PCOD8247732
Probable space group: P B C N
;
_chemical_formula_sum "Si O2"
_cell_formula_units_Z 48
_cell_length_a 9.829648
_cell_length_b 14.883038
_cell_length_c 16.054809
_cell_angle_alpha 90.000000
_cell_angle_beta 90.000000
_cell_angle_gamma 90.000000
_cell_volume 2348.738679
_symmetry_space_group_name_H-M "P B C N"
_symmetry_group_IT_number 60
_symmetry_cell_setting 'orthorhombic'
loop_
_space_group_symop_operation_xyz
x,y,z
1/2-x,1/2-y,1/2+z
1/2+x,1/2-y,-z
-x,y,1/2-z
-x,-y,-z
1/2+x,1/2+y,1/2-z
1/2-x,1/2+y,z
x,-y,1/2+z
loop_
_atom_site_type_symbol
_atom_site_label
_atom_site_fract_x
_atom_site_fract_y
_atom_site_fract_z
Si Si1 0.633566 0.055547 0.986624
Si Si2 0.900070 0.014120 0.076039
Si Si3 0.889832 0.367133 0.312726
Si Si4 0.008070 0.793384 0.918165
Si Si5 0.698521 0.247955 0.043268
Si Si6 0.629823 0.351812 0.199627
O O1 0.649526 0.065582 0.887138
O O2 0.753290 0.003893 0.033307
O O3 0.624486 0.153999 0.025796
O O4 0.500000 0.000000 0.000000
O O5 0.934164 0.111796 0.116924
O O6 0.906303 0.943709 0.151158
O O7 0.000000 0.000000 0.000000
O O8 0.955134 0.272731 0.345388
O O9 0.750972 0.356938 0.264278
O O10 0.000000 0.411170 0.250000
O O11 0.137554 0.751009 0.969630
O O12 0.880998 0.815233 0.980282
O O13 0.668635 0.272799 0.137532
O O14 0.500000 0.319506 0.250000
#
# Coordination Sequence:
#
# PCOD8247732 Si02
#       6
#     8   8   8   8   8   8
#     4  10  23  42  66  95 124 174 223 262 325 407
#     4  11  22  41  65  95 131 171 222 268 326 402
#     4  11  22  41  67  93 133 172 213 279 339 384
#     4  10  22  40  66  94 126 175 224 264 328 415
#     4  10  22  40  66  90 127 171 221 264 325 412
#     4  12  25  42  63  98 135 171 218 286 338 387
#
# _framework density 20.436502999999998
#
# number of rings (size 3 to 8) (size 9 to 14) (size 15 to 20)
#    0.000    1.333    3.333    2.000    7.000    0.667 
#    0.000    4.167    0.000    0.000    0.000    0.000 
#    0.000    0.000    0.000    0.000    0.000    0.000 
#
# Total GULP energy -594897.255519 kJ/mol
# GULP energy per Si atom -12393.692823 kJ/mol
# Density = 2.038999 g / cm^3
# Si number density = 20.436503 Si / 1000 Ang^3
#
#
#
# Elastic Constant Matrix: (Units=GPa)
#
#
# Indices 1 2 3 4 5 6 
#
# 1 125.1272 20.1309 32.3963 0.0000 0.0000 0.0000
# 2 20.1309 40.9563 17.0124 0.0000 0.0000 0.0000
# 3 32.3963 17.0124 105.6791 0.0000 0.0000 0.0000
# 4 0.0000 0.0000 0.0000 21.7790 0.0000 0.0000
# 5 0.0000 0.0000 0.0000 0.0000 52.8582 0.0000
# 6 0.0000 0.0000 0.0000 0.0000 0.0000 39.2419
#
#
#
# Elastic Compliance Matrix: (Units=1/GPa)
#
#
# Indices 1 2 3 4 5 6 
#
# 1 0.009143 -0.003568 -0.002228 0.000000 0.000000 0.000000
# 2 -0.003568 0.027559 -0.003343 0.000000 0.000000 0.000000
# 3 -0.002228 -0.003343 0.010684 0.000000 0.000000 0.000000
# 4 0.000000 0.000000 0.000000 0.045916 0.000000 0.000000
# 5 0.000000 0.000000 0.000000 0.000000 0.018919 0.000000
# 6 0.000000 0.000000 0.000000 0.000000 0.000000 0.025483
#
#
# Mechanical properties :
#
#
# Convention : Reuss Voigt Hill
#
# Bulk Modulus (GPa) = 34.35615 45.64908 40.00262
# Shear Modulus (GPa) = 30.17806 36.25736 33.21771
#
# Velocity S-wave (km/s) = 3.84692 4.21663 4.03601
# Velocity P-wave (km/s) = 6.04809 6.78912 6.42929
#
# Compressibility (1/GPa) = 0.02910687
#
# Stress axis : x y z
#
# Youngs Moduli (GPa) = 109.37473 36.28634 93.59961
#
# Poissons Ratio (x) = 0.12948 0.20857
# Poissons Ratio (y) = 0.39028 0.31286
# Poissons Ratio (z) = 0.24373 0.12129
#
# Static dielectric constant tensor:
#      x y z
#    x 4.895660 0.000000 0.000000 
#    y 0.000000 3.268620 0.000000 
#    z 0.000000 0.000000 4.211340 
# 
# 
# High freq. dielectric constant tensor:
#      x y z
#    x 1.822090 0.000000 0.000000 
#    y 0.000000 1.789520 0.000000 
#    z 0.000000 0.000000 1.796920 
# 
# From -- ./inp_files/14983.got.cif
#   From: 2010.03.12/outbox.cif.g09.slc.cpg/sg60_8_cif.got.tgz:14983.got - 2010.04.10 18:46:24.
