data_PCOD8247149
_publ_section_title
;
Structure prediction by ZEFSAII (Michael W. Deem and Ramdas Pophale) SiO2 
 PCOD8247149
Probable space group: P B C N
;
_chemical_formula_sum "Si O2"
_cell_formula_units_Z 48
_cell_length_a 11.464889
_cell_length_b 15.179830
_cell_length_c 13.356104
_cell_angle_alpha 90.000000
_cell_angle_beta 90.000000
_cell_angle_gamma 90.000000
_cell_volume 2324.430441
_symmetry_space_group_name_H-M "P B C N"
_symmetry_group_IT_number 60
_symmetry_cell_setting 'orthorhombic'
loop_
_space_group_symop_operation_xyz
x,y,z
1/2-x,1/2-y,1/2+z
1/2+x,1/2-y,-z
-x,y,1/2-z
-x,-y,-z
1/2+x,1/2+y,1/2-z
1/2-x,1/2+y,z
x,-y,1/2+z
loop_
_atom_site_type_symbol
_atom_site_label
_atom_site_fract_x
_atom_site_fract_y
_atom_site_fract_z
Si Si1 0.235368 0.864694 0.591280
Si Si2 0.631840 0.118962 0.211044
Si Si3 0.135990 0.481996 0.986086
Si Si4 0.023464 0.100222 0.984258
Si Si5 0.376444 0.685640 0.798913
Si Si6 0.717868 0.662596 0.908358
O O1 0.278524 0.897975 0.698626
O O2 0.094238 0.870005 0.583595
O O3 0.265128 0.764540 0.567955
O O4 0.293270 0.928987 0.508408
O O5 0.500000 0.109545 0.250000
O O6 0.658755 0.045555 0.128409
O O7 0.660319 0.215976 0.165155
O O8 0.177989 0.400937 0.056556
O O9 0.000000 0.500000 0.000000
O O10 0.112377 0.119202 0.891668
O O11 0.900325 0.146238 0.970298
O O12 0.000000 0.000000 0.000000
O O13 0.500000 0.701292 0.750000
O O14 0.292697 0.646951 0.711765
#
# Coordination Sequence:
#
# PCOD8247149 Si02
#       6
#     8   8   8   8   8   8
#     4  11  24  41  67  96 131 180 223 268 339 399
#     4  10  20  41  63  93 131 175 223 268 327 395
#     4  12  24  40  66 100 131 174 225 278 328 398
#     4  11  21  41  63 101 132 171 227 273 336 397
#     4   8  18  37  67  88 127 180 216 263 330 396
#     4  10  23  43  67  99 134 178 224 273 335 402
#
# _framework density 20.650220999999998
#
# number of rings (size 3 to 8) (size 9 to 14) (size 15 to 20)
#    0.000    1.667    3.333    2.000    2.333    1.333 
#    3.000    0.833    0.000    0.000    0.000    0.000 
#    0.000    0.000    0.000    0.000    0.000    0.000 
#
# Total GULP energy -594858.624566 kJ/mol
# GULP energy per Si atom -12392.888012 kJ/mol
# Density = 2.060322 g / cm^3
# Si number density = 20.650221 Si / 1000 Ang^3
#
#
#
# Elastic Constant Matrix: (Units=GPa)
#
#
# Indices 1 2 3 4 5 6 
#
# 1 100.2874 53.3407 56.2452 0.0000 0.0000 0.0000
# 2 53.3407 155.2369 71.2330 0.0000 0.0000 0.0000
# 3 56.2452 71.2330 113.7012 0.0000 0.0000 0.0000
# 4 0.0000 0.0000 0.0000 33.8391 0.0000 0.0000
# 5 0.0000 0.0000 0.0000 0.0000 36.5555 0.0000
# 6 0.0000 0.0000 0.0000 0.0000 0.0000 36.6340
#
#
#
# Elastic Compliance Matrix: (Units=1/GPa)
#
#
# Indices 1 2 3 4 5 6 
#
# 1 0.014388 -0.002355 -0.005642 0.000000 0.000000 0.000000
# 2 -0.002355 0.009426 -0.004741 0.000000 0.000000 0.000000
# 3 -0.005642 -0.004741 0.014556 0.000000 0.000000 0.000000
# 4 0.000000 0.000000 0.000000 0.029552 0.000000 0.000000
# 5 0.000000 0.000000 0.000000 0.000000 0.027356 0.000000
# 6 0.000000 0.000000 0.000000 0.000000 0.000000 0.027297
#
#
# Mechanical properties :
#
#
# Convention : Reuss Voigt Hill
#
# Bulk Modulus (GPa) = 77.54860 81.20703 79.37781
# Shear Modulus (GPa) = 32.81954 33.96616 33.39285
#
# Velocity S-wave (km/s) = 3.99094 4.06005 4.02564
# Velocity P-wave (km/s) = 7.67279 7.83512 7.75438
#
# Compressibility (1/GPa) = 0.01289514
#
# Stress axis : x y z
#
# Youngs Moduli (GPa) = 69.50135 106.08719 68.70057
#
# Poissons Ratio (x) = 0.24983 0.38762
# Poissons Ratio (y) = 0.16367 0.32568
# Poissons Ratio (z) = 0.39214 0.50291
#
# Static dielectric constant tensor:
#      x y z
#    x 3.867730 0.000000 0.000000 
#    y 0.000000 3.696130 0.000000 
#    z 0.000000 0.000000 3.612570 
# 
# 
# High freq. dielectric constant tensor:
#      x y z
#    x 1.802450 0.000000 0.000000 
#    y 0.000000 1.818680 0.000000 
#    z 0.000000 0.000000 1.802160 
# 
# From -- ./inp_files/16086.got.cif
#   From: 2010.03.12/outbox.cif.g09.slc.cpg/sg60_9_cif.got.tgz:16086.got - 2010.04.10 18:46:24.
