data_PCOD8247750
_publ_section_title
;
Structure prediction by ZEFSAII (Michael W. Deem and Ramdas Pophale) SiO2 
 PCOD8247750
Probable space group: P B C N
;
_chemical_formula_sum "Si O2"
_cell_formula_units_Z 56
_cell_length_a 5.326774
_cell_length_b 15.414724
_cell_length_c 29.622583
_cell_angle_alpha 90.000000
_cell_angle_beta 90.000000
_cell_angle_gamma 90.000000
_cell_volume 2432.332537
_symmetry_space_group_name_H-M "P B C N"
_symmetry_group_IT_number 60
_symmetry_cell_setting 'orthorhombic'
loop_
_space_group_symop_operation_xyz
x,y,z
1/2-x,1/2-y,1/2+z
1/2+x,1/2-y,-z
-x,y,1/2-z
-x,-y,-z
1/2+x,1/2+y,1/2-z
1/2-x,1/2+y,z
x,-y,1/2+z
loop_
_atom_site_type_symbol
_atom_site_label
_atom_site_fract_x
_atom_site_fract_y
_atom_site_fract_z
Si Si1 0.112423 0.228451 0.800173
Si Si2 0.839732 0.402661 0.650449
Si Si3 0.131417 0.940178 0.600444
Si Si4 0.189878 0.119954 0.632306
Si Si5 0.614153 0.637205 0.493230
Si Si6 0.888769 0.669029 0.958526
Si Si7 0.938521 0.564338 0.700984
O O1 0.170784 0.327749 0.811497
O O2 0.344343 0.163101 0.797965
O O3 0.000000 0.223130 0.750000
O O4 0.962291 0.196995 0.844534
O O5 0.607387 0.383154 0.616949
O O6 0.106696 0.409748 0.624263
O O7 0.766171 0.492006 0.676790
O O8 0.154671 0.931123 0.546716
O O9 0.050329 0.041014 0.606818
O O10 0.377994 0.162840 0.595948
O O11 0.307866 0.067333 0.673442
O O12 0.619594 0.731232 0.471034
O O13 0.351428 0.621333 0.518915
O O14 0.849197 0.625314 0.527057
O O15 0.000000 0.528223 0.750000
#
# Coordination Sequence:
#
# PCOD8247750 Si02
#       7
#     8   8   8   8   8   8   8
#     4  12  25  44  70 103 134 188 238 282 347 412
#     4  11  26  43  72 102 140 184 226 284 342 410
#     4  11  24  45  68 101 140 178 226 284 347 407
#     4  11  25  42  67  98 135 183 227 286 346 408
#     4  10  22  41  62  96 134 174 225 283 337 405
#     4  10  23  39  65  94 131 177 226 281 339 404
#     4  11  24  46  67  99 143 177 227 291 339 404
#
# _framework density 23.023164999999999
#
# number of rings (size 3 to 8) (size 9 to 14) (size 15 to 20)
#    0.000    1.143    2.857    2.143    6.000    2.286 
#    0.000    2.143    0.000    0.000    0.000    0.000 
#    0.000    0.000    0.000    0.000    0.000    0.000 
#
# Total GULP energy -693833.807051 kJ/mol
# GULP energy per Si atom -12389.889412 kJ/mol
# Density = 2.297076 g / cm^3
# Si number density = 23.023165 Si / 1000 Ang^3
#
#
#
# Elastic Constant Matrix: (Units=GPa)
#
#
# Indices 1 2 3 4 5 6 
#
# 1 107.0899 6.5864 11.5512 0.0000 0.0000 0.0000
# 2 6.5864 64.3419 -4.6420 0.0000 0.0000 0.0000
# 3 11.5512 -4.6420 93.1020 0.0000 0.0000 0.0000
# 4 0.0000 0.0000 0.0000 317.5397 0.0000 0.0000
# 5 0.0000 0.0000 0.0000 0.0000 36.5741 0.0000
# 6 0.0000 0.0000 0.0000 0.0000 0.0000 15.3354
#
#
#
# Elastic Compliance Matrix: (Units=1/GPa)
#
#
# Indices 1 2 3 4 5 6 
#
# 1 0.009537 -0.001065 -0.001236 0.000000 0.000000 0.000000
# 2 -0.001065 0.015717 0.000916 0.000000 0.000000 0.000000
# 3 -0.001236 0.000916 0.010940 0.000000 0.000000 0.000000
# 4 0.000000 0.000000 0.000000 0.003149 0.000000 0.000000
# 5 0.000000 0.000000 0.000000 0.000000 0.027342 0.000000
# 6 0.000000 0.000000 0.000000 0.000000 0.000000 0.065209
#
#
# Mechanical properties :
#
#
# Convention : Reuss Voigt Hill
#
# Bulk Modulus (GPa) = 29.92043 32.39167 31.15605
# Shear Modulus (GPa) = 34.29212 90.62571 62.45892
#
# Velocity S-wave (km/s) = 3.86354 6.28079 5.21418
# Velocity P-wave (km/s) = 5.73817 8.16685 7.05776
#
# Compressibility (1/GPa) = 0.03342198
#
# Stress axis : x y z
#
# Youngs Moduli (GPa) = 104.85657 63.62490 91.40790
#
# Poissons Ratio (x) = 0.06779 0.11301
# Poissons Ratio (y) = 0.11172 -0.08372
# Poissons Ratio (z) = 0.12964 -0.05827
#
# Static dielectric constant tensor:
#      x y z
#    x 4.068470 0.000000 0.000000 
#    y 0.000000 4.273950 0.000000 
#    z 0.000000 0.000000 4.704830 
# 
# 
# High freq. dielectric constant tensor:
#      x y z
#    x 1.896000 0.000000 0.000000 
#    y 0.000000 1.914600 0.000000 
#    z 0.000000 0.000000 1.928620 
# 
# From -- ./inp_files/25693.got.cif
#   From: 2010.03.12/outbox.cif.g09.slc.cpg/sg60_13_cif.got.tgz:25693.got - 2010.04.10 18:46:24.
