data_PCOD8247442
_publ_section_title
;
Structure prediction by ZEFSAII (Michael W. Deem and Ramdas Pophale) SiO2 
 PCOD8247442
Probable space group: P B C N
;
_chemical_formula_sum "Si O2"
_cell_formula_units_Z 56
_cell_length_a 20.477186
_cell_length_b 9.218376
_cell_length_c 13.524394
_cell_angle_alpha 90.000000
_cell_angle_beta 90.000000
_cell_angle_gamma 90.000000
_cell_volume 2552.951167
_symmetry_space_group_name_H-M "P B C N"
_symmetry_group_IT_number 60
_symmetry_cell_setting 'orthorhombic'
loop_
_space_group_symop_operation_xyz
x,y,z
1/2-x,1/2-y,1/2+z
1/2+x,1/2-y,-z
-x,y,1/2-z
-x,-y,-z
1/2+x,1/2+y,1/2-z
1/2-x,1/2+y,z
x,-y,1/2+z
loop_
_atom_site_type_symbol
_atom_site_label
_atom_site_fract_x
_atom_site_fract_y
_atom_site_fract_z
Si Si1 0.515816 0.339001 0.091454
Si Si2 0.405010 0.560559 0.074030
Si Si3 0.565940 0.114299 0.662626
Si Si4 0.329195 0.921104 0.485211
Si Si5 0.202024 0.902942 0.965396
Si Si6 0.597656 0.424732 0.697487
Si Si7 0.550059 0.959217 0.871913
O O1 0.452737 0.425655 0.054085
O O2 0.556509 0.429866 0.174732
O O3 0.486057 0.195383 0.139386
O O4 0.565271 0.312282 0.997494
O O5 0.394043 0.602944 0.186574
O O6 0.334286 0.509737 0.039845
O O7 0.636502 0.079534 0.620418
O O8 0.554606 0.287208 0.664531
O O9 0.564533 0.028583 0.765077
O O10 0.508380 0.062997 0.586406
O O11 0.298421 0.762641 0.504143
O O12 0.382320 0.957909 0.569495
O O13 0.276715 0.047643 0.471948
O O14 0.168447 0.922593 0.856847
#
# Coordination Sequence:
#
# PCOD8247442 Si02
#       7
#     8   8   8   8   8   8   8
#     4  10  22  38  66  98 132 163 214 261 320 390
#     4  10  21  39  70  96 125 171 213 263 320 377
#     4  10  26  42  64 100 134 168 211 269 344 382
#     4  11  24  48  63  89 132 171 219 272 318 390
#     4  10  24  45  66  93 125 174 224 265 318 386
#     4  10  23  42  66  96 133 168 220 265 317 401
#     4  11  24  42  65  99 134 165 211 273 334 390
#
# _framework density 21.935400000000001
#
# number of rings (size 3 to 8) (size 9 to 14) (size 15 to 20)
#    0.000    1.714    1.429    0.857   10.000    5.714 
#    0.000    2.857    0.000    0.000    0.000    0.000 
#    0.000    0.000    0.000    0.000    0.000    0.000 
#
# Total GULP energy -693800.445281 kJ/mol
# GULP energy per Si atom -12389.293666 kJ/mol
# Density = 2.188547 g / cm^3
# Si number density = 21.935400 Si / 1000 Ang^3
#
#
#
# Elastic Constant Matrix: (Units=GPa)
#
#
# Indices 1 2 3 4 5 6 
#
# 1 140.5880 70.8418 41.6928 0.0000 0.0000 0.0000
# 2 70.8418 114.8633 37.2531 0.0000 0.0000 0.0000
# 3 41.6928 37.2531 90.9387 0.0000 0.0000 0.0000
# 4 0.0000 0.0000 0.0000 27.4201 0.0000 0.0000
# 5 0.0000 0.0000 0.0000 0.0000 23.5552 0.0000
# 6 0.0000 0.0000 0.0000 0.0000 0.0000 41.2187
#
#
#
# Elastic Compliance Matrix: (Units=1/GPa)
#
#
# Indices 1 2 3 4 5 6 
#
# 1 0.010816 -0.005838 -0.002567 0.000000 0.000000 0.000000
# 2 -0.005838 0.013191 -0.002727 0.000000 0.000000 0.000000
# 3 -0.002567 -0.002727 0.013291 0.000000 0.000000 0.000000
# 4 0.000000 0.000000 0.000000 0.036470 0.000000 0.000000
# 5 0.000000 0.000000 0.000000 0.000000 0.042453 0.000000
# 6 0.000000 0.000000 0.000000 0.000000 0.000000 0.024261
#
#
# Mechanical properties :
#
#
# Convention : Reuss Voigt Hill
#
# Bulk Modulus (GPa) = 66.52151 71.77394 69.14773
# Shear Modulus (GPa) = 29.80483 31.54563 30.67523
#
# Velocity S-wave (km/s) = 3.69013 3.79636 3.74362
# Velocity P-wave (km/s) = 6.96764 7.21167 7.09070
#
# Compressibility (1/GPa) = 0.01503273
#
# Stress axis : x y z
#
# Youngs Moduli (GPa) = 92.45380 75.80809 75.24111
#
# Poissons Ratio (x) = 0.44259 0.19317
# Poissons Ratio (y) = 0.53977 0.20519
# Poissons Ratio (z) = 0.23736 0.20674
#
# Static dielectric constant tensor:
#      x y z
#    x 4.027900 0.000000 0.000000 
#    y 0.000000 4.011830 0.000000 
#    z 0.000000 0.000000 4.037980 
# 
# 
# High freq. dielectric constant tensor:
#      x y z
#    x 1.856320 0.000000 0.000000 
#    y 0.000000 1.867780 0.000000 
#    z 0.000000 0.000000 1.866610 
# 
# From -- ./inp_files/17710.got.cif
#   From: 2010.03.12/outbox.cif.g09.slc.cpg/sg60_9_cif.got.tgz:17710.got - 2010.04.10 18:46:24.
