data_PCOD8247204
_publ_section_title
;
Structure prediction by ZEFSAII (Michael W. Deem and Ramdas Pophale) SiO2 
 PCOD8247204
Probable space group: P B C N
;
_chemical_formula_sum "Si O2"
_cell_formula_units_Z 40
_cell_length_a 15.578269
_cell_length_b 8.231824
_cell_length_c 13.784636
_cell_angle_alpha 90.000000
_cell_angle_beta 90.000000
_cell_angle_gamma 90.000000
_cell_volume 1767.708205
_symmetry_space_group_name_H-M "P B C N"
_symmetry_group_IT_number 60
_symmetry_cell_setting 'orthorhombic'
loop_
_space_group_symop_operation_xyz
x,y,z
1/2-x,1/2-y,1/2+z
1/2+x,1/2-y,-z
-x,y,1/2-z
-x,-y,-z
1/2+x,1/2+y,1/2-z
1/2-x,1/2+y,z
x,-y,1/2+z
loop_
_atom_site_type_symbol
_atom_site_label
_atom_site_fract_x
_atom_site_fract_y
_atom_site_fract_z
Si Si1 0.506086 0.560202 0.892244
Si Si2 0.155507 0.105877 0.329566
Si Si3 0.217399 0.407906 0.440242
Si Si4 0.567184 0.862240 0.524585
Si Si5 0.160934 0.868134 0.616870
O O1 0.443862 0.450449 0.824486
O O2 0.476031 0.748488 0.892549
O O3 0.606378 0.535877 0.864695
O O4 0.500000 0.500000 0.000000
O O5 0.168412 0.243262 0.411983
O O6 0.188581 0.178622 0.226548
O O7 0.206818 0.945537 0.364404
O O8 0.153118 0.559207 0.432696
O O9 0.256036 0.393342 0.549291
O O10 0.595294 0.764044 0.427957
O O11 0.500000 0.000000 0.500000
#
# Coordination Sequence:
#
# PCOD8247204 Si02
#       5
#     8   8   8   8   8
#     4  10  20  45  67  98 134 185 224 289 348 406
#     4  12  24  43  70 101 145 177 243 282 359 417
#     4  12  24  44  69 101 143 181 228 299 346 414
#     4  11  24  44  70  98 138 186 230 285 349 412
#     4  11  25  43  73 101 138 191 229 291 355 415
#
# _framework density 22.628170000000001
#
# number of rings (size 3 to 8) (size 9 to 14) (size 15 to 20)
#    0.000    0.800    6.000    3.000    2.800    0.000 
#    0.000    4.000    0.000    0.000    0.000    0.000 
#    0.000    0.000    0.000    0.000    0.000    0.000 
#
# Total GULP energy -495797.243194 kJ/mol
# GULP energy per Si atom -12394.931080 kJ/mol
# Density = 2.257667 g / cm^3
# Si number density = 22.628170 Si / 1000 Ang^3
#
#
#
# Elastic Constant Matrix: (Units=GPa)
#
#
# Indices 1 2 3 4 5 6 
#
# 1 95.3632 46.7127 15.2045 0.0000 0.0000 0.0000
# 2 46.7127 116.2604 21.7634 0.0000 0.0000 0.0000
# 3 15.2045 21.7634 107.5592 0.0000 0.0000 0.0000
# 4 0.0000 0.0000 0.0000 19.5078 0.0000 0.0000
# 5 0.0000 0.0000 0.0000 0.0000 29.1980 0.0000
# 6 0.0000 0.0000 0.0000 0.0000 0.0000 47.9814
#
#
#
# Elastic Compliance Matrix: (Units=1/GPa)
#
#
# Indices 1 2 3 4 5 6 
#
# 1 0.013125 -0.005120 -0.000819 0.000000 0.000000 0.000000
# 2 -0.005120 0.010937 -0.001489 0.000000 0.000000 0.000000
# 3 -0.000819 -0.001489 0.009714 0.000000 0.000000 0.000000
# 4 0.000000 0.000000 0.000000 0.051261 0.000000 0.000000
# 5 0.000000 0.000000 0.000000 0.000000 0.034249 0.000000
# 6 0.000000 0.000000 0.000000 0.000000 0.000000 0.020841
#
#
# Mechanical properties :
#
#
# Convention : Reuss Voigt Hill
#
# Bulk Modulus (GPa) = 52.85637 54.06044 53.45841
# Shear Modulus (GPa) = 30.99963 35.03761 33.01862
#
# Velocity S-wave (km/s) = 3.70531 3.93925 3.82407
# Velocity P-wave (km/s) = 6.45872 6.68078 6.57069
#
# Compressibility (1/GPa) = 0.01891919
#
# Stress axis : x y z
#
# Youngs Moduli (GPa) = 76.19109 91.42942 102.94030
#
# Poissons Ratio (x) = 0.46813 0.08434
# Poissons Ratio (y) = 0.39011 0.15331
# Poissons Ratio (z) = 0.06243 0.13616
#
# Static dielectric constant tensor:
#      x y z
#    x 5.152510 0.000000 0.000000 
#    y 0.000000 3.868760 0.000000 
#    z 0.000000 0.000000 4.132050 
# 
# 
# High freq. dielectric constant tensor:
#      x y z
#    x 1.902580 0.000000 0.000000 
#    y 0.000000 1.887500 0.000000 
#    z 0.000000 0.000000 1.877280 
# 
# From -- ./inp_files/16607.got.cif
#   From: 2010.03.12/outbox.cif.g09.slc.cpg/sg60_9_cif.got.tgz:16607.got - 2010.04.10 18:46:24.
