data_PCOD8247534
_publ_section_title
;
Structure prediction by ZEFSAII (Michael W. Deem and Ramdas Pophale) SiO2 
 PCOD8247534
Probable space group: P B C N
;
_chemical_formula_sum "Si O2"
_cell_formula_units_Z 48
_cell_length_a 11.749024
_cell_length_b 15.087013
_cell_length_c 13.444407
_cell_angle_alpha 90.000000
_cell_angle_beta 90.000000
_cell_angle_gamma 90.000000
_cell_volume 2383.124365
_symmetry_space_group_name_H-M "P B C N"
_symmetry_group_IT_number 60
_symmetry_cell_setting 'orthorhombic'
loop_
_space_group_symop_operation_xyz
x,y,z
1/2-x,1/2-y,1/2+z
1/2+x,1/2-y,-z
-x,y,1/2-z
-x,-y,-z
1/2+x,1/2+y,1/2-z
1/2-x,1/2+y,z
x,-y,1/2+z
loop_
_atom_site_type_symbol
_atom_site_label
_atom_site_fract_x
_atom_site_fract_y
_atom_site_fract_z
Si Si1 0.500000 0.465568 0.750000
Si Si2 0.728099 0.861203 0.576020
Si Si3 0.500000 0.174432 0.750000
Si Si4 0.733471 0.819708 0.988229
Si Si5 0.502402 0.900406 0.467750
Si Si6 0.176141 0.822566 0.722772
Si Si7 0.612126 0.524251 0.559853
O O1 0.588099 0.400867 0.807387
O O2 0.571966 0.526450 0.674782
O O3 0.789881 0.771469 0.544477
O O4 0.603313 0.853765 0.528777
O O5 0.733278 0.859414 0.696264
O O6 0.794355 0.948154 0.537493
O O7 0.486504 0.113272 0.651597
O O8 0.610789 0.235907 0.736003
O O9 0.757993 0.794872 0.874954
O O10 0.615160 0.867712 0.990447
O O11 0.834428 0.880127 0.035039
O O12 0.500000 0.000000 0.500000
O O13 0.500000 0.500000 0.500000
#
# Coordination Sequence:
#
# PCOD8247534 Si02
#       7
#     4   8   4   8   8   8   8
#     4   9  20  40  68  91 132 172 224 275 330 399
#     4  11  25  44  66 100 139 177 231 278 343 413
#     4  11  22  44  72  93 138 188 226 273 366 413
#     4  12  24  43  71  99 137 177 229 284 343 407
#     4  12  26  46  67 103 142 182 224 293 350 417
#     4  10  21  41  71  97 127 185 226 276 342 413
#     4  11  23  44  68 100 131 177 228 280 335 404
#
# _framework density 20.141625999999999
#
# number of rings (size 3 to 8) (size 9 to 14) (size 15 to 20)
#    0.000    1.000    6.667    0.000    2.333    2.000 
#    6.000    0.000    0.000    0.000    0.000    0.000 
#    0.000    0.000    0.000    0.000    0.000    0.000 
#
# Total GULP energy -595018.402945 kJ/mol
# GULP energy per Si atom -12396.216728 kJ/mol
# Density = 2.009578 g / cm^3
# Si number density = 20.141626 Si / 1000 Ang^3
#
#
#
# Elastic Constant Matrix: (Units=GPa)
#
#
# Indices 1 2 3 4 5 6 
#
# 1 96.5909 8.6814 43.3664 0.0000 0.0000 0.0000
# 2 8.6814 82.4273 36.4532 0.0000 0.0000 0.0000
# 3 43.3664 36.4532 117.5076 0.0000 0.0000 0.0000
# 4 0.0000 0.0000 0.0000 30.0653 0.0000 0.0000
# 5 0.0000 0.0000 0.0000 0.0000 38.4598 0.0000
# 6 0.0000 0.0000 0.0000 0.0000 0.0000 26.1348
#
#
#
# Elastic Compliance Matrix: (Units=1/GPa)
#
#
# Indices 1 2 3 4 5 6 
#
# 1 0.012459 0.000836 -0.004857 0.000000 0.000000 0.000000
# 2 0.000836 0.014117 -0.004688 0.000000 0.000000 0.000000
# 3 -0.004857 -0.004688 0.011757 0.000000 0.000000 0.000000
# 4 0.000000 0.000000 0.000000 0.033261 0.000000 0.000000
# 5 0.000000 0.000000 0.000000 0.000000 0.026001 0.000000
# 6 0.000000 0.000000 0.000000 0.000000 0.000000 0.038263
#
#
# Mechanical properties :
#
#
# Convention : Reuss Voigt Hill
#
# Bulk Modulus (GPa) = 47.81433 52.61419 50.21426
# Shear Modulus (GPa) = 31.20173 32.80029 32.00101
#
# Velocity S-wave (km/s) = 3.94015 4.03982 3.99030
# Velocity P-wave (km/s) = 6.67011 6.92380 6.79814
#
# Compressibility (1/GPa) = 0.02091423
#
# Stress axis : x y z
#
# Youngs Moduli (GPa) = 80.26627 70.83617 85.05631
#
# Poissons Ratio (x) = -0.05921 0.41313
# Poissons Ratio (y) = -0.06710 0.39874
# Poissons Ratio (z) = 0.38987 0.33207
#
# Static dielectric constant tensor:
#      x y z
#    x 3.790130 0.000000 0.000000 
#    y 0.000000 3.866240 0.000000 
#    z 0.000000 0.000000 4.001370 
# 
# 
# High freq. dielectric constant tensor:
#      x y z
#    x 1.788890 0.000000 0.000000 
#    y 0.000000 1.786620 0.000000 
#    z 0.000000 0.000000 1.792210 
# 
# From -- ./inp_files/11039.got.cif
#   From: 2010.03.12/outbox.cif.g09.slc.cpg/sg60_6_cif.got.tgz:11039.got - 2010.04.10 18:46:24.
