data_PCOD8247538
_publ_section_title
;
Structure prediction by ZEFSAII (Michael W. Deem and Ramdas Pophale) SiO2 
 PCOD8247538
Probable space group: P B C N
;
_chemical_formula_sum "Si O2"
_cell_formula_units_Z 56
_cell_length_a 20.936749
_cell_length_b 14.104049
_cell_length_c 9.521091
_cell_angle_alpha 90.000000
_cell_angle_beta 90.000000
_cell_angle_gamma 90.000000
_cell_volume 2811.510894
_symmetry_space_group_name_H-M "P B C N"
_symmetry_group_IT_number 60
_symmetry_cell_setting 'orthorhombic'
loop_
_space_group_symop_operation_xyz
x,y,z
1/2-x,1/2-y,1/2+z
1/2+x,1/2-y,-z
-x,y,1/2-z
-x,-y,-z
1/2+x,1/2+y,1/2-z
1/2-x,1/2+y,z
x,-y,1/2+z
loop_
_atom_site_type_symbol
_atom_site_label
_atom_site_fract_x
_atom_site_fract_y
_atom_site_fract_z
Si Si1 0.208045 0.888530 0.005286
Si Si2 0.500000 0.894156 0.750000
Si Si3 0.118524 0.549367 0.081223
Si Si4 0.688363 0.252055 0.883702
Si Si5 0.378143 0.238771 0.897751
Si Si6 0.577970 0.146287 0.999023
Si Si7 0.500000 0.201252 0.750000
Si Si8 0.241062 0.052441 0.197285
O O1 0.257379 0.807763 0.044050
O O2 0.204433 0.961690 0.133758
O O3 0.141135 0.832140 0.986789
O O4 0.228667 0.943077 0.863412
O O5 0.444287 0.956211 0.678830
O O6 0.535232 0.829075 0.634436
O O7 0.116133 0.453965 0.985772
O O8 0.182918 0.547227 0.172932
O O9 0.116765 0.643692 0.988144
O O10 0.674893 0.219339 0.723290
O O11 0.625167 0.235403 0.978142
O O12 0.710160 0.360210 0.886321
O O13 0.446091 0.265194 0.826565
O O14 0.532593 0.133519 0.864289
#
# Coordination Sequence:
#
# PCOD8247538 Si02
#       8
#     8   4   8   8   8   8   4   8
#     4  11  23  42  62  93 123 167 208 262 316 375
#     4  12  25  36  54  97 132 160 211 246 306 385
#     4  12  23  36  60  92 128 170 197 256 312 382
#     4  10  22  40  63  89 122 165 211 254 315 376
#     4  10  23  39  64  89 123 169 209 257 313 380
#     4  11  23  36  60  87 130 162 206 251 307 381
#     4  10  21  42  58  85 124 174 203 248 316 375
#     4  11  25  40  64  91 129 162 209 262 320 371
#
# _framework density 19.918116000000001
#
# number of rings (size 3 to 8) (size 9 to 14) (size 15 to 20)
#    0.000    1.143    4.286    1.714    6.000    0.000 
#    2.571    0.000    0.000    8.571    0.000    0.000 
#    0.000    0.000    0.000    0.000    0.000    0.000 
#
# Total GULP energy -694119.483029 kJ/mol
# GULP energy per Si atom -12394.990768 kJ/mol
# Density = 1.987278 g / cm^3
# Si number density = 19.918116 Si / 1000 Ang^3
#
#
#
# Elastic Constant Matrix: (Units=GPa)
#
#
# Indices 1 2 3 4 5 6 
#
# 1 94.9929 33.0639 22.4903 0.0000 0.0000 0.0000
# 2 33.0639 52.2289 14.0747 0.0000 0.0000 0.0000
# 3 22.4903 14.0747 49.4544 0.0000 0.0000 0.0000
# 4 0.0000 0.0000 0.0000 25.6960 0.0000 0.0000
# 5 0.0000 0.0000 0.0000 0.0000 35.6667 0.0000
# 6 0.0000 0.0000 0.0000 0.0000 0.0000 18.9883
#
#
#
# Elastic Compliance Matrix: (Units=1/GPa)
#
#
# Indices 1 2 3 4 5 6 
#
# 1 0.014281 -0.007896 -0.004247 0.000000 0.000000 0.000000
# 2 -0.007896 0.025103 -0.003553 0.000000 0.000000 0.000000
# 3 -0.004247 -0.003553 0.023163 0.000000 0.000000 0.000000
# 4 0.000000 0.000000 0.000000 0.038917 0.000000 0.000000
# 5 0.000000 0.000000 0.000000 0.000000 0.028037 0.000000
# 6 0.000000 0.000000 0.000000 0.000000 0.000000 0.052664
#
#
# Mechanical properties :
#
#
# Convention : Reuss Voigt Hill
#
# Bulk Modulus (GPa) = 32.09890 37.32598 34.71244
# Shear Modulus (GPa) = 22.32706 24.54001 23.43353
#
# Velocity S-wave (km/s) = 3.35168 3.51386 3.43373
# Velocity P-wave (km/s) = 5.57932 5.93661 5.76073
#
# Compressibility (1/GPa) = 0.03115372
#
# Stress axis : x y z
#
# Youngs Moduli (GPa) = 70.02266 39.83623 43.17140
#
# Poissons Ratio (x) = 0.31455 0.18336
# Poissons Ratio (y) = 0.55291 0.15340
# Poissons Ratio (z) = 0.29741 0.14155
#
# Static dielectric constant tensor:
#      x y z
#    x 3.986900 0.000000 0.000000 
#    y 0.000000 3.479130 0.000000 
#    z 0.000000 0.000000 3.806060 
# 
# 
# High freq. dielectric constant tensor:
#      x y z
#    x 1.782200 0.000000 0.000000 
#    y 0.000000 1.746980 0.000000 
#    z 0.000000 0.000000 1.787020 
# 
# From -- ./inp_files/7459.got.cif
#   From: 2010.03.12/outbox.cif.g09.slc.cpg/sg60_4_cif.got.tgz:7459.got - 2010.04.10 18:46:24.
