data_PCOD8247503
_publ_section_title
;
Structure prediction by ZEFSAII (Michael W. Deem and Ramdas Pophale) SiO2 
 PCOD8247503
Probable space group: P B C N
;
_chemical_formula_sum "Si O2"
_cell_formula_units_Z 64
_cell_length_a 23.350373
_cell_length_b 9.030396
_cell_length_c 13.878826
_cell_angle_alpha 90.000000
_cell_angle_beta 90.000000
_cell_angle_gamma 90.000000
_cell_volume 2926.532482
_symmetry_space_group_name_H-M "P B C N"
_symmetry_group_IT_number 60
_symmetry_cell_setting 'orthorhombic'
loop_
_space_group_symop_operation_xyz
x,y,z
1/2-x,1/2-y,1/2+z
1/2+x,1/2-y,-z
-x,y,1/2-z
-x,-y,-z
1/2+x,1/2+y,1/2-z
1/2-x,1/2+y,z
x,-y,1/2+z
loop_
_atom_site_type_symbol
_atom_site_label
_atom_site_fract_x
_atom_site_fract_y
_atom_site_fract_z
Si Si1 0.374139 0.142443 0.583769
Si Si2 0.512300 0.568582 0.898188
Si Si3 0.596179 0.409437 0.658796
Si Si4 0.191387 0.886627 0.985354
Si Si5 0.030430 0.380596 0.934391
Si Si6 0.861608 0.037848 0.351432
Si Si7 0.800972 0.449230 0.054663
Si Si8 0.600193 0.924182 0.202994
O O1 0.421201 0.184661 0.504229
O O2 0.346240 0.298615 0.610411
O O3 0.397136 0.060767 0.680938
O O4 0.328686 0.034156 0.535303
O O5 0.459905 0.512111 0.831116
O O6 0.511746 0.748050 0.902433
O O7 0.572508 0.509632 0.862642
O O8 0.500000 0.500000 0.000000
O O9 0.628047 0.422867 0.556451
O O10 0.644796 0.459584 0.735981
O O11 0.577530 0.239223 0.675862
O O12 0.208419 0.717651 0.978209
O O13 0.184177 0.929089 0.098376
O O14 0.238719 0.981013 0.927977
O O15 0.055248 0.456364 0.837700
O O16 0.000000 0.500000 0.000000
O O17 0.838158 0.455405 0.152655
#
# Coordination Sequence:
#
# PCOD8247503 Si02
#       8
#     8   8   8   8   8   8   8   8
#     4  10  21  41  62  89 123 160 204 250 311 364
#     4  12  21  38  62  90 126 166 203 250 301 363
#     4  10  22  41  62  90 122 160 206 252 308 365
#     4  11  22  41  63  88 120 156 204 254 310 367
#     4  11  23  37  60  87 127 166 205 248 298 361
#     4  11  23  39  64  92 123 162 204 256 306 366
#     4  10  23  40  65  88 119 160 200 257 310 369
#     4   9  22  41  62  88 124 162 201 254 308 364
#
# _framework density 21.868883
#
# number of rings (size 3 to 8) (size 9 to 14) (size 15 to 20)
#    0.000    1.500    2.500    1.875    3.500    3.500 
#    2.250    2.500    0.000    0.000    0.000    0.000 
#    0.000    0.000    0.000    0.000    0.000    0.000 
#
# Total GULP energy -793447.435298 kJ/mol
# GULP energy per Si atom -12397.616177 kJ/mol
# Density = 2.181911 g / cm^3
# Si number density = 21.868883 Si / 1000 Ang^3
#
#
#
# Elastic Constant Matrix: (Units=GPa)
#
#
# Indices 1 2 3 4 5 6 
#
# 1 54.8563 30.8098 -8.0249 0.0000 0.0000 0.0000
# 2 30.8098 125.8464 18.0456 0.0000 0.0000 0.0000
# 3 -8.0249 18.0456 78.2226 0.0000 0.0000 0.0000
# 4 0.0000 0.0000 0.0000 29.6971 0.0000 0.0000
# 5 0.0000 0.0000 0.0000 0.0000 22.4945 0.0000
# 6 0.0000 0.0000 0.0000 0.0000 0.0000 37.2950
#
#
#
# Elastic Compliance Matrix: (Units=1/GPa)
#
#
# Indices 1 2 3 4 5 6 
#
# 1 0.022091 -0.005930 0.003634 0.000000 0.000000 0.000000
# 2 -0.005930 0.009810 -0.002871 0.000000 0.000000 0.000000
# 3 0.003634 -0.002871 0.013819 0.000000 0.000000 0.000000
# 4 0.000000 0.000000 0.000000 0.033673 0.000000 0.000000
# 5 0.000000 0.000000 0.000000 0.000000 0.044455 0.000000
# 6 0.000000 0.000000 0.000000 0.000000 0.000000 0.026813
#
#
# Mechanical properties :
#
#
# Convention : Reuss Voigt Hill
#
# Bulk Modulus (GPa) = 28.25890 37.84290 33.05090
# Shear Modulus (GPa) = 28.93667 32.43698 30.68682
#
# Velocity S-wave (km/s) = 3.64151 3.85547 3.75002
# Velocity P-wave (km/s) = 5.53451 6.09603 5.82205
#
# Compressibility (1/GPa) = 0.03538708
#
# Stress axis : x y z
#
# Youngs Moduli (GPa) = 45.26646 101.94086 72.36263
#
# Poissons Ratio (x) = 0.60447 -0.26299
# Poissons Ratio (y) = 0.26841 0.20778
# Poissons Ratio (z) = -0.16451 0.29271
#
# Static dielectric constant tensor:
#      x y z
#    x 3.837980 0.000000 0.000000 
#    y 0.000000 4.370500 0.000000 
#    z 0.000000 0.000000 4.280070 
# 
# 
# High freq. dielectric constant tensor:
#      x y z
#    x 1.843100 0.000000 0.000000 
#    y 0.000000 1.865610 0.000000 
#    z 0.000000 0.000000 1.867630 
# 
# From -- ./inp_files/17949.got.cif
#   From: 2010.03.12/outbox.cif.g09.slc.cpg/sg60_9_cif.got.tgz:17949.got - 2010.04.10 18:46:24.
