data_PCOD8247302
_publ_section_title
;
Structure prediction by ZEFSAII (Michael W. Deem and Ramdas Pophale) SiO2 
 PCOD8247302
Probable space group: P B C N
;
_chemical_formula_sum "Si O2"
_cell_formula_units_Z 32
_cell_length_a 4.942358
_cell_length_b 17.142571
_cell_length_c 16.904494
_cell_angle_alpha 90.000000
_cell_angle_beta 90.000000
_cell_angle_gamma 90.000000
_cell_volume 1432.228570
_symmetry_space_group_name_H-M "P B C N"
_symmetry_group_IT_number 60
_symmetry_cell_setting 'orthorhombic'
loop_
_space_group_symop_operation_xyz
x,y,z
1/2-x,1/2-y,1/2+z
1/2+x,1/2-y,-z
-x,y,1/2-z
-x,-y,-z
1/2+x,1/2+y,1/2-z
1/2-x,1/2+y,z
x,-y,1/2+z
loop_
_atom_site_type_symbol
_atom_site_label
_atom_site_fract_x
_atom_site_fract_y
_atom_site_fract_z
Si Si1 0.385142 0.009266 0.087848
Si Si2 0.388822 0.560640 0.835627
Si Si3 0.303601 0.319178 0.579392
Si Si4 0.307738 0.721226 0.898685
O O1 0.258482 0.093477 0.106419
O O2 0.136898 0.948925 0.101636
O O3 0.635520 0.995516 0.146788
O O4 0.500000 0.000000 0.000000
O O5 0.500000 0.538404 0.750000
O O6 0.277396 0.649442 0.838055
O O7 0.591143 0.290468 0.612479
O O8 0.280274 0.316489 0.485076
O O9 0.094579 0.259550 0.618068
#
# Coordination Sequence:
#
# PCOD8247302 Si02
#       4
#     8   8   8   8
#     4  12  24  42  71 103 135 181 234 291 340 407
#     4  12  26  44  67 101 143 186 226 282 357 420
#     4  10  21  37  65  99 128 163 230 285 330 384
#     4  10  21  38  63  97 131 169 220 285 333 405
#
# _framework density 22.342801000000001
#
# number of rings (size 3 to 8) (size 9 to 14) (size 15 to 20)
#    0.000    1.000    2.500    4.500    7.000    0.000 
#    0.000    5.000    0.000    0.000    0.000    0.000 
#    0.000    0.000    0.000    0.000    0.000    0.000 
#
# Total GULP energy -396897.462836 kJ/mol
# GULP energy per Si atom -12403.045714 kJ/mol
# Density = 2.229195 g / cm^3
# Si number density = 22.342801 Si / 1000 Ang^3
#
#
#
# Elastic Constant Matrix: (Units=GPa)
#
#
# Indices 1 2 3 4 5 6 
#
# 1 116.1126 29.0044 26.0812 0.0000 0.0000 0.0000
# 2 29.0044 116.4086 40.0656 0.0000 0.0000 0.0000
# 3 26.0812 40.0656 51.5177 0.0000 0.0000 0.0000
# 4 0.0000 0.0000 0.0000 22.8825 0.0000 0.0000
# 5 0.0000 0.0000 0.0000 0.0000 32.5556 0.0000
# 6 0.0000 0.0000 0.0000 0.0000 0.0000 43.5351
#
#
#
# Elastic Compliance Matrix: (Units=1/GPa)
#
#
# Indices 1 2 3 4 5 6 
#
# 1 0.009802 -0.001003 -0.004183 0.000000 0.000000 0.000000
# 2 -0.001003 0.011833 -0.008695 0.000000 0.000000 0.000000
# 3 -0.004183 -0.008695 0.028290 0.000000 0.000000 0.000000
# 4 0.000000 0.000000 0.000000 0.043701 0.000000 0.000000
# 5 0.000000 0.000000 0.000000 0.000000 0.030717 0.000000
# 6 0.000000 0.000000 0.000000 0.000000 0.000000 0.022970
#
#
# Mechanical properties :
#
#
# Convention : Reuss Voigt Hill
#
# Bulk Modulus (GPa) = 45.11609 52.70459 48.91034
# Shear Modulus (GPa) = 27.40290 32.38717 29.89504
#
# Velocity S-wave (km/s) = 3.50591 3.81144 3.66186
# Velocity P-wave (km/s) = 6.05186 6.55818 6.31010
#
# Compressibility (1/GPa) = 0.02216504
#
# Stress axis : x y z
#
# Youngs Moduli (GPa) = 102.01671 84.51032 35.34777
#
# Poissons Ratio (x) = 0.08474 0.14785
# Poissons Ratio (y) = 0.10230 0.30734
# Poissons Ratio (z) = 0.42670 0.73480
#
# Static dielectric constant tensor:
#      x y z
#    x 4.361540 0.000000 0.000000 
#    y 0.000000 4.035210 0.000000 
#    z 0.000000 0.000000 3.645750 
# 
# 
# High freq. dielectric constant tensor:
#      x y z
#    x 1.903950 0.000000 0.000000 
#    y 0.000000 1.888950 0.000000 
#    z 0.000000 0.000000 1.839690 
# 
# From -- ./inp_files/18412.got.cif
#   From: 2010.03.12/outbox.cif.g09.slc.cpg/sg60_10_cif.got.tgz:18412.got - 2010.04.10 18:46:24.
