data_PCOD8247389
_publ_section_title
;
Structure prediction by ZEFSAII (Michael W. Deem and Ramdas Pophale) SiO2 
 PCOD8247389
Probable space group: P B C N
;
_chemical_formula_sum "Si O2"
_cell_formula_units_Z 24
_cell_length_a 9.110321
_cell_length_b 13.696107
_cell_length_c 8.813444
_cell_angle_alpha 90.000000
_cell_angle_beta 90.000000
_cell_angle_gamma 90.000000
_cell_volume 1099.705682
_symmetry_space_group_name_H-M "P B C N"
_symmetry_group_IT_number 60
_symmetry_cell_setting 'orthorhombic'
loop_
_space_group_symop_operation_xyz
x,y,z
1/2-x,1/2-y,1/2+z
1/2+x,1/2-y,-z
-x,y,1/2-z
-x,-y,-z
1/2+x,1/2+y,1/2-z
1/2-x,1/2+y,z
x,-y,1/2+z
loop_
_atom_site_type_symbol
_atom_site_label
_atom_site_fract_x
_atom_site_fract_y
_atom_site_fract_z
Si Si1 0.664753 0.209551 0.279674
Si Si2 0.660491 0.630844 0.558257
Si Si3 0.891416 0.085340 0.113131
O O1 0.500000 0.173038 0.250000
O O2 0.725477 0.186106 0.446416
O O3 0.680994 0.323633 0.226812
O O4 0.757512 0.151552 0.156266
O O5 0.681953 0.514315 0.550339
O O6 0.489420 0.647131 0.508219
O O7 0.000000 0.056604 0.250000
#
# Coordination Sequence:
#
# PCOD8247389 Si02
#       3
#     8   8   8
#     4  11  22  36  59  88 114 145 191 247 289 329
#     4  10  21  39  61  83 115 156 194 232 289 356
#     4   9  20  39  60  82 113 158 197 228 284 359
#
# _framework density 21.824021999999999
#
# number of rings (size 3 to 8) (size 9 to 14) (size 15 to 20)
#    0.000    2.000    0.000    3.000    0.000    6.667 
#    0.000    5.000    0.000    0.000    0.000    0.000 
#    0.000    0.000    0.000    0.000    0.000    0.000 
#
# Total GULP energy -297367.208544 kJ/mol
# GULP energy per Si atom -12390.300356 kJ/mol
# Density = 2.177435 g / cm^3
# Si number density = 21.824022 Si / 1000 Ang^3
#
#
#
# Elastic Constant Matrix: (Units=GPa)
#
#
# Indices 1 2 3 4 5 6 
#
# 1 107.2002 43.3570 9.9627 0.0000 0.0000 0.0000
# 2 43.3570 76.9986 24.0197 0.0000 0.0000 0.0000
# 3 9.9627 24.0197 63.5258 0.0000 0.0000 0.0000
# 4 0.0000 0.0000 0.0000 36.1390 0.0000 0.0000
# 5 0.0000 0.0000 0.0000 0.0000 34.0013 0.0000
# 6 0.0000 0.0000 0.0000 0.0000 0.0000 27.1918
#
#
#
# Elastic Compliance Matrix: (Units=1/GPa)
#
#
# Indices 1 2 3 4 5 6 
#
# 1 0.012112 -0.007061 0.000770 0.000000 0.000000 0.000000
# 2 -0.007061 0.018840 -0.006016 0.000000 0.000000 0.000000
# 3 0.000770 -0.006016 0.017896 0.000000 0.000000 0.000000
# 4 0.000000 0.000000 0.000000 0.027671 0.000000 0.000000
# 5 0.000000 0.000000 0.000000 0.000000 0.029411 0.000000
# 6 0.000000 0.000000 0.000000 0.000000 0.000000 0.036776
#
#
# Mechanical properties :
#
#
# Convention : Reuss Voigt Hill
#
# Bulk Modulus (GPa) = 41.26359 44.71150 42.98754
# Shear Modulus (GPa) = 28.50682 30.82543 29.66613
#
# Velocity S-wave (km/s) = 3.61808 3.76234 3.69091
# Velocity P-wave (km/s) = 6.03344 6.27737 6.15661
#
# Compressibility (1/GPa) = 0.02423444
#
# Stress axis : x y z
#
# Youngs Moduli (GPa) = 82.55984 53.07932 55.87954
#
# Poissons Ratio (x) = 0.37477 -0.04303
# Poissons Ratio (y) = 0.58292 0.33618
# Poissons Ratio (z) = -0.06358 0.31933
#
# Static dielectric constant tensor:
#      x y z
#    x 3.983430 0.000000 0.000000 
#    y 0.000000 3.785790 0.000000 
#    z 0.000000 0.000000 4.082570 
# 
# 
# High freq. dielectric constant tensor:
#      x y z
#    x 1.851190 0.000000 0.000000 
#    y 0.000000 1.856930 0.000000 
#    z 0.000000 0.000000 1.868130 
# 
# From -- ./inp_files/3354.got.cif
#   From: 2010.03.12/outbox.cif.g09.slc.cpg/sg60_2_cif.got.tgz:3354.got - 2010.04.10 18:46:24.
