data_PCOD8247730
_publ_section_title
;
Structure prediction by ZEFSAII (Michael W. Deem and Ramdas Pophale) SiO2 
 PCOD8247730
Probable space group: P B C N
;
_chemical_formula_sum "Si O2"
_cell_formula_units_Z 52
_cell_length_a 18.333469
_cell_length_b 7.572441
_cell_length_c 17.475820
_cell_angle_alpha 90.000000
_cell_angle_beta 90.000000
_cell_angle_gamma 90.000000
_cell_volume 2426.152578
_symmetry_space_group_name_H-M "P B C N"
_symmetry_group_IT_number 60
_symmetry_cell_setting 'orthorhombic'
loop_
_space_group_symop_operation_xyz
x,y,z
1/2-x,1/2-y,1/2+z
1/2+x,1/2-y,-z
-x,y,1/2-z
-x,-y,-z
1/2+x,1/2+y,1/2-z
1/2-x,1/2+y,z
x,-y,1/2+z
loop_
_atom_site_type_symbol
_atom_site_label
_atom_site_fract_x
_atom_site_fract_y
_atom_site_fract_z
Si Si1 0.000000 0.359922 0.250000
Si Si2 0.656234 0.992026 0.754536
Si Si3 0.265939 0.305027 0.155673
Si Si4 0.347602 0.017858 0.915897
Si Si5 0.076776 0.176344 0.962834
Si Si6 0.536789 0.684440 0.094232
Si Si7 0.222801 0.064648 0.036499
O O1 0.930549 0.487849 0.256726
O O2 0.994815 0.235813 0.176309
O O3 0.675243 0.807917 0.797183
O O4 0.692942 0.161279 0.795321
O O5 0.687576 0.995935 0.668263
O O6 0.253301 0.252065 0.065592
O O7 0.293239 0.496647 0.125914
O O8 0.389006 0.205725 0.923713
O O9 0.285210 0.989904 0.979173
O O10 0.405741 0.858344 0.920643
O O11 0.147360 0.076952 0.994288
O O12 0.020826 0.231202 0.028659
O O13 0.046290 0.028365 0.904543
#
# Coordination Sequence:
#
# PCOD8247730 Si02
#       7
#     4   8   8   8   8   8   8
#     4  10  22  46  68  94 140 180 216 280 338 402
#     4  10  24  43  66  98 136 174 225 274 345 396
#     4  10  22  40  65  96 130 177 214 279 333 402
#     4  11  24  42  69  98 132 177 223 280 330 399
#     4  11  23  43  66 101 127 176 222 272 334 395
#     4  10  24  44  66  96 137 171 222 276 331 401
#     4  11  21  40  67  96 129 170 224 274 330 393
#
# _framework density 21.433111
#
# number of rings (size 3 to 8) (size 9 to 14) (size 15 to 20)
#    0.000    1.538    1.538    2.308    4.308    1.231 
#   19.385    0.769    0.000    0.000    0.000    0.000 
#    0.000    0.000    0.000    0.000    0.000    0.000 
#
# Total GULP energy -644214.066144 kJ/mol
# GULP energy per Si atom -12388.732041 kJ/mol
# Density = 2.138433 g / cm^3
# Si number density = 21.433111 Si / 1000 Ang^3
#
#
#
# Elastic Constant Matrix: (Units=GPa)
#
#
# Indices 1 2 3 4 5 6 
#
# 1 74.6635 23.0505 37.8284 0.0000 0.0000 0.0000
# 2 23.0505 56.4609 44.2479 0.0000 0.0000 0.0000
# 3 37.8284 44.2479 137.0984 0.0000 0.0000 0.0000
# 4 0.0000 0.0000 0.0000 1167.3845 0.0000 0.0000
# 5 0.0000 0.0000 0.0000 0.0000 34.9197 0.0000
# 6 0.0000 0.0000 0.0000 0.0000 0.0000 27.1690
#
#
#
# Elastic Compliance Matrix: (Units=1/GPa)
#
#
# Indices 1 2 3 4 5 6 
#
# 1 0.016276 -0.004183 -0.003141 0.000000 0.000000 0.000000
# 2 -0.004183 0.024783 -0.006844 0.000000 0.000000 0.000000
# 3 -0.003141 -0.006844 0.010370 0.000000 0.000000 0.000000
# 4 0.000000 0.000000 0.000000 0.000857 0.000000 0.000000
# 5 0.000000 0.000000 0.000000 0.000000 0.028637 0.000000
# 6 0.000000 0.000000 0.000000 0.000000 0.000000 0.036807
#
#
# Mechanical properties :
#
#
# Convention : Reuss Voigt Hill
#
# Bulk Modulus (GPa) = 43.30533 53.16404 48.23468
# Shear Modulus (GPa) = 32.51741 256.76771 144.64256
#
# Velocity S-wave (km/s) = 3.89930 10.95717 8.22387
# Velocity P-wave (km/s) = 6.36564 13.59919 10.61742
#
# Compressibility (1/GPa) = 0.02309185
#
# Stress axis : x y z
#
# Youngs Moduli (GPa) = 61.43920 40.35000 96.43559
#
# Poissons Ratio (x) = 0.16880 0.30288
# Poissons Ratio (y) = 0.25703 0.66004
# Poissons Ratio (z) = 0.19297 0.27617
#
# Static dielectric constant tensor:
#      x y z
#    x 3.658060 0.000000 0.000000 
#    y 0.000000 4.079740 0.000000 
#    z 0.000000 0.000000 3.945860 
# 
# 
# High freq. dielectric constant tensor:
#      x y z
#    x 1.827950 0.000000 0.000000 
#    y 0.000000 1.858260 0.000000 
#    z 0.000000 0.000000 1.853750 
# 
# From -- ./inp_files/20851.got.cif
#   From: 2010.03.12/outbox.cif.g09.slc.cpg/sg60_11_cif.got.tgz:20851.got - 2010.04.10 18:46:24.
