data_PCOD8247776
_publ_section_title
;
Structure prediction by ZEFSAII (Michael W. Deem and Ramdas Pophale) SiO2 
 PCOD8247776
Probable space group: P B C N
;
_chemical_formula_sum "Si O2"
_cell_formula_units_Z 40
_cell_length_a 8.480920
_cell_length_b 9.325224
_cell_length_c 21.649358
_cell_angle_alpha 90.000000
_cell_angle_beta 90.000000
_cell_angle_gamma 90.000000
_cell_volume 1712.171491
_symmetry_space_group_name_H-M "P B C N"
_symmetry_group_IT_number 60
_symmetry_cell_setting 'orthorhombic'
loop_
_space_group_symop_operation_xyz
x,y,z
1/2-x,1/2-y,1/2+z
1/2+x,1/2-y,-z
-x,y,1/2-z
-x,-y,-z
1/2+x,1/2+y,1/2-z
1/2-x,1/2+y,z
x,-y,1/2+z
loop_
_atom_site_type_symbol
_atom_site_label
_atom_site_fract_x
_atom_site_fract_y
_atom_site_fract_z
Si Si1 0.021443 0.654200 0.030163
Si Si2 0.176808 0.330762 0.226290
Si Si3 0.688706 0.741810 0.080909
Si Si4 0.876869 0.400640 0.841170
Si Si5 0.714903 0.990652 0.661123
O O1 0.146829 0.644097 0.087230
O O2 0.865388 0.717785 0.059172
O O3 0.077956 0.769814 0.979154
O O4 0.000000 0.500000 0.000000
O O5 0.272615 0.190696 0.206930
O O6 0.173248 0.433167 0.166525
O O7 0.272182 0.416284 0.280477
O O8 0.000000 0.291441 0.250000
O O9 0.652071 0.620730 0.134173
O O10 0.666592 0.901681 0.106316
O O11 0.061595 0.394547 0.821130
#
# Coordination Sequence:
#
# PCOD8247776 Si02
#       5
#     8   8   8   8   8
#     4  11  24  44  69 106 145 190 237 299 354 418
#     4  10  22  42  70  98 133 180 232 289 353 425
#     4  11  22  42  71  98 146 186 237 296 352 421
#     4  10  22  41  66  98 142 175 228 295 351 422
#     4  10  22  42  67 103 138 183 231 295 354 421
#
# _framework density 23.362145000000002
#
# number of rings (size 3 to 8) (size 9 to 14) (size 15 to 20)
#    0.000    1.600    4.000    1.200    2.800    2.400 
#    0.000   15.000    0.000    0.000    0.000    0.000 
#    0.000    0.000    0.000    0.000    0.000    0.000 
#
# Total GULP energy -495644.597668 kJ/mol
# GULP energy per Si atom -12391.114942 kJ/mol
# Density = 2.330897 g / cm^3
# Si number density = 23.362145 Si / 1000 Ang^3
#
#
#
# Elastic Constant Matrix: (Units=GPa)
#
#
# Indices 1 2 3 4 5 6 
#
# 1 62.2773 46.5764 51.7166 0.0000 0.0000 0.0000
# 2 46.5764 103.3930 42.2364 0.0000 0.0000 0.0000
# 3 51.7166 42.2364 110.9124 0.0000 0.0000 0.0000
# 4 0.0000 0.0000 0.0000 41.9074 0.0000 0.0000
# 5 0.0000 0.0000 0.0000 0.0000 43.8075 0.0000
# 6 0.0000 0.0000 0.0000 0.0000 0.0000 33.2680
#
#
#
# Elastic Compliance Matrix: (Units=1/GPa)
#
#
# Indices 1 2 3 4 5 6 
#
# 1 0.033461 -0.010303 -0.011679 0.000000 0.000000 0.000000
# 2 -0.010303 0.014626 -0.000766 0.000000 0.000000 0.000000
# 3 -0.011679 -0.000766 0.014753 0.000000 0.000000 0.000000
# 4 0.000000 0.000000 0.000000 0.023862 0.000000 0.000000
# 5 0.000000 0.000000 0.000000 0.000000 0.022827 0.000000
# 6 0.000000 0.000000 0.000000 0.000000 0.000000 0.030059
#
#
# Mechanical properties :
#
#
# Convention : Reuss Voigt Hill
#
# Bulk Modulus (GPa) = 57.65148 61.96019 59.80583
# Shear Modulus (GPa) = 26.19664 32.86681 29.53172
#
# Velocity S-wave (km/s) = 3.35226 3.75486 3.55925
# Velocity P-wave (km/s) = 6.30193 6.73630 6.52274
#
# Compressibility (1/GPa) = 0.01734561
#
# Stress axis : x y z
#
# Youngs Moduli (GPa) = 29.88572 68.37278 67.78107
#
# Poissons Ratio (x) = 0.70441 0.79161
# Poissons Ratio (y) = 0.30790 0.05190
# Poissons Ratio (z) = 0.34903 0.05235
#
# Static dielectric constant tensor:
#      x y z
#    x 3.929090 0.000000 0.000000 
#    y 0.000000 4.414300 0.000000 
#    z 0.000000 0.000000 4.994450 
# 
# 
# High freq. dielectric constant tensor:
#      x y z
#    x 1.879540 0.000000 0.000000 
#    y 0.000000 1.923950 0.000000 
#    z 0.000000 0.000000 1.953390 
# 
# From -- ./inp_files/23836.got.cif
#   From: 2010.03.12/outbox.cif.g09.slc.cpg/sg60_12_cif.got.tgz:23836.got - 2010.04.10 18:46:24.
