data_PCOD8247405
_publ_section_title
;
Structure prediction by ZEFSAII (Michael W. Deem and Ramdas Pophale) SiO2 
 PCOD8247405
Probable space group: P B C N
;
_chemical_formula_sum "Si O2"
_cell_formula_units_Z 48
_cell_length_a 17.422709
_cell_length_b 8.630290
_cell_length_c 13.885248
_cell_angle_alpha 90.000000
_cell_angle_beta 90.000000
_cell_angle_gamma 90.000000
_cell_volume 2087.827979
_symmetry_space_group_name_H-M "P B C N"
_symmetry_group_IT_number 60
_symmetry_cell_setting 'orthorhombic'
loop_
_space_group_symop_operation_xyz
x,y,z
1/2-x,1/2-y,1/2+z
1/2+x,1/2-y,-z
-x,y,1/2-z
-x,-y,-z
1/2+x,1/2+y,1/2-z
1/2-x,1/2+y,z
x,-y,1/2+z
loop_
_atom_site_type_symbol
_atom_site_label
_atom_site_fract_x
_atom_site_fract_y
_atom_site_fract_z
Si Si1 0.715576 0.720786 0.404911
Si Si2 0.000000 0.120697 0.750000
Si Si3 0.632261 0.621201 0.217893
Si Si4 0.416264 0.068031 0.570155
Si Si5 0.000000 0.355102 0.250000
Si Si6 0.024479 0.749737 0.047430
Si Si7 0.336354 0.582340 0.495608
O O1 0.699221 0.655245 0.297320
O O2 0.671226 0.885854 0.412979
O O3 0.799886 0.782176 0.435096
O O4 0.689891 0.589959 0.479607
O O5 0.998158 0.231191 0.842057
O O6 0.919743 0.025760 0.748387
O O7 0.570642 0.757315 0.206809
O O8 0.679397 0.601939 0.118494
O O9 0.465537 0.039982 0.666533
O O10 0.447155 0.219818 0.512520
O O11 0.423295 0.902163 0.519760
O O12 0.071458 0.900302 0.010572
#
# Coordination Sequence:
#
# PCOD8247405 Si02
#       7
#     8   4   8   8   4   8   8
#     4  11  25  43  64  92 136 174 223 275 336 406
#     4  11  21  40  68 104 130 174 222 288 336 406
#     4  10  22  39  67  95 127 172 221 274 338 397
#     4  10  21  39  63 100 129 168 210 279 330 396
#     4   9  17  36  64  92 126 160 210 268 328 380
#     4  11  22  38  66  97 133 164 222 271 336 395
#     4  12  24  44  65  94 130 182 224 276 335 412
#
# _framework density 22.990397999999999
#
# number of rings (size 3 to 8) (size 9 to 14) (size 15 to 20)
#    0.000    1.333    3.333    2.500    0.000    2.667 
#    3.000    0.000    0.000    0.000    0.000    0.000 
#    0.000    0.000    0.000    0.000    0.000    0.000 
#
# Total GULP energy -594722.131634 kJ/mol
# GULP energy per Si atom -12390.044409 kJ/mol
# Density = 2.293807 g / cm^3
# Si number density = 22.990398 Si / 1000 Ang^3
#
#
#
# Elastic Constant Matrix: (Units=GPa)
#
#
# Indices 1 2 3 4 5 6 
#
# 1 61.1168 1.3700 19.5738 0.0000 0.0000 0.0000
# 2 1.3700 44.1107 -12.5791 0.0000 0.0000 0.0000
# 3 19.5738 -12.5791 108.3456 0.0000 0.0000 0.0000
# 4 0.0000 0.0000 0.0000 117.3436 0.0000 0.0000
# 5 0.0000 0.0000 0.0000 0.0000 29.0940 0.0000
# 6 0.0000 0.0000 0.0000 0.0000 0.0000 29.7996
#
#
#
# Elastic Compliance Matrix: (Units=1/GPa)
#
#
# Indices 1 2 3 4 5 6 
#
# 1 0.017461 -0.001491 -0.003328 0.000000 0.000000 0.000000
# 2 -0.001491 0.023574 0.003006 0.000000 0.000000 0.000000
# 3 -0.003328 0.003006 0.010180 0.000000 0.000000 0.000000
# 4 0.000000 0.000000 0.000000 0.008522 0.000000 0.000000
# 5 0.000000 0.000000 0.000000 0.000000 0.034371 0.000000
# 6 0.000000 0.000000 0.000000 0.000000 0.000000 0.033558
#
#
# Mechanical properties :
#
#
# Convention : Reuss Voigt Hill
#
# Bulk Modulus (GPa) = 21.01285 25.58917 23.30101
# Shear Modulus (GPa) = 33.97788 48.92799 41.45294
#
# Velocity S-wave (km/s) = 3.84854 4.61824 4.25085
# Velocity P-wave (km/s) = 5.37662 6.29222 5.85235
#
# Compressibility (1/GPa) = 0.04758992
#
# Stress axis : x y z
#
# Youngs Moduli (GPa) = 57.26946 42.41978 98.23217
#
# Poissons Ratio (x) = 0.06326 0.32689
# Poissons Ratio (y) = 0.08541 -0.29532
# Poissons Ratio (z) = 0.19058 -0.12753
#
# Static dielectric constant tensor:
#      x y z
#    x 3.963240 0.000000 0.000000 
#    y 0.000000 3.921010 0.000000 
#    z 0.000000 0.000000 4.140800 
# 
# 
# High freq. dielectric constant tensor:
#      x y z
#    x 1.893570 0.000000 0.000000 
#    y 0.000000 1.912690 0.000000 
#    z 0.000000 0.000000 1.908740 
# 
# From -- ./inp_files/17379.got.cif
#   From: 2010.03.12/outbox.cif.g09.slc.cpg/sg60_9_cif.got.tgz:17379.got - 2010.04.10 18:46:24.
