data_PCOD8247676
_publ_section_title
;
Structure prediction by ZEFSAII (Michael W. Deem and Ramdas Pophale) SiO2 
 PCOD8247676
Probable space group: P B C N
;
_chemical_formula_sum "Si O2"
_cell_formula_units_Z 56
_cell_length_a 5.114157
_cell_length_b 33.432318
_cell_length_c 16.240863
_cell_angle_alpha 90.000000
_cell_angle_beta 90.000000
_cell_angle_gamma 90.000000
_cell_volume 2776.832274
_symmetry_space_group_name_H-M "P B C N"
_symmetry_group_IT_number 60
_symmetry_cell_setting 'orthorhombic'
loop_
_space_group_symop_operation_xyz
x,y,z
1/2-x,1/2-y,1/2+z
1/2+x,1/2-y,-z
-x,y,1/2-z
-x,-y,-z
1/2+x,1/2+y,1/2-z
1/2-x,1/2+y,z
x,-y,1/2+z
loop_
_atom_site_type_symbol
_atom_site_label
_atom_site_fract_x
_atom_site_fract_y
_atom_site_fract_z
Si Si1 0.700989 0.065439 0.884884
Si Si2 0.526238 0.554701 0.044573
Si Si3 0.691001 0.478398 0.110266
Si Si4 0.852138 0.860134 0.957753
Si Si5 0.743408 0.285053 0.303377
Si Si6 0.348001 0.850771 0.066692
Si Si7 0.741711 0.194228 0.303299
O O1 0.462580 0.037761 0.852947
O O2 0.676319 0.112742 0.866220
O O3 0.961238 0.046597 0.843712
O O4 0.728338 0.065505 0.985108
O O5 0.634845 0.526275 0.119066
O O6 0.379196 0.594382 0.077255
O O7 0.313893 0.530419 0.988655
O O8 0.772542 0.831725 0.884251
O O9 0.637412 0.855044 0.029127
O O10 0.133665 0.849430 0.994767
O O11 0.500000 0.302078 0.250000
O O12 0.801652 0.309917 0.385002
O O13 0.681787 0.239649 0.331077
O O14 0.000000 0.286546 0.250000
O O15 0.500000 0.177394 0.250000
O O16 0.000000 0.190906 0.250000
#
# Coordination Sequence:
#
# PCOD8247676 Si02
#       7
#     8   8   8   8   8   8   8
#     4   9  15  26  39  68 102 134 157 211 253 299
#     4   8  17  24  43  69 104 134 168 203 263 302
#     4   9  15  24  42  63 108 138 163 197 264 309
#     4  11  21  33  54  83 112 134 176 238 276 310
#     4  10  22  39  58  76 105 146 184 218 268 348
#     4  11  20  33  53  84 110 132 175 230 278 312
#     4  10  22  41  57  75 105 147 186 219 275 343
#
# _framework density 20.166861999999998
#
# number of rings (size 3 to 8) (size 9 to 14) (size 15 to 20)
#    0.857    1.429    1.429    2.143    0.000    1.143 
#    0.000    0.000    0.000    0.000    0.000    4.000 
#    0.000    0.000    0.000    0.000    0.000    0.000 
#
# Total GULP energy -693784.498052 kJ/mol
# GULP energy per Si atom -12389.008894 kJ/mol
# Density = 2.012096 g / cm^3
# Si number density = 20.166862 Si / 1000 Ang^3
#
#
#
# Elastic Constant Matrix: (Units=GPa)
#
#
# Indices 1 2 3 4 5 6 
#
# 1 121.4763 29.4370 14.6704 0.0000 0.0000 0.0000
# 2 29.4370 122.1452 43.0589 0.0000 0.0000 0.0000
# 3 14.6704 43.0589 37.7199 0.0000 0.0000 0.0000
# 4 0.0000 0.0000 0.0000 -3.4246 0.0000 0.0000
# 5 0.0000 0.0000 0.0000 0.0000 14.0695 0.0000
# 6 0.0000 0.0000 0.0000 0.0000 0.0000 32.3731
#
#
#
# Elastic Compliance Matrix: (Units=1/GPa)
#
#
# Indices 1 2 3 4 5 6 
#
# 1 0.008806 -0.001531 -0.001677 0.000000 0.000000 0.000000
# 2 -0.001531 0.013966 -0.015348 0.000000 0.000000 0.000000
# 3 -0.001677 -0.015348 0.044684 0.000000 0.000000 0.000000
# 4 0.000000 0.000000 0.000000 -0.292003 0.000000 0.000000
# 5 0.000000 0.000000 0.000000 0.000000 0.071076 0.000000
# 6 0.000000 0.000000 0.000000 0.000000 0.000000 0.030890
#
#
# Mechanical properties :
#
#
# Convention : Reuss Voigt Hill
#
# Bulk Modulus (GPa) = 32.95557 50.63047 41.79302
# Shear Modulus (GPa) = -66.35227 21.54860 -22.40183
#
# Velocity S-wave (km/s) = -5.74222 3.27236 -3.33652
# Velocity P-wave (km/s) = 5.25235 6.27997 2.43423
#
# Compressibility (1/GPa) = 0.03034388
#
# Stress axis : x y z
#
# Youngs Moduli (GPa) = 113.56425 71.60058 22.37954
#
# Poissons Ratio (x) = 0.10961 0.03753
# Poissons Ratio (y) = 0.17386 0.34348
# Poissons Ratio (z) = 0.19047 1.09891
#
# Static dielectric constant tensor:
#      x y z
#    x 3.716580 0.000000 0.000000 
#    y 0.000000 3.931420 0.000000 
#    z 0.000000 0.000000 2.920940 
# 
# 
# High freq. dielectric constant tensor:
#      x y z
#    x 1.802080 0.000000 0.000000 
#    y 0.000000 1.797750 0.000000 
#    z 0.000000 0.000000 1.721070 
# 
# From -- ./inp_files/14104.got.cif
#   From: 2010.03.12/outbox.cif.g09.slc.cpg/sg60_8_cif.got.tgz:14104.got - 2010.04.10 18:46:24.
