data_PCOD8247031
_publ_section_title
;
Structure prediction by ZEFSAII (Michael W. Deem and Ramdas Pophale) SiO2 
 PCOD8247031
Probable space group: P B C N
;
_chemical_formula_sum "Si O2"
_cell_formula_units_Z 56
_cell_length_a 13.502441
_cell_length_b 14.589177
_cell_length_c 14.482804
_cell_angle_alpha 90.000000
_cell_angle_beta 90.000000
_cell_angle_gamma 90.000000
_cell_volume 2852.960343
_symmetry_space_group_name_H-M "P B C N"
_symmetry_group_IT_number 60
_symmetry_cell_setting 'orthorhombic'
loop_
_space_group_symop_operation_xyz
x,y,z
1/2-x,1/2-y,1/2+z
1/2+x,1/2-y,-z
-x,y,1/2-z
-x,-y,-z
1/2+x,1/2+y,1/2-z
1/2-x,1/2+y,z
x,-y,1/2+z
loop_
_atom_site_type_symbol
_atom_site_label
_atom_site_fract_x
_atom_site_fract_y
_atom_site_fract_z
Si Si1 0.598724 0.450725 0.027909
Si Si2 0.931870 0.659260 0.003555
Si Si3 0.636100 0.165154 0.588412
Si Si4 0.262177 0.298975 0.787287
Si Si5 0.290104 0.301264 0.571171
Si Si6 0.709988 0.028936 0.099004
Si Si7 0.933755 0.795389 0.160724
O O1 0.688968 0.522251 0.039334
O O2 0.571812 0.398331 0.122653
O O3 0.500000 0.500000 0.000000
O O4 0.628239 0.378962 0.948542
O O5 0.885500 0.564205 0.041031
O O6 0.974881 0.723147 0.085687
O O7 0.837667 0.704171 0.953420
O O8 0.020869 0.644947 0.931839
O O9 0.643999 0.252055 0.659361
O O10 0.692766 0.184374 0.491679
O O11 0.680971 0.072676 0.635034
O O12 0.267759 0.302921 0.678375
O O13 0.236156 0.402115 0.818046
O O14 0.177731 0.229354 0.816459
O O15 0.000000 0.790884 0.250000
#
# Coordination Sequence:
#
# PCOD8247031 Si02
#       7
#     8   8   8   8   8   8   8
#     4  10  22  39  61  93 125 161 212 261 324 379
#     4  10  21  38  65  90 122 170 202 256 328 369
#     4  11  21  43  63  90 130 162 213 264 312 387
#     4  11  22  40  64  88 129 165 209 263 316 374
#     4  10  22  41  62  93 123 168 207 256 325 375
#     4  10  21  41  61  89 127 164 205 267 306 380
#     4  10  20  38  62  91 121 162 215 252 311 382
#
# _framework density 19.628734999999999
#
# number of rings (size 3 to 8) (size 9 to 14) (size 15 to 20)
#    0.000    1.714    5.714    1.286    4.000    2.857 
#    5.143    0.000    9.429    0.000    0.000    0.000 
#    0.000    0.000    0.000    0.000    0.000    0.000 
#
# Total GULP energy -694142.188994 kJ/mol
# GULP energy per Si atom -12395.396232 kJ/mol
# Density = 1.958406 g / cm^3
# Si number density = 19.628735 Si / 1000 Ang^3
#
#
#
# Elastic Constant Matrix: (Units=GPa)
#
#
# Indices 1 2 3 4 5 6 
#
# 1 40.1390 15.9109 -17.3957 0.0000 0.0000 0.0000
# 2 15.9109 89.7973 31.4069 0.0000 0.0000 0.0000
# 3 -17.3957 31.4069 86.3109 0.0000 0.0000 0.0000
# 4 0.0000 0.0000 0.0000 18.7947 0.0000 0.0000
# 5 0.0000 0.0000 0.0000 0.0000 33.4298 0.0000
# 6 0.0000 0.0000 0.0000 0.0000 0.0000 86.7241
#
#
#
# Elastic Compliance Matrix: (Units=1/GPa)
#
#
# Indices 1 2 3 4 5 6 
#
# 1 0.032980 -0.009360 0.010053 0.000000 0.000000 0.000000
# 2 -0.009360 0.015416 -0.007496 0.000000 0.000000 0.000000
# 3 0.010053 -0.007496 0.016340 0.000000 0.000000 0.000000
# 4 0.000000 0.000000 0.000000 0.053207 0.000000 0.000000
# 5 0.000000 0.000000 0.000000 0.000000 0.029913 0.000000
# 6 0.000000 0.000000 0.000000 0.000000 0.000000 0.011531
#
#
# Mechanical properties :
#
#
# Convention : Reuss Voigt Hill
#
# Bulk Modulus (GPa) = 19.55771 30.67683 25.11727
# Shear Modulus (GPa) = 26.31067 40.21139 33.26103
#
# Velocity S-wave (km/s) = 3.66514 4.53105 4.12090
# Velocity P-wave (km/s) = 5.28171 6.56021 5.95537
#
# Compressibility (1/GPa) = 0.05113073
#
# Stress axis : x y z
#
# Youngs Moduli (GPa) = 30.32107 64.86591 61.19999
#
# Poissons Ratio (x) = 0.60713 -0.61524
# Poissons Ratio (y) = 0.28380 0.45877
# Poissons Ratio (z) = -0.30482 0.48625
#
# Static dielectric constant tensor:
#      x y z
#    x 3.575710 0.000000 0.000000 
#    y 0.000000 3.613770 0.000000 
#    z 0.000000 0.000000 2.995300 
# 
# 
# High freq. dielectric constant tensor:
#      x y z
#    x 1.770540 0.000000 0.000000 
#    y 0.000000 1.771770 0.000000 
#    z 0.000000 0.000000 1.743990 
# 
# From -- ./inp_files/16174.got.cif
#   From: 2010.03.12/outbox.cif.g09.slc.cpg/sg60_9_cif.got.tgz:16174.got - 2010.04.10 18:46:24.
