data_PCOD8247025
_publ_section_title
;
Structure prediction by ZEFSAII (Michael W. Deem and Ramdas Pophale) SiO2 
 PCOD8247025
Probable space group: P B C N
;
_chemical_formula_sum "Si O2"
_cell_formula_units_Z 48
_cell_length_a 8.467561
_cell_length_b 9.345547
_cell_length_c 27.734295
_cell_angle_alpha 90.000000
_cell_angle_beta 90.000000
_cell_angle_gamma 90.000000
_cell_volume 2194.725404
_symmetry_space_group_name_H-M "P B C N"
_symmetry_group_IT_number 60
_symmetry_cell_setting 'orthorhombic'
loop_
_space_group_symop_operation_xyz
x,y,z
1/2-x,1/2-y,1/2+z
1/2+x,1/2-y,-z
-x,y,1/2-z
-x,-y,-z
1/2+x,1/2+y,1/2-z
1/2-x,1/2+y,z
x,-y,1/2+z
loop_
_atom_site_type_symbol
_atom_site_label
_atom_site_fract_x
_atom_site_fract_y
_atom_site_fract_z
Si Si1 0.587889 0.520338 0.201157
Si Si2 0.663143 0.215626 0.233165
Si Si3 0.824212 0.201081 0.333644
Si Si4 0.435918 0.887594 0.963033
Si Si5 0.367457 0.605181 0.519971
Si Si6 0.641841 0.015504 0.892576
O O1 0.500000 0.558863 0.250000
O O2 0.622798 0.352072 0.199378
O O3 0.753344 0.603018 0.198330
O O4 0.468146 0.585161 0.161913
O O5 0.500000 0.144331 0.250000
O O6 0.770410 0.253015 0.280116
O O7 0.878023 0.341397 0.361895
O O8 0.682580 0.119254 0.359109
O O9 0.543478 0.746596 0.963176
O O10 0.468327 0.968913 0.912314
O O11 0.252772 0.855849 0.975712
O O12 0.500000 0.000000 0.000000
O O13 0.500000 0.500000 0.500000
O O14 0.271414 0.536563 0.564725
#
# Coordination Sequence:
#
# PCOD8247025 Si02
#       6
#     8   8   8   8   8   8
#     4   9  20  37  60  87 117 165 209 257 314 391
#     4  10  20  38  62  88 118 166 221 257 313 394
#     4  11  22  40  64  93 134 165 212 278 335 383
#     4  10  21  39  65  94 124 173 222 256 327 396
#     4  11  23  42  68  93 128 175 224 267 319 410
#     4  11  22  40  63  97 131 172 213 279 339 379
#
# _framework density 21.870616999999999
#
# number of rings (size 3 to 8) (size 9 to 14) (size 15 to 20)
#    0.000    1.667    1.667    5.000    2.333    3.333 
#    0.000    5.000    0.000    0.000    0.000    0.000 
#    0.000    0.000    0.000    0.000    0.000    0.000 
#
# Total GULP energy -594686.812250 kJ/mol
# GULP energy per Si atom -12389.308589 kJ/mol
# Density = 2.182084 g / cm^3
# Si number density = 21.870617 Si / 1000 Ang^3
#
#
#
# Elastic Constant Matrix: (Units=GPa)
#
#
# Indices 1 2 3 4 5 6 
#
# 1 93.4685 5.4247 -4.2135 0.0000 0.0000 0.0000
# 2 5.4247 74.0077 4.1469 0.0000 0.0000 0.0000
# 3 -4.2135 4.1469 30.7006 0.0000 0.0000 0.0000
# 4 0.0000 0.0000 0.0000 16.9385 0.0000 0.0000
# 5 0.0000 0.0000 0.0000 0.0000 35.3428 0.0000
# 6 0.0000 0.0000 0.0000 0.0000 0.0000 43.2295
#
#
#
# Elastic Compliance Matrix: (Units=1/GPa)
#
#
# Indices 1 2 3 4 5 6 
#
# 1 0.010822 -0.000883 0.001605 0.000000 0.000000 0.000000
# 2 -0.000883 0.013687 -0.001970 0.000000 0.000000 0.000000
# 3 0.001605 -0.001970 0.033059 0.000000 0.000000 0.000000
# 4 0.000000 0.000000 0.000000 0.059037 0.000000 0.000000
# 5 0.000000 0.000000 0.000000 0.000000 0.028294 0.000000
# 6 0.000000 0.000000 0.000000 0.000000 0.000000 0.023132
#
#
# Mechanical properties :
#
#
# Convention : Reuss Voigt Hill
#
# Bulk Modulus (GPa) = 18.15826 23.21035 20.68430
# Shear Modulus (GPa) = 26.47089 31.95674 29.21381
#
# Velocity S-wave (km/s) = 3.48277 3.82668 3.65876
# Velocity P-wave (km/s) = 4.94909 5.49183 5.22751
#
# Compressibility (1/GPa) = 0.05507134
#
# Stress axis : x y z
#
# Youngs Moduli (GPa) = 92.40112 73.06080 30.24900
#
# Poissons Ratio (x) = 0.06453 -0.04854
# Poissons Ratio (y) = 0.08161 0.05959
# Poissons Ratio (z) = -0.14827 0.14393
#
# Static dielectric constant tensor:
#      x y z
#    x 4.568880 0.000000 0.000000 
#    y 0.000000 3.849400 0.000000 
#    z 0.000000 0.000000 4.193120 
# 
# 
# High freq. dielectric constant tensor:
#      x y z
#    x 1.861550 0.000000 0.000000 
#    y 0.000000 1.870690 0.000000 
#    z 0.000000 0.000000 1.836810 
# 
# From -- ./inp_files/25919.got.cif
#   From: 2010.03.12/outbox.cif.g09.slc.cpg/sg60_13_cif.got.tgz:25919.got - 2010.04.10 18:46:24.
