data_PCOD8247992
_publ_section_title
;
Structure prediction by ZEFSAII (Michael W. Deem and Ramdas Pophale) SiO2 
 PCOD8247992
Probable space group: P B C N
;
_chemical_formula_sum "Si O2"
_cell_formula_units_Z 60
_cell_length_a 17.161639
_cell_length_b 18.976907
_cell_length_c 8.977754
_cell_angle_alpha 90.000000
_cell_angle_beta 90.000000
_cell_angle_gamma 90.000000
_cell_volume 2923.828483
_symmetry_space_group_name_H-M "P B C N"
_symmetry_group_IT_number 60
_symmetry_cell_setting 'orthorhombic'
loop_
_space_group_symop_operation_xyz
x,y,z
1/2-x,1/2-y,1/2+z
1/2+x,1/2-y,-z
-x,y,1/2-z
-x,-y,-z
1/2+x,1/2+y,1/2-z
1/2-x,1/2+y,z
x,-y,1/2+z
loop_
_atom_site_type_symbol
_atom_site_label
_atom_site_fract_x
_atom_site_fract_y
_atom_site_fract_z
Si Si1 0.867123 0.500922 0.029583
Si Si2 0.489434 0.416785 0.977032
Si Si3 0.842070 0.738113 0.181810
Si Si4 0.295073 0.087908 0.231056
Si Si5 0.877591 0.131584 0.273461
Si Si6 0.812502 0.275802 0.333109
Si Si7 0.419204 0.903182 0.215778
Si Si8 0.000000 0.820832 0.250000
O O1 0.799589 0.541879 0.119114
O O2 0.916542 0.459516 0.151327
O O3 0.829218 0.448656 0.913188
O O4 0.921518 0.556965 0.943162
O O5 0.568911 0.383413 0.915494
O O6 0.416595 0.403432 0.869748
O O7 0.500000 0.500000 0.000000
O O8 0.469463 0.373982 0.124623
O O9 0.844268 0.659094 0.244970
O O10 0.776664 0.779380 0.277316
O O11 0.927376 0.772163 0.200618
O O12 0.815947 0.737271 0.009711
O O13 0.205203 0.097591 0.195056
O O14 0.863339 0.215153 0.251588
O O15 0.847606 0.349994 0.282893
O O16 0.500000 0.862074 0.250000
#
# Coordination Sequence:
#
# PCOD8247992 Si02
#       8
#     8   8   8   8   8   8   8   4
#     4  10  23  43  63 100 132 172 221 266 334 398
#     4  11  25  45  63 103 133 175 219 275 335 401
#     4  11  26  46  68 102 133 176 227 285 333 402
#     4  10  23  44  67  97 132 176 221 275 328 401
#     4  10  24  44  68  91 138 168 221 278 330 395
#     4  11  25  46  69  98 135 174 230 277 339 398
#     4  11  24  41  70  96 134 176 218 272 333 395
#     4  12  26  44  76  96 134 176 230 278 340 402
#
# _framework density 20.521038000000001
#
# number of rings (size 3 to 8) (size 9 to 14) (size 15 to 20)
#    0.000    1.333    2.667    1.200   11.200    1.067 
#    9.600    0.000    0.000    0.000    0.000    0.000 
#    0.000    0.000    0.000    0.000    0.000    0.000 
#
# Total GULP energy -743893.664006 kJ/mol
# GULP energy per Si atom -12398.227733 kJ/mol
# Density = 2.047433 g / cm^3
# Si number density = 20.521038 Si / 1000 Ang^3
#
#
#
# Elastic Constant Matrix: (Units=GPa)
#
#
# Indices 1 2 3 4 5 6 
#
# 1 91.2420 22.9528 14.8438 0.0000 0.0000 0.0000
# 2 22.9528 86.5853 14.0928 0.0000 0.0000 0.0000
# 3 14.8438 14.0928 93.1629 0.0000 0.0000 0.0000
# 4 0.0000 0.0000 0.0000 26.0591 0.0000 0.0000
# 5 0.0000 0.0000 0.0000 0.0000 25.0586 0.0000
# 6 0.0000 0.0000 0.0000 0.0000 0.0000 27.2062
#
#
#
# Elastic Compliance Matrix: (Units=1/GPa)
#
#
# Indices 1 2 3 4 5 6 
#
# 1 0.011933 -0.002926 -0.001459 0.000000 0.000000 0.000000
# 2 -0.002926 0.012558 -0.001433 0.000000 0.000000 0.000000
# 3 -0.001459 -0.001433 0.011183 0.000000 0.000000 0.000000
# 4 0.000000 0.000000 0.000000 0.038374 0.000000 0.000000
# 5 0.000000 0.000000 0.000000 0.000000 0.039906 0.000000
# 6 0.000000 0.000000 0.000000 0.000000 0.000000 0.036756
#
#
# Mechanical properties :
#
#
# Convention : Reuss Voigt Hill
#
# Bulk Modulus (GPa) = 41.60029 41.64100 41.62064
# Shear Modulus (GPa) = 29.34946 30.27150 29.81048
#
# Velocity S-wave (km/s) = 3.78592 3.84493 3.81554
# Velocity P-wave (km/s) = 6.27909 6.32829 6.30373
#
# Compressibility (1/GPa) = 0.02403830
#
# Stress axis : x y z
#
# Youngs Moduli (GPa) = 83.79964 79.62887 89.42022
#
# Poissons Ratio (x) = 0.23299 0.13044
# Poissons Ratio (y) = 0.24519 0.12818
# Poissons Ratio (z) = 0.12224 0.11415
#
# Static dielectric constant tensor:
#      x y z
#    x 3.669150 0.000000 0.000000 
#    y 0.000000 3.898350 0.000000 
#    z 0.000000 0.000000 3.957170 
# 
# 
# High freq. dielectric constant tensor:
#      x y z
#    x 1.802320 0.000000 0.000000 
#    y 0.000000 1.811360 0.000000 
#    z 0.000000 0.000000 1.816820 
# 
# From -- ./inp_files/6922.got.cif
#   From: 2010.03.12/outbox.cif.g09.slc.cpg/sg60_4_cif.got.tgz:6922.got - 2010.04.10 18:46:24.
