data_PCOD8247701
_publ_section_title
;
Structure prediction by ZEFSAII (Michael W. Deem and Ramdas Pophale) SiO2 
 PCOD8247701
Probable space group: P B C N
;
_chemical_formula_sum "Si O2"
_cell_formula_units_Z 64
_cell_length_a 17.960665
_cell_length_b 10.659812
_cell_length_c 14.569598
_cell_angle_alpha 90.000000
_cell_angle_beta 90.000000
_cell_angle_gamma 90.000000
_cell_volume 2789.456074
_symmetry_space_group_name_H-M "P B C N"
_symmetry_group_IT_number 60
_symmetry_cell_setting 'orthorhombic'
loop_
_space_group_symop_operation_xyz
x,y,z
1/2-x,1/2-y,1/2+z
1/2+x,1/2-y,-z
-x,y,1/2-z
-x,-y,-z
1/2+x,1/2+y,1/2-z
1/2-x,1/2+y,z
x,-y,1/2+z
loop_
_atom_site_type_symbol
_atom_site_label
_atom_site_fract_x
_atom_site_fract_y
_atom_site_fract_z
Si Si1 0.085755 0.979402 0.751709
Si Si2 0.773477 0.008088 0.016979
Si Si3 0.465900 0.053809 0.649924
Si Si4 0.823882 0.577190 0.359737
Si Si5 0.151627 0.814020 0.379225
Si Si6 0.019867 0.315214 0.964730
Si Si7 0.770209 0.861310 0.698733
Si Si8 0.614068 0.660074 0.908368
O O1 0.098843 0.096763 0.819015
O O2 0.104895 0.034893 0.651882
O O3 0.000000 0.933397 0.750000
O O4 0.139170 0.862239 0.785145
O O5 0.745801 0.045806 0.117745
O O6 0.823304 0.884401 0.028334
O O7 0.821676 0.125868 0.981108
O O8 0.701423 0.968926 0.959663
O O9 0.500000 0.083087 0.750000
O O10 0.476030 0.164586 0.575317
O O11 0.380343 0.028894 0.674936
O O12 0.491297 0.930408 0.595394
O O13 0.754449 0.572841 0.292447
O O14 0.858207 0.716712 0.354617
O O15 0.100708 0.703978 0.419343
O O16 0.225163 0.767533 0.321651
O O17 0.964748 0.195628 0.955251
#
# Coordination Sequence:
#
# PCOD8247701 Si02
#       8
#     8   8   8   8   8   8   8   8
#     4  11  22  41  70 104 133 180 234 284 347 418
#     4  11  25  42  63  99 136 176 228 291 349 420
#     4  10  22  39  66  98 135 180 235 293 348 414
#     4  11  22  39  68  95 135 181 230 293 341 424
#     4  11  22  41  69  96 134 185 230 284 350 431
#     4  10  22  40  66 101 137 182 231 290 357 424
#     4  11  23  41  67 100 134 183 238 288 345 419
#     4  11  22  41  67  99 136 179 233 279 352 426
#
# _framework density 22.943539000000001
#
# number of rings (size 3 to 8) (size 9 to 14) (size 15 to 20)
#    0.000    1.250    3.750    2.250    1.750    2.500 
#    0.000    2.500    0.000    0.000    0.000    3.500 
#    0.000    0.000    0.000    0.000    0.000    0.000 
#
# Total GULP energy -792902.096798 kJ/mol
# GULP energy per Si atom -12389.095262 kJ/mol
# Density = 2.289132 g / cm^3
# Si number density = 22.943539 Si / 1000 Ang^3
#
#
#
# Elastic Constant Matrix: (Units=GPa)
#
#
# Indices 1 2 3 4 5 6 
#
# 1 133.8509 27.9348 33.7280 0.0000 0.0000 0.0000
# 2 27.9348 34.0980 8.3207 0.0000 0.0000 0.0000
# 3 33.7280 8.3207 108.6929 0.0000 0.0000 0.0000
# 4 0.0000 0.0000 0.0000 10.6407 0.0000 0.0000
# 5 0.0000 0.0000 0.0000 0.0000 34.8969 0.0000
# 6 0.0000 0.0000 0.0000 0.0000 0.0000 31.9642
#
#
#
# Elastic Compliance Matrix: (Units=1/GPa)
#
#
# Indices 1 2 3 4 5 6 
#
# 1 0.009599 -0.007273 -0.002422 0.000000 0.000000 0.000000
# 2 -0.007273 0.035396 -0.000453 0.000000 0.000000 0.000000
# 3 -0.002422 -0.000453 0.009986 0.000000 0.000000 0.000000
# 4 0.000000 0.000000 0.000000 0.093979 0.000000 0.000000
# 5 0.000000 0.000000 0.000000 0.000000 0.028656 0.000000
# 6 0.000000 0.000000 0.000000 0.000000 0.000000 0.031285
#
#
# Mechanical properties :
#
#
# Convention : Reuss Voigt Hill
#
# Bulk Modulus (GPa) = 28.82990 46.28987 37.55988
# Shear Modulus (GPa) = 20.76762 29.27758 25.02260
#
# Velocity S-wave (km/s) = 3.01185 3.57609 3.30603
# Velocity P-wave (km/s) = 4.96869 6.10496 5.56590
#
# Compressibility (1/GPa) = 0.03468622
#
# Stress axis : x y z
#
# Youngs Moduli (GPa) = 104.17544 28.25158 100.13595
#
# Poissons Ratio (x) = 0.20548 0.24252
# Poissons Ratio (y) = 0.75768 0.04534
# Poissons Ratio (z) = 0.25230 0.01279
#
# Static dielectric constant tensor:
#      x y z
#    x 4.297370 0.000000 0.000000 
#    y 0.000000 3.891900 0.000000 
#    z 0.000000 0.000000 4.168490 
# 
# 
# High freq. dielectric constant tensor:
#      x y z
#    x 1.913670 0.000000 0.000000 
#    y 0.000000 1.882750 0.000000 
#    z 0.000000 0.000000 1.913810 
# 
# From -- ./inp_files/17499.got.cif
#   From: 2010.03.12/outbox.cif.g09.slc.cpg/sg60_9_cif.got.tgz:17499.got - 2010.04.10 18:46:24.
