data_PCOD8247317
_publ_section_title
;
Structure prediction by ZEFSAII (Michael W. Deem and Ramdas Pophale) SiO2 
 PCOD8247317
Probable space group: P B C N
;
_chemical_formula_sum "Si O2"
_cell_formula_units_Z 44
_cell_length_a 18.385598
_cell_length_b 13.512183
_cell_length_c 8.954306
_cell_angle_alpha 90.000000
_cell_angle_beta 90.000000
_cell_angle_gamma 90.000000
_cell_volume 2224.514342
_symmetry_space_group_name_H-M "P B C N"
_symmetry_group_IT_number 60
_symmetry_cell_setting 'orthorhombic'
loop_
_space_group_symop_operation_xyz
x,y,z
1/2-x,1/2-y,1/2+z
1/2+x,1/2-y,-z
-x,y,1/2-z
-x,-y,-z
1/2+x,1/2+y,1/2-z
1/2-x,1/2+y,z
x,-y,1/2+z
loop_
_atom_site_type_symbol
_atom_site_label
_atom_site_fract_x
_atom_site_fract_y
_atom_site_fract_z
Si Si1 0.148209 0.261973 0.626015
Si Si2 0.000000 0.991619 0.750000
Si Si3 0.470209 0.363127 0.006022
Si Si4 0.368638 0.285313 0.460796
Si Si5 0.216486 0.376919 0.116715
Si Si6 0.770329 0.579266 0.545238
O O1 0.127458 0.266294 0.799197
O O2 0.209224 0.181388 0.596974
O O3 0.173919 0.367723 0.567382
O O4 0.078368 0.233517 0.525638
O O5 0.949483 0.921622 0.646080
O O6 0.048093 0.062836 0.644173
O O7 0.554750 0.333832 0.997690
O O8 0.349798 0.196333 0.574302
O O9 0.309824 0.373584 0.469656
O O10 0.202485 0.413063 0.284614
O O11 0.226751 0.465501 0.000227
#
# Coordination Sequence:
#
# PCOD8247317 Si02
#       6
#     8   4   8   8   8   8
#     4  10  21  38  58  85 116 149 186 234 279 334
#     4  10  24  34  56  90 118 150 180 222 296 334
#     4  11  22  38  57  88 116 148 186 232 280 341
#     4  10  21  38  58  85 116 149 186 234 279 334
#     4  10  22  37  58  83 114 151 191 231 279 332
#     4  10  22  37  58  83 114 151 191 231 279 332
#
# _framework density 19.779599000000001
#
# number of rings (size 3 to 8) (size 9 to 14) (size 15 to 20)
#    0.000    1.818    1.818    1.091    7.636    1.455 
#    0.000    0.909    0.000    0.000    0.000    0.000 
#    0.000    0.000    0.000    0.000    0.000    0.000 
#
# Total GULP energy -545572.204161 kJ/mol
# GULP energy per Si atom -12399.368276 kJ/mol
# Density = 1.973458 g / cm^3
# Si number density = 19.779599 Si / 1000 Ang^3
#
#
#
# Elastic Constant Matrix: (Units=GPa)
#
#
# Indices 1 2 3 4 5 6 
#
# 1 72.9342 17.7792 16.8996 0.0000 0.0000 0.0000
# 2 17.7792 82.2221 37.4884 0.0000 0.0000 0.0000
# 3 16.8996 37.4884 103.6027 0.0000 0.0000 0.0000
# 4 0.0000 0.0000 0.0000 34.0826 0.0000 0.0000
# 5 0.0000 0.0000 0.0000 0.0000 19.0006 0.0000
# 6 0.0000 0.0000 0.0000 0.0000 0.0000 12.5916
#
#
#
# Elastic Compliance Matrix: (Units=1/GPa)
#
#
# Indices 1 2 3 4 5 6 
#
# 1 0.014664 -0.002491 -0.001490 0.000000 0.000000 0.000000
# 2 -0.002491 0.014988 -0.005017 0.000000 0.000000 0.000000
# 3 -0.001490 -0.005017 0.011711 0.000000 0.000000 0.000000
# 4 0.000000 0.000000 0.000000 0.029340 0.000000 0.000000
# 5 0.000000 0.000000 0.000000 0.000000 0.052630 0.000000
# 6 0.000000 0.000000 0.000000 0.000000 0.000000 0.079418
#
#
# Mechanical properties :
#
#
# Convention : Reuss Voigt Hill
#
# Bulk Modulus (GPa) = 42.79874 44.78816 43.79345
# Shear Modulus (GPa) = 21.87826 25.57441 23.72634
#
# Velocity S-wave (km/s) = 3.32942 3.59969 3.46719
# Velocity P-wave (km/s) = 6.03861 6.32217 6.18202
#
# Compressibility (1/GPa) = 0.02336517
#
# Stress axis : x y z
#
# Youngs Moduli (GPa) = 68.19590 66.71835 85.39107
#
# Poissons Ratio (x) = 0.16621 0.12727
# Poissons Ratio (y) = 0.16989 0.42842
# Poissons Ratio (z) = 0.10164 0.33474
#
# Static dielectric constant tensor:
#      x y z
#    x 3.347440 0.000000 0.000000 
#    y 0.000000 3.585800 0.000000 
#    z 0.000000 0.000000 3.918300 
# 
# 
# High freq. dielectric constant tensor:
#      x y z
#    x 1.744430 0.000000 0.000000 
#    y 0.000000 1.768900 0.000000 
#    z 0.000000 0.000000 1.788720 
# 
# From -- ./inp_files/6641.got.cif
#   From: 2010.03.12/outbox.cif.g09.slc.cpg/sg60_4_cif.got.tgz:6641.got - 2010.04.10 18:46:24.
