data_PCOD8247557
_publ_section_title
;
Structure prediction by ZEFSAII (Michael W. Deem and Ramdas Pophale) SiO2 
 PCOD8247557
Probable space group: P B C N
;
_chemical_formula_sum "Si O2"
_cell_formula_units_Z 48
_cell_length_a 11.711733
_cell_length_b 22.169094
_cell_length_c 8.113666
_cell_angle_alpha 90.000000
_cell_angle_beta 90.000000
_cell_angle_gamma 90.000000
_cell_volume 2106.620149
_symmetry_space_group_name_H-M "P B C N"
_symmetry_group_IT_number 60
_symmetry_cell_setting 'orthorhombic'
loop_
_space_group_symop_operation_xyz
x,y,z
1/2-x,1/2-y,1/2+z
1/2+x,1/2-y,-z
-x,y,1/2-z
-x,-y,-z
1/2+x,1/2+y,1/2-z
1/2-x,1/2+y,z
x,-y,1/2+z
loop_
_atom_site_type_symbol
_atom_site_label
_atom_site_fract_x
_atom_site_fract_y
_atom_site_fract_z
Si Si1 0.877589 0.080869 0.504065
Si Si2 0.777936 0.001555 0.769708
Si Si3 0.709803 0.816659 0.942560
Si Si4 0.000000 0.368251 0.750000
Si Si5 0.252204 0.690052 0.693249
Si Si6 0.000000 0.853789 0.250000
Si Si7 0.833198 0.421098 0.515074
O O1 0.884541 0.022428 0.384868
O O2 0.801991 0.130849 0.411653
O O3 0.996138 0.106934 0.577409
O O4 0.813624 0.061229 0.673122
O O5 0.746568 0.943563 0.663675
O O6 0.669938 0.024085 0.881692
O O7 0.678173 0.814369 0.137831
O O8 0.599947 0.827349 0.826923
O O9 0.769406 0.754334 0.890639
O O10 0.956785 0.409421 0.596413
O O11 0.386177 0.685841 0.741287
O O12 0.214263 0.640562 0.560816
#
# Coordination Sequence:
#
# PCOD8247557 Si02
#       7
#     8   8   8   4   8   4   8
#     4  10  21  42  67  99 133 176 216 283 331 402
#     4  10  21  43  67  93 142 173 225 272 343 397
#     4  11  23  44  68 100 134 180 218 287 332 404
#     4  12  25  42  70 100 134 178 237 264 352 398
#     4  11  24  45  72  97 142 169 226 281 345 398
#     4  10  21  42  68 104 128 172 223 270 346 406
#     4  11  23  43  66 101 132 182 219 289 328 407
#
# _framework density 22.785312000000001
#
# number of rings (size 3 to 8) (size 9 to 14) (size 15 to 20)
#    0.000    1.333    5.000    1.500    0.000    3.333 
#    0.000    0.000    0.000    0.000    0.000    0.000 
#    0.000    0.000    0.000    0.000    0.000    0.000 
#
# Total GULP energy -594668.468652 kJ/mol
# GULP energy per Si atom -12388.926430 kJ/mol
# Density = 2.273345 g / cm^3
# Si number density = 22.785312 Si / 1000 Ang^3
#
#
#
# Elastic Constant Matrix: (Units=GPa)
#
#
# Indices 1 2 3 4 5 6 
#
# 1 52.4533 13.7895 29.8142 0.0000 0.0000 0.0000
# 2 13.7895 110.4316 55.0009 0.0000 0.0000 0.0000
# 3 29.8142 55.0009 121.3503 0.0000 0.0000 0.0000
# 4 0.0000 0.0000 0.0000 45.4842 0.0000 0.0000
# 5 0.0000 0.0000 0.0000 0.0000 35.1478 0.0000
# 6 0.0000 0.0000 0.0000 0.0000 0.0000 20.2240
#
#
#
# Elastic Compliance Matrix: (Units=1/GPa)
#
#
# Indices 1 2 3 4 5 6 
#
# 1 0.022159 -0.000072 -0.005412 0.000000 0.000000 0.000000
# 2 -0.000072 0.011696 -0.005283 0.000000 0.000000 0.000000
# 3 -0.005412 -0.005283 0.011965 0.000000 0.000000 0.000000
# 4 0.000000 0.000000 0.000000 0.021986 0.000000 0.000000
# 5 0.000000 0.000000 0.000000 0.000000 0.028451 0.000000
# 6 0.000000 0.000000 0.000000 0.000000 0.000000 0.049446
#
#
# Mechanical properties :
#
#
# Convention : Reuss Voigt Hill
#
# Bulk Modulus (GPa) = 41.17539 53.49383 47.33461
# Shear Modulus (GPa) = 28.51727 32.54657 30.53192
#
# Velocity S-wave (km/s) = 3.54158 3.78352 3.66455
# Velocity P-wave (km/s) = 5.90203 6.52802 6.22290
#
# Compressibility (1/GPa) = 0.02428635
#
# Stress axis : x y z
#
# Youngs Moduli (GPa) = 45.12748 85.50125 83.57811
#
# Poissons Ratio (x) = 0.00613 0.45231
# Poissons Ratio (y) = 0.00323 0.44157
# Poissons Ratio (z) = 0.24422 0.45174
#
# Static dielectric constant tensor:
#      x y z
#    x 3.697870 0.000000 0.000000 
#    y 0.000000 4.146380 0.000000 
#    z 0.000000 0.000000 4.451120 
# 
# 
# High freq. dielectric constant tensor:
#      x y z
#    x 1.849160 0.000000 0.000000 
#    y 0.000000 1.915660 0.000000 
#    z 0.000000 0.000000 1.922030 
# 
# From -- ./inp_files/5124.got.cif
#   From: 2010.03.12/outbox.cif.g09.slc.cpg/sg60_3_cif.got.tgz:5124.got - 2010.04.10 18:46:24.
