data_PCOD8247496
_publ_section_title
;
Structure prediction by ZEFSAII (Michael W. Deem and Ramdas Pophale) SiO2 
 PCOD8247496
Probable space group: P B C N
;
_chemical_formula_sum "Si O2"
_cell_formula_units_Z 60
_cell_length_a 27.184620
_cell_length_b 11.320323
_cell_length_c 9.104367
_cell_angle_alpha 90.000000
_cell_angle_beta 90.000000
_cell_angle_gamma 90.000000
_cell_volume 2801.765874
_symmetry_space_group_name_H-M "P B C N"
_symmetry_group_IT_number 60
_symmetry_cell_setting 'orthorhombic'
loop_
_space_group_symop_operation_xyz
x,y,z
1/2-x,1/2-y,1/2+z
1/2+x,1/2-y,-z
-x,y,1/2-z
-x,-y,-z
1/2+x,1/2+y,1/2-z
1/2-x,1/2+y,z
x,-y,1/2+z
loop_
_atom_site_type_symbol
_atom_site_label
_atom_site_fract_x
_atom_site_fract_y
_atom_site_fract_z
Si Si1 0.567834 0.705960 0.487952
Si Si2 0.000000 0.837962 0.750000
Si Si3 0.901851 0.222994 0.792880
Si Si4 0.420865 0.440209 0.954235
Si Si5 0.173136 0.972729 0.320460
Si Si6 0.833718 0.345881 0.447327
Si Si7 0.669276 0.921715 0.780071
Si Si8 0.227662 0.873591 0.584136
O O1 0.524466 0.746153 0.376299
O O2 0.558692 0.738984 0.659226
O O3 0.568622 0.564290 0.467191
O O4 0.618978 0.762629 0.439447
O O5 0.957938 0.921004 0.680256
O O6 0.857752 0.140352 0.732809
O O7 0.878181 0.348295 0.836029
O O8 0.929342 0.165732 0.930406
O O9 0.364218 0.437944 0.902072
O O10 0.217845 0.925996 0.421757
O O11 0.195846 0.043990 0.188489
O O12 0.839495 0.442041 0.319373
O O13 0.825073 0.408096 0.604707
O O14 0.787204 0.263928 0.409205
O O15 0.715835 0.875204 0.871032
#
# Coordination Sequence:
#
# PCOD8247496 Si02
#       8
#     8   4   8   8   8   8   8   8
#     4  10  21  41  61  88 132 162 204 272 332 398
#     4  12  24  34  66 108 120 158 216 270 334 424
#     4  10  21  41  60  85 132 175 209 255 337 386
#     4  11  21  38  63  95 134 169 207 263 349 400
#     4  11  21  40  62  92 131 181 198 272 337 378
#     4  11  24  46  60  92 137 173 218 278 326 379
#     4  11  26  39  66  93 124 182 229 267 313 379
#     4  12  23  40  66  94 138 168 230 273 312 393
#
# _framework density 21.415067000000001
#
# number of rings (size 3 to 8) (size 9 to 14) (size 15 to 20)
#    0.000    1.067    5.333    3.600    1.867    4.800 
#    0.000    0.000    0.000    7.200    0.000    0.933 
#    0.000    0.000    0.000    0.000    0.000    0.000 
#
# Total GULP energy -743923.354920 kJ/mol
# GULP energy per Si atom -12398.722582 kJ/mol
# Density = 2.136633 g / cm^3
# Si number density = 21.415067 Si / 1000 Ang^3
#
#
#
# Elastic Constant Matrix: (Units=GPa)
#
#
# Indices 1 2 3 4 5 6 
#
# 1 67.4915 19.5132 34.2823 0.0000 0.0000 0.0000
# 2 19.5132 95.9610 44.6973 0.0000 0.0000 0.0000
# 3 34.2823 44.6973 102.4733 0.0000 0.0000 0.0000
# 4 0.0000 0.0000 0.0000 30.0073 0.0000 0.0000
# 5 0.0000 0.0000 0.0000 0.0000 37.3376 0.0000
# 6 0.0000 0.0000 0.0000 0.0000 0.0000 14.6954
#
#
#
# Elastic Compliance Matrix: (Units=1/GPa)
#
#
# Indices 1 2 3 4 5 6 
#
# 1 0.017937 -0.001070 -0.005534 0.000000 0.000000 0.000000
# 2 -0.001070 0.013142 -0.005374 0.000000 0.000000 0.000000
# 3 -0.005534 -0.005374 0.013954 0.000000 0.000000 0.000000
# 4 0.000000 0.000000 0.000000 0.033325 0.000000 0.000000
# 5 0.000000 0.000000 0.000000 0.000000 0.026783 0.000000
# 6 0.000000 0.000000 0.000000 0.000000 0.000000 0.068049
#
#
# Mechanical properties :
#
#
# Convention : Reuss Voigt Hill
#
# Bulk Modulus (GPa) = 47.44603 51.43460 49.44032
# Shear Modulus (GPa) = 24.48922 27.57027 26.02975
#
# Velocity S-wave (km/s) = 3.38531 3.59196 3.49017
# Velocity P-wave (km/s) = 6.12242 6.42441 6.27523
#
# Compressibility (1/GPa) = 0.02107658
#
# Stress axis : x y z
#
# Youngs Moduli (GPa) = 55.75051 76.09361 71.66233
#
# Poissons Ratio (x) = 0.08139 0.39660
# Poissons Ratio (y) = 0.05963 0.38514
# Poissons Ratio (z) = 0.30854 0.40895
#
# Static dielectric constant tensor:
#      x y z
#    x 3.899220 0.000000 0.000000 
#    y 0.000000 3.743010 0.000000 
#    z 0.000000 0.000000 4.177110 
# 
# 
# High freq. dielectric constant tensor:
#      x y z
#    x 1.826750 0.000000 0.000000 
#    y 0.000000 1.814650 0.000000 
#    z 0.000000 0.000000 1.858280 
# 
# From -- ./inp_files/8470.got.cif
#   From: 2010.03.12/outbox.cif.g09.slc.cpg/sg60_5_cif.got.tgz:8470.got - 2010.04.10 18:46:24.
