data_PCOD8247167
_publ_section_title
;
Structure prediction by ZEFSAII (Michael W. Deem and Ramdas Pophale) SiO2 
 PCOD8247167
Probable space group: P B C N
;
_chemical_formula_sum "Si O2"
_cell_formula_units_Z 60
_cell_length_a 11.030087
_cell_length_b 27.752508
_cell_length_c 9.714517
_cell_angle_alpha 90.000000
_cell_angle_beta 90.000000
_cell_angle_gamma 90.000000
_cell_volume 2973.735840
_symmetry_space_group_name_H-M "P B C N"
_symmetry_group_IT_number 60
_symmetry_cell_setting 'orthorhombic'
loop_
_space_group_symop_operation_xyz
x,y,z
1/2-x,1/2-y,1/2+z
1/2+x,1/2-y,-z
-x,y,1/2-z
-x,-y,-z
1/2+x,1/2+y,1/2-z
1/2-x,1/2+y,z
x,-y,1/2+z
loop_
_atom_site_type_symbol
_atom_site_label
_atom_site_fract_x
_atom_site_fract_y
_atom_site_fract_z
Si Si1 0.740257 0.864437 0.354162
Si Si2 0.639478 0.728023 0.775901
Si Si3 0.500000 0.815130 0.250000
Si Si4 0.319546 0.207142 0.965649
Si Si5 0.861108 0.956333 0.260566
Si Si6 0.363014 0.104625 0.079766
Si Si7 0.640553 0.091737 0.108746
Si Si8 0.738570 0.995313 0.013212
O O1 0.841733 0.823363 0.347135
O O2 0.609387 0.848218 0.301140
O O3 0.780987 0.908179 0.258142
O O4 0.734730 0.879494 0.513437
O O5 0.500000 0.738850 0.750000
O O6 0.685230 0.767461 0.886072
O O7 0.711552 0.728298 0.630370
O O8 0.445104 0.783870 0.378061
O O9 0.304141 0.149699 0.996952
O O10 0.837852 0.988603 0.129197
O O11 0.000000 0.941154 0.250000
O O12 0.821289 0.989028 0.387250
O O13 0.506969 0.112191 0.082370
O O14 0.315208 0.101567 0.236438
O O15 0.333896 0.054035 0.008787
O O16 0.642443 0.035408 0.065381
#
# Coordination Sequence:
#
# PCOD8247167 Si02
#       8
#     8   8   4   8   8   8   8   8
#     4  10  22  41  65  91 130 167 227 271 343 396
#     4  11  27  45  68 102 134 182 227 284 344 408
#     4  10  20  42  64 100 118 178 212 280 340 394
#     4  11  26  42  74  97 142 180 230 281 344 413
#     4  11  23  39  64  88 129 174 216 273 328 404
#     4  11  22  40  64  97 136 173 224 274 346 389
#     4  10  22  37  65  98 129 175 216 288 336 403
#     4  11  21  41  60  96 131 169 224 268 333 409
#
# _framework density 20.176641
#
# number of rings (size 3 to 8) (size 9 to 14) (size 15 to 20)
#    0.000    1.333    2.667    2.800    7.467    0.000 
#    0.000    0.000    0.000    0.000    0.000    0.000 
#    0.000    0.000    0.000    0.000    0.000    0.000 
#
# Total GULP energy -743711.757363 kJ/mol
# GULP energy per Si atom -12395.195956 kJ/mol
# Density = 2.013072 g / cm^3
# Si number density = 20.176641 Si / 1000 Ang^3
#
#
#
# Elastic Constant Matrix: (Units=GPa)
#
#
# Indices 1 2 3 4 5 6 
#
# 1 86.1819 22.7042 29.6748 0.0000 0.0000 0.0000
# 2 22.7042 94.1839 56.4562 0.0000 0.0000 0.0000
# 3 29.6748 56.4562 99.4912 0.0000 0.0000 0.0000
# 4 0.0000 0.0000 0.0000 36.8415 0.0000 0.0000
# 5 0.0000 0.0000 0.0000 0.0000 9.2165 0.0000
# 6 0.0000 0.0000 0.0000 0.0000 0.0000 22.9764
#
#
#
# Elastic Compliance Matrix: (Units=1/GPa)
#
#
# Indices 1 2 3 4 5 6 
#
# 1 0.013025 -0.001229 -0.003187 0.000000 0.000000 0.000000
# 2 -0.001229 0.016207 -0.008830 0.000000 0.000000 0.000000
# 3 -0.003187 -0.008830 0.016012 0.000000 0.000000 0.000000
# 4 0.000000 0.000000 0.000000 0.027143 0.000000 0.000000
# 5 0.000000 0.000000 0.000000 0.000000 0.108501 0.000000
# 6 0.000000 0.000000 0.000000 0.000000 0.000000 0.043523
#
#
# Mechanical properties :
#
#
# Convention : Reuss Voigt Hill
#
# Bulk Modulus (GPa) = 53.33067 55.28084 54.30575
# Shear Modulus (GPa) = 19.44360 25.20833 22.32597
#
# Velocity S-wave (km/s) = 3.10767 3.53849 3.33006
# Velocity P-wave (km/s) = 6.27424 6.64474 6.46214
#
# Compressibility (1/GPa) = 0.01875094
#
# Stress axis : x y z
#
# Youngs Moduli (GPa) = 76.77733 61.70298 62.45206
#
# Poissons Ratio (x) = 0.07585 0.19905
# Poissons Ratio (y) = 0.09438 0.55144
# Poissons Ratio (z) = 0.24471 0.54483
#
# Static dielectric constant tensor:
#      x y z
#    x 3.458980 0.000000 0.000000 
#    y 0.000000 3.707880 0.000000 
#    z 0.000000 0.000000 4.011000 
# 
# 
# High freq. dielectric constant tensor:
#      x y z
#    x 1.769290 0.000000 0.000000 
#    y 0.000000 1.786960 0.000000 
#    z 0.000000 0.000000 1.811200 
# 
# From -- ./inp_files/5309.got.cif
#   From: 2010.03.12/outbox.cif.g09.slc.cpg/sg60_3_cif.got.tgz:5309.got - 2010.04.10 18:46:24.
