data_PCOD8247226
_publ_section_title
;
Structure prediction by ZEFSAII (Michael W. Deem and Ramdas Pophale) SiO2 
 PCOD8247226
Probable space group: P B C N
;
_chemical_formula_sum "Si O2"
_cell_formula_units_Z 56
_cell_length_a 13.262266
_cell_length_b 13.963598
_cell_length_c 16.465386
_cell_angle_alpha 90.000000
_cell_angle_beta 90.000000
_cell_angle_gamma 90.000000
_cell_volume 3049.207561
_symmetry_space_group_name_H-M "P B C N"
_symmetry_group_IT_number 60
_symmetry_cell_setting 'orthorhombic'
loop_
_space_group_symop_operation_xyz
x,y,z
1/2-x,1/2-y,1/2+z
1/2+x,1/2-y,-z
-x,y,1/2-z
-x,-y,-z
1/2+x,1/2+y,1/2-z
1/2-x,1/2+y,z
x,-y,1/2+z
loop_
_atom_site_type_symbol
_atom_site_label
_atom_site_fract_x
_atom_site_fract_y
_atom_site_fract_z
Si Si1 0.603372 0.029637 0.286619
Si Si2 0.870875 0.244099 0.182712
Si Si3 0.415100 0.818452 0.157083
Si Si4 0.245797 0.071296 0.357867
Si Si5 0.123754 0.697356 0.477956
Si Si6 0.432317 0.088691 0.035141
Si Si7 0.256455 0.369230 0.421430
O O1 0.500000 0.071681 0.250000
O O2 0.595049 0.915615 0.291949
O O3 0.693684 0.059701 0.226774
O O4 0.616761 0.069311 0.377359
O O5 0.873218 0.239114 0.280715
O O6 0.853823 0.134886 0.154940
O O7 0.775382 0.307214 0.156398
O O8 0.968682 0.290833 0.140114
O O9 0.354392 0.823479 0.073260
O O10 0.314602 0.119798 0.426633
O O11 0.202988 0.970879 0.390681
O O12 0.154318 0.808115 0.463551
O O13 0.005508 0.681191 0.459026
O O14 0.339430 0.113882 0.978388
O O15 0.500000 0.000000 0.000000
#
# Coordination Sequence:
#
# PCOD8247226 Si02
#       7
#     8   8   8   8   8   8   8
#     4  12  19  32  60  85 112 148 192 243 293 328
#     4  10  21  34  61  80 116 150 196 232 292 348
#     4  11  19  38  58  85 110 159 194 238 285 356
#     4  11  22  38  55  91 116 151 190 249 293 347
#     4  11  23  35  60  86 119 150 199 244 296 342
#     4  12  20  36  59  88 118 150 199 249 284 349
#     4  11  21  39  58  83 120 155 188 247 297 343
#
# _framework density 18.365425999999999
#
# number of rings (size 3 to 8) (size 9 to 14) (size 15 to 20)
#    0.000    0.857    8.571    0.000    2.000    0.000 
#    0.000    0.714    0.000    6.857    0.000    0.000 
#    0.000    0.000    0.000    0.000    0.000    0.000 
#
# Total GULP energy -694086.110479 kJ/mol
# GULP energy per Si atom -12394.394830 kJ/mol
# Density = 1.832363 g / cm^3
# Si number density = 18.365426 Si / 1000 Ang^3
#
#
#
# Elastic Constant Matrix: (Units=GPa)
#
#
# Indices 1 2 3 4 5 6 
#
# 1 53.5073 38.7475 23.2821 0.0000 0.0000 0.0000
# 2 38.7475 117.5915 34.0595 0.0000 0.0000 0.0000
# 3 23.2821 34.0595 122.6320 0.0000 0.0000 0.0000
# 4 0.0000 0.0000 0.0000 26.6267 0.0000 0.0000
# 5 0.0000 0.0000 0.0000 0.0000 25.2307 0.0000
# 6 0.0000 0.0000 0.0000 0.0000 0.0000 28.9465
#
#
#
# Elastic Compliance Matrix: (Units=1/GPa)
#
#
# Indices 1 2 3 4 5 6 
#
# 1 0.025349 -0.007567 -0.002711 0.000000 0.000000 0.000000
# 2 -0.007567 0.011507 -0.001759 0.000000 0.000000 0.000000
# 3 -0.002711 -0.001759 0.009158 0.000000 0.000000 0.000000
# 4 0.000000 0.000000 0.000000 0.037556 0.000000 0.000000
# 5 0.000000 0.000000 0.000000 0.000000 0.039634 0.000000
# 6 0.000000 0.000000 0.000000 0.000000 0.000000 0.034547
#
#
# Mechanical properties :
#
#
# Convention : Reuss Voigt Hill
#
# Bulk Modulus (GPa) = 45.58196 53.98989 49.78592
# Shear Modulus (GPa) = 26.43571 29.33689 27.88630
#
# Velocity S-wave (km/s) = 3.79810 4.00108 3.90091
# Velocity P-wave (km/s) = 6.64134 7.12785 6.88889
#
# Compressibility (1/GPa) = 0.02193851
#
# Stress axis : x y z
#
# Youngs Moduli (GPa) = 39.45002 86.90283 109.19729
#
# Poissons Ratio (x) = 0.65763 0.29601
# Poissons Ratio (y) = 0.29854 0.19210
# Poissons Ratio (z) = 0.10694 0.15288
#
# Static dielectric constant tensor:
#      x y z
#    x 3.223680 0.000000 0.000000 
#    y 0.000000 3.489570 0.000000 
#    z 0.000000 0.000000 3.571040 
# 
# 
# High freq. dielectric constant tensor:
#      x y z
#    x 1.678530 0.000000 0.000000 
#    y 0.000000 1.705650 0.000000 
#    z 0.000000 0.000000 1.732340 
# 
# From -- ./inp_files/16960.got.cif
#   From: 2010.03.12/outbox.cif.g09.slc.cpg/sg60_9_cif.got.tgz:16960.got - 2010.04.10 18:46:24.
