data_PCOD8247070
_publ_section_title
;
Structure prediction by ZEFSAII (Michael W. Deem and Ramdas Pophale) SiO2 
 PCOD8247070
Probable space group: P B C N
;
_chemical_formula_sum "Si O2"
_cell_formula_units_Z 40
_cell_length_a 8.133772
_cell_length_b 16.680807
_cell_length_c 14.131705
_cell_angle_alpha 90.000000
_cell_angle_beta 90.000000
_cell_angle_gamma 90.000000
_cell_volume 1917.359788
_symmetry_space_group_name_H-M "P B C N"
_symmetry_group_IT_number 60
_symmetry_cell_setting 'orthorhombic'
loop_
_space_group_symop_operation_xyz
x,y,z
1/2-x,1/2-y,1/2+z
1/2+x,1/2-y,-z
-x,y,1/2-z
-x,-y,-z
1/2+x,1/2+y,1/2-z
1/2-x,1/2+y,z
x,-y,1/2+z
loop_
_atom_site_type_symbol
_atom_site_label
_atom_site_fract_x
_atom_site_fract_y
_atom_site_fract_z
Si Si1 0.078125 0.369223 0.851105
Si Si2 0.862163 0.053894 0.447608
Si Si3 0.068950 0.811720 0.849368
Si Si4 0.571131 0.029699 0.854738
Si Si5 0.414139 0.157772 0.970084
O O1 0.269898 0.364081 0.835990
O O2 0.000000 0.352627 0.750000
O O3 0.042354 0.457639 0.893900
O O4 0.991412 0.312403 0.929425
O O5 0.741310 0.097290 0.523149
O O6 0.936211 0.129826 0.393984
O O7 0.761178 0.000254 0.369821
O O8 0.000000 0.000000 0.500000
O O9 0.127016 0.738114 0.914028
O O10 0.000000 0.778711 0.750000
O O11 0.500000 0.045843 0.750000
O O12 0.556216 0.111028 0.913172
#
# Coordination Sequence:
#
# PCOD8247070 Si02
#       5
#     8   8   8   8   8
#     4  10  21  39  61  82 115 159 200 243 304 369
#     4  11  23  39  64  91 119 164 218 262 304 374
#     4  12  23  38  61  91 122 156 202 255 309 372
#     4  10  20  39  62  86 121 164 202 247 309 374
#     4  11  22  39  60  88 126 161 197 253 319 371
#
# _framework density 20.862020000000001
#
# number of rings (size 3 to 8) (size 9 to 14) (size 15 to 20)
#    0.000    1.200    0.000   10.200    0.000    0.000 
#    0.000    6.000    0.000    1.200    0.000    0.000 
#    0.000    0.000    0.000    0.000    0.000    0.000 
#
# Total GULP energy -495627.138307 kJ/mol
# GULP energy per Si atom -12390.678458 kJ/mol
# Density = 2.081454 g / cm^3
# Si number density = 20.862020 Si / 1000 Ang^3
#
#
#
# Elastic Constant Matrix: (Units=GPa)
#
#
# Indices 1 2 3 4 5 6 
#
# 1 119.4502 40.0579 41.1004 0.0000 0.0000 0.0000
# 2 40.0579 78.0560 47.6477 0.0000 0.0000 0.0000
# 3 41.1004 47.6477 111.8852 0.0000 0.0000 0.0000
# 4 0.0000 0.0000 0.0000 22.9943 0.0000 0.0000
# 5 0.0000 0.0000 0.0000 0.0000 33.3917 0.0000
# 6 0.0000 0.0000 0.0000 0.0000 0.0000 22.6267
#
#
#
# Elastic Compliance Matrix: (Units=1/GPa)
#
#
# Indices 1 2 3 4 5 6 
#
# 1 0.010466 -0.004087 -0.002104 0.000000 0.000000 0.000000
# 2 -0.004087 0.018907 -0.006551 0.000000 0.000000 0.000000
# 3 -0.002104 -0.006551 0.012500 0.000000 0.000000 0.000000
# 4 0.000000 0.000000 0.000000 0.043489 0.000000 0.000000
# 5 0.000000 0.000000 0.000000 0.000000 0.029948 0.000000
# 6 0.000000 0.000000 0.000000 0.000000 0.000000 0.044196
#
#
# Mechanical properties :
#
#
# Convention : Reuss Voigt Hill
#
# Bulk Modulus (GPa) = 61.01071 63.00038 62.00555
# Shear Modulus (GPa) = 26.25318 27.84156 27.04737
#
# Velocity S-wave (km/s) = 3.55127 3.65712 3.60458
# Velocity P-wave (km/s) = 6.79144 6.93519 6.86369
#
# Compressibility (1/GPa) = 0.01639057
#
# Stress axis : x y z
#
# Youngs Moduli (GPa) = 95.54550 52.88961 79.99711
#
# Poissons Ratio (x) = 0.21614 0.16834
# Poissons Ratio (y) = 0.39046 0.52404
# Poissons Ratio (z) = 0.20106 0.34646
#
# Static dielectric constant tensor:
#      x y z
#    x 4.609770 0.000000 0.000000 
#    y 0.000000 3.669290 0.000000 
#    z 0.000000 0.000000 4.135800 
# 
# 
# High freq. dielectric constant tensor:
#      x y z
#    x 1.820660 0.000000 0.000000 
#    y 0.000000 1.806150 0.000000 
#    z 0.000000 0.000000 1.826440 
# 
# From -- ./inp_files/14650.got.cif
#   From: 2010.03.12/outbox.cif.g09.slc.cpg/sg60_8_cif.got.tgz:14650.got - 2010.04.10 18:46:24.
