data_PCOD8247273
_publ_section_title
;
Structure prediction by ZEFSAII (Michael W. Deem and Ramdas Pophale) SiO2 
 PCOD8247273
Probable space group: P B C N
;
_chemical_formula_sum "Si O2"
_cell_formula_units_Z 56
_cell_length_a 8.212140
_cell_length_b 14.428288
_cell_length_c 25.215782
_cell_angle_alpha 90.000000
_cell_angle_beta 90.000000
_cell_angle_gamma 90.000000
_cell_volume 2987.745413
_symmetry_space_group_name_H-M "P B C N"
_symmetry_group_IT_number 60
_symmetry_cell_setting 'orthorhombic'
loop_
_space_group_symop_operation_xyz
x,y,z
1/2-x,1/2-y,1/2+z
1/2+x,1/2-y,-z
-x,y,1/2-z
-x,-y,-z
1/2+x,1/2+y,1/2-z
1/2-x,1/2+y,z
x,-y,1/2+z
loop_
_atom_site_type_symbol
_atom_site_label
_atom_site_fract_x
_atom_site_fract_y
_atom_site_fract_z
Si Si1 0.675102 0.519042 0.872006
Si Si2 0.757833 0.664037 0.603430
Si Si3 0.606401 0.493329 0.552000
Si Si4 0.492667 0.673843 0.687769
Si Si5 0.376013 0.839082 0.955930
Si Si6 0.884176 0.325040 0.422182
Si Si7 0.839410 0.332866 0.878857
O O1 0.515226 0.476182 0.899219
O O2 0.626092 0.586347 0.823458
O O3 0.771910 0.584650 0.913349
O O4 0.774470 0.428609 0.852419
O O5 0.707983 0.585206 0.562402
O O6 0.668507 0.654813 0.660628
O O7 0.701123 0.754196 0.573896
O O8 0.951634 0.663409 0.612451
O O9 0.500000 0.500000 0.500000
O O10 0.737956 0.414793 0.545981
O O11 0.500000 0.684966 0.750000
O O12 0.424166 0.771218 0.666124
O O13 0.538883 0.867800 0.924850
O O14 0.427448 0.816622 0.015935
O O15 0.800446 0.229131 0.405474
#
# Coordination Sequence:
#
# PCOD8247273 Si02
#       7
#     8   8   8   8   8   8   8
#     4  10  21  37  57  84 118 151 197 245 290 351
#     4  10  23  36  56  85 112 154 201 235 295 358
#     4  11  22  35  53  84 120 160 197 228 282 352
#     4   9  21  45  63  79 113 152 194 259 308 345
#     4  11  22  33  56  83 122 168 188 232 289 351
#     4  11  21  34  55  84 124 158 191 238 289 355
#     4  10  22  37  57  87 114 151 202 242 289 355
#
# _framework density 18.743228999999999
#
# number of rings (size 3 to 8) (size 9 to 14) (size 15 to 20)
#    0.000    1.714    1.429    3.429    6.000    1.143 
#    0.000   11.429    0.000    0.000    0.000    0.000 
#    0.000    0.000    0.000    0.000    0.000    0.000 
#
# Total GULP energy -694248.694410 kJ/mol
# GULP energy per Si atom -12397.298114 kJ/mol
# Density = 1.870057 g / cm^3
# Si number density = 18.743229 Si / 1000 Ang^3
#
#
#
# Elastic Constant Matrix: (Units=GPa)
#
#
# Indices 1 2 3 4 5 6 
#
# 1 123.8084 40.7533 42.1490 0.0000 0.0000 0.0000
# 2 40.7533 110.2964 35.4662 0.0000 0.0000 0.0000
# 3 42.1490 35.4662 124.2794 0.0000 0.0000 0.0000
# 4 0.0000 0.0000 0.0000 16.4718 0.0000 0.0000
# 5 0.0000 0.0000 0.0000 0.0000 10.3019 0.0000
# 6 0.0000 0.0000 0.0000 0.0000 0.0000 38.1159
#
#
#
# Elastic Compliance Matrix: (Units=1/GPa)
#
#
# Indices 1 2 3 4 5 6 
#
# 1 0.009874 -0.002831 -0.002541 0.000000 0.000000 0.000000
# 2 -0.002831 0.010794 -0.002120 0.000000 0.000000 0.000000
# 3 -0.002541 -0.002120 0.009513 0.000000 0.000000 0.000000
# 4 0.000000 0.000000 0.000000 0.060710 0.000000 0.000000
# 5 0.000000 0.000000 0.000000 0.000000 0.097069 0.000000
# 6 0.000000 0.000000 0.000000 0.000000 0.000000 0.026236
#
#
# Mechanical properties :
#
#
# Convention : Reuss Voigt Hill
#
# Bulk Modulus (GPa) = 65.80285 66.12457 65.96371
# Shear Modulus (GPa) = 21.34506 28.97898 25.16202
#
# Velocity S-wave (km/s) = 3.37829 3.93632 3.66793
# Velocity P-wave (km/s) = 7.09936 7.48433 7.29439
#
# Compressibility (1/GPa) = 0.01519691
#
# Stress axis : x y z
#
# Youngs Moduli (GPa) = 101.27692 92.64071 105.11800
#
# Poissons Ratio (x) = 0.26230 0.26708
# Poissons Ratio (y) = 0.28675 0.22287
# Poissons Ratio (z) = 0.25732 0.19642
#
# Static dielectric constant tensor:
#      x y z
#    x 2.932190 0.000000 0.000000 
#    y 0.000000 3.486350 0.000000 
#    z 0.000000 0.000000 3.042320 
# 
# 
# High freq. dielectric constant tensor:
#      x y z
#    x 1.742850 0.000000 0.000000 
#    y 0.000000 1.744300 0.000000 
#    z 0.000000 0.000000 1.692090 
# 
# From -- ./inp_files/22224.got.cif
#   From: 2010.03.12/outbox.cif.g09.slc.cpg/sg60_12_cif.got.tgz:22224.got - 2010.04.10 18:46:24.
