data_PCOD8247305
_publ_section_title
;
Structure prediction by ZEFSAII (Michael W. Deem and Ramdas Pophale) SiO2 
 PCOD8247305
Probable space group: P B C N
;
_chemical_formula_sum "Si O2"
_cell_formula_units_Z 60
_cell_length_a 13.647225
_cell_length_b 12.801489
_cell_length_c 16.373845
_cell_angle_alpha 90.000000
_cell_angle_beta 90.000000
_cell_angle_gamma 90.000000
_cell_volume 2860.589328
_symmetry_space_group_name_H-M "P B C N"
_symmetry_group_IT_number 60
_symmetry_cell_setting 'orthorhombic'
loop_
_space_group_symop_operation_xyz
x,y,z
1/2-x,1/2-y,1/2+z
1/2+x,1/2-y,-z
-x,y,1/2-z
-x,-y,-z
1/2+x,1/2+y,1/2-z
1/2-x,1/2+y,z
x,-y,1/2+z
loop_
_atom_site_type_symbol
_atom_site_label
_atom_site_fract_x
_atom_site_fract_y
_atom_site_fract_z
Si Si1 0.162732 0.430328 0.342337
Si Si2 0.851334 0.134527 0.736457
Si Si3 0.257708 0.201475 0.990141
Si Si4 0.980790 0.947937 0.369028
Si Si5 0.465825 0.737556 0.530837
Si Si6 0.371066 0.172016 0.368825
Si Si7 0.500000 0.808680 0.250000
Si Si8 0.082513 0.818059 0.611332
O O1 0.240620 0.405833 0.271083
O O2 0.206150 0.391905 0.430005
O O3 0.146490 0.553398 0.346217
O O4 0.060794 0.377842 0.314889
O O5 0.890980 0.116542 0.827251
O O6 0.860462 0.256541 0.712019
O O7 0.917547 0.061085 0.678848
O O8 0.207857 0.291060 0.935964
O O9 0.351056 0.245983 0.036308
O O10 0.186649 0.169474 0.065126
O O11 0.993664 0.884734 0.453248
O O12 0.959495 0.067501 0.378509
O O13 0.519531 0.814116 0.595085
O O14 0.508205 0.754947 0.440399
O O15 0.419957 0.737468 0.200370
#
# Coordination Sequence:
#
# PCOD8247305 Si02
#       8
#     8   8   8   8   8   8   4   8
#     4  11  24  43  66  93 129 187 214 265 341 400
#     4   9  21  40  61  98 127 165 221 271 326 392
#     4  10  23  42  66  96 128 171 224 271 325 396
#     4  10  21  37  67  96 127 165 220 274 329 382
#     4  10  21  41  62  94 130 165 221 276 317 395
#     4   9  22  41  66  88 132 170 219 275 327 391
#     4  12  26  44  64  98 146 170 222 274 330 406
#     4  11  24  43  66 100 132 175 216 280 335 388
#
# _framework density 20.974699000000001
#
# number of rings (size 3 to 8) (size 9 to 14) (size 15 to 20)
#    0.000    1.867    1.333    2.000    5.600    4.800 
#    2.400    0.000    0.000    0.000    0.000    0.000 
#    0.000    0.000    0.000    0.000    0.000    0.000 
#
# Total GULP energy -743649.428182 kJ/mol
# GULP energy per Si atom -12394.157136 kJ/mol
# Density = 2.092696 g / cm^3
# Si number density = 20.974699 Si / 1000 Ang^3
#
#
#
# Elastic Constant Matrix: (Units=GPa)
#
#
# Indices 1 2 3 4 5 6 
#
# 1 113.3434 24.9695 20.3017 0.0000 0.0000 0.0000
# 2 24.9695 104.3108 33.4759 0.0000 0.0000 0.0000
# 3 20.3017 33.4759 65.9072 0.0000 0.0000 0.0000
# 4 0.0000 0.0000 0.0000 9.6024 0.0000 0.0000
# 5 0.0000 0.0000 0.0000 0.0000 31.8545 0.0000
# 6 0.0000 0.0000 0.0000 0.0000 0.0000 21.7605
#
#
#
# Elastic Compliance Matrix: (Units=1/GPa)
#
#
# Indices 1 2 3 4 5 6 
#
# 1 0.009558 -0.001605 -0.002129 0.000000 0.000000 0.000000
# 2 -0.001605 0.011723 -0.005460 0.000000 0.000000 0.000000
# 3 -0.002129 -0.005460 0.018602 0.000000 0.000000 0.000000
# 4 0.000000 0.000000 0.000000 0.104140 0.000000 0.000000
# 5 0.000000 0.000000 0.000000 0.000000 0.031393 0.000000
# 6 0.000000 0.000000 0.000000 0.000000 0.000000 0.045955
#
#
# Mechanical properties :
#
#
# Convention : Reuss Voigt Hill
#
# Bulk Modulus (GPa) = 46.52229 49.00618 47.76424
# Shear Modulus (GPa) = 20.24920 26.29778 23.27349
#
# Velocity S-wave (km/s) = 3.11048 3.54473 3.33468
# Velocity P-wave (km/s) = 5.92692 6.33787 6.13584
#
# Compressibility (1/GPa) = 0.02149507
#
# Stress axis : x y z
#
# Youngs Moduli (GPa) = 104.62890 85.30134 53.75750
#
# Poissons Ratio (x) = 0.13687 0.11445
# Poissons Ratio (y) = 0.16789 0.29353
# Poissons Ratio (z) = 0.22276 0.46576
#
# Static dielectric constant tensor:
#      x y z
#    x 3.915540 0.000000 0.000000 
#    y 0.000000 3.501950 0.000000 
#    z 0.000000 0.000000 3.937480 
# 
# 
# High freq. dielectric constant tensor:
#      x y z
#    x 1.827810 0.000000 0.000000 
#    y 0.000000 1.807770 0.000000 
#    z 0.000000 0.000000 1.823720 
# 
# From -- ./inp_files/20639.got.cif
#   From: 2010.03.12/outbox.cif.g09.slc.cpg/sg60_11_cif.got.tgz:20639.got - 2010.04.10 18:46:24.
