data_PCOD8247563
_publ_section_title
;
Structure prediction by ZEFSAII (Michael W. Deem and Ramdas Pophale) SiO2 
 PCOD8247563
Probable space group: P B C N
;
_chemical_formula_sum "Si O2"
_cell_formula_units_Z 52
_cell_length_a 13.489817
_cell_length_b 8.207525
_cell_length_c 21.589589
_cell_angle_alpha 90.000000
_cell_angle_beta 90.000000
_cell_angle_gamma 90.000000
_cell_volume 2390.356337
_symmetry_space_group_name_H-M "P B C N"
_symmetry_group_IT_number 60
_symmetry_cell_setting 'orthorhombic'
loop_
_space_group_symop_operation_xyz
x,y,z
1/2-x,1/2-y,1/2+z
1/2+x,1/2-y,-z
-x,y,1/2-z
-x,-y,-z
1/2+x,1/2+y,1/2-z
1/2-x,1/2+y,z
x,-y,1/2+z
loop_
_atom_site_type_symbol
_atom_site_label
_atom_site_fract_x
_atom_site_fract_y
_atom_site_fract_z
Si Si1 0.474625 0.738225 0.907825
Si Si2 0.006488 0.899581 0.643347
Si Si3 0.500000 0.832706 0.250000
Si Si4 0.896988 0.196956 0.028047
Si Si5 0.385777 0.958839 0.659371
Si Si6 0.208380 0.858900 0.477576
Si Si7 0.291655 0.277119 0.620217
O O1 0.470921 0.587158 0.858488
O O2 0.510163 0.901015 0.872025
O O3 0.367512 0.761063 0.940082
O O4 0.556516 0.701721 0.960158
O O5 0.124763 0.890053 0.652405
O O6 0.955906 0.789622 0.697266
O O7 0.984635 0.811290 0.577738
O O8 0.586582 0.952794 0.275792
O O9 0.822033 0.342918 0.046302
O O10 0.827908 0.039545 0.032910
O O11 0.309919 0.804848 0.660499
O O12 0.324300 0.088964 0.619417
O O13 0.220120 0.816160 0.548898
#
# Coordination Sequence:
#
# PCOD8247563 Si02
#       7
#     8   8   4   8   8   8   8
#     4  11  21  38  64  96 130 167 210 278 338 394
#     4  10  21  43  64  86 128 171 217 269 319 384
#     4  10  26  46  60  88 126 178 232 270 312 378
#     4  11  21  36  59  96 132 161 209 268 336 396
#     4  11  24  39  65  96 131 169 226 265 320 393
#     4  11  21  35  59 100 134 163 202 257 347 403
#     4  11  19  36  62  95 125 167 214 262 317 398
#
# _framework density 21.754079000000001
#
# number of rings (size 3 to 8) (size 9 to 14) (size 15 to 20)
#    0.000    1.231    4.615    2.769    0.000    3.692 
#    0.000    9.231    0.000    0.000    0.000    0.000 
#    0.000    0.000    0.000    0.000    0.000    0.000 
#
# Total GULP energy -644324.047517 kJ/mol
# GULP energy per Si atom -12390.847068 kJ/mol
# Density = 2.170457 g / cm^3
# Si number density = 21.754079 Si / 1000 Ang^3
#
#
#
# Elastic Constant Matrix: (Units=GPa)
#
#
# Indices 1 2 3 4 5 6 
#
# 1 78.1704 12.8379 29.1867 0.0000 0.0000 0.0000
# 2 12.8379 77.6116 40.9812 0.0000 0.0000 0.0000
# 3 29.1867 40.9812 91.9656 0.0000 0.0000 0.0000
# 4 0.0000 0.0000 0.0000 27.6633 0.0000 0.0000
# 5 0.0000 0.0000 0.0000 0.0000 26.8078 0.0000
# 6 0.0000 0.0000 0.0000 0.0000 0.0000 29.1228
#
#
#
# Elastic Compliance Matrix: (Units=1/GPa)
#
#
# Indices 1 2 3 4 5 6 
#
# 1 0.014512 0.000041 -0.004624 0.000000 0.000000 0.000000
# 2 0.000041 0.016849 -0.007521 0.000000 0.000000 0.000000
# 3 -0.004624 -0.007521 0.015693 0.000000 0.000000 0.000000
# 4 0.000000 0.000000 0.000000 0.036149 0.000000 0.000000
# 5 0.000000 0.000000 0.000000 0.000000 0.037303 0.000000
# 6 0.000000 0.000000 0.000000 0.000000 0.000000 0.034337
#
#
# Mechanical properties :
#
#
# Convention : Reuss Voigt Hill
#
# Bulk Modulus (GPa) = 43.77159 45.97326 44.87242
# Shear Modulus (GPa) = 26.78563 27.70157 27.24360
#
# Velocity S-wave (km/s) = 3.51278 3.57234 3.54269
# Velocity P-wave (km/s) = 6.05125 6.18017 6.11605
#
# Compressibility (1/GPa) = 0.02284587
#
# Stress axis : x y z
#
# Youngs Moduli (GPa) = 68.90707 59.34938 63.72355
#
# Poissons Ratio (x) = -0.00244 0.29466
# Poissons Ratio (y) = -0.00283 0.47929
# Poissons Ratio (z) = 0.31863 0.44639
#
# Static dielectric constant tensor:
#      x y z
#    x 4.488790 0.000000 0.000000 
#    y 0.000000 4.058430 0.000000 
#    z 0.000000 0.000000 3.741990 
# 
# 
# High freq. dielectric constant tensor:
#      x y z
#    x 1.856290 0.000000 0.000000 
#    y 0.000000 1.858740 0.000000 
#    z 0.000000 0.000000 1.819440 
# 
# From -- ./inp_files/22859.got.cif
#   From: 2010.03.12/outbox.cif.g09.slc.cpg/sg60_12_cif.got.tgz:22859.got - 2010.04.10 18:46:24.
