data_PCOD8247384
_publ_section_title
;
Structure prediction by ZEFSAII (Michael W. Deem and Ramdas Pophale) SiO2 
 PCOD8247384
Probable space group: P B C N
;
_chemical_formula_sum "Si O2"
_cell_formula_units_Z 48
_cell_length_a 8.635523
_cell_length_b 15.723898
_cell_length_c 15.862716
_cell_angle_alpha 90.000000
_cell_angle_beta 90.000000
_cell_angle_gamma 90.000000
_cell_volume 2153.904343
_symmetry_space_group_name_H-M "P B C N"
_symmetry_group_IT_number 60
_symmetry_cell_setting 'orthorhombic'
loop_
_space_group_symop_operation_xyz
x,y,z
1/2-x,1/2-y,1/2+z
1/2+x,1/2-y,-z
-x,y,1/2-z
-x,-y,-z
1/2+x,1/2+y,1/2-z
1/2-x,1/2+y,z
x,-y,1/2+z
loop_
_atom_site_type_symbol
_atom_site_label
_atom_site_fract_x
_atom_site_fract_y
_atom_site_fract_z
Si Si1 0.317527 0.282322 0.084448
Si Si2 0.318152 0.227305 0.753977
Si Si3 0.847092 0.285333 0.583036
Si Si4 0.820325 0.957859 0.239901
Si Si5 0.846114 0.517794 0.084675
Si Si6 0.316016 0.969623 0.096406
O O1 0.249600 0.233771 0.166505
O O2 0.501898 0.273320 0.087358
O O3 0.268220 0.379350 0.094765
O O4 0.251911 0.248372 0.995570
O O5 0.500000 0.238624 0.750000
O O6 0.252010 0.280186 0.832086
O O7 0.273344 0.129418 0.766577
O O8 0.894217 0.383762 0.570685
O O9 0.758471 0.013751 0.320324
O O10 0.000000 0.939084 0.250000
O O11 0.787894 0.009413 0.153998
O O12 0.998185 0.464175 0.110480
O O13 0.783912 0.483572 0.993296
#
# Coordination Sequence:
#
# PCOD8247384 Si02
#       6
#     8   8   8   8   8   8
#     4  10  21  39  60  87 121 159 201 243 302 369
#     4  11  22  39  62  86 119 164 207 246 300 371
#     4  11  23  40  64  93 123 156 203 259 304 352
#     4  11  22  38  61  87 120 161 202 245 298 366
#     4  10  22  40  62  89 120 156 201 253 303 350
#     4   9  20  40  61  83 117 160 200 237 296 369
#
# _framework density 22.285112999999999
#
# number of rings (size 3 to 8) (size 9 to 14) (size 15 to 20)
#    0.000    1.667    0.000    6.000    0.000    6.667 
#    0.000    3.333    0.000    0.000    0.000    0.000 
#    0.000    0.000    0.000    0.000    0.000    0.000 
#
# Total GULP energy -594947.032846 kJ/mol
# GULP energy per Si atom -12394.729851 kJ/mol
# Density = 2.223439 g / cm^3
# Si number density = 22.285113 Si / 1000 Ang^3
#
#
#
# Elastic Constant Matrix: (Units=GPa)
#
#
# Indices 1 2 3 4 5 6 
#
# 1 150.5343 11.3814 62.8665 0.0000 0.0000 0.0000
# 2 11.3814 36.7550 -4.6526 0.0000 0.0000 0.0000
# 3 62.8665 -4.6526 209.9807 0.0000 0.0000 0.0000
# 4 0.0000 0.0000 0.0000 24.5953 0.0000 0.0000
# 5 0.0000 0.0000 0.0000 0.0000 39.6301 0.0000
# 6 0.0000 0.0000 0.0000 0.0000 0.0000 30.4117
#
#
#
# Elastic Compliance Matrix: (Units=1/GPa)
#
#
# Indices 1 2 3 4 5 6 
#
# 1 0.007858 -0.002739 -0.002413 0.000000 0.000000 0.000000
# 2 -0.002739 0.028238 0.001446 0.000000 0.000000 0.000000
# 3 -0.002413 0.001446 0.005517 0.000000 0.000000 0.000000
# 4 0.000000 0.000000 0.000000 0.040658 0.000000 0.000000
# 5 0.000000 0.000000 0.000000 0.000000 0.025233 0.000000
# 6 0.000000 0.000000 0.000000 0.000000 0.000000 0.032882
#
#
# Mechanical properties :
#
#
# Convention : Reuss Voigt Hill
#
# Bulk Modulus (GPa) = 29.23950 59.60673 44.42311
# Shear Modulus (GPa) = 31.40715 40.77241 36.08978
#
# Velocity S-wave (km/s) = 3.75818 4.28200 4.02861
# Velocity P-wave (km/s) = 5.65518 7.15910 6.45112
#
# Compressibility (1/GPa) = 0.03420031
#
# Stress axis : x y z
#
# Youngs Moduli (GPa) = 127.26038 35.41296 181.26162
#
# Poissons Ratio (x) = 0.09699 0.43743
# Poissons Ratio (y) = 0.34853 -0.26204
# Poissons Ratio (z) = 0.30711 -0.05119
#
# Static dielectric constant tensor:
#      x y z
#    x 3.832790 0.000000 0.000000 
#    y 0.000000 3.540590 0.000000 
#    z 0.000000 0.000000 5.269330 
# 
# 
# High freq. dielectric constant tensor:
#      x y z
#    x 1.875110 0.000000 0.000000 
#    y 0.000000 1.836290 0.000000 
#    z 0.000000 0.000000 1.917910 
# 
# From -- ./inp_files/15045.got.cif
#   From: 2010.03.12/outbox.cif.g09.slc.cpg/sg60_8_cif.got.tgz:15045.got - 2010.04.10 18:46:24.
