data_PCOD8247977
_publ_section_title
;
Structure prediction by ZEFSAII (Michael W. Deem and Ramdas Pophale) SiO2 
 PCOD8247977
Probable space group: P B C N
;
_chemical_formula_sum "Si O2"
_cell_formula_units_Z 64
_cell_length_a 10.880371
_cell_length_b 15.385322
_cell_length_c 17.371126
_cell_angle_alpha 90.000000
_cell_angle_beta 90.000000
_cell_angle_gamma 90.000000
_cell_volume 2907.891947
_symmetry_space_group_name_H-M "P B C N"
_symmetry_group_IT_number 60
_symmetry_cell_setting 'orthorhombic'
loop_
_space_group_symop_operation_xyz
x,y,z
1/2-x,1/2-y,1/2+z
1/2+x,1/2-y,-z
-x,y,1/2-z
-x,-y,-z
1/2+x,1/2+y,1/2-z
1/2-x,1/2+y,z
x,-y,1/2+z
loop_
_atom_site_type_symbol
_atom_site_label
_atom_site_fract_x
_atom_site_fract_y
_atom_site_fract_z
Si Si1 0.552072 0.447892 0.428229
Si Si2 0.534820 0.138740 0.332430
Si Si3 0.890293 0.657247 0.903793
Si Si4 0.770463 0.494719 0.322520
Si Si5 0.193675 0.390096 0.922893
Si Si6 0.335434 0.215031 0.905995
Si Si7 0.305097 0.550817 0.849729
Si Si8 0.343185 0.264613 0.068025
O O1 0.500000 0.500000 0.500000
O O2 0.660205 0.498134 0.383810
O O3 0.447810 0.428295 0.364679
O O4 0.609085 0.358509 0.462644
O O5 0.500000 0.172928 0.250000
O O6 0.660878 0.085747 0.329520
O O7 0.422091 0.086517 0.368858
O O8 0.550501 0.226900 0.379690
O O9 0.873365 0.577467 0.844707
O O10 0.782831 0.726231 0.883513
O O11 0.018444 0.706397 0.889264
O O12 0.861462 0.627353 0.992065
O O13 0.717722 0.482293 0.236747
O O14 0.275090 0.309690 0.888450
O O15 0.270551 0.479144 0.915193
O O16 0.268915 0.139974 0.859253
O O17 0.319246 0.199627 0.997083
#
# Coordination Sequence:
#
# PCOD8247977 Si02
#       8
#     8   8   8   8   8   8   8   8
#     4  11  25  46  75 100 139 180 238 294 348 430
#     4  12  24  43  69  95 145 180 227 290 352 423
#     4  10  23  42  67  98 137 172 239 287 334 425
#     4  11  26  45  67 104 135 186 235 283 362 420
#     4  11  24  43  66 108 132 180 240 281 348 421
#     4  11  24  41  71  99 140 180 229 292 346 409
#     4  12  25  44  72  99 145 186 225 291 353 418
#     4  10  24  41  66 105 133 182 234 286 359 414
#
# _framework density 22.009070000000001
#
# number of rings (size 3 to 8) (size 9 to 14) (size 15 to 20)
#    0.000    1.000    2.500    4.125    5.250    6.000 
#    0.000    0.000    2.750    0.000    0.000    0.000 
#    0.000    0.000    0.000    0.000    0.000    0.000 
#
# Total GULP energy -793259.434726 kJ/mol
# GULP energy per Si atom -12394.678668 kJ/mol
# Density = 2.195898 g / cm^3
# Si number density = 22.009070 Si / 1000 Ang^3
#
#
#
# Elastic Constant Matrix: (Units=GPa)
#
#
# Indices 1 2 3 4 5 6 
#
# 1 129.0225 34.0292 22.4674 0.0000 0.0000 0.0000
# 2 34.0292 76.3806 15.9227 0.0000 0.0000 0.0000
# 3 22.4674 15.9227 88.1032 0.0000 0.0000 0.0000
# 4 0.0000 0.0000 0.0000 21.9631 0.0000 0.0000
# 5 0.0000 0.0000 0.0000 0.0000 34.0684 0.0000
# 6 0.0000 0.0000 0.0000 0.0000 0.0000 2.3146
#
#
#
# Elastic Compliance Matrix: (Units=1/GPa)
#
#
# Indices 1 2 3 4 5 6 
#
# 1 0.009003 -0.003671 -0.001632 0.000000 0.000000 0.000000
# 2 -0.003671 0.015102 -0.001793 0.000000 0.000000 0.000000
# 3 -0.001632 -0.001793 0.012091 0.000000 0.000000 0.000000
# 4 0.000000 0.000000 0.000000 0.045531 0.000000 0.000000
# 5 0.000000 0.000000 0.000000 0.000000 0.029353 0.000000
# 6 0.000000 0.000000 0.000000 0.000000 0.000000 0.432039
#
#
# Mechanical properties :
#
#
# Convention : Reuss Voigt Hill
#
# Bulk Modulus (GPa) = 45.44942 48.70498 47.07720
# Shear Modulus (GPa) = 8.85512 26.40834 17.63173
#
# Velocity S-wave (km/s) = 2.00802 3.46769 2.83346
# Velocity P-wave (km/s) = 5.10601 6.18148 5.66931
#
# Compressibility (1/GPa) = 0.02200248
#
# Stress axis : x y z
#
# Youngs Moduli (GPa) = 111.07417 66.21842 82.70810
#
# Poissons Ratio (x) = 0.24307 0.13502
# Poissons Ratio (y) = 0.40772 0.14831
# Poissons Ratio (z) = 0.18133 0.11874
#
# Static dielectric constant tensor:
#      x y z
#    x 4.413110 0.000000 0.000000 
#    y 0.000000 3.807700 0.000000 
#    z 0.000000 0.000000 3.898750 
# 
# 
# High freq. dielectric constant tensor:
#      x y z
#    x 1.888830 0.000000 0.000000 
#    y 0.000000 1.855900 0.000000 
#    z 0.000000 0.000000 1.860700 
# 
# From -- ./inp_files/20216.got.cif
#   From: 2010.03.12/outbox.cif.g09.slc.cpg/sg60_11_cif.got.tgz:20216.got - 2010.04.10 18:46:24.
