data_PCOD8247175
_publ_section_title
;
Structure prediction by ZEFSAII (Michael W. Deem and Ramdas Pophale) SiO2 
 PCOD8247175
Probable space group: P B C N
;
_chemical_formula_sum "Si O2"
_cell_formula_units_Z 44
_cell_length_a 8.784236
_cell_length_b 14.767449
_cell_length_c 15.950722
_cell_angle_alpha 90.000000
_cell_angle_beta 90.000000
_cell_angle_gamma 90.000000
_cell_volume 2069.139735
_symmetry_space_group_name_H-M "P B C N"
_symmetry_group_IT_number 60
_symmetry_cell_setting 'orthorhombic'
loop_
_space_group_symop_operation_xyz
x,y,z
1/2-x,1/2-y,1/2+z
1/2+x,1/2-y,-z
-x,y,1/2-z
-x,-y,-z
1/2+x,1/2+y,1/2-z
1/2-x,1/2+y,z
x,-y,1/2+z
loop_
_atom_site_type_symbol
_atom_site_label
_atom_site_fract_x
_atom_site_fract_y
_atom_site_fract_z
Si Si1 0.600130 0.043440 0.668863
Si Si2 0.610373 0.322677 0.476593
Si Si3 0.253931 0.139532 0.355452
Si Si4 0.060092 0.308393 0.085797
Si Si5 0.000000 0.191942 0.250000
Si Si6 0.103436 0.836884 0.332363
O O1 0.500000 0.055828 0.750000
O O2 0.503683 0.089469 0.593876
O O3 0.762453 0.091927 0.682675
O O4 0.618775 0.937634 0.648612
O O5 0.655500 0.379362 0.559675
O O6 0.527572 0.230769 0.505543
O O7 0.760770 0.300181 0.424743
O O8 0.496078 0.372768 0.411871
O O9 0.329950 0.238346 0.355721
O O10 0.145108 0.129510 0.273248
O O11 0.022879 0.254471 0.169862
O O12 0.000000 0.829604 0.250000
#
# Coordination Sequence:
#
# PCOD8247175 Si02
#       6
#     8   8   8   8   4   8
#     4  12  24  42  66  99 135 174 225 273 330 397
#     4  11  22  42  68  97 132 175 219 276 328 398
#     4  11  24  41  66 101 131 170 223 271 335 389
#     4  11  20  42  67  94 130 174 220 269 331 391
#     4  10  20  42  66  90 130 174 210 278 324 386
#     4  12  24  44  69  95 131 180 225 271 341 401
#
# _framework density 21.264878
#
# number of rings (size 3 to 8) (size 9 to 14) (size 15 to 20)
#    0.000    0.727    6.364    2.727    1.273    1.455 
#    0.000    0.000    0.000    0.000    0.000    0.000 
#    0.000    0.000    0.000    0.000    0.000    0.000 
#
# Total GULP energy -545419.610481 kJ/mol
# GULP energy per Si atom -12395.900238 kJ/mol
# Density = 2.121648 g / cm^3
# Si number density = 21.264878 Si / 1000 Ang^3
#
#
#
# Elastic Constant Matrix: (Units=GPa)
#
#
# Indices 1 2 3 4 5 6 
#
# 1 125.4622 17.5808 35.7092 0.0000 0.0000 0.0000
# 2 17.5808 66.8114 1.7764 0.0000 0.0000 0.0000
# 3 35.7092 1.7764 80.5813 0.0000 0.0000 0.0000
# 4 0.0000 0.0000 0.0000 17.1033 0.0000 0.0000
# 5 0.0000 0.0000 0.0000 0.0000 55.1356 0.0000
# 6 0.0000 0.0000 0.0000 0.0000 0.0000 20.8636
#
#
#
# Elastic Compliance Matrix: (Units=1/GPa)
#
#
# Indices 1 2 3 4 5 6 
#
# 1 0.009486 -0.002386 -0.004151 0.000000 0.000000 0.000000
# 2 -0.002386 0.015576 0.000714 0.000000 0.000000 0.000000
# 3 -0.004151 0.000714 0.014234 0.000000 0.000000 0.000000
# 4 0.000000 0.000000 0.000000 0.058468 0.000000 0.000000
# 5 0.000000 0.000000 0.000000 0.000000 0.018137 0.000000
# 6 0.000000 0.000000 0.000000 0.000000 0.000000 0.047930
#
#
# Mechanical properties :
#
#
# Convention : Reuss Voigt Hill
#
# Bulk Modulus (GPa) = 36.16639 42.55420 39.36029
# Shear Modulus (GPa) = 27.07163 33.13973 30.10568
#
# Velocity S-wave (km/s) = 3.57188 3.95197 3.76672
# Velocity P-wave (km/s) = 5.83572 6.39367 6.12106
#
# Compressibility (1/GPa) = 0.02764998
#
# Stress axis : x y z
#
# Youngs Moduli (GPa) = 105.41417 64.19992 70.25585
#
# Poissons Ratio (x) = 0.15317 0.29165
# Poissons Ratio (y) = 0.25151 -0.05016
# Poissons Ratio (z) = 0.43760 -0.04583
#
# Static dielectric constant tensor:
#      x y z
#    x 4.363420 0.000000 0.000000 
#    y 0.000000 3.636800 0.000000 
#    z 0.000000 0.000000 4.179610 
# 
# 
# High freq. dielectric constant tensor:
#      x y z
#    x 1.854180 0.000000 0.000000 
#    y 0.000000 1.802670 0.000000 
#    z 0.000000 0.000000 1.847420 
# 
# From -- ./inp_files/14890.got.cif
#   From: 2010.03.12/outbox.cif.g09.slc.cpg/sg60_8_cif.got.tgz:14890.got - 2010.04.10 18:46:24.
