data_PCOD8247845
_publ_section_title
;
Structure prediction by ZEFSAII (Michael W. Deem and Ramdas Pophale) SiO2 
 PCOD8247845
Probable space group: P B C N
;
_chemical_formula_sum "Si O2"
_cell_formula_units_Z 48
_cell_length_a 15.665645
_cell_length_b 9.401477
_cell_length_c 16.311627
_cell_angle_alpha 90.000000
_cell_angle_beta 90.000000
_cell_angle_gamma 90.000000
_cell_volume 2402.379706
_symmetry_space_group_name_H-M "P B C N"
_symmetry_group_IT_number 60
_symmetry_cell_setting 'orthorhombic'
loop_
_space_group_symop_operation_xyz
x,y,z
1/2-x,1/2-y,1/2+z
1/2+x,1/2-y,-z
-x,y,1/2-z
-x,-y,-z
1/2+x,1/2+y,1/2-z
1/2-x,1/2+y,z
x,-y,1/2+z
loop_
_atom_site_type_symbol
_atom_site_label
_atom_site_fract_x
_atom_site_fract_y
_atom_site_fract_z
Si Si1 0.910179 0.028729 0.705779
Si Si2 0.257451 0.595548 0.684000
Si Si3 0.166852 0.217446 0.922913
Si Si4 0.908112 0.476918 0.038175
Si Si5 0.343171 0.783363 0.326224
Si Si6 0.232040 0.652602 0.071869
O O1 0.842778 0.104602 0.764060
O O2 0.904277 0.119993 0.621732
O O3 0.000000 0.043693 0.750000
O O4 0.890004 0.865493 0.687097
O O5 0.175900 0.643987 0.738161
O O6 0.269996 0.684263 0.600678
O O7 0.245546 0.433870 0.655595
O O8 0.131099 0.371979 0.940341
O O9 0.254111 0.239339 0.872689
O O10 0.190019 0.136727 0.007618
O O11 0.907370 0.383112 0.121439
O O12 0.856127 0.393623 0.968845
O O13 0.000000 0.500000 0.000000
#
# Coordination Sequence:
#
# PCOD8247845 Si02
#       6
#     8   8   8   8   8   8
#     4  11  25  41  62  95 128 166 207 267 322 364
#     4  11  22  40  66  96 121 167 221 254 308 390
#     4  10  22  43  65  90 125 169 214 254 314 385
#     4  11  25  41  62  97 129 166 208 269 328 368
#     4  10  22  43  67  86 127 173 213 254 313 389
#     4  11  22  40  68  92 126 166 217 259 307 393
#
# _framework density 19.98019
#
# number of rings (size 3 to 8) (size 9 to 14) (size 15 to 20)
#    0.000    1.333    3.333    3.000    7.000    2.667 
#    0.000    2.500    0.000    0.000    0.000    0.000 
#    0.000    0.000    0.000    0.000    0.000    0.000 
#
# Total GULP energy -595214.272662 kJ/mol
# GULP energy per Si atom -12400.297347 kJ/mol
# Density = 1.993471 g / cm^3
# Si number density = 19.980190 Si / 1000 Ang^3
#
#
#
# Elastic Constant Matrix: (Units=GPa)
#
#
# Indices 1 2 3 4 5 6 
#
# 1 96.6985 41.1330 47.1211 0.0000 0.0000 0.0000
# 2 41.1330 75.6745 44.6637 0.0000 0.0000 0.0000
# 3 47.1211 44.6637 113.8489 0.0000 0.0000 0.0000
# 4 0.0000 0.0000 0.0000 51.4392 0.0000 0.0000
# 5 0.0000 0.0000 0.0000 0.0000 24.5353 0.0000
# 6 0.0000 0.0000 0.0000 0.0000 0.0000 26.0929
#
#
#
# Elastic Compliance Matrix: (Units=1/GPa)
#
#
# Indices 1 2 3 4 5 6 
#
# 1 0.014625 -0.005696 -0.003819 0.000000 0.000000 0.000000
# 2 -0.005696 0.019414 -0.005259 0.000000 0.000000 0.000000
# 3 -0.003819 -0.005259 0.012427 0.000000 0.000000 0.000000
# 4 0.000000 0.000000 0.000000 0.019440 0.000000 0.000000
# 5 0.000000 0.000000 0.000000 0.000000 0.040758 0.000000
# 6 0.000000 0.000000 0.000000 0.000000 0.000000 0.038325
#
#
# Mechanical properties :
#
#
# Convention : Reuss Voigt Hill
#
# Bulk Modulus (GPa) = 59.10213 61.33973 60.22093
# Shear Modulus (GPa) = 27.75064 30.63374 29.19219
#
# Velocity S-wave (km/s) = 3.73085 3.91986 3.82652
# Velocity P-wave (km/s) = 6.94288 7.15919 7.05186
#
# Compressibility (1/GPa) = 0.01691986
#
# Stress axis : x y z
#
# Youngs Moduli (GPa) = 68.37575 51.50851 80.46832
#
# Poissons Ratio (x) = 0.29337 0.30729
# Poissons Ratio (y) = 0.38944 0.42318
# Poissons Ratio (z) = 0.26111 0.27088
#
# Static dielectric constant tensor:
#      x y z
#    x 3.926810 0.000000 0.000000 
#    y 0.000000 3.703890 0.000000 
#    z 0.000000 0.000000 3.995030 
# 
# 
# High freq. dielectric constant tensor:
#      x y z
#    x 1.753630 0.000000 0.000000 
#    y 0.000000 1.795520 0.000000 
#    z 0.000000 0.000000 1.797670 
# 
# From -- ./inp_files/20468.got.cif
#   From: 2010.03.12/outbox.cif.g09.slc.cpg/sg60_11_cif.got.tgz:20468.got - 2010.04.10 18:46:24.
