data_PCOD8247206
_publ_section_title
;
Structure prediction by ZEFSAII (Michael W. Deem and Ramdas Pophale) SiO2 
 PCOD8247206
Probable space group: P B C N
;
_chemical_formula_sum "Si O2"
_cell_formula_units_Z 32
_cell_length_a 7.322918
_cell_length_b 30.587518
_cell_length_c 5.582433
_cell_angle_alpha 90.000000
_cell_angle_beta 90.000000
_cell_angle_gamma 90.000000
_cell_volume 1250.408532
_symmetry_space_group_name_H-M "P B C N"
_symmetry_group_IT_number 60
_symmetry_cell_setting 'orthorhombic'
loop_
_space_group_symop_operation_xyz
x,y,z
1/2-x,1/2-y,1/2+z
1/2+x,1/2-y,-z
-x,y,1/2-z
-x,-y,-z
1/2+x,1/2+y,1/2-z
1/2-x,1/2+y,z
x,-y,1/2+z
loop_
_atom_site_type_symbol
_atom_site_label
_atom_site_fract_x
_atom_site_fract_y
_atom_site_fract_z
Si Si1 0.691610 0.388018 0.875189
Si Si2 0.000000 0.259911 0.250000
Si Si3 0.796591 0.483333 0.963237
Si Si4 0.279066 0.804491 0.890802
Si Si5 0.500000 0.336809 0.250000
O O1 0.500000 0.399705 0.750000
O O2 0.805984 0.352315 0.723774
O O3 0.806739 0.431687 0.914972
O O4 0.652998 0.367382 0.132251
O O5 0.809024 0.233060 0.278150
O O6 0.974694 0.291494 0.486947
O O7 0.701259 0.494578 0.223602
O O8 0.000000 0.500000 0.000000
O O9 0.107108 0.805654 0.071519
#
# Coordination Sequence:
#
# PCOD8247206 Si02
#       5
#     8   4   8   8   4
#     4  10  23  44  74 104 147 193 248 307 394 455
#     4  12  24  46  74 105 154 192 265 308 384 456
#     4  10  24  47  70 106 147 191 245 318 377 458
#     4  11  24  45  69 109 146 200 241 318 374 467
#     4  10  20  46  68 105 146 192 245 306 382 462
#
# _framework density 25.591636000000001
#
# number of rings (size 3 to 8) (size 9 to 14) (size 15 to 20)
#    0.000    1.500    3.750    1.500    7.000    1.000 
#    9.000    0.000    0.000    0.000    0.000    0.000 
#    0.000    0.000    0.000    0.000    0.000    0.000 
#
# Total GULP energy -396474.214070 kJ/mol
# GULP energy per Si atom -12389.819190 kJ/mol
# Density = 2.553339 g / cm^3
# Si number density = 25.591636 Si / 1000 Ang^3
#
#
#
# Elastic Constant Matrix: (Units=GPa)
#
#
# Indices 1 2 3 4 5 6 
#
# 1 82.8189 51.3879 3.4630 0.0000 0.0000 0.0000
# 2 51.3879 194.6163 44.1494 0.0000 0.0000 0.0000
# 3 3.4630 44.1494 128.5983 0.0000 0.0000 0.0000
# 4 0.0000 0.0000 0.0000 8.5251 0.0000 0.0000
# 5 0.0000 0.0000 0.0000 0.0000 35.3793 0.0000
# 6 0.0000 0.0000 0.0000 0.0000 0.0000 47.5336
#
#
#
# Elastic Compliance Matrix: (Units=1/GPa)
#
#
# Indices 1 2 3 4 5 6 
#
# 1 0.014559 -0.004073 0.001006 0.000000 0.000000 0.000000
# 2 -0.004073 0.006712 -0.002194 0.000000 0.000000 0.000000
# 3 0.001006 -0.002194 0.008502 0.000000 0.000000 0.000000
# 4 0.000000 0.000000 0.000000 0.117301 0.000000 0.000000
# 5 0.000000 0.000000 0.000000 0.000000 0.028265 0.000000
# 6 0.000000 0.000000 0.000000 0.000000 0.000000 0.021038
#
#
# Mechanical properties :
#
#
# Convention : Reuss Voigt Hill
#
# Bulk Modulus (GPa) = 51.94415 67.11492 59.52954
# Shear Modulus (GPa) = 23.43938 38.75648 31.09793
#
# Velocity S-wave (km/s) = 3.02967 3.89578 3.48970
# Velocity P-wave (km/s) = 5.70788 6.82044 6.28881
#
# Compressibility (1/GPa) = 0.01925144
#
# Stress axis : x y z
#
# Youngs Moduli (GPa) = 68.68383 148.99795 117.61322
#
# Poissons Ratio (x) = 0.60681 -0.11833
# Poissons Ratio (y) = 0.27972 0.25810
# Poissons Ratio (z) = -0.06910 0.32697
#
# Static dielectric constant tensor:
#      x y z
#    x 4.163590 0.000000 0.000000 
#    y 0.000000 4.482140 0.000000 
#    z 0.000000 0.000000 6.458890 
# 
# 
# High freq. dielectric constant tensor:
#      x y z
#    x 1.997090 0.000000 0.000000 
#    y 0.000000 2.025900 0.000000 
#    z 0.000000 0.000000 2.044080 
# 
# From -- ./inp_files/410.got.cif
#   From: 2010.03.12/outbox.cif.g09.slc.cpg/sg60_1_cif.got.tgz:410.got - 2010.04.10 18:46:24.
