data_PCOD8247564
_publ_section_title
;
Structure prediction by ZEFSAII (Michael W. Deem and Ramdas Pophale) SiO2 
 PCOD8247564
Probable space group: P B C N
;
_chemical_formula_sum "Si O2"
_cell_formula_units_Z 56
_cell_length_a 8.943153
_cell_length_b 13.498033
_cell_length_c 22.307889
_cell_angle_alpha 90.000000
_cell_angle_beta 90.000000
_cell_angle_gamma 90.000000
_cell_volume 2692.896248
_symmetry_space_group_name_H-M "P B C N"
_symmetry_group_IT_number 60
_symmetry_cell_setting 'orthorhombic'
loop_
_space_group_symop_operation_xyz
x,y,z
1/2-x,1/2-y,1/2+z
1/2+x,1/2-y,-z
-x,y,1/2-z
-x,-y,-z
1/2+x,1/2+y,1/2-z
1/2-x,1/2+y,z
x,-y,1/2+z
loop_
_atom_site_type_symbol
_atom_site_label
_atom_site_fract_x
_atom_site_fract_y
_atom_site_fract_z
Si Si1 0.834063 0.336994 0.636482
Si Si2 0.111281 0.137396 0.468633
Si Si3 0.226919 0.364081 0.142665
Si Si4 0.181843 0.973702 0.561657
Si Si5 0.561158 0.036747 0.684630
Si Si6 0.176243 0.717428 0.764918
Si Si7 0.878066 0.288191 0.931161
O O1 0.717087 0.323608 0.583529
O O2 0.868184 0.451580 0.645560
O O3 0.764283 0.302026 0.699723
O O4 0.986431 0.281997 0.616990
O O5 0.069277 0.234415 0.507806
O O6 0.962340 0.095151 0.438893
O O7 0.191161 0.049136 0.505706
O O8 0.327214 0.459336 0.122444
O O9 0.269011 0.311134 0.205312
O O10 0.239711 0.276449 0.094023
O O11 0.061718 0.408150 0.144519
O O12 0.326841 0.901702 0.558992
O O13 0.500000 0.000554 0.750000
O O14 0.687692 0.119272 0.694480
O O15 0.000000 0.743485 0.750000
#
# Coordination Sequence:
#
# PCOD8247564 Si02
#       7
#     8   8   8   8   8   8   8
#     4  12  24  41  70 100 126 180 222 276 337 408
#     4  10  25  41  60  99 134 168 225 280 338 398
#     4   9  20  41  65  93 128 176 213 274 336 394
#     4  10  21  43  64  90 134 173 221 275 337 404
#     4   9  21  42  62  94 132 166 216 270 326 395
#     4   9  23  42  63 100 135 165 216 277 330 394
#     4  11  23  39  69  95 128 178 225 273 332 406
#
# _framework density 20.795452999999998
#
# number of rings (size 3 to 8) (size 9 to 14) (size 15 to 20)
#    0.000    2.286    1.429    0.857    6.000    5.143 
#    0.000    1.429    0.000    0.000    0.000    0.000 
#    0.000    0.000    0.000    0.000    0.000    0.000 
#
# Total GULP energy -693923.955265 kJ/mol
# GULP energy per Si atom -12391.499201 kJ/mol
# Density = 2.074812 g / cm^3
# Si number density = 20.795453 Si / 1000 Ang^3
#
#
#
# Elastic Constant Matrix: (Units=GPa)
#
#
# Indices 1 2 3 4 5 6 
#
# 1 58.2865 24.8350 41.8035 0.0000 0.0000 0.0000
# 2 24.8350 86.9516 32.4606 0.0000 0.0000 0.0000
# 3 41.8035 32.4606 80.5828 0.0000 0.0000 0.0000
# 4 0.0000 0.0000 0.0000 42.7837 0.0000 0.0000
# 5 0.0000 0.0000 0.0000 0.0000 38.2863 0.0000
# 6 0.0000 0.0000 0.0000 0.0000 0.0000 25.6052
#
#
#
# Elastic Compliance Matrix: (Units=1/GPa)
#
#
# Indices 1 2 3 4 5 6 
#
# 1 0.027984 -0.003029 -0.013297 0.000000 0.000000 0.000000
# 2 -0.003029 0.013864 -0.004014 0.000000 0.000000 0.000000
# 3 -0.013297 -0.004014 0.020924 0.000000 0.000000 0.000000
# 4 0.000000 0.000000 0.000000 0.023373 0.000000 0.000000
# 5 0.000000 0.000000 0.000000 0.000000 0.026119 0.000000
# 6 0.000000 0.000000 0.000000 0.000000 0.000000 0.039055
#
#
# Mechanical properties :
#
#
# Convention : Reuss Voigt Hill
#
# Bulk Modulus (GPa) = 45.26176 47.11324 46.18750
# Shear Modulus (GPa) = 25.07998 29.78316 27.43157
#
# Velocity S-wave (km/s) = 3.47656 3.78854 3.63590
# Velocity P-wave (km/s) = 6.15856 6.46855 6.31545
#
# Compressibility (1/GPa) = 0.02209371
#
# Stress axis : x y z
#
# Youngs Moduli (GPa) = 35.73493 72.12900 47.79122
#
# Poissons Ratio (x) = 0.21846 0.63548
# Poissons Ratio (y) = 0.10823 0.19181
# Poissons Ratio (z) = 0.47517 0.28950
#
# Static dielectric constant tensor:
#      x y z
#    x 3.590880 0.000000 0.000000 
#    y 0.000000 3.821700 0.000000 
#    z 0.000000 0.000000 3.883510 
# 
# 
# High freq. dielectric constant tensor:
#      x y z
#    x 1.794720 0.000000 0.000000 
#    y 0.000000 1.823730 0.000000 
#    z 0.000000 0.000000 1.814910 
# 
# From -- ./inp_files/22207.got.cif
#   From: 2010.03.12/outbox.cif.g09.slc.cpg/sg60_12_cif.got.tgz:22207.got - 2010.04.10 18:46:24.
