data_PCOD8247778
_publ_section_title
;
Structure prediction by ZEFSAII (Michael W. Deem and Ramdas Pophale) SiO2 
 PCOD8247778
Probable space group: P B C N
;
_chemical_formula_sum "Si O2"
_cell_formula_units_Z 48
_cell_length_a 5.010047
_cell_length_b 15.380894
_cell_length_c 29.596222
_cell_angle_alpha 90.000000
_cell_angle_beta 90.000000
_cell_angle_gamma 90.000000
_cell_volume 2280.655326
_symmetry_space_group_name_H-M "P B C N"
_symmetry_group_IT_number 60
_symmetry_cell_setting 'orthorhombic'
loop_
_space_group_symop_operation_xyz
x,y,z
1/2-x,1/2-y,1/2+z
1/2+x,1/2-y,-z
-x,y,1/2-z
-x,-y,-z
1/2+x,1/2+y,1/2-z
1/2-x,1/2+y,z
x,-y,1/2+z
loop_
_atom_site_type_symbol
_atom_site_label
_atom_site_fract_x
_atom_site_fract_y
_atom_site_fract_z
Si Si1 0.400764 0.851138 0.159778
Si Si2 0.882236 0.230457 0.528327
Si Si3 0.587346 0.288466 0.201013
Si Si4 0.626335 0.993141 0.901891
Si Si5 0.613099 0.200702 0.380685
Si Si6 0.368550 0.536686 0.955224
O O1 0.617937 0.827630 0.198032
O O2 0.360861 0.769757 0.124010
O O3 0.122857 0.864259 0.186645
O O4 0.488452 0.940081 0.135467
O O5 0.146787 0.219707 0.497726
O O6 0.943744 0.280149 0.574490
O O7 0.770937 0.134766 0.538252
O O8 0.500000 0.252743 0.250000
O O9 0.568204 0.210027 0.164431
O O10 0.706486 0.899035 0.882516
O O11 0.396679 0.983256 0.940384
O O12 0.902150 0.035448 0.917713
O O13 0.500000 0.500000 0.000000
#
# Coordination Sequence:
#
# PCOD8247778 Si02
#       6
#     8   8   8   8   8   8
#     4  10  22  41  67  90 129 162 216 257 331 379
#     4  12  24  39  61  91 128 173 218 263 320 380
#     4  10  22  43  69  95 127 169 211 270 330 389
#     4  12  23  41  64  93 127 174 214 267 323 388
#     4  10  25  39  68  89 133 167 218 257 336 371
#     4  12  24  40  59  92 131 166 229 270 316 376
#
# _framework density 21.046582999999998
#
# number of rings (size 3 to 8) (size 9 to 14) (size 15 to 20)
#    1.000    0.000    1.667    6.000    4.667    0.000 
#    0.000    1.667    0.000    0.000    0.000    0.000 
#    0.000    0.000    0.000    0.000    0.000    0.000 
#
# Total GULP energy -594947.007633 kJ/mol
# GULP energy per Si atom -12394.729326 kJ/mol
# Density = 2.099868 g / cm^3
# Si number density = 21.046583 Si / 1000 Ang^3
#
#
#
# Elastic Constant Matrix: (Units=GPa)
#
#
# Indices 1 2 3 4 5 6 
#
# 1 89.9208 9.0165 11.9866 0.0000 0.0000 0.0000
# 2 9.0165 117.5827 28.3931 0.0000 0.0000 0.0000
# 3 11.9866 28.3931 108.9006 0.0000 0.0000 0.0000
# 4 0.0000 0.0000 0.0000 16.4627 0.0000 0.0000
# 5 0.0000 0.0000 0.0000 0.0000 33.6602 0.0000
# 6 0.0000 0.0000 0.0000 0.0000 0.0000 17.0858
#
#
#
# Elastic Compliance Matrix: (Units=1/GPa)
#
#
# Indices 1 2 3 4 5 6 
#
# 1 0.011327 -0.000606 -0.001089 0.000000 0.000000 0.000000
# 2 -0.000606 0.009108 -0.002308 0.000000 0.000000 0.000000
# 3 -0.001089 -0.002308 0.009904 0.000000 0.000000 0.000000
# 4 0.000000 0.000000 0.000000 0.060744 0.000000 0.000000
# 5 0.000000 0.000000 0.000000 0.000000 0.029709 0.000000
# 6 0.000000 0.000000 0.000000 0.000000 0.000000 0.058528
#
#
# Mechanical properties :
#
#
# Convention : Reuss Voigt Hill
#
# Bulk Modulus (GPa) = 44.77408 46.13292 45.45350
# Shear Modulus (GPa) = 25.67133 31.24227 28.45680
#
# Velocity S-wave (km/s) = 3.49626 3.85702 3.68106
# Velocity P-wave (km/s) = 6.13339 6.46548 6.30162
#
# Compressibility (1/GPa) = 0.02233435
#
# Stress axis : x y z
#
# Youngs Moduli (GPa) = 88.28640 109.78820 100.96603
#
# Poissons Ratio (x) = 0.06649 0.10993
# Poissons Ratio (y) = 0.05347 0.23304
# Poissons Ratio (z) = 0.09613 0.25341
#
# Static dielectric constant tensor:
#      x y z
#    x 3.690230 0.000000 0.000000 
#    y 0.000000 3.677710 0.000000 
#    z 0.000000 0.000000 3.726240 
# 
# 
# High freq. dielectric constant tensor:
#      x y z
#    x 1.833390 0.000000 0.000000 
#    y 0.000000 1.804550 0.000000 
#    z 0.000000 0.000000 1.815110 
# 
# From -- ./inp_files/24878.got.cif
#   From: 2010.03.12/outbox.cif.g09.slc.cpg/sg60_13_cif.got.tgz:24878.got - 2010.04.10 18:46:24.
