data_PCOD8247607
_publ_section_title
;
Structure prediction by ZEFSAII (Michael W. Deem and Ramdas Pophale) SiO2 
 PCOD8247607
Probable space group: P B C N
;
_chemical_formula_sum "Si O2"
_cell_formula_units_Z 64
_cell_length_a 28.977057
_cell_length_b 5.365002
_cell_length_c 20.258523
_cell_angle_alpha 90.000000
_cell_angle_beta 90.000000
_cell_angle_gamma 90.000000
_cell_volume 3149.429870
_symmetry_space_group_name_H-M "P B C N"
_symmetry_group_IT_number 60
_symmetry_cell_setting 'orthorhombic'
loop_
_space_group_symop_operation_xyz
x,y,z
1/2-x,1/2-y,1/2+z
1/2+x,1/2-y,-z
-x,y,1/2-z
-x,-y,-z
1/2+x,1/2+y,1/2-z
1/2-x,1/2+y,z
x,-y,1/2+z
loop_
_atom_site_type_symbol
_atom_site_label
_atom_site_fract_x
_atom_site_fract_y
_atom_site_fract_z
Si Si1 0.458678 0.193032 0.003837
Si Si2 0.427949 0.481788 0.613989
Si Si3 0.622603 0.147681 0.307813
Si Si4 0.772403 0.495812 0.955955
Si Si5 0.024888 0.874126 0.867395
Si Si6 0.227370 0.432786 0.699283
Si Si7 0.377167 0.912521 0.049689
Si Si8 0.544859 0.883505 0.704972
O O1 0.464623 0.396727 0.945954
O O2 0.459093 0.306509 0.077625
O O3 0.500000 0.000000 0.000000
O O4 0.408290 0.063113 0.998036
O O5 0.392476 0.573536 0.670124
O O6 0.469808 0.328494 0.647519
O O7 0.397169 0.367431 0.554144
O O8 0.674930 0.133901 0.282773
O O9 0.590223 0.068148 0.248399
O O10 0.616003 0.981833 0.373006
O O11 0.742552 0.726708 0.986063
O O12 0.764603 0.462199 0.878498
O O13 0.824967 0.560788 0.973988
O O14 0.047452 0.614529 0.844907
O O15 0.046409 0.116053 0.831864
O O16 0.242541 0.701841 0.729087
O O17 0.500000 0.889964 0.750000
#
# Coordination Sequence:
#
# PCOD8247607 Si02
#       8
#     8   8   8   8   8   8   8   8
#     4  11  23  39  57  86 116 157 203 243 286 339
#     4  11  22  37  58  83 120 158 192 241 291 348
#     4  10  23  37  57  87 120 157 192 234 299 354
#     4   9  19  33  52  83 119 146 183 230 294 359
#     4  12  25  40  58  82 118 158 200 239 278 335
#     4   9  19  33  54  83 115 149 185 238 289 350
#     4  10  22  35  61  84 117 157 192 239 295 352
#     4  12  25  40  58  82 118 159 195 238 283 348
#
# _framework density 20.321138999999999
#
# number of rings (size 3 to 8) (size 9 to 14) (size 15 to 20)
#    0.000    1.500    2.500    2.250   14.000    0.000 
#    0.000    0.000    0.000    0.000    0.000    5.250 
#    0.000    0.000    0.000    0.000    0.000    0.000 
#
# Total GULP energy -792976.201190 kJ/mol
# GULP energy per Si atom -12390.253144 kJ/mol
# Density = 2.027489 g / cm^3
# Si number density = 20.321139 Si / 1000 Ang^3
#
#
#
# Elastic Constant Matrix: (Units=GPa)
#
#
# Indices 1 2 3 4 5 6 
#
# 1 161.3337 52.4287 20.5726 0.0000 0.0000 0.0000
# 2 52.4287 113.4828 9.0978 0.0000 0.0000 0.0000
# 3 20.5726 9.0978 39.5557 0.0000 0.0000 0.0000
# 4 0.0000 0.0000 0.0000 25.6305 0.0000 0.0000
# 5 0.0000 0.0000 0.0000 0.0000 21.8090 0.0000
# 6 0.0000 0.0000 0.0000 0.0000 0.0000 30.0674
#
#
#
# Elastic Compliance Matrix: (Units=1/GPa)
#
#
# Indices 1 2 3 4 5 6 
#
# 1 0.007680 -0.003289 -0.003238 0.000000 0.000000 0.000000
# 2 -0.003289 0.010386 -0.000678 0.000000 0.000000 0.000000
# 3 -0.003238 -0.000678 0.027121 0.000000 0.000000 0.000000
# 4 0.000000 0.000000 0.000000 0.039016 0.000000 0.000000
# 5 0.000000 0.000000 0.000000 0.000000 0.045853 0.000000
# 6 0.000000 0.000000 0.000000 0.000000 0.000000 0.033259
#
#
# Mechanical properties :
#
#
# Convention : Reuss Voigt Hill
#
# Bulk Modulus (GPa) = 32.49204 53.17450 42.83327
# Shear Modulus (GPa) = 26.59830 30.98626 28.79228
#
# Velocity S-wave (km/s) = 3.62179 3.90914 3.76821
# Velocity P-wave (km/s) = 5.78912 6.82635 6.32902
#
# Compressibility (1/GPa) = 0.03077677
#
# Stress axis : x y z
#
# Youngs Moduli (GPa) = 130.21037 96.28747 36.87205
#
# Poissons Ratio (x) = 0.31664 0.11939
# Poissons Ratio (y) = 0.42820 0.02501
# Poissons Ratio (z) = 0.42161 0.06532
#
# Static dielectric constant tensor:
#      x y z
#    x 3.749910 0.000000 0.000000 
#    y 0.000000 4.049700 0.000000 
#    z 0.000000 0.000000 3.345320 
# 
# 
# High freq. dielectric constant tensor:
#      x y z
#    x 1.793190 0.000000 0.000000 
#    y 0.000000 1.813390 0.000000 
#    z 0.000000 0.000000 1.735110 
# 
# From -- ./inp_files/23347.got.cif
#   From: 2010.03.12/outbox.cif.g09.slc.cpg/sg60_12_cif.got.tgz:23347.got - 2010.04.10 18:46:24.
