data_PCOD8247392
_publ_section_title
;
Structure prediction by ZEFSAII (Michael W. Deem and Ramdas Pophale) SiO2 
 PCOD8247392
Probable space group: P B C N
;
_chemical_formula_sum "Si O2"
_cell_formula_units_Z 52
_cell_length_a 8.812058
_cell_length_b 13.247724
_cell_length_c 23.300179
_cell_angle_alpha 90.000000
_cell_angle_beta 90.000000
_cell_angle_gamma 90.000000
_cell_volume 2720.056192
_symmetry_space_group_name_H-M "P B C N"
_symmetry_group_IT_number 60
_symmetry_cell_setting 'orthorhombic'
loop_
_space_group_symop_operation_xyz
x,y,z
1/2-x,1/2-y,1/2+z
1/2+x,1/2-y,-z
-x,y,1/2-z
-x,-y,-z
1/2+x,1/2+y,1/2-z
1/2-x,1/2+y,z
x,-y,1/2+z
loop_
_atom_site_type_symbol
_atom_site_label
_atom_site_fract_x
_atom_site_fract_y
_atom_site_fract_z
Si Si1 0.331908 0.161962 0.035891
Si Si2 0.815571 0.304223 0.552228
Si Si3 0.162441 0.036811 0.519722
Si Si4 0.837652 0.639677 0.763457
Si Si5 0.117379 0.260471 0.822504
Si Si6 0.000000 0.558355 0.250000
Si Si7 0.324245 0.683256 0.625770
O O1 0.511484 0.179372 0.032889
O O2 0.274818 0.212263 0.095328
O O3 0.285741 0.046209 0.037141
O O4 0.250550 0.207678 0.980303
O O5 0.724044 0.403358 0.535101
O O6 0.789834 0.285051 0.619766
O O7 0.145364 0.104083 0.575770
O O8 0.000000 0.000000 0.500000
O O9 0.715356 0.697148 0.723559
O O10 0.808223 0.654571 0.830777
O O11 0.000000 0.690978 0.750000
O O12 0.853144 0.516762 0.757010
O O13 0.047854 0.367341 0.801501
O O14 0.977631 0.188445 0.837495
#
# Coordination Sequence:
#
# PCOD8247392 Si02
#       7
#     8   8   8   8   8   4   8
#     4  10  21  39  61  87 128 160 208 258 320 378
#     4  10  23  38  63  92 119 172 204 260 325 375
#     4  11  23  39  59  95 130 162 218 259 314 403
#     4  10  24  40  63  95 121 164 224 260 321 393
#     4  11  21  44  66  86 133 166 209 271 319 377
#     4  10  24  40  64  88 126 158 216 256 320 372
#     4  10  22  39  65  88 124 171 202 268 325 373
#
# _framework density 19.117252000000001
#
# number of rings (size 3 to 8) (size 9 to 14) (size 15 to 20)
#    0.462    1.231    1.538    3.231    4.308    6.154 
#    0.000    1.538    0.000    0.000    0.000    0.000 
#    0.000    0.000    0.000    0.000    0.000    0.000 
#
# Total GULP energy -644354.203973 kJ/mol
# GULP energy per Si atom -12391.426999 kJ/mol
# Density = 1.907374 g / cm^3
# Si number density = 19.117252 Si / 1000 Ang^3
#
#
#
# Elastic Constant Matrix: (Units=GPa)
#
#
# Indices 1 2 3 4 5 6 
#
# 1 74.5505 37.5097 52.7841 0.0000 0.0000 0.0000
# 2 37.5097 101.7746 33.9411 0.0000 0.0000 0.0000
# 3 52.7841 33.9411 129.0828 0.0000 0.0000 0.0000
# 4 0.0000 0.0000 0.0000 21.4434 0.0000 0.0000
# 5 0.0000 0.0000 0.0000 0.0000 38.5423 0.0000
# 6 0.0000 0.0000 0.0000 0.0000 0.0000 38.5261
#
#
#
# Elastic Compliance Matrix: (Units=1/GPa)
#
#
# Indices 1 2 3 4 5 6 
#
# 1 0.021298 -0.005420 -0.007284 0.000000 0.000000 0.000000
# 2 -0.005420 0.012150 -0.000978 0.000000 0.000000 0.000000
# 3 -0.007284 -0.000978 0.010983 0.000000 0.000000 0.000000
# 4 0.000000 0.000000 0.000000 0.046634 0.000000 0.000000
# 5 0.000000 0.000000 0.000000 0.000000 0.025945 0.000000
# 6 0.000000 0.000000 0.000000 0.000000 0.000000 0.025956
#
#
# Mechanical properties :
#
#
# Convention : Reuss Voigt Hill
#
# Bulk Modulus (GPa) = 58.59782 61.54196 60.06989
# Shear Modulus (GPa) = 28.40581 31.78058 30.09320
#
# Velocity S-wave (km/s) = 3.85888 4.08168 3.97185
# Velocity P-wave (km/s) = 7.11147 7.38073 7.24735
#
# Compressibility (1/GPa) = 0.01706548
#
# Stress axis : x y z
#
# Youngs Moduli (GPa) = 46.95216 82.30750 91.05247
#
# Poissons Ratio (x) = 0.44614 0.66322
# Poissons Ratio (y) = 0.25450 0.08906
# Poissons Ratio (z) = 0.34200 0.08050
#
# Static dielectric constant tensor:
#      x y z
#    x 3.523190 0.000000 0.000000 
#    y 0.000000 3.702990 0.000000 
#    z 0.000000 0.000000 3.499850 
# 
# 
# High freq. dielectric constant tensor:
#      x y z
#    x 1.742690 0.000000 0.000000 
#    y 0.000000 1.747080 0.000000 
#    z 0.000000 0.000000 1.754830 
# 
# From -- ./inp_files/22130.got.cif
#   From: 2010.03.12/outbox.cif.g09.slc.cpg/sg60_12_cif.got.tgz:22130.got - 2010.04.10 18:46:24.
