data_PCOD8247122
_publ_section_title
;
Structure prediction by ZEFSAII (Michael W. Deem and Ramdas Pophale) SiO2 
 PCOD8247122
Probable space group: P B C N
;
_chemical_formula_sum "Si O2"
_cell_formula_units_Z 64
_cell_length_a 10.724495
_cell_length_b 15.870675
_cell_length_c 18.495414
_cell_angle_alpha 90.000000
_cell_angle_beta 90.000000
_cell_angle_gamma 90.000000
_cell_volume 3148.011472
_symmetry_space_group_name_H-M "P B C N"
_symmetry_group_IT_number 60
_symmetry_cell_setting 'orthorhombic'
loop_
_space_group_symop_operation_xyz
x,y,z
1/2-x,1/2-y,1/2+z
1/2+x,1/2-y,-z
-x,y,1/2-z
-x,-y,-z
1/2+x,1/2+y,1/2-z
1/2-x,1/2+y,z
x,-y,1/2+z
loop_
_atom_site_type_symbol
_atom_site_label
_atom_site_fract_x
_atom_site_fract_y
_atom_site_fract_z
Si Si1 0.457175 0.694624 0.081161
Si Si2 0.559096 0.999193 0.328170
Si Si3 0.674992 0.859632 0.427712
Si Si4 0.543762 0.301026 0.425565
Si Si5 0.194771 0.918043 0.667490
Si Si6 0.400028 0.874578 0.912195
Si Si7 0.491307 0.451833 0.332445
Si Si8 0.157106 0.113137 0.326413
O O1 0.434911 0.793023 0.079944
O O2 0.328481 0.645798 0.100930
O O3 0.558136 0.677743 0.142119
O O4 0.509764 0.665179 0.004578
O O5 0.500000 0.972780 0.250000
O O6 0.660270 0.071805 0.314536
O O7 0.462101 0.038346 0.385009
O O8 0.639435 0.926166 0.366036
O O9 0.807994 0.814192 0.413868
O O10 0.662207 0.894535 0.509789
O O11 0.495908 0.205076 0.412310
O O12 0.468813 0.364778 0.374079
O O13 0.139052 0.878727 0.740646
O O14 0.122508 0.004220 0.645377
O O15 0.291181 0.856955 0.854626
O O16 0.500000 0.425064 0.250000
O O17 0.377051 0.516370 0.348833
#
# Coordination Sequence:
#
# PCOD8247122 Si02
#       8
#     8   8   8   8   8   8   8   8
#     4  10  22  39  65  91 122 172 209 259 316 374
#     4  12  24  41  66  92 128 167 208 265 326 384
#     4  11  24  44  63  91 130 163 217 266 312 387
#     4  11  22  41  66  92 127 166 216 266 312 370
#     4  10  20  40  66  89 126 162 210 257 316 379
#     4  11  24  42  62  94 128 168 208 261 324 381
#     4   9  20  38  64  92 121 160 205 260 308 369
#     4  10  20  41  63  91 130 162 207 257 316 384
#
# _framework density 20.330293999999999
#
# number of rings (size 3 to 8) (size 9 to 14) (size 15 to 20)
#    0.000    1.500    3.750    2.250    0.000    4.500 
#    4.500    0.000    0.000    0.000    0.000    0.000 
#    0.000    0.000    0.000    0.000    0.000    0.000 
#
# Total GULP energy -793099.073363 kJ/mol
# GULP energy per Si atom -12392.173021 kJ/mol
# Density = 2.028402 g / cm^3
# Si number density = 20.330294 Si / 1000 Ang^3
#
#
#
# Elastic Constant Matrix: (Units=GPa)
#
#
# Indices 1 2 3 4 5 6 
#
# 1 103.4542 28.1668 36.7184 0.0000 0.0000 0.0000
# 2 28.1668 63.1963 42.5909 0.0000 0.0000 0.0000
# 3 36.7184 42.5909 82.2500 0.0000 0.0000 0.0000
# 4 0.0000 0.0000 0.0000 22.9083 0.0000 0.0000
# 5 0.0000 0.0000 0.0000 0.0000 36.5146 0.0000
# 6 0.0000 0.0000 0.0000 0.0000 0.0000 25.8262
#
#
#
# Elastic Compliance Matrix: (Units=1/GPa)
#
#
# Indices 1 2 3 4 5 6 
#
# 1 0.011761 -0.002617 -0.003896 0.000000 0.000000 0.000000
# 2 -0.002617 0.024888 -0.011720 0.000000 0.000000 0.000000
# 3 -0.003896 -0.011720 0.019966 0.000000 0.000000 0.000000
# 4 0.000000 0.000000 0.000000 0.043652 0.000000 0.000000
# 5 0.000000 0.000000 0.000000 0.000000 0.027386 0.000000
# 6 0.000000 0.000000 0.000000 0.000000 0.000000 0.038720
#
#
# Mechanical properties :
#
#
# Convention : Reuss Voigt Hill
#
# Bulk Modulus (GPa) = 49.62343 51.53918 50.58131
# Shear Modulus (GPa) = 23.86008 26.47811 25.16909
#
# Velocity S-wave (km/s) = 3.42953 3.61279 3.52235
# Velocity P-wave (km/s) = 6.33592 6.54285 6.44022
#
# Compressibility (1/GPa) = 0.02015177
#
# Stress axis : x y z
#
# Youngs Moduli (GPa) = 85.02587 40.17944 50.08567
#
# Poissons Ratio (x) = 0.10513 0.19511
# Poissons Ratio (y) = 0.22248 0.58699
# Poissons Ratio (z) = 0.33122 0.47089
#
# Static dielectric constant tensor:
#      x y z
#    x 3.796940 0.000000 0.000000 
#    y 0.000000 3.486550 0.000000 
#    z 0.000000 0.000000 3.819940 
# 
# 
# High freq. dielectric constant tensor:
#      x y z
#    x 1.800960 0.000000 0.000000 
#    y 0.000000 1.776610 0.000000 
#    z 0.000000 0.000000 1.801980 
# 
# From -- ./inp_files/20214.got.cif
#   From: 2010.03.12/outbox.cif.g09.slc.cpg/sg60_11_cif.got.tgz:20214.got - 2010.04.10 18:46:24.
