data_PCOD8247604
_publ_section_title
;
Structure prediction by ZEFSAII (Michael W. Deem and Ramdas Pophale) SiO2 
 PCOD8247604
Probable space group: P B C N
;
_chemical_formula_sum "Si O2"
_cell_formula_units_Z 60
_cell_length_a 17.363689
_cell_length_b 8.445024
_cell_length_c 18.849730
_cell_angle_alpha 90.000000
_cell_angle_beta 90.000000
_cell_angle_gamma 90.000000
_cell_volume 2764.063529
_symmetry_space_group_name_H-M "P B C N"
_symmetry_group_IT_number 60
_symmetry_cell_setting 'orthorhombic'
loop_
_space_group_symop_operation_xyz
x,y,z
1/2-x,1/2-y,1/2+z
1/2+x,1/2-y,-z
-x,y,1/2-z
-x,-y,-z
1/2+x,1/2+y,1/2-z
1/2-x,1/2+y,z
x,-y,1/2+z
loop_
_atom_site_type_symbol
_atom_site_label
_atom_site_fract_x
_atom_site_fract_y
_atom_site_fract_z
Si Si1 0.084710 0.691956 0.749373
Si Si2 0.371379 0.202070 0.903539
Si Si3 0.500000 0.259986 0.250000
Si Si4 0.115162 0.008972 0.675928
Si Si5 0.063737 0.648175 0.391247
Si Si6 0.231096 0.525870 0.247207
Si Si7 0.287303 0.297603 0.348391
Si Si8 0.049890 0.862669 0.031473
O O1 0.100609 0.766917 0.827032
O O2 0.084219 0.831713 0.690985
O O3 0.149702 0.560341 0.730835
O O4 0.000000 0.613128 0.750000
O O5 0.279846 0.225134 0.905964
O O6 0.402676 0.022242 0.911615
O O7 0.395589 0.306832 0.969159
O O8 0.426956 0.370529 0.229870
O O9 0.524252 0.144687 0.185992
O O10 0.208433 0.998869 0.683332
O O11 0.098575 0.066334 0.596436
O O12 0.133456 0.774132 0.389593
O O13 0.002206 0.711498 0.447552
O O14 0.273269 0.474290 0.320510
O O15 0.215466 0.705936 0.270993
O O16 0.000000 0.000000 0.000000
#
# Coordination Sequence:
#
# PCOD8247604 Si02
#       8
#     8   8   4   8   8   8   8   8
#     4  11  22  38  69  97 132 176 232 287 356 410
#     4  11  24  42  64  96 137 175 227 284 340 425
#     4  10  22  34  68 100 130 162 232 286 350 402
#     4  11  21  41  66  99 133 174 227 295 338 411
#     4  11  23  41  66  99 133 177 222 291 346 412
#     4  11  21  38  65 101 135 163 223 295 345 407
#     4  11  21  38  69  99 125 172 229 281 342 411
#     4  11  27  44  65  95 137 189 233 277 351 423
#
# _framework density 21.707172
#
# number of rings (size 3 to 8) (size 9 to 14) (size 15 to 20)
#    0.000    1.067    7.333    1.200    4.667    0.000 
#    0.000    4.000    0.000    0.000    0.000    0.000 
#    0.000    0.000    0.000    0.000    0.000    0.000 
#
# Total GULP energy -743476.091210 kJ/mol
# GULP energy per Si atom -12391.268187 kJ/mol
# Density = 2.165777 g / cm^3
# Si number density = 21.707172 Si / 1000 Ang^3
#
#
#
# Elastic Constant Matrix: (Units=GPa)
#
#
# Indices 1 2 3 4 5 6 
#
# 1 133.2487 15.4501 29.4333 0.0000 0.0000 0.0000
# 2 15.4501 60.4828 12.2358 0.0000 0.0000 0.0000
# 3 29.4333 12.2358 84.2458 0.0000 0.0000 0.0000
# 4 0.0000 0.0000 0.0000 26.7548 0.0000 0.0000
# 5 0.0000 0.0000 0.0000 0.0000 32.6061 0.0000
# 6 0.0000 0.0000 0.0000 0.0000 0.0000 21.0953
#
#
#
# Elastic Compliance Matrix: (Units=1/GPa)
#
#
# Indices 1 2 3 4 5 6 
#
# 1 0.008276 -0.001575 -0.002662 0.000000 0.000000 0.000000
# 2 -0.001575 0.017334 -0.001967 0.000000 0.000000 0.000000
# 3 -0.002662 -0.001967 0.013086 0.000000 0.000000 0.000000
# 4 0.000000 0.000000 0.000000 0.037376 0.000000 0.000000
# 5 0.000000 0.000000 0.000000 0.000000 0.030669 0.000000
# 6 0.000000 0.000000 0.000000 0.000000 0.000000 0.047404
#
#
# Mechanical properties :
#
#
# Convention : Reuss Voigt Hill
#
# Bulk Modulus (GPa) = 38.04378 43.57952 40.81165
# Shear Modulus (GPa) = 28.51979 30.81511 29.66745
#
# Velocity S-wave (km/s) = 3.62863 3.77182 3.70092
# Velocity P-wave (km/s) = 5.92620 6.25208 6.09132
#
# Compressibility (1/GPa) = 0.02628551
#
# Stress axis : x y z
#
# Youngs Moduli (GPa) = 120.83820 57.69002 76.41795
#
# Poissons Ratio (x) = 0.09088 0.20346
# Poissons Ratio (y) = 0.19036 0.15033
# Poissons Ratio (z) = 0.32173 0.11349
#
# Static dielectric constant tensor:
#      x y z
#    x 4.301090 0.000000 0.000000 
#    y 0.000000 3.908850 0.000000 
#    z 0.000000 0.000000 3.531440 
# 
# 
# High freq. dielectric constant tensor:
#      x y z
#    x 1.871260 0.000000 0.000000 
#    y 0.000000 1.865140 0.000000 
#    z 0.000000 0.000000 1.814660 
# 
# From -- ./inp_files/20879.got.cif
#   From: 2010.03.12/outbox.cif.g09.slc.cpg/sg60_11_cif.got.tgz:20879.got - 2010.04.10 18:46:24.
