data_PCOD8247090
_publ_section_title
;
Structure prediction by ZEFSAII (Michael W. Deem and Ramdas Pophale) SiO2 
 PCOD8247090
Probable space group: P B C N
;
_chemical_formula_sum "Si O2"
_cell_formula_units_Z 60
_cell_length_a 17.637541
_cell_length_b 12.010233
_cell_length_c 14.553549
_cell_angle_alpha 90.000000
_cell_angle_beta 90.000000
_cell_angle_gamma 90.000000
_cell_volume 3082.892503
_symmetry_space_group_name_H-M "P B C N"
_symmetry_group_IT_number 60
_symmetry_cell_setting 'orthorhombic'
loop_
_space_group_symop_operation_xyz
x,y,z
1/2-x,1/2-y,1/2+z
1/2+x,1/2-y,-z
-x,y,1/2-z
-x,-y,-z
1/2+x,1/2+y,1/2-z
1/2-x,1/2+y,z
x,-y,1/2+z
loop_
_atom_site_type_symbol
_atom_site_label
_atom_site_fract_x
_atom_site_fract_y
_atom_site_fract_z
Si Si1 0.956383 0.927756 0.427030
Si Si2 0.317896 0.687452 0.497764
Si Si3 0.500000 0.561936 0.250000
Si Si4 0.839816 0.587222 0.054359
Si Si5 0.912260 0.502698 0.738282
Si Si6 0.421894 0.757752 0.338982
Si Si7 0.988165 0.298080 0.508170
Si Si8 0.366641 0.098681 0.077147
O O1 0.868675 0.914353 0.461461
O O2 0.997527 0.808256 0.426396
O O3 0.000000 0.000000 0.500000
O O4 0.962827 0.983093 0.327203
O O5 0.237701 0.653981 0.457204
O O6 0.353664 0.746157 0.409133
O O7 0.320668 0.783482 0.577372
O O8 0.432052 0.642473 0.283696
O O9 0.868565 0.560062 0.156402
O O10 0.902207 0.665172 0.008476
O O11 0.825167 0.475550 0.998418
O O12 0.908614 0.636649 0.727448
O O13 0.863689 0.463492 0.825674
O O14 0.000000 0.463985 0.750000
O O15 0.497471 0.775408 0.400201
O O16 0.045295 0.392401 0.545827
#
# Coordination Sequence:
#
# PCOD8247090 Si02
#       8
#     8   8   4   8   8   8   8   8
#     4  10  21  40  62  91 124 169 219 266 314 398
#     4  10  24  46  58  90 143 170 214 269 335 402
#     4  12  20  38  72  94 122 172 220 272 324 388
#     4  12  23  41  67  92 133 180 205 283 342 376
#     4  12  21  38  73 101 122 162 227 281 326 381
#     4  10  21  40  65  95 125 165 222 266 316 401
#     4  10  20  39  66  90 124 167 223 267 317 385
#     4  10  22  42  64  94 131 166 223 272 321 399
#
# _framework density 19.462240999999999
#
# number of rings (size 3 to 8) (size 9 to 14) (size 15 to 20)
#    0.000    1.600    7.333    1.200    0.000    3.200 
#    4.800    0.000    0.000    0.000    0.000    0.000 
#    0.000    0.000    0.000    0.000    0.000    0.000 
#
# Total GULP energy -743513.683464 kJ/mol
# GULP energy per Si atom -12391.894724 kJ/mol
# Density = 1.941794 g / cm^3
# Si number density = 19.462241 Si / 1000 Ang^3
#
#
#
# Elastic Constant Matrix: (Units=GPa)
#
#
# Indices 1 2 3 4 5 6 
#
# 1 106.5928 38.7884 33.5365 0.0000 0.0000 0.0000
# 2 38.7884 97.1673 54.2315 0.0000 0.0000 0.0000
# 3 33.5365 54.2315 129.6325 0.0000 0.0000 0.0000
# 4 0.0000 0.0000 0.0000 43.9221 0.0000 0.0000
# 5 0.0000 0.0000 0.0000 0.0000 19.6855 0.0000
# 6 0.0000 0.0000 0.0000 0.0000 0.0000 26.5804
#
#
#
# Elastic Compliance Matrix: (Units=1/GPa)
#
#
# Indices 1 2 3 4 5 6 
#
# 1 0.011150 -0.003706 -0.001334 0.000000 0.000000 0.000000
# 2 -0.003706 0.014659 -0.005174 0.000000 0.000000 0.000000
# 3 -0.001334 -0.005174 0.010224 0.000000 0.000000 0.000000
# 4 0.000000 0.000000 0.000000 0.022768 0.000000 0.000000
# 5 0.000000 0.000000 0.000000 0.000000 0.050799 0.000000
# 6 0.000000 0.000000 0.000000 0.000000 0.000000 0.037622
#
#
# Mechanical properties :
#
#
# Convention : Reuss Voigt Hill
#
# Bulk Modulus (GPa) = 64.08518 65.16726 64.62622
# Shear Modulus (GPa) = 28.92690 31.82668 30.37679
#
# Velocity S-wave (km/s) = 3.85945 4.04828 3.95499
# Velocity P-wave (km/s) = 7.27048 7.44366 7.35758
#
# Compressibility (1/GPa) = 0.01560423
#
# Stress axis : x y z
#
# Youngs Moduli (GPa) = 89.68662 68.21944 97.81352
#
# Poissons Ratio (x) = 0.25285 0.13048
# Poissons Ratio (y) = 0.33242 0.50604
# Poissons Ratio (z) = 0.11964 0.35293
#
# Static dielectric constant tensor:
#      x y z
#    x 2.938080 0.000000 0.000000 
#    y 0.000000 4.315780 0.000000 
#    z 0.000000 0.000000 3.571680 
# 
# 
# High freq. dielectric constant tensor:
#      x y z
#    x 1.727260 0.000000 0.000000 
#    y 0.000000 1.769590 0.000000 
#    z 0.000000 0.000000 1.762710 
# 
# From -- ./inp_files/17462.got.cif
#   From: 2010.03.12/outbox.cif.g09.slc.cpg/sg60_9_cif.got.tgz:17462.got - 2010.04.10 18:46:24.
