data_PCOD8247908
_publ_section_title
;
Structure prediction by ZEFSAII (Michael W. Deem and Ramdas Pophale) SiO2 
 PCOD8247908
Probable space group: P B C N
;
_chemical_formula_sum "Si O2"
_cell_formula_units_Z 40
_cell_length_a 14.091988
_cell_length_b 9.484981
_cell_length_c 13.352162
_cell_angle_alpha 90.000000
_cell_angle_beta 90.000000
_cell_angle_gamma 90.000000
_cell_volume 1784.679861
_symmetry_space_group_name_H-M "P B C N"
_symmetry_group_IT_number 60
_symmetry_cell_setting 'orthorhombic'
loop_
_space_group_symop_operation_xyz
x,y,z
1/2-x,1/2-y,1/2+z
1/2+x,1/2-y,-z
-x,y,1/2-z
-x,-y,-z
1/2+x,1/2+y,1/2-z
1/2-x,1/2+y,z
x,-y,1/2+z
loop_
_atom_site_type_symbol
_atom_site_label
_atom_site_fract_x
_atom_site_fract_y
_atom_site_fract_z
Si Si1 0.198191 0.445785 0.329593
Si Si2 0.999021 0.833095 0.979994
Si Si3 0.145413 0.365401 0.109598
Si Si4 0.286313 0.319372 0.932378
Si Si5 0.492010 0.092241 0.365303
O O1 0.188342 0.378077 0.220112
O O2 0.251101 0.333823 0.401094
O O3 0.267376 0.579606 0.336685
O O4 0.098572 0.492418 0.378457
O O5 0.101963 0.799406 0.939286
O O6 0.917741 0.778462 0.901637
O O7 0.979606 0.741093 0.079489
O O8 0.000000 0.000000 0.000000
O O9 0.080346 0.503429 0.090401
O O10 0.234124 0.369390 0.033467
O O11 0.500000 0.132986 0.250000
#
# Coordination Sequence:
#
# PCOD8247908 Si02
#       5
#     8   8   8   8   8
#     4  11  25  45  73 105 144 197 246 303 378 451
#     4  12  25  44  71 107 148 190 245 319 376 436
#     4  11  24  48  74 101 146 198 245 308 377 454
#     4  12  25  43  71 105 145 187 252 306 371 455
#     4  10  22  47  75  97 140 206 244 289 384 460
#
# _framework density 22.412983000000001
#
# number of rings (size 3 to 8) (size 9 to 14) (size 15 to 20)
#    0.000    0.800    4.000    3.000    0.000    6.400 
#    3.600    0.000    0.000    0.000    0.000    0.000 
#    0.000    0.000    0.000    0.000    0.000    0.000 
#
# Total GULP energy -495735.082321 kJ/mol
# GULP energy per Si atom -12393.377058 kJ/mol
# Density = 2.236197 g / cm^3
# Si number density = 22.412983 Si / 1000 Ang^3
#
#
#
# Elastic Constant Matrix: (Units=GPa)
#
#
# Indices 1 2 3 4 5 6 
#
# 1 68.7135 33.4580 57.6258 0.0000 0.0000 0.0000
# 2 33.4580 162.6400 77.4195 0.0000 0.0000 0.0000
# 3 57.6258 77.4195 121.1065 0.0000 0.0000 0.0000
# 4 0.0000 0.0000 0.0000 133.7860 0.0000 0.0000
# 5 0.0000 0.0000 0.0000 0.0000 34.1044 0.0000
# 6 0.0000 0.0000 0.0000 0.0000 0.0000 39.2935
#
#
#
# Elastic Compliance Matrix: (Units=1/GPa)
#
#
# Indices 1 2 3 4 5 6 
#
# 1 0.024276 0.000725 -0.012015 0.000000 0.000000 0.000000
# 2 0.000725 0.008860 -0.006009 0.000000 0.000000 0.000000
# 3 -0.012015 -0.006009 0.017815 0.000000 0.000000 0.000000
# 4 0.000000 0.000000 0.000000 0.007475 0.000000 0.000000
# 5 0.000000 0.000000 0.000000 0.000000 0.029322 0.000000
# 6 0.000000 0.000000 0.000000 0.000000 0.000000 0.025449
#
#
# Mechanical properties :
#
#
# Convention : Reuss Voigt Hill
#
# Bulk Modulus (GPa) = 61.14561 76.60741 68.87651
# Shear Modulus (GPa) = 32.62741 53.70057 43.16399
#
# Velocity S-wave (km/s) = 3.81955 4.90016 4.39321
# Velocity P-wave (km/s) = 6.84051 8.14061 7.51871
#
# Compressibility (1/GPa) = 0.01635440
#
# Stress axis : x y z
#
# Youngs Moduli (GPa) = 41.19264 112.87147 56.13114
#
# Poissons Ratio (x) = -0.08186 0.67441
# Poissons Ratio (y) = -0.02988 0.33728
# Poissons Ratio (z) = 0.49493 0.67822
#
# Static dielectric constant tensor:
#      x y z
#    x 4.148430 0.000000 0.000000 
#    y 0.000000 5.104590 0.000000 
#    z 0.000000 0.000000 4.286420 
# 
# 
# High freq. dielectric constant tensor:
#      x y z
#    x 1.886100 0.000000 0.000000 
#    y 0.000000 1.893270 0.000000 
#    z 0.000000 0.000000 1.881630 
# 
# From -- ./inp_files/16608.got.cif
#   From: 2010.03.12/outbox.cif.g09.slc.cpg/sg60_9_cif.got.tgz:16608.got - 2010.04.10 18:46:24.
