data_PCOD8247782
_publ_section_title
;
Structure prediction by ZEFSAII (Michael W. Deem and Ramdas Pophale) SiO2 
 PCOD8247782
Probable space group: P B C N
;
_chemical_formula_sum "Si O2"
_cell_formula_units_Z 48
_cell_length_a 13.620657
_cell_length_b 9.335268
_cell_length_c 16.631326
_cell_angle_alpha 90.000000
_cell_angle_beta 90.000000
_cell_angle_gamma 90.000000
_cell_volume 2114.714404
_symmetry_space_group_name_H-M "P B C N"
_symmetry_group_IT_number 60
_symmetry_cell_setting 'orthorhombic'
loop_
_space_group_symop_operation_xyz
x,y,z
1/2-x,1/2-y,1/2+z
1/2+x,1/2-y,-z
-x,y,1/2-z
-x,-y,-z
1/2+x,1/2+y,1/2-z
1/2-x,1/2+y,z
x,-y,1/2+z
loop_
_atom_site_type_symbol
_atom_site_label
_atom_site_fract_x
_atom_site_fract_y
_atom_site_fract_z
Si Si1 0.184857 0.041733 0.852087
Si Si2 0.897069 0.260863 0.537762
Si Si3 0.891338 0.569130 0.568178
Si Si4 0.714379 0.774470 0.928275
Si Si5 0.981445 0.845611 0.595785
Si Si6 0.838025 0.004676 0.334717
O O1 0.137722 0.193508 0.878063
O O2 0.296538 0.029625 0.879178
O O3 0.179023 0.028925 0.757623
O O4 0.125272 0.918464 0.899735
O O5 0.945773 0.417344 0.551472
O O6 0.805239 0.286354 0.478825
O O7 0.972984 0.150830 0.494746
O O8 0.863915 0.650118 0.485833
O O9 0.964277 0.676022 0.616793
O O10 0.661178 0.642965 0.884054
O O11 0.752200 0.889856 0.863492
O O12 0.055907 0.918936 0.658149
#
# Coordination Sequence:
#
# PCOD8247782 Si02
#       6
#     8   8   8   8   8   8
#     4  11  24  42  70 100 139 183 230 280 357 410
#     4  10  22  42  67 102 131 182 234 287 333 412
#     4  11  23  42  70 102 134 181 239 285 339 415
#     4  10  22  41  67  99 139 182 229 285 347 409
#     4  11  25  43  69  98 138 178 234 285 337 413
#     4  11  25  43  67 101 143 186 223 288 353 413
#
# _framework density 22.698098999999999
#
# number of rings (size 3 to 8) (size 9 to 14) (size 15 to 20)
#    0.000    1.333    1.667    3.500   11.667    0.000 
#    0.000    0.000    0.000    0.000    0.000    0.000 
#    0.000    0.000    0.000    0.000    0.000    0.000 
#
# Total GULP energy -595248.075140 kJ/mol
# GULP energy per Si atom -12401.001565 kJ/mol
# Density = 2.264644 g / cm^3
# Si number density = 22.698099 Si / 1000 Ang^3
#
#
#
# Elastic Constant Matrix: (Units=GPa)
#
#
# Indices 1 2 3 4 5 6 
#
# 1 67.5565 22.6836 43.7916 0.0000 0.0000 0.0000
# 2 22.6836 154.9772 64.4994 0.0000 0.0000 0.0000
# 3 43.7916 64.4994 142.5819 0.0000 0.0000 0.0000
# 4 0.0000 0.0000 0.0000 21.4413 0.0000 0.0000
# 5 0.0000 0.0000 0.0000 0.0000 18.3637 0.0000
# 6 0.0000 0.0000 0.0000 0.0000 0.0000 48.5614
#
#
#
# Elastic Compliance Matrix: (Units=1/GPa)
#
#
# Indices 1 2 3 4 5 6 
#
# 1 0.018504 -0.000423 -0.005492 0.000000 0.000000 0.000000
# 2 -0.000423 0.007959 -0.003470 0.000000 0.000000 0.000000
# 3 -0.005492 -0.003470 0.010270 0.000000 0.000000 0.000000
# 4 0.000000 0.000000 0.000000 0.046639 0.000000 0.000000
# 5 0.000000 0.000000 0.000000 0.000000 0.054455 0.000000
# 6 0.000000 0.000000 0.000000 0.000000 0.000000 0.020592
#
#
# Mechanical properties :
#
#
# Convention : Reuss Voigt Hill
#
# Bulk Modulus (GPa) = 55.67022 69.67386 62.67204
# Shear Modulus (GPa) = 27.29580 33.28269 30.28924
#
# Velocity S-wave (km/s) = 3.47155 3.83341 3.65696
# Velocity P-wave (km/s) = 6.37562 7.09619 6.74553
#
# Compressibility (1/GPa) = 0.01796292
#
# Stress axis : x y z
#
# Youngs Moduli (GPa) = 54.04107 125.64718 97.36866
#
# Poissons Ratio (x) = 0.05311 0.53476
# Poissons Ratio (y) = 0.02284 0.33792
# Poissons Ratio (z) = 0.29680 0.43605
#
# Static dielectric constant tensor:
#      x y z
#    x 4.241210 0.000000 0.000000 
#    y 0.000000 4.378840 0.000000 
#    z 0.000000 0.000000 3.764090 
# 
# 
# High freq. dielectric constant tensor:
#      x y z
#    x 1.903090 0.000000 0.000000 
#    y 0.000000 1.914910 0.000000 
#    z 0.000000 0.000000 1.868470 
# 
# From -- ./inp_files/20505.got.cif
#   From: 2010.03.12/outbox.cif.g09.slc.cpg/sg60_11_cif.got.tgz:20505.got - 2010.04.10 18:46:24.
