data_PCOD8247489
_publ_section_title
;
Structure prediction by ZEFSAII (Michael W. Deem and Ramdas Pophale) SiO2 
 PCOD8247489
Probable space group: P B C N
;
_chemical_formula_sum "Si O2"
_cell_formula_units_Z 40
_cell_length_a 8.788700
_cell_length_b 12.598065
_cell_length_c 16.722909
_cell_angle_alpha 90.000000
_cell_angle_beta 90.000000
_cell_angle_gamma 90.000000
_cell_volume 1851.570750
_symmetry_space_group_name_H-M "P B C N"
_symmetry_group_IT_number 60
_symmetry_cell_setting 'orthorhombic'
loop_
_space_group_symop_operation_xyz
x,y,z
1/2-x,1/2-y,1/2+z
1/2+x,1/2-y,-z
-x,y,1/2-z
-x,-y,-z
1/2+x,1/2+y,1/2-z
1/2-x,1/2+y,z
x,-y,1/2+z
loop_
_atom_site_type_symbol
_atom_site_label
_atom_site_fract_x
_atom_site_fract_y
_atom_site_fract_z
Si Si1 0.148029 0.993209 0.790718
Si Si2 0.110283 0.405721 0.682717
Si Si3 0.412237 0.900789 0.373329
Si Si4 0.951636 0.177379 0.082607
Si Si5 0.786068 0.321877 0.975178
O O1 0.224256 0.921555 0.721547
O O2 0.104612 0.922522 0.867411
O O3 0.000000 0.045643 0.750000
O O4 0.264825 0.084115 0.816788
O O5 0.126538 0.325005 0.609486
O O6 0.000000 0.355719 0.750000
O O7 0.042544 0.516826 0.650267
O O8 0.475137 0.780887 0.359924
O O9 0.356532 0.912470 0.465859
O O10 0.107956 0.154612 0.035629
O O11 0.821234 0.206906 0.016043
#
# Coordination Sequence:
#
# PCOD8247489 Si02
#       5
#     8   8   8   8   8
#     4  11  22  43  65  97 133 172 223 276 330 388
#     4  10  21  40  68  93 131 172 214 276 336 382
#     4   9  24  42  67  94 131 173 224 260 343 398
#     4  10  24  42  67  97 132 174 222 269 329 399
#     4  10  22  43  65  96 130 178 217 268 324 405
#
# _framework density 21.603279000000001
#
# number of rings (size 3 to 8) (size 9 to 14) (size 15 to 20)
#    1.200    0.800    2.000    0.600    5.600    3.200 
#    3.600    3.000    0.000    0.000    0.000    0.000 
#    0.000    0.000    0.000    0.000    0.000    0.000 
#
# Total GULP energy -495627.832334 kJ/mol
# GULP energy per Si atom -12390.695808 kJ/mol
# Density = 2.155411 g / cm^3
# Si number density = 21.603279 Si / 1000 Ang^3
#
#
#
# Elastic Constant Matrix: (Units=GPa)
#
#
# Indices 1 2 3 4 5 6 
#
# 1 99.9183 -4.2866 29.0530 0.0000 0.0000 0.0000
# 2 -4.2866 29.1749 3.2037 0.0000 0.0000 0.0000
# 3 29.0530 3.2037 114.6742 0.0000 0.0000 0.0000
# 4 0.0000 0.0000 0.0000 20.9425 0.0000 0.0000
# 5 0.0000 0.0000 0.0000 0.0000 50.3269 0.0000
# 6 0.0000 0.0000 0.0000 0.0000 0.0000 19.8322
#
#
#
# Elastic Compliance Matrix: (Units=1/GPa)
#
#
# Indices 1 2 3 4 5 6 
#
# 1 0.010909 0.001912 -0.002817 0.000000 0.000000 0.000000
# 2 0.001912 0.034717 -0.001454 0.000000 0.000000 0.000000
# 3 -0.002817 -0.001454 0.009475 0.000000 0.000000 0.000000
# 4 0.000000 0.000000 0.000000 0.047750 0.000000 0.000000
# 5 0.000000 0.000000 0.000000 0.000000 0.019870 0.000000
# 6 0.000000 0.000000 0.000000 0.000000 0.000000 0.050423
#
#
# Mechanical properties :
#
#
# Convention : Reuss Voigt Hill
#
# Bulk Modulus (GPa) = 19.84837 33.30084 26.57460
# Shear Modulus (GPa) = 25.68624 32.60680 29.14652
#
# Velocity S-wave (km/s) = 3.45192 3.88924 3.67709
# Velocity P-wave (km/s) = 5.00952 5.96795 5.50962
#
# Compressibility (1/GPa) = 0.05038198
#
# Stress axis : x y z
#
# Youngs Moduli (GPa) = 91.66397 28.80458 105.54350
#
# Poissons Ratio (x) = -0.05508 0.29735
# Poissons Ratio (y) = -0.17529 0.15350
# Poissons Ratio (z) = 0.25825 0.04189
#
# Static dielectric constant tensor:
#      x y z
#    x 3.932480 0.000000 0.000000 
#    y 0.000000 3.365920 0.000000 
#    z 0.000000 0.000000 4.068490 
# 
# 
# High freq. dielectric constant tensor:
#      x y z
#    x 1.857190 0.000000 0.000000 
#    y 0.000000 1.800400 0.000000 
#    z 0.000000 0.000000 1.862840 
# 
# From -- ./inp_files/14640.got.cif
#   From: 2010.03.12/outbox.cif.g09.slc.cpg/sg60_8_cif.got.tgz:14640.got - 2010.04.10 18:46:24.
