data_PCOD8247468
_publ_section_title
;
Structure prediction by ZEFSAII (Michael W. Deem and Ramdas Pophale) SiO2 
 PCOD8247468
Probable space group: P B C N
;
_chemical_formula_sum "Si O2"
_cell_formula_units_Z 48
_cell_length_a 10.913401
_cell_length_b 22.626792
_cell_length_c 9.079550
_cell_angle_alpha 90.000000
_cell_angle_beta 90.000000
_cell_angle_gamma 90.000000
_cell_volume 2242.060989
_symmetry_space_group_name_H-M "P B C N"
_symmetry_group_IT_number 60
_symmetry_cell_setting 'orthorhombic'
loop_
_space_group_symop_operation_xyz
x,y,z
1/2-x,1/2-y,1/2+z
1/2+x,1/2-y,-z
-x,y,1/2-z
-x,-y,-z
1/2+x,1/2+y,1/2-z
1/2-x,1/2+y,z
x,-y,1/2+z
loop_
_atom_site_type_symbol
_atom_site_label
_atom_site_fract_x
_atom_site_fract_y
_atom_site_fract_z
Si Si1 0.500000 0.583172 0.750000
Si Si2 0.826590 0.342338 0.287755
Si Si3 0.278414 0.922808 0.858432
Si Si4 0.948763 0.711944 0.537408
Si Si5 0.000000 0.347995 0.750000
Si Si6 0.596291 0.342644 0.492065
Si Si7 0.745074 0.033096 0.823611
O O1 0.508644 0.621911 0.598273
O O2 0.382858 0.541639 0.734450
O O3 0.830027 0.309494 0.130183
O O4 0.699603 0.329148 0.368855
O O5 0.838798 0.413331 0.259380
O O6 0.933621 0.318827 0.392129
O O7 0.401824 0.885047 0.843563
O O8 0.158700 0.879763 0.872814
O O9 0.286582 0.966451 0.719876
O O10 0.274302 0.964528 0.001342
O O11 0.930552 0.693525 0.367833
O O12 0.960571 0.782558 0.553735
#
# Coordination Sequence:
#
# PCOD8247468 Si02
#       7
#     4   8   8   8   4   8   8
#     4   8  19  40  64  84 124 171 198 264 336 356
#     4   9  22  41  56  95 126 167 208 268 322 372
#     4  10  24  40  62  95 125 166 221 259 315 395
#     4  11  22  38  65  85 133 164 207 272 318 386
#     4  12  23  40  62  94 122 175 212 252 342 384
#     4  10  21  40  63  95 123 167 222 260 327 398
#     4  10  21  43  62  90 129 161 218 267 308 391
#
# _framework density 21.408874000000001
#
# number of rings (size 3 to 8) (size 9 to 14) (size 15 to 20)
#    0.000    2.333    3.333    0.500    4.667    7.333 
#    0.000    5.000    0.000    0.000    0.000    0.000 
#    0.000    0.000    0.000    0.000    0.000    0.000 
#
# Total GULP energy -594694.640584 kJ/mol
# GULP energy per Si atom -12389.471679 kJ/mol
# Density = 2.136015 g / cm^3
# Si number density = 21.408874 Si / 1000 Ang^3
#
#
#
# Elastic Constant Matrix: (Units=GPa)
#
#
# Indices 1 2 3 4 5 6 
#
# 1 44.9474 16.8085 17.6803 0.0000 0.0000 0.0000
# 2 16.8085 124.6598 36.2318 0.0000 0.0000 0.0000
# 3 17.6803 36.2318 92.8800 0.0000 0.0000 0.0000
# 4 0.0000 0.0000 0.0000 36.2218 0.0000 0.0000
# 5 0.0000 0.0000 0.0000 0.0000 34.9695 0.0000
# 6 0.0000 0.0000 0.0000 0.0000 0.0000 27.4887
#
#
#
# Elastic Compliance Matrix: (Units=1/GPa)
#
#
# Indices 1 2 3 4 5 6 
#
# 1 0.024574 -0.002204 -0.003818 0.000000 0.000000 0.000000
# 2 -0.002204 0.009245 -0.003187 0.000000 0.000000 0.000000
# 3 -0.003818 -0.003187 0.012737 0.000000 0.000000 0.000000
# 4 0.000000 0.000000 0.000000 0.027608 0.000000 0.000000
# 5 0.000000 0.000000 0.000000 0.000000 0.028596 0.000000
# 6 0.000000 0.000000 0.000000 0.000000 0.000000 0.036379
#
#
# Mechanical properties :
#
#
# Convention : Reuss Voigt Hill
#
# Bulk Modulus (GPa) = 35.53882 44.88095 40.20988
# Shear Modulus (GPa) = 29.95159 32.52044 31.23601
#
# Velocity S-wave (km/s) = 3.74441 3.90168 3.82386
# Velocity P-wave (km/s) = 5.94393 6.42703 6.19019
#
# Compressibility (1/GPa) = 0.02813825
#
# Stress axis : x y z
#
# Youngs Moduli (GPa) = 40.69298 108.16342 78.51372
#
# Poissons Ratio (x) = 0.23836 0.29978
# Poissons Ratio (y) = 0.08968 0.25022
# Poissons Ratio (z) = 0.15537 0.34472
#
# Static dielectric constant tensor:
#      x y z
#    x 3.754760 0.000000 0.000000 
#    y 0.000000 3.906820 0.000000 
#    z 0.000000 0.000000 3.992810 
# 
# 
# High freq. dielectric constant tensor:
#      x y z
#    x 1.820750 0.000000 0.000000 
#    y 0.000000 1.845260 0.000000 
#    z 0.000000 0.000000 1.839140 
# 
# From -- ./inp_files/5178.got.cif
#   From: 2010.03.12/outbox.cif.g09.slc.cpg/sg60_3_cif.got.tgz:5178.got - 2010.04.10 18:46:24.
