data_PCOD8247346
_publ_section_title
;
Structure prediction by ZEFSAII (Michael W. Deem and Ramdas Pophale) SiO2 
 PCOD8247346
Probable space group: P B C N
;
_chemical_formula_sum "Si O2"
_cell_formula_units_Z 56
_cell_length_a 13.435625
_cell_length_b 17.711917
_cell_length_c 11.570863
_cell_angle_alpha 90.000000
_cell_angle_beta 90.000000
_cell_angle_gamma 90.000000
_cell_volume 2753.526077
_symmetry_space_group_name_H-M "P B C N"
_symmetry_group_IT_number 60
_symmetry_cell_setting 'orthorhombic'
loop_
_space_group_symop_operation_xyz
x,y,z
1/2-x,1/2-y,1/2+z
1/2+x,1/2-y,-z
-x,y,1/2-z
-x,-y,-z
1/2+x,1/2+y,1/2-z
1/2-x,1/2+y,z
x,-y,1/2+z
loop_
_atom_site_type_symbol
_atom_site_label
_atom_site_fract_x
_atom_site_fract_y
_atom_site_fract_z
Si Si1 0.181595 0.348640 0.408866
Si Si2 0.500000 0.324639 0.250000
Si Si3 0.141697 0.314170 0.158888
Si Si4 0.073336 0.088460 0.422730
Si Si5 0.113869 0.077544 0.935621
Si Si6 0.000000 0.803152 0.750000
Si Si7 0.999222 0.547651 0.880918
Si Si8 0.348501 0.284706 0.071004
O O1 0.199449 0.316402 0.281239
O O2 0.281269 0.383313 0.465513
O O3 0.104695 0.414502 0.390992
O O4 0.129458 0.284389 0.485981
O O5 0.437604 0.377689 0.333475
O O6 0.419060 0.271808 0.183366
O O7 0.055539 0.250767 0.158137
O O8 0.229016 0.286068 0.076787
O O9 0.092649 0.392994 0.118026
O O10 0.080486 0.143440 0.312568
O O11 0.124808 0.131341 0.528269
O O12 0.955682 0.075952 0.450493
O O13 0.129146 0.009805 0.396776
O O14 0.000000 0.507881 0.750000
O O15 0.000000 0.500000 0.000000
#
# Coordination Sequence:
#
# PCOD8247346 Si02
#       8
#     8   4   8   8   8   4   8   8
#     4  11  21  41  63  89 128 168 212 267 329 387
#     4  10  21  38  62  89 134 160 206 270 329 386
#     4  11  21  39  63  89 125 170 211 268 322 387
#     4  10  22  36  62  90 122 163 210 259 326 392
#     4  10  21  39  59  93 127 161 203 272 321 386
#     4  12  19  42  62  87 120 168 216 260 321 404
#     4  10  23  45  67  92 129 175 220 274 332 394
#     4  11  22  39  62  93 122 167 212 262 328 397
#
# _framework density 20.33756
#
# number of rings (size 3 to 8) (size 9 to 14) (size 15 to 20)
#    0.000    1.429    5.000    1.286    2.000    1.143 
#    1.286    2.857    0.000    0.000    0.000    0.000 
#    0.000    0.000    0.000    0.000    0.000    0.000 
#
# Total GULP energy -693791.707079 kJ/mol
# GULP energy per Si atom -12389.137626 kJ/mol
# Density = 2.029127 g / cm^3
# Si number density = 20.337560 Si / 1000 Ang^3
#
#
#
# Elastic Constant Matrix: (Units=GPa)
#
#
# Indices 1 2 3 4 5 6 
#
# 1 97.3188 29.3497 19.1004 0.0000 0.0000 0.0000
# 2 29.3497 102.2470 41.9824 0.0000 0.0000 0.0000
# 3 19.1004 41.9824 92.7616 0.0000 0.0000 0.0000
# 4 0.0000 0.0000 0.0000 31.4510 0.0000 0.0000
# 5 0.0000 0.0000 0.0000 0.0000 25.0438 0.0000
# 6 0.0000 0.0000 0.0000 0.0000 0.0000 20.0694
#
#
#
# Elastic Compliance Matrix: (Units=1/GPa)
#
#
# Indices 1 2 3 4 5 6 
#
# 1 0.011333 -0.002819 -0.001058 0.000000 0.000000 0.000000
# 2 -0.002819 0.012714 -0.005174 0.000000 0.000000 0.000000
# 3 -0.001058 -0.005174 0.013340 0.000000 0.000000 0.000000
# 4 0.000000 0.000000 0.000000 0.031796 0.000000 0.000000
# 5 0.000000 0.000000 0.000000 0.000000 0.039930 0.000000
# 6 0.000000 0.000000 0.000000 0.000000 0.000000 0.049827
#
#
# Mechanical properties :
#
#
# Convention : Reuss Voigt Hill
#
# Bulk Modulus (GPa) = 51.85108 52.57694 52.21401
# Shear Modulus (GPa) = 27.25267 28.77250 28.01258
#
# Velocity S-wave (km/s) = 3.66459 3.76539 3.71534
# Velocity P-wave (km/s) = 6.59214 6.69421 6.64337
#
# Compressibility (1/GPa) = 0.01928600
#
# Stress axis : x y z
#
# Youngs Moduli (GPa) = 88.23607 78.65579 74.96470
#
# Poissons Ratio (x) = 0.22172 0.07930
# Poissons Ratio (y) = 0.24872 0.38783
# Poissons Ratio (z) = 0.09334 0.40693
#
# Static dielectric constant tensor:
#      x y z
#    x 4.169620 0.000000 0.000000 
#    y 0.000000 3.719120 0.000000 
#    z 0.000000 0.000000 5.213660 
# 
# 
# High freq. dielectric constant tensor:
#      x y z
#    x 1.796570 0.000000 0.000000 
#    y 0.000000 1.785010 0.000000 
#    z 0.000000 0.000000 1.790110 
# 
# From -- ./inp_files/12022.got.cif
#   From: 2010.03.12/outbox.cif.g09.slc.cpg/sg60_7_cif.got.tgz:12022.got - 2010.04.10 18:46:24.
