data_PCOD8247560
_publ_section_title
;
Structure prediction by ZEFSAII (Michael W. Deem and Ramdas Pophale) SiO2 
 PCOD8247560
Probable space group: P B C N
;
_chemical_formula_sum "Si O2"
_cell_formula_units_Z 44
_cell_length_a 14.895657
_cell_length_b 8.869847
_cell_length_c 12.463587
_cell_angle_alpha 90.000000
_cell_angle_beta 90.000000
_cell_angle_gamma 90.000000
_cell_volume 1646.716516
_symmetry_space_group_name_H-M "P B C N"
_symmetry_group_IT_number 60
_symmetry_cell_setting 'orthorhombic'
loop_
_space_group_symop_operation_xyz
x,y,z
1/2-x,1/2-y,1/2+z
1/2+x,1/2-y,-z
-x,y,1/2-z
-x,-y,-z
1/2+x,1/2+y,1/2-z
1/2-x,1/2+y,z
x,-y,1/2+z
loop_
_atom_site_type_symbol
_atom_site_label
_atom_site_fract_x
_atom_site_fract_y
_atom_site_fract_z
Si Si1 0.154654 0.069309 0.207847
Si Si2 0.000000 0.476224 0.750000
Si Si3 0.979883 0.726516 0.907517
Si Si4 0.647184 0.597770 0.040217
Si Si5 0.167192 0.731930 0.216571
Si Si6 0.180219 0.234641 0.966071
O O1 0.066890 0.168013 0.182525
O O2 0.162908 0.061974 0.335503
O O3 0.245158 0.152840 0.164941
O O4 0.146718 0.895804 0.161182
O O5 0.972514 0.584065 0.650080
O O6 0.082171 0.377083 0.707823
O O7 0.052216 0.820059 0.977191
O O8 0.903126 0.665045 0.990274
O O9 0.655191 0.432190 0.983459
O O10 0.724201 0.706113 0.991756
O O11 0.185272 0.768182 0.339728
#
# Coordination Sequence:
#
# PCOD8247560 Si02
#       6
#     8   4   8   8   8   8
#     4  10  21  42  71  94 133 178 224 280 332 402
#     4  12  26  40  70 104 132 176 232 280 332 406
#     4  12  24  44  71 102 135 179 230 283 340 405
#     4  10  22  44  67  94 137 174 223 276 344 399
#     4  10  24  43  66  99 138 179 226 279 342 403
#     4  10  25  43  67  96 136 179 219 280 348 400
#
# _framework density 26.719839
#
# number of rings (size 3 to 8) (size 9 to 14) (size 15 to 20)
#    0.000    1.455    1.818    1.636   12.727    3.636 
#    3.273    0.000    0.000    0.000    0.000    0.000 
#    0.000    0.000    0.000    0.000    0.000    0.000 
#
# Total GULP energy -545762.842287 kJ/mol
# GULP energy per Si atom -12403.700961 kJ/mol
# Density = 2.665902 g / cm^3
# Si number density = 26.719839 Si / 1000 Ang^3
#
#
#
# Elastic Constant Matrix: (Units=GPa)
#
#
# Indices 1 2 3 4 5 6 
#
# 1 181.7134 63.0393 18.1332 0.0000 0.0000 0.0000
# 2 63.0393 163.0112 42.4697 0.0000 0.0000 0.0000
# 3 18.1332 42.4697 38.4416 0.0000 0.0000 0.0000
# 4 0.0000 0.0000 0.0000 46.3822 0.0000 0.0000
# 5 0.0000 0.0000 0.0000 0.0000 44.0752 0.0000
# 6 0.0000 0.0000 0.0000 0.0000 0.0000 35.5707
#
#
#
# Elastic Compliance Matrix: (Units=1/GPa)
#
#
# Indices 1 2 3 4 5 6 
#
# 1 0.006360 -0.002356 -0.000397 0.000000 0.000000 0.000000
# 2 -0.002356 0.009487 -0.009369 0.000000 0.000000 0.000000
# 3 -0.000397 -0.009369 0.036552 0.000000 0.000000 0.000000
# 4 0.000000 0.000000 0.000000 0.021560 0.000000 0.000000
# 5 0.000000 0.000000 0.000000 0.000000 0.022688 0.000000
# 6 0.000000 0.000000 0.000000 0.000000 0.000000 0.028113
#
#
# Mechanical properties :
#
#
# Convention : Reuss Voigt Hill
#
# Bulk Modulus (GPa) = 35.51945 70.05008 52.78477
# Shear Modulus (GPa) = 31.56759 42.50721 37.03740
#
# Velocity S-wave (km/s) = 3.44092 3.99287 3.72713
# Velocity P-wave (km/s) = 5.39525 6.89426 6.19029
#
# Compressibility (1/GPa) = 0.02815359
#
# Stress axis : x y z
#
# Youngs Moduli (GPa) = 157.22826 105.41026 27.35829
#
# Poissons Ratio (x) = 0.24836 0.01086
# Poissons Ratio (y) = 0.37045 0.25633
# Poissons Ratio (z) = 0.06244 0.98763
#
# Static dielectric constant tensor:
#      x y z
#    x 4.645720 0.000000 0.000000 
#    y 0.000000 5.127040 0.000000 
#    z 0.000000 0.000000 4.992600 
# 
# 
# High freq. dielectric constant tensor:
#      x y z
#    x 2.065340 0.000000 0.000000 
#    y 0.000000 2.076690 0.000000 
#    z 0.000000 0.000000 2.127870 
# 
# From -- ./inp_files/20432.got.cif
#   From: 2010.03.12/outbox.cif.g09.slc.cpg/sg60_11_cif.got.tgz:20432.got - 2010.04.10 18:46:24.
