data_PCOD8247507
_publ_section_title
;
Structure prediction by ZEFSAII (Michael W. Deem and Ramdas Pophale) SiO2 
 PCOD8247507
Probable space group: P B C N
;
_chemical_formula_sum "Si O2"
_cell_formula_units_Z 40
_cell_length_a 11.998181
_cell_length_b 27.575451
_cell_length_c 4.909273
_cell_angle_alpha 90.000000
_cell_angle_beta 90.000000
_cell_angle_gamma 90.000000
_cell_volume 1624.258757
_symmetry_space_group_name_H-M "P B C N"
_symmetry_group_IT_number 60
_symmetry_cell_setting 'orthorhombic'
loop_
_space_group_symop_operation_xyz
x,y,z
1/2-x,1/2-y,1/2+z
1/2+x,1/2-y,-z
-x,y,1/2-z
-x,-y,-z
1/2+x,1/2+y,1/2-z
1/2-x,1/2+y,z
x,-y,1/2+z
loop_
_atom_site_type_symbol
_atom_site_label
_atom_site_fract_x
_atom_site_fract_y
_atom_site_fract_z
Si Si1 0.500000 0.326622 0.250000
Si Si2 0.500000 0.392406 0.750000
Si Si3 0.692363 0.747445 0.809994
Si Si4 0.176350 0.969253 0.948701
Si Si5 0.922801 0.565991 0.990295
Si Si6 0.574217 0.826183 0.487147
O O1 0.457948 0.359325 0.500671
O O2 0.402567 0.291847 0.146689
O O3 0.605874 0.422703 0.642116
O O4 0.787808 0.725725 0.602977
O O5 0.672269 0.790264 0.579127
O O6 0.309341 0.961923 0.940272
O O7 0.143482 0.014175 0.751897
O O8 0.000000 0.566577 0.250000
O O9 0.884391 0.620233 0.897933
O O10 0.000000 0.542208 0.750000
O O11 0.500000 0.802042 0.250000
O O12 0.500000 0.831987 0.750000
#
# Coordination Sequence:
#
# PCOD8247507 Si02
#       6
#     4   4   8   8   8   8
#     4  12  28  47  72 110 146 190 236 303 342 414
#     4  12  28  51  72 104 146 188 254 295 360 432
#     4  12  26  42  69 103 141 190 235 286 346 414
#     4  12  26  47  76 101 137 186 240 307 370 436
#     4  10  23  41  67 105 140 181 228 292 367 438
#     4  10  21  41  63  91 140 183 220 275 340 421
#
# _framework density 24.626619000000002
#
# number of rings (size 3 to 8) (size 9 to 14) (size 15 to 20)
#    0.000    0.800    1.000    5.400    7.000    2.400 
#    0.000    0.000    0.000    0.000    0.000    0.000 
#    0.000    0.000    0.000    0.000    0.000    0.000 
#
# Total GULP energy -495759.410876 kJ/mol
# GULP energy per Si atom -12393.985272 kJ/mol
# Density = 2.457057 g / cm^3
# Si number density = 24.626619 Si / 1000 Ang^3
#
#
#
# Elastic Constant Matrix: (Units=GPa)
#
#
# Indices 1 2 3 4 5 6 
#
# 1 100.4043 24.0069 19.6401 0.0000 0.0000 0.0000
# 2 24.0069 70.1446 9.8630 0.0000 0.0000 0.0000
# 3 19.6401 9.8630 117.4131 0.0000 0.0000 0.0000
# 4 0.0000 0.0000 0.0000 51.4602 0.0000 0.0000
# 5 0.0000 0.0000 0.0000 0.0000 38.5531 0.0000
# 6 0.0000 0.0000 0.0000 0.0000 0.0000 -2.8592
#
#
#
# Elastic Compliance Matrix: (Units=1/GPa)
#
#
# Indices 1 2 3 4 5 6 
#
# 1 0.011122 -0.003587 -0.001559 0.000000 0.000000 0.000000
# 2 -0.003587 0.015584 -0.000709 0.000000 0.000000 0.000000
# 3 -0.001559 -0.000709 0.008837 0.000000 0.000000 0.000000
# 4 0.000000 0.000000 0.000000 0.019432 0.000000 0.000000
# 5 0.000000 0.000000 0.000000 0.000000 0.025938 0.000000
# 6 0.000000 0.000000 0.000000 0.000000 0.000000 -0.349747
#
#
# Mechanical properties :
#
#
# Convention : Reuss Voigt Hill
#
# Bulk Modulus (GPa) = 41.95968 43.88688 42.92328
# Shear Modulus (GPa) = -20.06603 33.06095 6.49746
#
# Velocity S-wave (km/s) = -2.85759 3.66797 1.62607
# Velocity P-wave (km/s) = 2.48749 5.98317 4.58181
#
# Compressibility (1/GPa) = 0.02383240
#
# Stress axis : x y z
#
# Youngs Moduli (GPa) = 89.90800 64.16941 113.15676
#
# Poissons Ratio (x) = 0.23020 0.17643
# Poissons Ratio (y) = 0.32254 0.08023
# Poissons Ratio (z) = 0.14018 0.04550
#
# Static dielectric constant tensor:
#      x y z
#    x 4.486770 0.000000 0.000000 
#    y 0.000000 5.066580 0.000000 
#    z 0.000000 0.000000 4.999720 
# 
# 
# High freq. dielectric constant tensor:
#      x y z
#    x 1.976910 0.000000 0.000000 
#    y 0.000000 1.979980 0.000000 
#    z 0.000000 0.000000 2.012450 
# 
# From -- ./inp_files/873.got.cif
#   From: 2010.03.12/outbox.cif.g09.slc.cpg/sg60_1_cif.got.tgz:873.got - 2010.04.10 18:46:24.
