data_PCOD8247677
_publ_section_title
;
Structure prediction by ZEFSAII (Michael W. Deem and Ramdas Pophale) SiO2 
 PCOD8247677
Probable space group: P B C N
;
_chemical_formula_sum "Si O2"
_cell_formula_units_Z 60
_cell_length_a 28.466073
_cell_length_b 8.640404
_cell_length_c 12.119908
_cell_angle_alpha 90.000000
_cell_angle_beta 90.000000
_cell_angle_gamma 90.000000
_cell_volume 2980.992829
_symmetry_space_group_name_H-M "P B C N"
_symmetry_group_IT_number 60
_symmetry_cell_setting 'orthorhombic'
loop_
_space_group_symop_operation_xyz
x,y,z
1/2-x,1/2-y,1/2+z
1/2+x,1/2-y,-z
-x,y,1/2-z
-x,-y,-z
1/2+x,1/2+y,1/2-z
1/2-x,1/2+y,z
x,-y,1/2+z
loop_
_atom_site_type_symbol
_atom_site_label
_atom_site_fract_x
_atom_site_fract_y
_atom_site_fract_z
Si Si1 0.923769 0.203228 0.633166
Si Si2 0.893419 0.503117 0.748415
Si Si3 0.575113 0.701497 0.369549
Si Si4 0.000000 0.000868 0.250000
Si Si5 0.818591 0.685262 0.621475
Si Si6 0.806024 0.577287 0.383657
Si Si7 0.150494 0.018256 0.263247
Si Si8 0.242699 0.852233 0.206051
O O1 0.925573 0.370732 0.693000
O O2 0.924250 0.223415 0.501243
O O3 0.968602 0.105863 0.671395
O O4 0.876932 0.115448 0.671654
O O5 0.925613 0.631174 0.809279
O O6 0.862442 0.576456 0.651213
O O7 0.858892 0.431301 0.839748
O O8 0.529014 0.608986 0.332942
O O9 0.620396 0.604125 0.331032
O O10 0.808121 0.672142 0.494413
O O11 0.832061 0.861189 0.645603
O O12 0.771187 0.629063 0.680626
O O13 0.770593 0.673139 0.305301
O O14 0.779919 0.409896 0.389166
O O15 0.194803 0.948038 0.201051
#
# Coordination Sequence:
#
# PCOD8247677 Si02
#       8
#     8   8   8   4   8   8   8   8
#     4  11  22  41  71  92 122 161 201 252 315 372
#     4  10  22  42  60  93 124 155 213 246 296 377
#     4  10  23  43  66  91 127 161 192 256 319 364
#     4  10  24  44  66 102 126 146 204 248 304 400
#     4  10  23  38  55  83 125 167 202 256 308 345
#     4  11  23  36  58  82 124 166 206 253 305 343
#     4  10  22  39  58  88 121 158 213 259 293 373
#     4  11  22  38  51  86 122 155 216 256 289 359
#
# _framework density 20.127523
#
# number of rings (size 3 to 8) (size 9 to 14) (size 15 to 20)
#    0.000    1.600    2.667    1.200    3.733    0.533 
#    0.000    5.333    0.000    0.000    0.000    0.000 
#    0.000    0.000    0.000    0.000    0.000    0.000 
#
# Total GULP energy -743919.534200 kJ/mol
# GULP energy per Si atom -12398.658903 kJ/mol
# Density = 2.008171 g / cm^3
# Si number density = 20.127523 Si / 1000 Ang^3
#
#
#
# Elastic Constant Matrix: (Units=GPa)
#
#
# Indices 1 2 3 4 5 6 
#
# 1 101.7791 47.7597 42.5126 0.0000 0.0000 0.0000
# 2 47.7597 118.7788 47.6824 0.0000 0.0000 0.0000
# 3 42.5126 47.6824 105.7343 0.0000 0.0000 0.0000
# 4 0.0000 0.0000 0.0000 21.2745 0.0000 0.0000
# 5 0.0000 0.0000 0.0000 0.0000 16.7022 0.0000
# 6 0.0000 0.0000 0.0000 0.0000 0.0000 38.0031
#
#
#
# Elastic Compliance Matrix: (Units=1/GPa)
#
#
# Indices 1 2 3 4 5 6 
#
# 1 0.013109 -0.003853 -0.003533 0.000000 0.000000 0.000000
# 2 -0.003853 0.011412 -0.003598 0.000000 0.000000 0.000000
# 3 -0.003533 -0.003598 0.012501 0.000000 0.000000 0.000000
# 4 0.000000 0.000000 0.000000 0.047005 0.000000 0.000000
# 5 0.000000 0.000000 0.000000 0.000000 0.059873 0.000000
# 6 0.000000 0.000000 0.000000 0.000000 0.000000 0.026314
#
#
# Mechanical properties :
#
#
# Convention : Reuss Voigt Hill
#
# Bulk Modulus (GPa) = 66.42306 66.91129 66.66717
# Shear Modulus (GPa) = 25.35528 27.75179 26.55353
#
# Velocity S-wave (km/s) = 3.55312 3.71725 3.63611
# Velocity P-wave (km/s) = 7.06439 7.19303 7.12900
#
# Compressibility (1/GPa) = 0.01505501
#
# Stress axis : x y z
#
# Youngs Moduli (GPa) = 76.28447 87.62510 79.99571
#
# Poissons Ratio (x) = 0.33758 0.28265
# Poissons Ratio (y) = 0.29389 0.28779
# Poissons Ratio (z) = 0.26954 0.31523
#
# Static dielectric constant tensor:
#      x y z
#    x 3.652020 0.000000 0.000000 
#    y 0.000000 3.950110 0.000000 
#    z 0.000000 0.000000 3.394090 
# 
# 
# High freq. dielectric constant tensor:
#      x y z
#    x 1.785970 0.000000 0.000000 
#    y 0.000000 1.803380 0.000000 
#    z 0.000000 0.000000 1.773070 
# 
# From -- ./inp_files/13303.got.cif
#   From: 2010.03.12/outbox.cif.g09.slc.cpg/sg60_7_cif.got.tgz:13303.got - 2010.04.10 18:46:24.
