data_PCOD8247365
_publ_section_title
;
Structure prediction by ZEFSAII (Michael W. Deem and Ramdas Pophale) SiO2 
 PCOD8247365
Probable space group: P B C N
;
_chemical_formula_sum "Si O2"
_cell_formula_units_Z 48
_cell_length_a 14.560811
_cell_length_b 9.789887
_cell_length_c 16.273383
_cell_angle_alpha 90.000000
_cell_angle_beta 90.000000
_cell_angle_gamma 90.000000
_cell_volume 2319.749499
_symmetry_space_group_name_H-M "P B C N"
_symmetry_group_IT_number 60
_symmetry_cell_setting 'orthorhombic'
loop_
_space_group_symop_operation_xyz
x,y,z
1/2-x,1/2-y,1/2+z
1/2+x,1/2-y,-z
-x,y,1/2-z
-x,-y,-z
1/2+x,1/2+y,1/2-z
1/2-x,1/2+y,z
x,-y,1/2+z
loop_
_atom_site_type_symbol
_atom_site_label
_atom_site_fract_x
_atom_site_fract_y
_atom_site_fract_z
Si Si1 0.102491 0.959055 0.222969
Si Si2 0.939906 0.211985 0.481639
Si Si3 0.409780 0.773349 0.199824
Si Si4 0.622481 0.596314 0.958297
Si Si5 0.771169 0.618116 0.680423
Si Si6 0.785457 0.641797 0.074529
O O1 0.124966 0.878709 0.139225
O O2 0.165920 0.907727 0.296272
O O3 0.000000 0.926120 0.250000
O O4 0.120902 0.118356 0.212223
O O5 0.928288 0.295863 0.396708
O O6 0.883379 0.293345 0.550741
O O7 0.047887 0.201441 0.503444
O O8 0.901747 0.059265 0.478239
O O9 0.500000 0.809514 0.250000
O O10 0.331391 0.873176 0.236102
O O11 0.723732 0.623343 0.993226
O O12 0.774591 0.761881 0.633754
O O13 0.807300 0.499612 0.620373
#
# Coordination Sequence:
#
# PCOD8247365 Si02
#       6
#     8   8   8   8   8   8
#     4  10  21  38  65  94 123 165 216 259 311 385
#     4  10  21  39  66  94 126 168 217 261 317 387
#     4  10  21  40  64  90 127 167 207 260 327 376
#     4  10  21  39  66  93 127 168 217 262 317 389
#     4  12  23  40  63  94 129 166 212 261 317 382
#     4  12  23  40  63  94 128 165 213 260 319 379
#
# _framework density 20.691887999999999
#
# number of rings (size 3 to 8) (size 9 to 14) (size 15 to 20)
#    0.000    1.333    3.333    3.000    4.667    0.000 
#    0.000    5.833    0.000    0.000    0.000    0.000 
#    0.000    0.000    0.000    0.000    0.000    0.000 
#
# Total GULP energy -595338.373908 kJ/mol
# GULP energy per Si atom -12402.882790 kJ/mol
# Density = 2.064479 g / cm^3
# Si number density = 20.691888 Si / 1000 Ang^3
#
#
#
# Elastic Constant Matrix: (Units=GPa)
#
#
# Indices 1 2 3 4 5 6 
#
# 1 94.7931 25.3910 37.1075 0.0000 0.0000 0.0000
# 2 25.3910 46.0177 19.6075 0.0000 0.0000 0.0000
# 3 37.1075 19.6075 106.2562 0.0000 0.0000 0.0000
# 4 0.0000 0.0000 0.0000 31.5033 0.0000 0.0000
# 5 0.0000 0.0000 0.0000 0.0000 39.3526 0.0000
# 6 0.0000 0.0000 0.0000 0.0000 0.0000 25.1528
#
#
#
# Elastic Compliance Matrix: (Units=1/GPa)
#
#
# Indices 1 2 3 4 5 6 
#
# 1 0.013564 -0.005932 -0.003642 0.000000 0.000000 0.000000
# 2 -0.005932 0.026180 -0.002759 0.000000 0.000000 0.000000
# 3 -0.003642 -0.002759 0.011192 0.000000 0.000000 0.000000
# 4 0.000000 0.000000 0.000000 0.031743 0.000000 0.000000
# 5 0.000000 0.000000 0.000000 0.000000 0.025411 0.000000
# 6 0.000000 0.000000 0.000000 0.000000 0.000000 0.039757
#
#
# Mechanical properties :
#
#
# Convention : Reuss Voigt Hill
#
# Bulk Modulus (GPa) = 38.06832 45.69768 41.88300
# Shear Modulus (GPa) = 27.58304 30.19915 28.89109
#
# Velocity S-wave (km/s) = 3.65504 3.82444 3.74070
# Velocity P-wave (km/s) = 6.02080 6.45249 6.24038
#
# Compressibility (1/GPa) = 0.02626856
#
# Stress axis : x y z
#
# Youngs Moduli (GPa) = 73.72414 38.19756 89.34677
#
# Poissons Ratio (x) = 0.22660 0.32542
# Poissons Ratio (y) = 0.43735 0.24653
# Poissons Ratio (z) = 0.26852 0.10540
#
# Static dielectric constant tensor:
#      x y z
#    x 3.614460 0.000000 0.000000 
#    y 0.000000 3.497050 0.000000 
#    z 0.000000 0.000000 3.907470 
# 
# 
# High freq. dielectric constant tensor:
#      x y z
#    x 1.810670 0.000000 0.000000 
#    y 0.000000 1.783870 0.000000 
#    z 0.000000 0.000000 1.824350 
# 
# From -- ./inp_files/19993.got.cif
#   From: 2010.03.12/outbox.cif.g09.slc.cpg/sg60_10_cif.got.tgz:19993.got - 2010.04.10 18:46:24.
