data_PCOD8247028
_publ_section_title
;
Structure prediction by ZEFSAII (Michael W. Deem and Ramdas Pophale) SiO2 
 PCOD8247028
Probable space group: P B C N
;
_chemical_formula_sum "Si O2"
_cell_formula_units_Z 44
_cell_length_a 14.587396
_cell_length_b 5.261406
_cell_length_c 21.953455
_cell_angle_alpha 90.000000
_cell_angle_beta 90.000000
_cell_angle_gamma 90.000000
_cell_volume 1684.932344
_symmetry_space_group_name_H-M "P B C N"
_symmetry_group_IT_number 60
_symmetry_cell_setting 'orthorhombic'
loop_
_space_group_symop_operation_xyz
x,y,z
1/2-x,1/2-y,1/2+z
1/2+x,1/2-y,-z
-x,y,1/2-z
-x,-y,-z
1/2+x,1/2+y,1/2-z
1/2-x,1/2+y,z
x,-y,1/2+z
loop_
_atom_site_type_symbol
_atom_site_label
_atom_site_fract_x
_atom_site_fract_y
_atom_site_fract_z
Si Si1 0.000000 0.322386 0.750000
Si Si2 0.310694 0.335463 0.200815
Si Si3 0.701675 0.468971 0.012033
Si Si4 0.726896 0.959452 0.141052
Si Si5 0.427141 0.592700 0.585906
Si Si6 0.476809 0.077924 0.876984
O O1 0.093745 0.156827 0.741049
O O2 0.008571 0.509463 0.806849
O O3 0.243379 0.571802 0.214583
O O4 0.340036 0.356960 0.129905
O O5 0.733601 0.195863 0.987328
O O6 0.602066 0.521578 0.982995
O O7 0.698861 0.474047 0.085734
O O8 0.741397 0.215604 0.181425
O O9 0.630599 0.922945 0.108900
O O10 0.485252 0.358711 0.612495
O O11 0.482775 0.855935 0.580512
#
# Coordination Sequence:
#
# PCOD8247028 Si02
#       6
#     4   8   8   8   8   8
#     4  10  26  44  66 102 138 172 232 286 324 408
#     4  11  23  40  66  97 130 176 220 270 339 391
#     4  10  20  38  62  89 123 164 208 265 322 389
#     4  10  22  42  63  91 128 169 218 268 333 411
#     4  11  22  40  65  95 129 167 221 279 328 401
#     4  11  24  42  65  93 132 174 217 279 340 388
#
# _framework density 26.113807000000001
#
# number of rings (size 3 to 8) (size 9 to 14) (size 15 to 20)
#    0.000    1.455    0.000    5.455    0.000    8.000 
#    0.000   21.818    0.000    0.000    0.000    0.000 
#    0.000    0.000    0.000    0.000    0.000    0.000 
#
# Total GULP energy -545222.107561 kJ/mol
# GULP energy per Si atom -12391.411535 kJ/mol
# Density = 2.605437 g / cm^3
# Si number density = 26.113807 Si / 1000 Ang^3
#
#
#
# Elastic Constant Matrix: (Units=GPa)
#
#
# Indices 1 2 3 4 5 6 
#
# 1 110.2310 74.6364 -4.1977 0.0000 0.0000 0.0000
# 2 74.6364 212.8616 -1.2565 0.0000 0.0000 0.0000
# 3 -4.1977 -1.2565 26.7293 0.0000 0.0000 0.0000
# 4 0.0000 0.0000 0.0000 31.1626 0.0000 0.0000
# 5 0.0000 0.0000 0.0000 0.0000 31.6615 0.0000
# 6 0.0000 0.0000 0.0000 0.0000 0.0000 51.0050
#
#
#
# Elastic Compliance Matrix: (Units=1/GPa)
#
#
# Indices 1 2 3 4 5 6 
#
# 1 0.011971 -0.004188 0.001683 0.000000 0.000000 0.000000
# 2 -0.004188 0.006164 -0.000368 0.000000 0.000000 0.000000
# 3 0.001683 -0.000368 0.037659 0.000000 0.000000 0.000000
# 4 0.000000 0.000000 0.000000 0.032090 0.000000 0.000000
# 5 0.000000 0.000000 0.000000 0.000000 0.031584 0.000000
# 6 0.000000 0.000000 0.000000 0.000000 0.000000 0.019606
#
#
# Mechanical properties :
#
#
# Convention : Reuss Voigt Hill
#
# Bulk Modulus (GPa) = 19.98006 54.24295 37.11150
# Shear Modulus (GPa) = 30.95931 41.47514 36.21722
#
# Velocity S-wave (km/s) = 3.44692 3.98960 3.72815
# Velocity P-wave (km/s) = 4.84865 6.48378 5.72490
#
# Compressibility (1/GPa) = 0.05004991
#
# Stress axis : x y z
#
# Youngs Moduli (GPa) = 83.53270 162.23132 26.55395
#
# Poissons Ratio (x) = 0.67936 -0.04469
# Poissons Ratio (y) = 0.34980 0.00977
# Poissons Ratio (z) = -0.14060 0.05968
#
# Static dielectric constant tensor:
#      x y z
#    x 4.996440 0.000000 0.000000 
#    y 0.000000 5.542200 0.000000 
#    z 0.000000 0.000000 4.750760 
# 
# 
# High freq. dielectric constant tensor:
#      x y z
#    x 2.044760 0.000000 0.000000 
#    y 0.000000 2.072410 0.000000 
#    z 0.000000 0.000000 2.040090 
# 
# From -- ./inp_files/25398.got.cif
#   From: 2010.03.12/outbox.cif.g09.slc.cpg/sg60_13_cif.got.tgz:25398.got - 2010.04.10 18:46:24.
