data_PCOD8247955
_publ_section_title
;
Structure prediction by ZEFSAII (Michael W. Deem and Ramdas Pophale) SiO2 
 PCOD8247955
Probable space group: P B C N
;
_chemical_formula_sum "Si O2"
_cell_formula_units_Z 60
_cell_length_a 14.778312
_cell_length_b 12.986695
_cell_length_c 14.777717
_cell_angle_alpha 90.000000
_cell_angle_beta 90.000000
_cell_angle_gamma 90.000000
_cell_volume 2836.160587
_symmetry_space_group_name_H-M "P B C N"
_symmetry_group_IT_number 60
_symmetry_cell_setting 'orthorhombic'
loop_
_space_group_symop_operation_xyz
x,y,z
1/2-x,1/2-y,1/2+z
1/2+x,1/2-y,-z
-x,y,1/2-z
-x,-y,-z
1/2+x,1/2+y,1/2-z
1/2-x,1/2+y,z
x,-y,1/2+z
loop_
_atom_site_type_symbol
_atom_site_label
_atom_site_fract_x
_atom_site_fract_y
_atom_site_fract_z
Si Si1 0.000000 0.081864 0.250000
Si Si2 0.902848 0.271220 0.640229
Si Si3 0.676142 0.464177 0.301708
Si Si4 0.301030 0.060119 0.064662
Si Si5 0.454047 0.219586 0.839182
Si Si6 0.436486 0.906120 0.022130
Si Si7 0.261402 0.878337 0.368109
Si Si8 0.893129 0.252881 0.843137
O O1 0.965343 0.156105 0.167965
O O2 0.921613 0.004871 0.276841
O O3 0.893967 0.366344 0.571873
O O4 0.827859 0.188554 0.613304
O O5 0.887230 0.306192 0.743999
O O6 0.003930 0.224319 0.630948
O O7 0.714007 0.548335 0.371937
O O8 0.741305 0.456906 0.214058
O O9 0.666143 0.350944 0.346109
O O10 0.353783 0.165963 0.085167
O O11 0.277310 0.057619 0.958958
O O12 0.358443 0.956039 0.084474
O O13 0.500000 0.167564 0.750000
O O14 0.348414 0.191540 0.844479
O O15 0.509362 0.183247 0.926881
O O16 0.500000 0.000000 0.000000
#
# Coordination Sequence:
#
# PCOD8247955 Si02
#       8
#     4   8   8   8   8   8   8   8
#     4  10  26  48  74  98 140 196 232 292 368 414
#     4  10  23  41  73  88 142 177 228 286 345 408
#     4  11  26  47  72 101 143 180 243 289 357 419
#     4  12  27  41  72 106 136 183 239 286 357 425
#     4  10  24  43  68  98 144 181 226 294 350 414
#     4  12  23  43  62 103 138 181 228 283 354 420
#     4  11  24  44  68 104 138 184 233 289 348 419
#     4  10  23  47  66 101 137 187 225 292 349 419
#
# _framework density 21.155360999999999
#
# number of rings (size 3 to 8) (size 9 to 14) (size 15 to 20)
#    0.400    0.800    2.667    2.400    9.333    1.067 
#    2.400    1.333    0.000    0.000    0.000    0.000 
#    0.000    0.000    0.000    0.000    0.000    0.000 
#
# Total GULP energy -743881.074746 kJ/mol
# GULP energy per Si atom -12398.017912 kJ/mol
# Density = 2.110721 g / cm^3
# Si number density = 21.155361 Si / 1000 Ang^3
#
#
#
# Elastic Constant Matrix: (Units=GPa)
#
#
# Indices 1 2 3 4 5 6 
#
# 1 122.9089 39.5957 39.2915 0.0000 0.0000 0.0000
# 2 39.5957 90.1693 39.5195 0.0000 0.0000 0.0000
# 3 39.2915 39.5195 95.7609 0.0000 0.0000 0.0000
# 4 0.0000 0.0000 0.0000 35.6750 0.0000 0.0000
# 5 0.0000 0.0000 0.0000 0.0000 31.2416 0.0000
# 6 0.0000 0.0000 0.0000 0.0000 0.0000 35.8033
#
#
#
# Elastic Compliance Matrix: (Units=1/GPa)
#
#
# Indices 1 2 3 4 5 6 
#
# 1 0.010062 -0.003185 -0.002814 0.000000 0.000000 0.000000
# 2 -0.003185 0.014547 -0.004697 0.000000 0.000000 0.000000
# 3 -0.002814 -0.004697 0.013536 0.000000 0.000000 0.000000
# 4 0.000000 0.000000 0.000000 0.028031 0.000000 0.000000
# 5 0.000000 0.000000 0.000000 0.000000 0.032009 0.000000
# 6 0.000000 0.000000 0.000000 0.000000 0.000000 0.027930
#
#
# Mechanical properties :
#
#
# Convention : Reuss Voigt Hill
#
# Bulk Modulus (GPa) = 59.69005 60.62806 60.15905
# Shear Modulus (GPa) = 32.66046 33.23949 32.94997
#
# Velocity S-wave (km/s) = 3.93343 3.96815 3.95083
# Velocity P-wave (km/s) = 6.99325 7.05093 7.02215
#
# Compressibility (1/GPa) = 0.01675321
#
# Stress axis : x y z
#
# Youngs Moduli (GPa) = 99.38614 68.74104 73.87953
#
# Poissons Ratio (x) = 0.21894 0.20790
# Poissons Ratio (y) = 0.31655 0.34699
# Poissons Ratio (z) = 0.27967 0.32285
#
# Static dielectric constant tensor:
#      x y z
#    x 20.005010 0.000000 0.000000 
#    y 0.000000 4.194950 0.000000 
#    z 0.000000 0.000000 3.823960 
# 
# 
# High freq. dielectric constant tensor:
#      x y z
#    x 1.844930 0.000000 0.000000 
#    y 0.000000 1.815950 0.000000 
#    z 0.000000 0.000000 1.829810 
# 
# From -- ./inp_files/17017.got.cif
#   From: 2010.03.12/outbox.cif.g09.slc.cpg/sg60_9_cif.got.tgz:17017.got - 2010.04.10 18:46:24.
