data_PCOD8247797
_publ_section_title
;
Structure prediction by ZEFSAII (Michael W. Deem and Ramdas Pophale) SiO2 
 PCOD8247797
Probable space group: P B C N
;
_chemical_formula_sum "Si O2"
_cell_formula_units_Z 64
_cell_length_a 30.080845
_cell_length_b 12.695268
_cell_length_c 7.860069
_cell_angle_alpha 90.000000
_cell_angle_beta 90.000000
_cell_angle_gamma 90.000000
_cell_volume 3001.637647
_symmetry_space_group_name_H-M "P B C N"
_symmetry_group_IT_number 60
_symmetry_cell_setting 'orthorhombic'
loop_
_space_group_symop_operation_xyz
x,y,z
1/2-x,1/2-y,1/2+z
1/2+x,1/2-y,-z
-x,y,1/2-z
-x,-y,-z
1/2+x,1/2+y,1/2-z
1/2-x,1/2+y,z
x,-y,1/2+z
loop_
_atom_site_type_symbol
_atom_site_label
_atom_site_fract_x
_atom_site_fract_y
_atom_site_fract_z
Si Si1 0.680662 0.263189 0.415764
Si Si2 0.654083 0.617465 0.587958
Si Si3 0.598764 0.858335 0.922239
Si Si4 0.690301 0.413012 0.716853
Si Si5 0.996452 0.621547 0.551993
Si Si6 0.710939 0.065502 0.237001
Si Si7 0.849565 0.565418 0.936777
Si Si8 0.413987 0.213005 0.443775
O O1 0.682528 0.327640 0.238125
O O2 0.629913 0.239614 0.472045
O O3 0.700607 0.322364 0.578602
O O4 0.706933 0.153454 0.386038
O O5 0.653473 0.493670 0.639564
O O6 0.676080 0.631159 0.401026
O O7 0.603628 0.666585 0.581697
O O8 0.597572 0.861650 0.716737
O O9 0.618997 0.967018 0.992368
O O10 0.550294 0.832714 0.993144
O O11 0.738103 0.471285 0.727598
O O12 0.000000 0.628936 0.750000
O O13 0.000000 0.500000 0.500000
O O14 0.033628 0.700845 0.475948
O O15 0.680168 0.963419 0.274634
O O16 0.688154 0.108184 0.066730
O O17 0.884092 0.661594 0.903624
#
# Coordination Sequence:
#
# PCOD8247797 Si02
#       8
#     8   8   8   8   8   8   8   8
#     4  10  24  45  63  97 131 173 229 278 341 401
#     4  11  24  45  69  96 129 180 228 288 339 396
#     4  10  22  42  61  94 134 175 213 266 342 402
#     4  12  25  45  70  93 131 179 235 290 338 394
#     4  12  25  36  65  99 135 172 214 264 332 426
#     4  11  25  40  62  97 130 176 225 280 331 401
#     4  11  20  38  59  90 139 169 211 264 326 399
#     4  11  23  42  63  98 135 176 219 267 337 416
#
# _framework density 21.321694000000001
#
# number of rings (size 3 to 8) (size 9 to 14) (size 15 to 20)
#    0.000    1.000    6.250    1.875    5.250    1.000 
#    0.000    0.000    0.000    0.750    3.250    0.000 
#    0.000    0.000    0.000    0.000    0.000    0.000 
#
# Total GULP energy -792944.796528 kJ/mol
# GULP energy per Si atom -12389.762446 kJ/mol
# Density = 2.127317 g / cm^3
# Si number density = 21.321694 Si / 1000 Ang^3
#
#
#
# Elastic Constant Matrix: (Units=GPa)
#
#
# Indices 1 2 3 4 5 6 
#
# 1 141.2747 36.4398 24.3699 0.0000 0.0000 0.0000
# 2 36.4398 64.3811 20.1548 0.0000 0.0000 0.0000
# 3 24.3699 20.1548 91.0780 0.0000 0.0000 0.0000
# 4 0.0000 0.0000 0.0000 36.3820 0.0000 0.0000
# 5 0.0000 0.0000 0.0000 0.0000 29.0860 0.0000
# 6 0.0000 0.0000 0.0000 0.0000 0.0000 72.9239
#
#
#
# Elastic Compliance Matrix: (Units=1/GPa)
#
#
# Indices 1 2 3 4 5 6 
#
# 1 0.008427 -0.004366 -0.001289 0.000000 0.000000 0.000000
# 2 -0.004366 0.018951 -0.003025 0.000000 0.000000 0.000000
# 3 -0.001289 -0.003025 0.011994 0.000000 0.000000 0.000000
# 4 0.000000 0.000000 0.000000 0.027486 0.000000 0.000000
# 5 0.000000 0.000000 0.000000 0.000000 0.034381 0.000000
# 6 0.000000 0.000000 0.000000 0.000000 0.000000 0.013713
#
#
# Mechanical properties :
#
#
# Convention : Reuss Voigt Hill
#
# Bulk Modulus (GPa) = 45.43130 50.96255 48.19693
# Shear Modulus (GPa) = 35.80403 42.06301 38.93352
#
# Velocity S-wave (km/s) = 4.10229 4.44642 4.27781
# Velocity P-wave (km/s) = 6.61756 7.09327 6.85954
#
# Compressibility (1/GPa) = 0.02201125
#
# Stress axis : x y z
#
# Youngs Moduli (GPa) = 118.66763 52.76783 83.37581
#
# Poissons Ratio (x) = 0.23040 0.10744
# Poissons Ratio (y) = 0.51813 0.25225
# Poissons Ratio (z) = 0.15291 0.15964
#
# Static dielectric constant tensor:
#      x y z
#    x 3.727120 0.000000 0.000000 
#    y 0.000000 3.669720 0.000000 
#    z 0.000000 0.000000 3.943140 
# 
# 
# High freq. dielectric constant tensor:
#      x y z
#    x 1.828240 0.000000 0.000000 
#    y 0.000000 1.807020 0.000000 
#    z 0.000000 0.000000 1.846820 
# 
# From -- ./inp_files/8506.got.cif
#   From: 2010.03.12/outbox.cif.g09.slc.cpg/sg60_5_cif.got.tgz:8506.got - 2010.04.10 18:46:24.
