data_PCOD8247480
_publ_section_title
;
Structure prediction by ZEFSAII (Michael W. Deem and Ramdas Pophale) SiO2 
 PCOD8247480
Probable space group: P B C N
;
_chemical_formula_sum "Si O2"
_cell_formula_units_Z 48
_cell_length_a 13.367606
_cell_length_b 16.948253
_cell_length_c 9.188958
_cell_angle_alpha 90.000000
_cell_angle_beta 90.000000
_cell_angle_gamma 90.000000
_cell_volume 2081.827981
_symmetry_space_group_name_H-M "P B C N"
_symmetry_group_IT_number 60
_symmetry_cell_setting 'orthorhombic'
loop_
_space_group_symop_operation_xyz
x,y,z
1/2-x,1/2-y,1/2+z
1/2+x,1/2-y,-z
-x,y,1/2-z
-x,-y,-z
1/2+x,1/2+y,1/2-z
1/2-x,1/2+y,z
x,-y,1/2+z
loop_
_atom_site_type_symbol
_atom_site_label
_atom_site_fract_x
_atom_site_fract_y
_atom_site_fract_z
Si Si1 0.757713 0.409282 0.574354
Si Si2 0.247989 0.677530 0.698281
Si Si3 0.938671 0.183218 0.621110
Si Si4 0.976929 0.644170 0.091358
Si Si5 0.685809 0.653885 0.366197
Si Si6 0.156699 0.416455 0.436291
O O1 0.700517 0.371420 0.435215
O O2 0.859390 0.360020 0.568379
O O3 0.686179 0.395250 0.714858
O O4 0.789001 0.499477 0.555886
O O5 0.332025 0.707119 0.809676
O O6 0.180578 0.752495 0.656947
O O7 0.171399 0.616921 0.775139
O O8 0.002819 0.261992 0.581947
O O9 0.909825 0.133183 0.473682
O O10 0.000000 0.136350 0.750000
O O11 0.000000 0.608819 0.250000
O O12 0.038871 0.590055 0.976261
O O13 0.791358 0.637292 0.441974
#
# Coordination Sequence:
#
# PCOD8247480 Si02
#       6
#     8   8   8   8   8   8
#     4  12  22  39  62  95 133 174 216 272 332 403
#     4  11  22  40  63  90 128 177 228 269 326 407
#     4  10  21  40  65  93 125 171 225 280 327 383
#     4  11  20  37  61  92 141 172 205 257 331 412
#     4  11  20  41  63  86 125 179 224 265 326 399
#     4  11  24  38  62  95 134 175 214 267 342 406
#
# _framework density 23.056660000000001
#
# number of rings (size 3 to 8) (size 9 to 14) (size 15 to 20)
#    0.000    1.000    5.000    3.500    0.000    0.667 
#    0.000    2.500    0.000   16.000    0.000    0.000 
#    0.000    0.000    0.000    0.000    0.000    0.000 
#
# Total GULP energy -594697.720701 kJ/mol
# GULP energy per Si atom -12389.535848 kJ/mol
# Density = 2.300418 g / cm^3
# Si number density = 23.056660 Si / 1000 Ang^3
#
#
#
# Elastic Constant Matrix: (Units=GPa)
#
#
# Indices 1 2 3 4 5 6 
#
# 1 43.5350 22.1675 34.1261 0.0000 0.0000 0.0000
# 2 22.1675 97.6035 42.3225 0.0000 0.0000 0.0000
# 3 34.1261 42.3225 148.4010 0.0000 0.0000 0.0000
# 4 0.0000 0.0000 0.0000 31.7521 0.0000 0.0000
# 5 0.0000 0.0000 0.0000 0.0000 44.2515 0.0000
# 6 0.0000 0.0000 0.0000 0.0000 0.0000 25.4029
#
#
#
# Elastic Compliance Matrix: (Units=1/GPa)
#
#
# Indices 1 2 3 4 5 6 
#
# 1 0.029516 -0.004291 -0.005564 0.000000 0.000000 0.000000
# 2 -0.004291 0.012315 -0.002525 0.000000 0.000000 0.000000
# 3 -0.005564 -0.002525 0.008738 0.000000 0.000000 0.000000
# 4 0.000000 0.000000 0.000000 0.031494 0.000000 0.000000
# 5 0.000000 0.000000 0.000000 0.000000 0.022598 0.000000
# 6 0.000000 0.000000 0.000000 0.000000 0.000000 0.039366
#
#
# Mechanical properties :
#
#
# Convention : Reuss Voigt Hill
#
# Bulk Modulus (GPa) = 38.74602 54.08574 46.41588
# Shear Modulus (GPa) = 28.18633 33.00952 30.59793
#
# Velocity S-wave (km/s) = 3.50019 3.78785 3.64686
# Velocity P-wave (km/s) = 5.75989 6.52986 6.15692
#
# Compressibility (1/GPa) = 0.02580910
#
# Stress axis : x y z
#
# Youngs Moduli (GPa) = 33.87955 81.20067 114.44083
#
# Poissons Ratio (x) = 0.34844 0.63672
# Poissons Ratio (y) = 0.14538 0.28901
# Poissons Ratio (z) = 0.18850 0.20506
#
# Static dielectric constant tensor:
#      x y z
#    x 3.874930 0.000000 0.000000 
#    y 0.000000 3.824260 0.000000 
#    z 0.000000 0.000000 4.761770 
# 
# 
# High freq. dielectric constant tensor:
#      x y z
#    x 1.879460 0.000000 0.000000 
#    y 0.000000 1.884590 0.000000 
#    z 0.000000 0.000000 1.930980 
# 
# From -- ./inp_files/5904.got.cif
#   From: 2010.03.12/outbox.cif.g09.slc.cpg/sg60_3_cif.got.tgz:5904.got - 2010.04.10 18:46:24.
