data_PCOD8247014
_publ_section_title
;
Structure prediction by ZEFSAII (Michael W. Deem and Ramdas Pophale) SiO2 
 PCOD8247014
Probable space group: P B C N
;
_chemical_formula_sum "Si O2"
_cell_formula_units_Z 52
_cell_length_a 7.718480
_cell_length_b 12.184502
_cell_length_c 25.770562
_cell_angle_alpha 90.000000
_cell_angle_beta 90.000000
_cell_angle_gamma 90.000000
_cell_volume 2423.614022
_symmetry_space_group_name_H-M "P B C N"
_symmetry_group_IT_number 60
_symmetry_cell_setting 'orthorhombic'
loop_
_space_group_symop_operation_xyz
x,y,z
1/2-x,1/2-y,1/2+z
1/2+x,1/2-y,-z
-x,y,1/2-z
-x,-y,-z
1/2+x,1/2+y,1/2-z
1/2-x,1/2+y,z
x,-y,1/2+z
loop_
_atom_site_type_symbol
_atom_site_label
_atom_site_fract_x
_atom_site_fract_y
_atom_site_fract_z
Si Si1 0.539548 0.014263 0.905348
Si Si2 0.325663 0.207387 0.108321
Si Si3 0.836998 0.886314 0.468833
Si Si4 0.023415 0.091498 0.164220
Si Si5 0.247761 0.889493 0.183501
Si Si6 0.666536 0.494895 0.572126
Si Si7 0.000000 0.735767 0.750000
O O1 0.522599 0.883049 0.894398
O O2 0.353869 0.054397 0.926421
O O3 0.688520 0.031677 0.948180
O O4 0.589586 0.078701 0.852995
O O5 0.299459 0.263780 0.051897
O O6 0.150573 0.142874 0.121654
O O7 0.365751 0.297438 0.153190
O O8 0.835371 0.893315 0.531133
O O9 0.023890 0.917724 0.445468
O O10 0.864619 0.045158 0.130979
O O11 0.951373 0.184520 0.202397
O O12 0.124978 0.993962 0.195579
O O13 0.332374 0.839460 0.236012
#
# Coordination Sequence:
#
# PCOD8247014 Si02
#       7
#     8   8   8   8   8   8   4
#     4  10  20  38  60  87 125 165 211 250 306 378
#     4   9  17  38  59  82 123 170 196 250 317 354
#     4  10  21  39  57  88 131 168 202 251 311 366
#     4  10  20  40  63  90 127 164 212 267 315 385
#     4   9  19  40  63  84 128 164 198 273 321 367
#     4  11  21  37  61  89 126 165 206 257 308 374
#     4  10  22  38  70  92 116 174 212 262 344 374
#
# _framework density 21.455562
#
# number of rings (size 3 to 8) (size 9 to 14) (size 15 to 20)
#    0.000    2.154    4.615    0.462    0.000    2.462 
#    8.308    1.538    0.000    3.692    0.000    0.000 
#    0.000    0.000    0.000    0.000    0.000    0.000 
#
# Total GULP energy -644572.614842 kJ/mol
# GULP energy per Si atom -12395.627209 kJ/mol
# Density = 2.140673 g / cm^3
# Si number density = 21.455562 Si / 1000 Ang^3
#
#
#
# Elastic Constant Matrix: (Units=GPa)
#
#
# Indices 1 2 3 4 5 6 
#
# 1 122.3588 36.5726 37.9549 0.0000 0.0000 0.0000
# 2 36.5726 107.3158 31.3886 0.0000 0.0000 0.0000
# 3 37.9549 31.3886 95.0636 0.0000 0.0000 0.0000
# 4 0.0000 0.0000 0.0000 32.1566 0.0000 0.0000
# 5 0.0000 0.0000 0.0000 0.0000 26.9739 0.0000
# 6 0.0000 0.0000 0.0000 0.0000 0.0000 10.8623
#
#
#
# Elastic Compliance Matrix: (Units=1/GPa)
#
#
# Indices 1 2 3 4 5 6 
#
# 1 0.009877 -0.002449 -0.003135 0.000000 0.000000 0.000000
# 2 -0.002449 0.010922 -0.002628 0.000000 0.000000 0.000000
# 3 -0.003135 -0.002628 0.012639 0.000000 0.000000 0.000000
# 4 0.000000 0.000000 0.000000 0.031098 0.000000 0.000000
# 5 0.000000 0.000000 0.000000 0.000000 0.037073 0.000000
# 6 0.000000 0.000000 0.000000 0.000000 0.000000 0.092062
#
#
# Mechanical properties :
#
#
# Convention : Reuss Voigt Hill
#
# Bulk Modulus (GPa) = 58.77903 59.61894 59.19898
# Shear Modulus (GPa) = 23.17331 28.58670 25.88000
#
# Velocity S-wave (km/s) = 3.28999 3.65412 3.47683
# Velocity P-wave (km/s) = 6.47204 6.75655 6.61582
#
# Compressibility (1/GPa) = 0.01701287
#
# Stress axis : x y z
#
# Youngs Moduli (GPa) = 101.24387 91.56077 79.12194
#
# Poissons Ratio (x) = 0.22425 0.24804
# Poissons Ratio (y) = 0.24796 0.20796
# Poissons Ratio (z) = 0.31738 0.24065
#
# Static dielectric constant tensor:
#      x y z
#    x 3.636420 0.000000 0.000000 
#    y 0.000000 3.996800 0.000000 
#    z 0.000000 0.000000 3.808080 
# 
# 
# High freq. dielectric constant tensor:
#      x y z
#    x 1.821370 0.000000 0.000000 
#    y 0.000000 1.841680 0.000000 
#    z 0.000000 0.000000 1.830050 
# 
# From -- ./inp_files/25169.got.cif
#   From: 2010.03.12/outbox.cif.g09.slc.cpg/sg60_13_cif.got.tgz:25169.got - 2010.04.10 18:46:24.
