data_PCOD8247706
_publ_section_title
;
Structure prediction by ZEFSAII (Michael W. Deem and Ramdas Pophale) SiO2 
 PCOD8247706
Probable space group: P B C N
;
_chemical_formula_sum "Si O2"
_cell_formula_units_Z 28
_cell_length_a 11.028440
_cell_length_b 14.923286
_cell_length_c 7.608595
_cell_angle_alpha 90.000000
_cell_angle_beta 90.000000
_cell_angle_gamma 90.000000
_cell_volume 1252.226858
_symmetry_space_group_name_H-M "P B C N"
_symmetry_group_IT_number 60
_symmetry_cell_setting 'orthorhombic'
loop_
_space_group_symop_operation_xyz
x,y,z
1/2-x,1/2-y,1/2+z
1/2+x,1/2-y,-z
-x,y,1/2-z
-x,-y,-z
1/2+x,1/2+y,1/2-z
1/2-x,1/2+y,z
x,-y,1/2+z
loop_
_atom_site_type_symbol
_atom_site_label
_atom_site_fract_x
_atom_site_fract_y
_atom_site_fract_z
Si Si1 0.598139 0.179291 0.439207
Si Si2 0.851582 0.591847 0.101458
Si Si3 0.743553 0.901719 0.225323
Si Si4 0.500000 0.339926 0.250000
O O1 0.494054 0.102037 0.447519
O O2 0.679208 0.157958 0.264760
O O3 0.680390 0.177583 0.612896
O O4 0.539163 0.277361 0.415319
O O5 0.817864 0.492353 0.160898
O O6 0.774674 0.618756 0.930651
O O7 0.888026 0.902361 0.189964
#
# Coordination Sequence:
#
# PCOD8247706 Si02
#       4
#     8   8   8   4
#     4  10  24  44  62  98 130 174 227 260 329 393
#     4  10  22  39  70  94 124 171 223 270 310 392
#     4  12  22  43  67  97 132 168 222 273 328 383
#     4  10  28  40  64 102 134 170 218 268 344 398
#
# _framework density 22.360166
#
# number of rings (size 3 to 8) (size 9 to 14) (size 15 to 20)
#    0.000    1.714    2.857    1.714   12.000    1.143 
#    0.000    0.000    0.000    0.000    0.000    0.000 
#    0.000    0.000    0.000    0.000    0.000    0.000 
#
# Total GULP energy -347078.833224 kJ/mol
# GULP energy per Si atom -12395.672615 kJ/mol
# Density = 2.230927 g / cm^3
# Si number density = 22.360166 Si / 1000 Ang^3
#
#
#
# Elastic Constant Matrix: (Units=GPa)
#
#
# Indices 1 2 3 4 5 6 
#
# 1 126.6280 33.2321 29.1967 0.0000 0.0000 0.0000
# 2 33.2321 43.3763 19.5809 0.0000 0.0000 0.0000
# 3 29.1967 19.5809 126.0819 0.0000 0.0000 0.0000
# 4 0.0000 0.0000 0.0000 13.7842 0.0000 0.0000
# 5 0.0000 0.0000 0.0000 0.0000 25.7610 0.0000
# 6 0.0000 0.0000 0.0000 0.0000 0.0000 8.6535
#
#
#
# Elastic Compliance Matrix: (Units=1/GPa)
#
#
# Indices 1 2 3 4 5 6 
#
# 1 0.010055 -0.007154 -0.001217 0.000000 0.000000 0.000000
# 2 -0.007154 0.029882 -0.002984 0.000000 0.000000 0.000000
# 3 -0.001217 -0.002984 0.008677 0.000000 0.000000 0.000000
# 4 0.000000 0.000000 0.000000 0.072547 0.000000 0.000000
# 5 0.000000 0.000000 0.000000 0.000000 0.038818 0.000000
# 6 0.000000 0.000000 0.000000 0.000000 0.000000 0.115560
#
#
# Mechanical properties :
#
#
# Convention : Reuss Voigt Hill
#
# Bulk Modulus (GPa) = 38.60582 51.12282 44.86432
# Shear Modulus (GPa) = 16.29275 23.91153 20.10214
#
# Velocity S-wave (km/s) = 2.70228 3.27369 3.00161
# Velocity P-wave (km/s) = 5.19994 6.09937 5.66753
#
# Compressibility (1/GPa) = 0.02590283
#
# Stress axis : x y z
#
# Youngs Moduli (GPa) = 99.44914 33.46471 115.25104
#
# Poissons Ratio (x) = 0.23941 0.14031
# Poissons Ratio (y) = 0.71148 0.34392
# Poissons Ratio (z) = 0.12107 0.09986
#
# Static dielectric constant tensor:
#      x y z
#    x 3.967190 0.000000 0.000000 
#    y 0.000000 3.759450 0.000000 
#    z 0.000000 0.000000 4.271600 
# 
# 
# High freq. dielectric constant tensor:
#      x y z
#    x 1.870180 0.000000 0.000000 
#    y 0.000000 1.863200 0.000000 
#    z 0.000000 0.000000 1.882010 
# 
# From -- ./inp_files/3486.got.cif
#   From: 2010.03.12/outbox.cif.g09.slc.cpg/sg60_2_cif.got.tgz:3486.got - 2010.04.10 18:46:24.
