data_PCOD8247130
_publ_section_title
;
Structure prediction by ZEFSAII (Michael W. Deem and Ramdas Pophale) SiO2 
 PCOD8247130
Probable space group: P B C N
;
_chemical_formula_sum "Si O2"
_cell_formula_units_Z 60
_cell_length_a 8.686798
_cell_length_b 29.849696
_cell_length_c 11.098497
_cell_angle_alpha 90.000000
_cell_angle_beta 90.000000
_cell_angle_gamma 90.000000
_cell_volume 2877.821177
_symmetry_space_group_name_H-M "P B C N"
_symmetry_group_IT_number 60
_symmetry_cell_setting 'orthorhombic'
loop_
_space_group_symop_operation_xyz
x,y,z
1/2-x,1/2-y,1/2+z
1/2+x,1/2-y,-z
-x,y,1/2-z
-x,-y,-z
1/2+x,1/2+y,1/2-z
1/2-x,1/2+y,z
x,-y,1/2+z
loop_
_atom_site_type_symbol
_atom_site_label
_atom_site_fract_x
_atom_site_fract_y
_atom_site_fract_z
Si Si1 0.020943 0.236183 0.108808
Si Si2 0.000000 0.100010 0.250000
Si Si3 0.557253 0.616648 0.882586
Si Si4 0.063469 0.524208 0.381840
Si Si5 0.687073 0.351213 0.932182
Si Si6 0.979707 0.370480 0.615128
Si Si7 0.112628 0.961281 0.959219
Si Si8 0.241886 0.309082 0.019556
O O1 0.146252 0.200870 0.062779
O O2 0.000000 0.234123 0.250000
O O3 0.856160 0.225999 0.046380
O O4 0.094459 0.284159 0.075852
O O5 0.858649 0.130696 0.297701
O O6 0.960377 0.069490 0.140069
O O7 0.500000 0.606820 0.750000
O O8 0.407038 0.622734 0.965509
O O9 0.649913 0.572189 0.928402
O O10 0.663052 0.661544 0.882875
O O11 0.033287 0.576543 0.394300
O O12 0.244002 0.514999 0.394272
O O13 0.000000 0.507041 0.250000
O O14 0.000000 0.500000 0.500000
O O15 0.867565 0.356653 0.958888
O O16 0.825408 0.346330 0.570573
O O17 0.000000 0.353503 0.750000
O O18 0.000000 0.000000 0.000000
#
# Coordination Sequence:
#
# PCOD8247130 Si02
#       8
#     8   4   8   8   8   8   8   8
#     4  11  23  40  66  94 131 164 220 274 323 397
#     4  10  20  40  68  94 126 164 226 268 318 394
#     4  10  24  44  64  91 138 174 222 271 337 402
#     4  11  26  44  66 100 139 176 228 288 344 414
#     4  10  21  39  69  96 123 174 218 267 329 393
#     4  11  22  41  68  92 131 170 218 273 342 397
#     4  11  25  41  70  97 130 177 225 280 336 406
#     4  11  24  42  62  97 127 170 219 269 336 401
#
# _framework density 20.849105999999999
#
# number of rings (size 3 to 8) (size 9 to 14) (size 15 to 20)
#    0.000    1.333    2.000    3.200    8.400    3.200 
#    0.000    2.000    0.000    0.000    0.000    0.000 
#    0.000    0.000    0.000    0.000    0.000    0.000 
#
# Total GULP energy -743634.783333 kJ/mol
# GULP energy per Si atom -12393.913056 kJ/mol
# Density = 2.080165 g / cm^3
# Si number density = 20.849106 Si / 1000 Ang^3
#
#
#
# Elastic Constant Matrix: (Units=GPa)
#
#
# Indices 1 2 3 4 5 6 
#
# 1 118.6645 29.0803 33.6914 0.0000 0.0000 0.0000
# 2 29.0803 76.9705 39.1750 0.0000 0.0000 0.0000
# 3 33.6914 39.1750 125.5836 0.0000 0.0000 0.0000
# 4 0.0000 0.0000 0.0000 49.4866 0.0000 0.0000
# 5 0.0000 0.0000 0.0000 0.0000 26.6346 0.0000
# 6 0.0000 0.0000 0.0000 0.0000 0.0000 36.9844
#
#
#
# Elastic Compliance Matrix: (Units=1/GPa)
#
#
# Indices 1 2 3 4 5 6 
#
# 1 0.009588 -0.002750 -0.001714 0.000000 0.000000 0.000000
# 2 -0.002750 0.016233 -0.004326 0.000000 0.000000 0.000000
# 3 -0.001714 -0.004326 0.009772 0.000000 0.000000 0.000000
# 4 0.000000 0.000000 0.000000 0.020207 0.000000 0.000000
# 5 0.000000 0.000000 0.000000 0.000000 0.037545 0.000000
# 6 0.000000 0.000000 0.000000 0.000000 0.000000 0.027038
#
#
# Mechanical properties :
#
#
# Convention : Reuss Voigt Hill
#
# Bulk Modulus (GPa) = 55.51763 58.34575 56.93169
# Shear Modulus (GPa) = 34.72994 37.23926 35.98460
#
# Velocity S-wave (km/s) = 4.08582 4.23085 4.15897
# Velocity P-wave (km/s) = 6.99605 7.20502 7.10130
#
# Compressibility (1/GPa) = 0.01801230
#
# Stress axis : x y z
#
# Youngs Moduli (GPa) = 104.29976 61.60434 102.33091
#
# Poissons Ratio (x) = 0.16940 0.17544
# Poissons Ratio (y) = 0.28680 0.44268
# Poissons Ratio (z) = 0.17881 0.26650
#
# Static dielectric constant tensor:
#      x y z
#    x 3.744170 0.000000 0.000000 
#    y 0.000000 3.975680 0.000000 
#    z 0.000000 0.000000 3.503670 
# 
# 
# High freq. dielectric constant tensor:
#      x y z
#    x 1.822680 0.000000 0.000000 
#    y 0.000000 1.820530 0.000000 
#    z 0.000000 0.000000 1.809230 
# 
# From -- ./inp_files/10351.got.cif
#   From: 2010.03.12/outbox.cif.g09.slc.cpg/sg60_6_cif.got.tgz:10351.got - 2010.04.10 18:46:24.
