data_PCOD8247881
_publ_section_title
;
Structure prediction by ZEFSAII (Michael W. Deem and Ramdas Pophale) SiO2 
 PCOD8247881
Probable space group: P B C N
;
_chemical_formula_sum "Si O2"
_cell_formula_units_Z 40
_cell_length_a 13.074369
_cell_length_b 13.829867
_cell_length_c 9.428368
_cell_angle_alpha 90.000000
_cell_angle_beta 90.000000
_cell_angle_gamma 90.000000
_cell_volume 1704.807184
_symmetry_space_group_name_H-M "P B C N"
_symmetry_group_IT_number 60
_symmetry_cell_setting 'orthorhombic'
loop_
_space_group_symop_operation_xyz
x,y,z
1/2-x,1/2-y,1/2+z
1/2+x,1/2-y,-z
-x,y,1/2-z
-x,-y,-z
1/2+x,1/2+y,1/2-z
1/2-x,1/2+y,z
x,-y,1/2+z
loop_
_atom_site_type_symbol
_atom_site_label
_atom_site_fract_x
_atom_site_fract_y
_atom_site_fract_z
Si Si1 0.488395 0.255303 0.479457
Si Si2 0.157851 0.771293 0.229524
Si Si3 0.163630 0.124065 0.147022
Si Si4 0.441661 0.936107 0.392990
Si Si5 0.716191 0.467630 0.139781
O O1 0.574231 0.308719 0.385228
O O2 0.396836 0.224874 0.370160
O O3 0.440378 0.316661 0.610589
O O4 0.558371 0.170713 0.542782
O O5 0.239991 0.696219 0.164874
O O6 0.213848 0.869241 0.270777
O O7 0.154768 0.057252 0.288036
O O8 0.175697 0.048904 0.018129
O O9 0.500000 0.932884 0.250000
O O10 0.335270 0.990246 0.369015
O O11 0.500000 0.000000 0.500000
#
# Coordination Sequence:
#
# PCOD8247881 Si02
#       5
#     8   8   8   8   8
#     4  10  23  43  68  97 141 188 231 293 352 422
#     4  10  22  44  70  96 139 186 236 292 355 417
#     4  11  23  44  68 102 141 180 235 292 355 424
#     4  12  24  39  66 105 137 176 234 291 359 418
#     4  11  24  41  68  99 137 184 230 289 355 421
#
# _framework density 23.463063999999999
#
# number of rings (size 3 to 8) (size 9 to 14) (size 15 to 20)
#    0.000    1.200    2.000    3.600    2.800    4.000 
#    3.600    0.000    0.000    0.000    0.000    0.000 
#    0.000    0.000    0.000    0.000    0.000    0.000 
#
# Total GULP energy -495619.324818 kJ/mol
# GULP energy per Si atom -12390.483120 kJ/mol
# Density = 2.340966 g / cm^3
# Si number density = 23.463064 Si / 1000 Ang^3
#
#
#
# Elastic Constant Matrix: (Units=GPa)
#
#
# Indices 1 2 3 4 5 6 
#
# 1 35.8198 6.2201 24.5346 0.0000 0.0000 0.0000
# 2 6.2201 66.2934 32.9455 0.0000 0.0000 0.0000
# 3 24.5346 32.9455 85.9554 0.0000 0.0000 0.0000
# 4 0.0000 0.0000 0.0000 51.0847 0.0000 0.0000
# 5 0.0000 0.0000 0.0000 0.0000 42.8957 0.0000
# 6 0.0000 0.0000 0.0000 0.0000 0.0000 36.5839
#
#
#
# Elastic Compliance Matrix: (Units=1/GPa)
#
#
# Indices 1 2 3 4 5 6 
#
# 1 0.034931 0.002072 -0.010765 0.000000 0.000000 0.000000
# 2 0.002072 0.018757 -0.007781 0.000000 0.000000 0.000000
# 3 -0.010765 -0.007781 0.017689 0.000000 0.000000 0.000000
# 4 0.000000 0.000000 0.000000 0.019575 0.000000 0.000000
# 5 0.000000 0.000000 0.000000 0.000000 0.023312 0.000000
# 6 0.000000 0.000000 0.000000 0.000000 0.000000 0.027334
#
#
# Mechanical properties :
#
#
# Convention : Reuss Voigt Hill
#
# Bulk Modulus (GPa) = 26.02129 35.05211 30.53670
# Shear Modulus (GPa) = 26.68733 34.40409 30.54571
#
# Velocity S-wave (km/s) = 3.37622 3.83339 3.61205
# Velocity P-wave (km/s) = 5.12961 5.87919 5.51715
#
# Compressibility (1/GPa) = 0.03843007
#
# Stress axis : x y z
#
# Youngs Moduli (GPa) = 28.62797 53.31414 56.53309
#
# Poissons Ratio (x) = -0.11048 0.60856
# Poissons Ratio (y) = -0.05932 0.43986
# Poissons Ratio (z) = 0.30817 0.41482
#
# Static dielectric constant tensor:
#      x y z
#    x 4.281430 0.000000 0.000000 
#    y 0.000000 4.758560 0.000000 
#    z 0.000000 0.000000 4.480820 
# 
# 
# High freq. dielectric constant tensor:
#      x y z
#    x 1.929880 0.000000 0.000000 
#    y 0.000000 1.914920 0.000000 
#    z 0.000000 0.000000 1.947800 
# 
# From -- ./inp_files/5659.got.cif
#   From: 2010.03.12/outbox.cif.g09.slc.cpg/sg60_3_cif.got.tgz:5659.got - 2010.04.10 18:46:24.
