data_PCOD8247616
_publ_section_title
;
Structure prediction by ZEFSAII (Michael W. Deem and Ramdas Pophale) SiO2 
 PCOD8247616
Probable space group: P B C N
;
_chemical_formula_sum "Si O2"
_cell_formula_units_Z 48
_cell_length_a 9.382161
_cell_length_b 18.635688
_cell_length_c 13.898756
_cell_angle_alpha 90.000000
_cell_angle_beta 90.000000
_cell_angle_gamma 90.000000
_cell_volume 2430.100545
_symmetry_space_group_name_H-M "P B C N"
_symmetry_group_IT_number 60
_symmetry_cell_setting 'orthorhombic'
loop_
_space_group_symop_operation_xyz
x,y,z
1/2-x,1/2-y,1/2+z
1/2+x,1/2-y,-z
-x,y,1/2-z
-x,-y,-z
1/2+x,1/2+y,1/2-z
1/2-x,1/2+y,z
x,-y,1/2+z
loop_
_atom_site_type_symbol
_atom_site_label
_atom_site_fract_x
_atom_site_fract_y
_atom_site_fract_z
Si Si1 0.870998 0.526570 0.063479
Si Si2 0.753445 0.182780 0.080159
Si Si3 0.500000 0.474366 0.750000
Si Si4 0.000000 0.572405 0.250000
Si Si5 0.224534 0.143937 0.202442
Si Si6 0.596351 0.451283 0.065545
Si Si7 0.070494 0.200128 0.018903
O O1 0.796345 0.604008 0.042913
O O2 0.913891 0.523534 0.175592
O O3 0.759370 0.465146 0.039903
O O4 0.000000 0.500000 0.000000
O O5 0.776247 0.184683 0.195301
O O6 0.903770 0.210982 0.040303
O O7 0.628218 0.234819 0.045091
O O8 0.378728 0.425019 0.702630
O O9 0.429732 0.527637 0.825117
O O10 0.889133 0.620180 0.313366
O O11 0.167205 0.193776 0.115772
O O12 0.500000 0.500000 0.000000
O O13 0.572999 0.368294 0.049431
#
# Coordination Sequence:
#
# PCOD8247616 Si02
#       7
#     8   8   4   4   8   8   8
#     4  11  23  41  66  97 131 167 227 273 324 404
#     4  11  25  44  65 101 128 179 225 263 351 406
#     4  12  20  42  73  93 126 174 226 288 330 412
#     4  10  22  36  61 101 122 166 216 266 330 394
#     4  11  20  44  69  87 130 181 216 264 340 410
#     4  12  22  42  69  98 125 176 229 279 339 395
#     4  12  25  43  69  95 135 175 223 284 334 414
#
# _framework density 19.752268000000001
#
# number of rings (size 3 to 8) (size 9 to 14) (size 15 to 20)
#    0.000    0.667    8.333    1.000    7.000    0.000 
#    3.000    0.000    0.000    0.000    0.000    0.000 
#    0.000    0.000    0.000    0.000    0.000    0.000 
#
# Total GULP energy -594956.059111 kJ/mol
# GULP energy per Si atom -12394.917898 kJ/mol
# Density = 1.970731 g / cm^3
# Si number density = 19.752268 Si / 1000 Ang^3
#
#
#
# Elastic Constant Matrix: (Units=GPa)
#
#
# Indices 1 2 3 4 5 6 
#
# 1 117.7904 6.7772 17.4782 0.0000 0.0000 0.0000
# 2 6.7772 60.4404 21.1714 0.0000 0.0000 0.0000
# 3 17.4782 21.1714 67.2733 0.0000 0.0000 0.0000
# 4 0.0000 0.0000 0.0000 31.0506 0.0000 0.0000
# 5 0.0000 0.0000 0.0000 0.0000 40.9373 0.0000
# 6 0.0000 0.0000 0.0000 0.0000 0.0000 39.6695
#
#
#
# Elastic Compliance Matrix: (Units=1/GPa)
#
#
# Indices 1 2 3 4 5 6 
#
# 1 0.008832 -0.000210 -0.002229 0.000000 0.000000 0.000000
# 2 -0.000210 0.018600 -0.005799 0.000000 0.000000 0.000000
# 3 -0.002229 -0.005799 0.017269 0.000000 0.000000 0.000000
# 4 0.000000 0.000000 0.000000 0.032205 0.000000 0.000000
# 5 0.000000 0.000000 0.000000 0.000000 0.024428 0.000000
# 6 0.000000 0.000000 0.000000 0.000000 0.000000 0.025208
#
#
# Mechanical properties :
#
#
# Convention : Reuss Voigt Hill
#
# Bulk Modulus (GPa) = 35.42803 37.37307 36.40055
# Shear Modulus (GPa) = 32.80270 35.66998 34.23634
#
# Velocity S-wave (km/s) = 4.07960 4.25416 4.16779
# Velocity P-wave (km/s) = 6.33766 6.56449 6.45207
#
# Compressibility (1/GPa) = 0.02822624
#
# Stress axis : x y z
#
# Youngs Moduli (GPa) = 113.21908 53.76322 57.90783
#
# Poissons Ratio (x) = 0.01127 0.12906
# Poissons Ratio (y) = 0.02374 0.33581
# Poissons Ratio (z) = 0.25234 0.31178
#
# Static dielectric constant tensor:
#      x y z
#    x 3.336070 0.000000 0.000000 
#    y 0.000000 3.325340 0.000000 
#    z 0.000000 0.000000 3.451270 
# 
# 
# High freq. dielectric constant tensor:
#      x y z
#    x 1.802320 0.000000 0.000000 
#    y 0.000000 1.742070 0.000000 
#    z 0.000000 0.000000 1.773090 
# 
# From -- ./inp_files/15063.got.cif
#   From: 2010.03.12/outbox.cif.g09.slc.cpg/sg60_8_cif.got.tgz:15063.got - 2010.04.10 18:46:24.
