data_PCOD8247321
_publ_section_title
;
Structure prediction by ZEFSAII (Michael W. Deem and Ramdas Pophale) SiO2 
 PCOD8247321
Probable space group: P B C N
;
_chemical_formula_sum "Si O2"
_cell_formula_units_Z 64
_cell_length_a 10.994023
_cell_length_b 30.903110
_cell_length_c 9.884410
_cell_angle_alpha 90.000000
_cell_angle_beta 90.000000
_cell_angle_gamma 90.000000
_cell_volume 3358.223376
_symmetry_space_group_name_H-M "P B C N"
_symmetry_group_IT_number 60
_symmetry_cell_setting 'orthorhombic'
loop_
_space_group_symop_operation_xyz
x,y,z
1/2-x,1/2-y,1/2+z
1/2+x,1/2-y,-z
-x,y,1/2-z
-x,-y,-z
1/2+x,1/2+y,1/2-z
1/2-x,1/2+y,z
x,-y,1/2+z
loop_
_atom_site_type_symbol
_atom_site_label
_atom_site_fract_x
_atom_site_fract_y
_atom_site_fract_z
Si Si1 0.137546 0.917457 0.214980
Si Si2 0.527053 0.881661 0.096049
Si Si3 0.372522 0.674190 0.074966
Si Si4 0.809859 0.301454 0.143498
Si Si5 0.276466 0.845843 0.075822
Si Si6 0.740622 0.585444 0.492586
Si Si7 0.414703 0.509867 0.125709
Si Si8 0.861609 0.796001 0.633559
O O1 0.175718 0.882686 0.102918
O O2 0.216988 0.911627 0.347742
O O3 0.000000 0.907503 0.250000
O O4 0.155741 0.966178 0.163171
O O5 0.500000 0.898600 0.250000
O O6 0.595589 0.836128 0.089567
O O7 0.396155 0.872570 0.032278
O O8 0.610235 0.912826 0.998443
O O9 0.331288 0.624217 0.079662
O O10 0.517932 0.680245 0.076889
O O11 0.324827 0.695276 0.212396
O O12 0.315186 0.697151 0.943022
O O13 0.785394 0.312732 0.299151
O O14 0.873919 0.255466 0.121321
O O15 0.248385 0.815314 0.950849
O O16 0.691185 0.543087 0.416826
O O17 0.500000 0.526442 0.250000
O O18 0.500000 0.500000 0.000000
#
# Coordination Sequence:
#
# PCOD8247321 Si02
#       8
#     8   8   8   8   8   8   8   8
#     4  11  20  37  62  92 121 152 208 247 306 373
#     4   9  19  37  65  83 112 171 208 245 295 375
#     4  10  23  39  56  88 120 163 191 257 321 354
#     4  10  21  38  59  82 121 162 208 250 301 364
#     4  11  22  38  65  89 115 168 214 251 301 379
#     4  11  20  42  60  88 126 159 202 251 314 369
#     4  11  23  36  64  96 126 157 196 262 312 374
#     4  11  24  34  59  89 125 152 207 262 305 361
#
# _framework density 19.057696
#
# number of rings (size 3 to 8) (size 9 to 14) (size 15 to 20)
#    0.000    1.500    6.250    1.500    8.750    0.000 
#    0.000    3.125    0.000    0.000    0.000    0.000 
#    0.000    0.000    0.000    0.000    0.000    0.000 
#
# Total GULP energy -793134.327524 kJ/mol
# GULP energy per Si atom -12392.723868 kJ/mol
# Density = 1.901432 g / cm^3
# Si number density = 19.057696 Si / 1000 Ang^3
#
#
#
# Elastic Constant Matrix: (Units=GPa)
#
#
# Indices 1 2 3 4 5 6 
#
# 1 108.6295 43.2944 37.4600 0.0000 0.0000 0.0000
# 2 43.2944 91.4846 14.7786 0.0000 0.0000 0.0000
# 3 37.4600 14.7786 71.0250 0.0000 0.0000 0.0000
# 4 0.0000 0.0000 0.0000 33.0627 0.0000 0.0000
# 5 0.0000 0.0000 0.0000 0.0000 30.1562 0.0000
# 6 0.0000 0.0000 0.0000 0.0000 0.0000 17.2906
#
#
#
# Elastic Compliance Matrix: (Units=1/GPa)
#
#
# Indices 1 2 3 4 5 6 
#
# 1 0.013402 -0.005381 -0.005949 0.000000 0.000000 0.000000
# 2 -0.005381 0.013472 0.000035 0.000000 0.000000 0.000000
# 3 -0.005949 0.000035 0.017210 0.000000 0.000000 0.000000
# 4 0.000000 0.000000 0.000000 0.030246 0.000000 0.000000
# 5 0.000000 0.000000 0.000000 0.000000 0.033161 0.000000
# 6 0.000000 0.000000 0.000000 0.000000 0.000000 0.057835
#
#
# Mechanical properties :
#
#
# Convention : Reuss Voigt Hill
#
# Bulk Modulus (GPa) = 46.52582 51.35612 48.94097
# Shear Modulus (GPa) = 25.63075 27.80898 26.71986
#
# Velocity S-wave (km/s) = 3.67127 3.82409 3.74846
# Velocity P-wave (km/s) = 6.51438 6.81942 6.66864
#
# Compressibility (1/GPa) = 0.02149344
#
# Stress axis : x y z
#
# Youngs Moduli (GPa) = 74.61778 74.22912 58.10697
#
# Poissons Ratio (x) = 0.39945 0.34565
# Poissons Ratio (y) = 0.40154 -0.00204
# Poissons Ratio (z) = 0.44387 -0.00260
#
# Static dielectric constant tensor:
#      x y z
#    x 3.877770 0.000000 0.000000 
#    y 0.000000 2.807730 0.000000 
#    z 0.000000 0.000000 3.587760 
# 
# 
# High freq. dielectric constant tensor:
#      x y z
#    x 1.739890 0.000000 0.000000 
#    y 0.000000 1.738430 0.000000 
#    z 0.000000 0.000000 1.733680 
# 
# From -- ./inp_files/5320.got.cif
#   From: 2010.03.12/outbox.cif.g09.slc.cpg/sg60_3_cif.got.tgz:5320.got - 2010.04.10 18:46:24.
