data_PCOD8247347
_publ_section_title
;
Structure prediction by ZEFSAII (Michael W. Deem and Ramdas Pophale) SiO2 
 PCOD8247347
Probable space group: P B C N
;
_chemical_formula_sum "Si O2"
_cell_formula_units_Z 60
_cell_length_a 8.396157
_cell_length_b 14.918869
_cell_length_c 22.281655
_cell_angle_alpha 90.000000
_cell_angle_beta 90.000000
_cell_angle_gamma 90.000000
_cell_volume 2791.026094
_symmetry_space_group_name_H-M "P B C N"
_symmetry_group_IT_number 60
_symmetry_cell_setting 'orthorhombic'
loop_
_space_group_symop_operation_xyz
x,y,z
1/2-x,1/2-y,1/2+z
1/2+x,1/2-y,-z
-x,y,1/2-z
-x,-y,-z
1/2+x,1/2+y,1/2-z
1/2-x,1/2+y,z
x,-y,1/2+z
loop_
_atom_site_type_symbol
_atom_site_label
_atom_site_fract_x
_atom_site_fract_y
_atom_site_fract_z
Si Si1 0.783062 0.850109 0.476577
Si Si2 0.721065 0.963032 0.840005
Si Si3 0.716580 0.175889 0.675300
Si Si4 0.919387 0.303082 0.048767
Si Si5 0.332500 0.035893 0.021834
Si Si6 0.500000 0.053463 0.750000
Si Si7 0.427004 0.635264 0.649561
Si Si8 0.829372 0.702469 0.268531
O O1 0.600444 0.820542 0.469153
O O2 0.866366 0.796703 0.530367
O O3 0.877317 0.829798 0.415765
O O4 0.794349 0.956514 0.492029
O O5 0.667178 0.942033 0.907640
O O6 0.770938 0.869336 0.807776
O O7 0.565036 0.996861 0.805697
O O8 0.863926 0.034787 0.837409
O O9 0.596483 0.187198 0.619954
O O10 0.644308 0.111105 0.724747
O O11 0.737155 0.273172 0.706938
O O12 0.882900 0.134073 0.653385
O O13 0.799529 0.372742 0.014790
O O14 0.500000 0.000000 0.000000
O O15 0.352837 0.703839 0.696940
O O16 0.000000 0.660813 0.250000
#
# Coordination Sequence:
#
# PCOD8247347 Si02
#       8
#     8   8   8   8   8   4   8   8
#     4  10  21  40  66  93 123 169 212 266 320 385
#     4  11  21  39  67  91 121 171 211 263 317 388
#     4  11  24  41  65  93 131 174 211 267 322 388
#     4  11  22  41  64  94 127 168 214 267 321 378
#     4   9  20  38  63  91 122 163 213 255 323 384
#     4  12  22  40  66  90 128 162 220 260 322 376
#     4  10  21  42  65  88 132 164 208 264 324 377
#     4  10  21  38  62  90 122 171 213 248 318 390
#
# _framework density 21.497471000000001
#
# number of rings (size 3 to 8) (size 9 to 14) (size 15 to 20)
#    0.000    1.600    2.000    4.000    0.000    3.200 
#    2.400    8.667    0.000    0.000    0.000    0.000 
#    0.000    0.000    0.000    0.000    0.000    0.000 
#
# Total GULP energy -743902.327899 kJ/mol
# GULP energy per Si atom -12398.372132 kJ/mol
# Density = 2.144854 g / cm^3
# Si number density = 21.497471 Si / 1000 Ang^3
#
#
#
# Elastic Constant Matrix: (Units=GPa)
#
#
# Indices 1 2 3 4 5 6 
#
# 1 66.2017 18.9026 16.5763 0.0000 0.0000 0.0000
# 2 18.9026 91.0242 42.0053 0.0000 0.0000 0.0000
# 3 16.5763 42.0053 109.4940 0.0000 0.0000 0.0000
# 4 0.0000 0.0000 0.0000 37.7895 0.0000 0.0000
# 5 0.0000 0.0000 0.0000 0.0000 38.9043 0.0000
# 6 0.0000 0.0000 0.0000 0.0000 0.0000 19.2822
#
#
#
# Elastic Compliance Matrix: (Units=1/GPa)
#
#
# Indices 1 2 3 4 5 6 
#
# 1 0.016236 -0.002719 -0.001415 0.000000 0.000000 0.000000
# 2 -0.002719 0.013805 -0.004884 0.000000 0.000000 0.000000
# 3 -0.001415 -0.004884 0.011221 0.000000 0.000000 0.000000
# 4 0.000000 0.000000 0.000000 0.026462 0.000000 0.000000
# 5 0.000000 0.000000 0.000000 0.000000 0.025704 0.000000
# 6 0.000000 0.000000 0.000000 0.000000 0.000000 0.051861
#
#
# Mechanical properties :
#
#
# Convention : Reuss Voigt Hill
#
# Bulk Modulus (GPa) = 43.05605 46.85426 44.95516
# Shear Modulus (GPa) = 29.22831 31.81092 30.51961
#
# Velocity S-wave (km/s) = 3.69130 3.85093 3.77196
# Velocity P-wave (km/s) = 6.18381 6.45100 6.31882
#
# Compressibility (1/GPa) = 0.02322554
#
# Stress axis : x y z
#
# Youngs Moduli (GPa) = 61.59185 72.43939 89.11929
#
# Poissons Ratio (x) = 0.19694 0.12610
# Poissons Ratio (y) = 0.16745 0.43529
# Poissons Ratio (z) = 0.08715 0.35382
#
# Static dielectric constant tensor:
#      x y z
#    x 3.593550 0.000000 0.000000 
#    y 0.000000 4.430930 0.000000 
#    z 0.000000 0.000000 4.049480 
# 
# 
# High freq. dielectric constant tensor:
#      x y z
#    x 1.825470 0.000000 0.000000 
#    y 0.000000 1.847470 0.000000 
#    z 0.000000 0.000000 1.855260 
# 
# From -- ./inp_files/24025.got.cif
#   From: 2010.03.12/outbox.cif.g09.slc.cpg/sg60_13_cif.got.tgz:24025.got - 2010.04.10 18:46:24.
