data_PCOD8247066
_publ_section_title
;
Structure prediction by ZEFSAII (Michael W. Deem and Ramdas Pophale) SiO2 
 PCOD8247066
Probable space group: P B C N
;
_chemical_formula_sum "Si O2"
_cell_formula_units_Z 56
_cell_length_a 11.001446
_cell_length_b 11.878768
_cell_length_c 20.451413
_cell_angle_alpha 90.000000
_cell_angle_beta 90.000000
_cell_angle_gamma 90.000000
_cell_volume 2672.664781
_symmetry_space_group_name_H-M "P B C N"
_symmetry_group_IT_number 60
_symmetry_cell_setting 'orthorhombic'
loop_
_space_group_symop_operation_xyz
x,y,z
1/2-x,1/2-y,1/2+z
1/2+x,1/2-y,-z
-x,y,1/2-z
-x,-y,-z
1/2+x,1/2+y,1/2-z
1/2-x,1/2+y,z
x,-y,1/2+z
loop_
_atom_site_type_symbol
_atom_site_label
_atom_site_fract_x
_atom_site_fract_y
_atom_site_fract_z
Si Si1 0.975942 0.304344 0.320301
Si Si2 0.217140 0.993954 0.491134
Si Si3 0.933305 0.445315 0.815898
Si Si4 0.706913 0.815406 0.097390
Si Si5 0.104771 0.352022 0.925237
Si Si6 0.267397 0.673004 0.112531
Si Si7 0.403520 0.707490 0.523849
O O1 0.904213 0.421932 0.311444
O O2 0.899272 0.217576 0.364549
O O3 0.000000 0.247363 0.250000
O O4 0.109568 0.336671 0.346601
O O5 0.339623 0.071161 0.483471
O O6 0.101878 0.078986 0.497912
O O7 0.210401 0.924649 0.422179
O O8 0.218359 0.920556 0.556556
O O9 0.805536 0.380529 0.825832
O O10 0.000000 0.402054 0.750000
O O11 0.017372 0.423456 0.879227
O O12 0.787292 0.706423 0.116721
O O13 0.633585 0.795942 0.030959
O O14 0.039652 0.243308 0.957782
O O15 0.188383 0.777611 0.085277
#
# Coordination Sequence:
#
# PCOD8247066 Si02
#       7
#     8   8   8   8   8   8   8
#     4  11  24  42  63  90 123 168 210 254 302 370
#     4  10  20  39  61  94 125 159 196 261 319 368
#     4  10  22  40  66  85 120 168 208 252 300 369
#     4  10  22  35  61  90 124 158 201 258 303 371
#     4  10  21  39  60  93 124 160 209 248 316 364
#     4  10  22  38  64  90 122 159 211 248 311 367
#     4   9  21  35  62  91 120 161 195 259 307 373
#
# _framework density 20.952869
#
# number of rings (size 3 to 8) (size 9 to 14) (size 15 to 20)
#    0.000    2.000    1.429    0.857   10.000    2.286 
#    2.571    0.000    0.000    1.714    0.000    0.000 
#    0.000    0.000    0.000    0.000    0.000    0.000 
#
# Total GULP energy -693997.231311 kJ/mol
# GULP energy per Si atom -12392.807702 kJ/mol
# Density = 2.090518 g / cm^3
# Si number density = 20.952869 Si / 1000 Ang^3
#
#
#
# Elastic Constant Matrix: (Units=GPa)
#
#
# Indices 1 2 3 4 5 6 
#
# 1 50.9620 40.5585 17.9118 0.0000 0.0000 0.0000
# 2 40.5585 102.5600 34.8300 0.0000 0.0000 0.0000
# 3 17.9118 34.8300 82.4801 0.0000 0.0000 0.0000
# 4 0.0000 0.0000 0.0000 25.8858 0.0000 0.0000
# 5 0.0000 0.0000 0.0000 0.0000 28.5321 0.0000
# 6 0.0000 0.0000 0.0000 0.0000 0.0000 32.8368
#
#
#
# Elastic Compliance Matrix: (Units=1/GPa)
#
#
# Indices 1 2 3 4 5 6 
#
# 1 0.028835 -0.010830 -0.001689 0.000000 0.000000 0.000000
# 2 -0.010830 0.015450 -0.004173 0.000000 0.000000 0.000000
# 3 -0.001689 -0.004173 0.014253 0.000000 0.000000 0.000000
# 4 0.000000 0.000000 0.000000 0.038631 0.000000 0.000000
# 5 0.000000 0.000000 0.000000 0.000000 0.035048 0.000000
# 6 0.000000 0.000000 0.000000 0.000000 0.000000 0.030454
#
#
# Mechanical properties :
#
#
# Convention : Reuss Voigt Hill
#
# Bulk Modulus (GPa) = 39.75179 46.95585 43.35382
# Shear Modulus (GPa) = 24.45730 26.96438 25.71084
#
# Velocity S-wave (km/s) = 3.42022 3.59124 3.50677
# Velocity P-wave (km/s) = 5.88306 6.29721 6.09365
#
# Compressibility (1/GPa) = 0.02515610
#
# Stress axis : x y z
#
# Youngs Moduli (GPa) = 34.68030 64.72461 70.16130
#
# Poissons Ratio (x) = 0.70094 0.11849
# Poissons Ratio (y) = 0.37557 0.29275
# Poissons Ratio (z) = 0.05857 0.27006
#
# Static dielectric constant tensor:
#      x y z
#    x 3.757940 0.000000 0.000000 
#    y 0.000000 3.913870 0.000000 
#    z 0.000000 0.000000 3.630460 
# 
# 
# High freq. dielectric constant tensor:
#      x y z
#    x 1.814610 0.000000 0.000000 
#    y 0.000000 1.825400 0.000000 
#    z 0.000000 0.000000 1.795540 
# 
# From -- ./inp_files/22610.got.cif
#   From: 2010.03.12/outbox.cif.g09.slc.cpg/sg60_12_cif.got.tgz:22610.got - 2010.04.10 18:46:24.
