data_PCOD8247182
_publ_section_title
;
Structure prediction by ZEFSAII (Michael W. Deem and Ramdas Pophale) SiO2 
 PCOD8247182
Probable space group: P B C N
;
_chemical_formula_sum "Si O2"
_cell_formula_units_Z 60
_cell_length_a 20.751377
_cell_length_b 15.748238
_cell_length_c 8.831603
_cell_angle_alpha 90.000000
_cell_angle_beta 90.000000
_cell_angle_gamma 90.000000
_cell_volume 2886.146875
_symmetry_space_group_name_H-M "P B C N"
_symmetry_group_IT_number 60
_symmetry_cell_setting 'orthorhombic'
loop_
_space_group_symop_operation_xyz
x,y,z
1/2-x,1/2-y,1/2+z
1/2+x,1/2-y,-z
-x,y,1/2-z
-x,-y,-z
1/2+x,1/2+y,1/2-z
1/2-x,1/2+y,z
x,-y,1/2+z
loop_
_atom_site_type_symbol
_atom_site_label
_atom_site_fract_x
_atom_site_fract_y
_atom_site_fract_z
Si Si1 0.922398 0.085638 0.911119
Si Si2 0.427299 0.587608 0.939122
Si Si3 0.207746 0.617457 0.032666
Si Si4 0.165206 0.785643 0.589867
Si Si5 0.663205 0.986229 0.694372
Si Si6 0.605224 0.889945 0.435664
Si Si7 0.500000 0.190008 0.750000
Si Si8 0.123057 0.238199 0.406554
O O1 0.907352 0.083402 0.734699
O O2 0.996546 0.099237 0.954154
O O3 0.880002 0.162442 0.974063
O O4 0.899946 0.997004 0.982299
O O5 0.397172 0.666852 0.025023
O O6 0.211843 0.537394 0.917255
O O7 0.146847 0.676687 0.990667
O O8 0.271174 0.674770 0.015666
O O9 0.201342 0.582399 0.203938
O O10 0.155764 0.687454 0.545762
O O11 0.170710 0.791366 0.772097
O O12 0.607715 0.940293 0.593770
O O13 0.627484 0.052657 0.797862
O O14 0.532890 0.863149 0.387677
O O15 0.446040 0.247070 0.829180
#
# Coordination Sequence:
#
# PCOD8247182 Si02
#       8
#     8   8   8   8   8   8   4   8
#     4  10  21  39  64  91 132 160 213 266 324 389
#     4  10  22  39  62  97 125 168 208 267 323 385
#     4  11  25  44  65  91 131 171 217 264 323 381
#     4  11  24  41  65  93 128 171 215 260 326 384
#     4  10  23  45  62  95 127 171 216 268 315 382
#     4  10  22  41  67  92 133 164 213 266 328 382
#     4  10  20  42  68  98 130 172 216 274 330 390
#     4  11  23  42  65  96 128 172 214 270 328 387
#
# _framework density 20.788962000000001
#
# number of rings (size 3 to 8) (size 9 to 14) (size 15 to 20)
#    0.000    1.600    2.667    2.400    3.733    4.800 
#    2.400    0.000    0.000    0.000    0.000    0.000 
#    0.000    0.000    0.000    0.000    0.000    0.000 
#
# Total GULP energy -743992.511740 kJ/mol
# GULP energy per Si atom -12399.875196 kJ/mol
# Density = 2.074164 g / cm^3
# Si number density = 20.788962 Si / 1000 Ang^3
#
#
#
# Elastic Constant Matrix: (Units=GPa)
#
#
# Indices 1 2 3 4 5 6 
#
# 1 41.5715 2.1775 21.2431 0.0000 0.0000 0.0000
# 2 2.1775 93.9631 63.5728 0.0000 0.0000 0.0000
# 3 21.2431 63.5728 121.4431 0.0000 0.0000 0.0000
# 4 0.0000 0.0000 0.0000 42.4700 0.0000 0.0000
# 5 0.0000 0.0000 0.0000 0.0000 12.6079 0.0000
# 6 0.0000 0.0000 0.0000 0.0000 0.0000 28.2343
#
#
#
# Elastic Compliance Matrix: (Units=1/GPa)
#
#
# Indices 1 2 3 4 5 6 
#
# 1 0.027369 0.004033 -0.006899 0.000000 0.000000 0.000000
# 2 0.004033 0.017073 -0.009643 0.000000 0.000000 0.000000
# 3 -0.006899 -0.009643 0.014489 0.000000 0.000000 0.000000
# 4 0.000000 0.000000 0.000000 0.023546 0.000000 0.000000
# 5 0.000000 0.000000 0.000000 0.000000 0.079316 0.000000
# 6 0.000000 0.000000 0.000000 0.000000 0.000000 0.035418
#
#
# Mechanical properties :
#
#
# Convention : Reuss Voigt Hill
#
# Bulk Modulus (GPa) = 29.48616 47.88493 38.68554
# Shear Modulus (GPa) = 21.41033 27.99473 24.70253
#
# Velocity S-wave (km/s) = 3.21267 3.67361 3.45084
# Velocity P-wave (km/s) = 5.28924 6.40919 5.87596
#
# Compressibility (1/GPa) = 0.03391422
#
# Stress axis : x y z
#
# Youngs Moduli (GPa) = 36.53769 58.57145 69.01819
#
# Poissons Ratio (x) = -0.23624 0.47614
# Poissons Ratio (y) = -0.14737 0.66554
# Poissons Ratio (z) = 0.25207 0.56480
#
# Static dielectric constant tensor:
#      x y z
#    x 3.461470 0.000000 0.000000 
#    y 0.000000 3.944290 0.000000 
#    z 0.000000 0.000000 3.959720 
# 
# 
# High freq. dielectric constant tensor:
#      x y z
#    x 1.788050 0.000000 0.000000 
#    y 0.000000 1.829140 0.000000 
#    z 0.000000 0.000000 1.826210 
# 
# From -- ./inp_files/7942.got.cif
#   From: 2010.03.12/outbox.cif.g09.slc.cpg/sg60_4_cif.got.tgz:7942.got - 2010.04.10 18:46:24.
