data_PCOD8247921
_publ_section_title
;
Structure prediction by ZEFSAII (Michael W. Deem and Ramdas Pophale) SiO2 
 PCOD8247921
Probable space group: P B C N
;
_chemical_formula_sum "Si O2"
_cell_formula_units_Z 40
_cell_length_a 9.005220
_cell_length_b 26.765393
_cell_length_c 8.638739
_cell_angle_alpha 90.000000
_cell_angle_beta 90.000000
_cell_angle_gamma 90.000000
_cell_volume 2082.180164
_symmetry_space_group_name_H-M "P B C N"
_symmetry_group_IT_number 60
_symmetry_cell_setting 'orthorhombic'
loop_
_space_group_symop_operation_xyz
x,y,z
1/2-x,1/2-y,1/2+z
1/2+x,1/2-y,-z
-x,y,1/2-z
-x,-y,-z
1/2+x,1/2+y,1/2-z
1/2-x,1/2+y,z
x,-y,1/2+z
loop_
_atom_site_type_symbol
_atom_site_label
_atom_site_fract_x
_atom_site_fract_y
_atom_site_fract_z
Si Si1 0.500000 0.242949 0.750000
Si Si2 0.000000 0.093829 0.250000
Si Si3 0.991526 0.825518 0.502012
Si Si4 0.329455 0.056488 0.755775
Si Si5 0.760505 0.167159 0.742736
Si Si6 0.159805 0.018970 0.054258
O O1 0.530669 0.276551 0.899993
O O2 0.640947 0.209469 0.709799
O O3 0.942266 0.128283 0.109985
O O4 0.863093 0.059584 0.308743
O O5 0.855804 0.814218 0.388466
O O6 0.137873 0.840644 0.407732
O O7 0.500000 0.039546 0.750000
O O8 0.319140 0.115113 0.720294
O O9 0.246321 0.028517 0.617945
O O10 0.254514 0.043811 0.918863
O O11 0.000000 0.000000 0.000000
#
# Coordination Sequence:
#
# PCOD8247921 Si02
#       6
#     4   4   8   8   8   8
#     4  11  22  42  62  92 122 156 204 267 316 372
#     4  11  20  38  62  94 116 158 222 255 290 370
#     4  10  23  38  66  89 121 161 209 259 309 376
#     4  12  25  41  62  94 133 168 205 266 324 373
#     4  11  22  40  63  90 123 164 207 252 320 377
#     4  12  23  40  66  92 124 170 219 254 304 381
#
# _framework density 19.210632
#
# number of rings (size 3 to 8) (size 9 to 14) (size 15 to 20)
#    0.000    0.800    5.000    3.000    2.800    0.000 
#    0.000    0.000    0.000    0.000    0.000    0.000 
#    0.000    0.000    0.000    0.000    0.000    0.000 
#
# Total GULP energy -496188.905483 kJ/mol
# GULP energy per Si atom -12404.722637 kJ/mol
# Density = 1.916691 g / cm^3
# Si number density = 19.210632 Si / 1000 Ang^3
#
#
#
# Elastic Constant Matrix: (Units=GPa)
#
#
# Indices 1 2 3 4 5 6 
#
# 1 123.5330 35.0322 40.5196 0.0000 0.0000 0.0000
# 2 35.0322 110.0282 32.7147 0.0000 0.0000 0.0000
# 3 40.5196 32.7147 92.6651 0.0000 0.0000 0.0000
# 4 0.0000 0.0000 0.0000 35.9909 0.0000 0.0000
# 5 0.0000 0.0000 0.0000 0.0000 25.2098 0.0000
# 6 0.0000 0.0000 0.0000 0.0000 0.0000 35.7785
#
#
#
# Elastic Compliance Matrix: (Units=1/GPa)
#
#
# Indices 1 2 3 4 5 6 
#
# 1 0.009857 -0.002075 -0.003578 0.000000 0.000000 0.000000
# 2 -0.002075 0.010591 -0.002832 0.000000 0.000000 0.000000
# 3 -0.003578 -0.002832 0.013356 0.000000 0.000000 0.000000
# 4 0.000000 0.000000 0.000000 0.027785 0.000000 0.000000
# 5 0.000000 0.000000 0.000000 0.000000 0.039667 0.000000
# 6 0.000000 0.000000 0.000000 0.000000 0.000000 0.027950
#
#
# Mechanical properties :
#
#
# Convention : Reuss Voigt Hill
#
# Bulk Modulus (GPa) = 59.39908 60.30657 59.85282
# Shear Modulus (GPa) = 32.94122 33.92651 33.43387
#
# Velocity S-wave (km/s) = 4.14543 4.20697 4.17632
# Velocity P-wave (km/s) = 7.34165 7.42015 7.38100
#
# Compressibility (1/GPa) = 0.01683528
#
# Stress axis : x y z
#
# Youngs Moduli (GPa) = 101.45255 94.41854 74.87409
#
# Poissons Ratio (x) = 0.19588 0.26787
# Poissons Ratio (y) = 0.21047 0.21204
# Poissons Ratio (z) = 0.36296 0.26739
#
# Static dielectric constant tensor:
#      x y z
#    x 3.465800 0.000000 0.000000 
#    y 0.000000 3.627170 0.000000 
#    z 0.000000 0.000000 3.625280 
# 
# 
# High freq. dielectric constant tensor:
#      x y z
#    x 1.739390 0.000000 0.000000 
#    y 0.000000 1.762460 0.000000 
#    z 0.000000 0.000000 1.758990 
# 
# From -- ./inp_files/3893.got.cif
#   From: 2010.03.12/outbox.cif.g09.slc.cpg/sg60_2_cif.got.tgz:3893.got - 2010.04.10 18:46:24.
