data_PCOD8247890
_publ_section_title
;
Structure prediction by ZEFSAII (Michael W. Deem and Ramdas Pophale) SiO2 
 PCOD8247890
Probable space group: P B C N
;
_chemical_formula_sum "Si O2"
_cell_formula_units_Z 48
_cell_length_a 18.920072
_cell_length_b 7.923554
_cell_length_c 14.237514
_cell_angle_alpha 90.000000
_cell_angle_beta 90.000000
_cell_angle_gamma 90.000000
_cell_volume 2134.405695
_symmetry_space_group_name_H-M "P B C N"
_symmetry_group_IT_number 60
_symmetry_cell_setting 'orthorhombic'
loop_
_space_group_symop_operation_xyz
x,y,z
1/2-x,1/2-y,1/2+z
1/2+x,1/2-y,-z
-x,y,1/2-z
-x,-y,-z
1/2+x,1/2+y,1/2-z
1/2-x,1/2+y,z
x,-y,1/2+z
loop_
_atom_site_type_symbol
_atom_site_label
_atom_site_fract_x
_atom_site_fract_y
_atom_site_fract_z
Si Si1 0.057264 0.341696 0.327920
Si Si2 0.460283 0.622595 0.067284
Si Si3 0.647016 0.827535 0.674743
Si Si4 0.617155 0.484696 0.756315
Si Si5 0.732762 0.050346 0.349593
Si Si6 0.186922 0.270263 0.023013
O O1 0.095607 0.517505 0.348341
O O2 0.000000 0.381330 0.250000
O O3 0.012805 0.281410 0.418448
O O4 0.112951 0.192020 0.301093
O O5 0.444796 0.524858 0.165500
O O6 0.388312 0.679959 0.019215
O O7 0.500000 0.500000 0.000000
O O8 0.606151 0.648106 0.688701
O O9 0.689858 0.852852 0.770373
O O10 0.700504 0.825510 0.584850
O O11 0.693143 0.507160 0.805479
O O12 0.747916 0.153679 0.445410
O O13 0.683223 0.903827 0.391040
#
# Coordination Sequence:
#
# PCOD8247890 Si02
#       6
#     8   8   8   8   8   8
#     4  10  23  42  68 100 135 178 237 288 344 422
#     4  10  22  45  68 100 146 180 235 297 352 427
#     4  12  25  42  73 100 136 192 232 286 364 424
#     4  10  23  43  68  96 137 188 224 287 359 413
#     4  11  23  46  63 101 145 170 239 294 344 434
#     4  11  26  42  70 104 134 187 230 292 357 421
#
# _framework density 22.488696000000001
#
# number of rings (size 3 to 8) (size 9 to 14) (size 15 to 20)
#    0.000    1.333    1.667    4.000    2.333    5.333 
#    0.000    0.000    0.000    0.000    0.000    0.000 
#    0.000    0.000    0.000    0.000    0.000    0.000 
#
# Total GULP energy -594827.063630 kJ/mol
# GULP energy per Si atom -12392.230492 kJ/mol
# Density = 2.243751 g / cm^3
# Si number density = 22.488696 Si / 1000 Ang^3
#
#
#
# Elastic Constant Matrix: (Units=GPa)
#
#
# Indices 1 2 3 4 5 6 
#
# 1 70.9662 16.1510 7.6463 0.0000 0.0000 0.0000
# 2 16.1510 99.9165 -0.6610 0.0000 0.0000 0.0000
# 3 7.6463 -0.6610 34.2526 0.0000 0.0000 0.0000
# 4 0.0000 0.0000 0.0000 22.6785 0.0000 0.0000
# 5 0.0000 0.0000 0.0000 0.0000 24.3460 0.0000
# 6 0.0000 0.0000 0.0000 0.0000 0.0000 22.0659
#
#
#
# Elastic Compliance Matrix: (Units=1/GPa)
#
#
# Indices 1 2 3 4 5 6 
#
# 1 0.015015 -0.002450 -0.003399 0.000000 0.000000 0.000000
# 2 -0.002450 0.010409 0.000748 0.000000 0.000000 0.000000
# 3 -0.003399 0.000748 0.029968 0.000000 0.000000 0.000000
# 4 0.000000 0.000000 0.000000 0.044095 0.000000 0.000000
# 5 0.000000 0.000000 0.000000 0.000000 0.041074 0.000000
# 6 0.000000 0.000000 0.000000 0.000000 0.000000 0.045319
#
#
# Mechanical properties :
#
#
# Convention : Reuss Voigt Hill
#
# Bulk Modulus (GPa) = 22.12859 27.93418 25.03139
# Shear Modulus (GPa) = 23.68035 25.95136 24.81586
#
# Velocity S-wave (km/s) = 3.24850 3.40070 3.32547
# Velocity P-wave (km/s) = 4.89199 5.27903 5.08919
#
# Compressibility (1/GPa) = 0.04519041
#
# Stress axis : x y z
#
# Youngs Moduli (GPa) = 66.60033 96.06831 33.36882
#
# Poissons Ratio (x) = 0.23533 0.11342
# Poissons Ratio (y) = 0.16314 -0.02495
# Poissons Ratio (z) = 0.22638 -0.07183
#
# Static dielectric constant tensor:
#      x y z
#    x 3.927860 0.000000 0.000000 
#    y 0.000000 4.461370 0.000000 
#    z 0.000000 0.000000 4.222700 
# 
# 
# High freq. dielectric constant tensor:
#      x y z
#    x 1.877310 0.000000 0.000000 
#    y 0.000000 1.890190 0.000000 
#    z 0.000000 0.000000 1.893060 
# 
# From -- ./inp_files/17329.got.cif
#   From: 2010.03.12/outbox.cif.g09.slc.cpg/sg60_9_cif.got.tgz:17329.got - 2010.04.10 18:46:24.
