data_PCOD8247136
_publ_section_title
;
Structure prediction by ZEFSAII (Michael W. Deem and Ramdas Pophale) SiO2 
 PCOD8247136
Probable space group: P B C N
;
_chemical_formula_sum "Si O2"
_cell_formula_units_Z 44
_cell_length_a 12.960760
_cell_length_b 8.155536
_cell_length_c 17.362178
_cell_angle_alpha 90.000000
_cell_angle_beta 90.000000
_cell_angle_gamma 90.000000
_cell_volume 1835.215980
_symmetry_space_group_name_H-M "P B C N"
_symmetry_group_IT_number 60
_symmetry_cell_setting 'orthorhombic'
loop_
_space_group_symop_operation_xyz
x,y,z
1/2-x,1/2-y,1/2+z
1/2+x,1/2-y,-z
-x,y,1/2-z
-x,-y,-z
1/2+x,1/2+y,1/2-z
1/2-x,1/2+y,z
x,-y,1/2+z
loop_
_atom_site_type_symbol
_atom_site_label
_atom_site_fract_x
_atom_site_fract_y
_atom_site_fract_z
Si Si1 0.885243 0.792464 0.031108
Si Si2 0.601308 0.227677 0.393963
Si Si3 0.813622 0.630010 0.888295
Si Si4 0.000000 0.624179 0.250000
Si Si5 0.792615 0.084777 0.113079
Si Si6 0.656793 0.875019 0.209587
O O1 0.858062 0.981312 0.051077
O O2 0.807087 0.666345 0.073210
O O3 0.004188 0.761128 0.051960
O O4 0.874775 0.763167 0.939723
O O5 0.691225 0.360086 0.406785
O O6 0.648996 0.049794 0.412144
O O7 0.569470 0.238131 0.303994
O O8 0.835359 0.673869 0.799159
O O9 0.066147 0.505627 0.305413
O O10 0.761619 0.961342 0.181824
O O11 0.865022 0.219676 0.154468
#
# Coordination Sequence:
#
# PCOD8247136 Si02
#       6
#     8   8   8   4   8   8
#     4  11  23  45  68 101 139 184 223 280 350 407
#     4  11  24  45  69  99 139 181 234 279 353 398
#     4  11  24  42  71  98 140 178 229 290 336 407
#     4  10  20  40  70  98 128 178 228 282 346 404
#     4  10  22  40  68  96 137 177 228 277 332 411
#     4  10  20  41  63  98 131 176 227 282 332 401
#
# _framework density 23.975379
#
# number of rings (size 3 to 8) (size 9 to 14) (size 15 to 20)
#    0.000    1.455    1.818    3.818    2.545    0.000 
#   13.091    1.818    0.000    0.000    0.000    0.000 
#    0.000    0.000    0.000    0.000    0.000    0.000 
#
# Total GULP energy -545539.513761 kJ/mol
# GULP energy per Si atom -12398.625313 kJ/mol
# Density = 2.392081 g / cm^3
# Si number density = 23.975379 Si / 1000 Ang^3
#
#
#
# Elastic Constant Matrix: (Units=GPa)
#
#
# Indices 1 2 3 4 5 6 
#
# 1 123.9274 25.0813 11.9126 0.0000 0.0000 0.0000
# 2 25.0813 64.1680 16.3251 0.0000 0.0000 0.0000
# 3 11.9126 16.3251 87.5194 0.0000 0.0000 0.0000
# 4 0.0000 0.0000 0.0000 25.3122 0.0000 0.0000
# 5 0.0000 0.0000 0.0000 0.0000 34.4497 0.0000
# 6 0.0000 0.0000 0.0000 0.0000 0.0000 36.1872
#
#
#
# Elastic Compliance Matrix: (Units=1/GPa)
#
#
# Indices 1 2 3 4 5 6 
#
# 1 0.008791 -0.003288 -0.000583 0.000000 0.000000 0.000000
# 2 -0.003288 0.017590 -0.002834 0.000000 0.000000 0.000000
# 3 -0.000583 -0.002834 0.012034 0.000000 0.000000 0.000000
# 4 0.000000 0.000000 0.000000 0.039507 0.000000 0.000000
# 5 0.000000 0.000000 0.000000 0.000000 0.029028 0.000000
# 6 0.000000 0.000000 0.000000 0.000000 0.000000 0.027634
#
#
# Mechanical properties :
#
#
# Convention : Reuss Voigt Hill
#
# Bulk Modulus (GPa) = 39.99090 42.47253 41.23172
# Shear Modulus (GPa) = 31.98413 34.00953 32.99683
#
# Velocity S-wave (km/s) = 3.65641 3.77041 3.71385
# Velocity P-wave (km/s) = 5.87725 6.05873 5.96868
#
# Compressibility (1/GPa) = 0.02500569
#
# Stress axis : x y z
#
# Youngs Moduli (GPa) = 113.75685 56.85039 83.09798
#
# Poissons Ratio (x) = 0.18690 0.04847
# Poissons Ratio (y) = 0.37399 0.23547
# Poissons Ratio (z) = 0.06635 0.16109
#
# Static dielectric constant tensor:
#      x y z
#    x 4.367420 0.000000 0.000000 
#    y 0.000000 4.286890 0.000000 
#    z 0.000000 0.000000 4.376480 
# 
# 
# High freq. dielectric constant tensor:
#      x y z
#    x 1.946310 0.000000 0.000000 
#    y 0.000000 1.944760 0.000000 
#    z 0.000000 0.000000 1.959220 
# 
# From -- ./inp_files/20433.got.cif
#   From: 2010.03.12/outbox.cif.g09.slc.cpg/sg60_11_cif.got.tgz:20433.got - 2010.04.10 18:46:24.
