data_PCOD8247113
_publ_section_title
;
Structure prediction by ZEFSAII (Michael W. Deem and Ramdas Pophale) SiO2 
 PCOD8247113
Probable space group: P B C N
;
_chemical_formula_sum "Si O2"
_cell_formula_units_Z 36
_cell_length_a 8.320486
_cell_length_b 14.377841
_cell_length_c 14.604425
_cell_angle_alpha 90.000000
_cell_angle_beta 90.000000
_cell_angle_gamma 90.000000
_cell_volume 1747.136487
_symmetry_space_group_name_H-M "P B C N"
_symmetry_group_IT_number 60
_symmetry_cell_setting 'orthorhombic'
loop_
_space_group_symop_operation_xyz
x,y,z
1/2-x,1/2-y,1/2+z
1/2+x,1/2-y,-z
-x,y,1/2-z
-x,-y,-z
1/2+x,1/2+y,1/2-z
1/2-x,1/2+y,z
x,-y,1/2+z
loop_
_atom_site_type_symbol
_atom_site_label
_atom_site_fract_x
_atom_site_fract_y
_atom_site_fract_z
Si Si1 0.660667 0.532520 0.707583
Si Si2 0.165827 0.588325 0.429557
Si Si3 0.659029 0.254807 0.195327
Si Si4 0.000000 0.298547 0.250000
Si Si5 0.600817 0.950098 0.373843
O O1 0.500000 0.491725 0.750000
O O2 0.695216 0.467984 0.621277
O O3 0.636084 0.637267 0.671577
O O4 0.792668 0.523434 0.786884
O O5 0.165714 0.695368 0.397677
O O6 0.201254 0.585562 0.538189
O O7 0.996353 0.540924 0.404166
O O8 0.500000 0.220203 0.250000
O O9 0.831165 0.240409 0.250028
O O10 0.987593 0.364416 0.159001
#
# Coordination Sequence:
#
# PCOD8247113 Si02
#       5
#     8   8   8   4   8
#     4  10  21  40  59  85 130 153 193 264 306 355
#     4  11  21  38  65  90 113 165 210 242 310 374
#     4  10  21  38  61  88 121 162 204 245 309 364
#     4  10  20  44  60  86 128 164 190 270 312 348
#     4  10  20  40  64  84 123 158 202 254 305 364
#
# _framework density 20.605143000000002
#
# number of rings (size 3 to 8) (size 9 to 14) (size 15 to 20)
#    0.000    1.778    4.444    1.333    1.556    0.889 
#   12.000    4.444    0.000    0.000    0.000    0.000 
#    0.000    0.000    0.000    0.000    0.000    0.000 
#
# Total GULP energy -446148.605250 kJ/mol
# GULP energy per Si atom -12393.016812 kJ/mol
# Density = 2.055824 g / cm^3
# Si number density = 20.605143 Si / 1000 Ang^3
#
#
#
# Elastic Constant Matrix: (Units=GPa)
#
#
# Indices 1 2 3 4 5 6 
#
# 1 110.5855 11.4889 16.5521 0.0000 0.0000 0.0000
# 2 11.4889 63.3544 40.2578 0.0000 0.0000 0.0000
# 3 16.5521 40.2578 117.5749 0.0000 0.0000 0.0000
# 4 0.0000 0.0000 0.0000 18.4594 0.0000 0.0000
# 5 0.0000 0.0000 0.0000 0.0000 24.9495 0.0000
# 6 0.0000 0.0000 0.0000 0.0000 0.0000 22.2771
#
#
#
# Elastic Compliance Matrix: (Units=1/GPa)
#
#
# Indices 1 2 3 4 5 6 
#
# 1 0.009296 -0.001092 -0.000935 0.000000 0.000000 0.000000
# 2 -0.001092 0.020302 -0.006798 0.000000 0.000000 0.000000
# 3 -0.000935 -0.006798 0.010964 0.000000 0.000000 0.000000
# 4 0.000000 0.000000 0.000000 0.054173 0.000000 0.000000
# 5 0.000000 0.000000 0.000000 0.000000 0.040081 0.000000
# 6 0.000000 0.000000 0.000000 0.000000 0.000000 0.044889
#
#
# Mechanical properties :
#
#
# Convention : Reuss Voigt Hill
#
# Bulk Modulus (GPa) = 43.64209 47.56805 45.60507
# Shear Modulus (GPa) = 24.39127 28.01828 26.20478
#
# Velocity S-wave (km/s) = 3.44429 3.69151 3.57004
# Velocity P-wave (km/s) = 6.08636 6.42692 6.25895
#
# Compressibility (1/GPa) = 0.02291366
#
# Stress axis : x y z
#
# Youngs Moduli (GPa) = 107.57166 49.25702 91.20468
#
# Poissons Ratio (x) = 0.05377 0.08527
# Poissons Ratio (y) = 0.11744 0.61998
# Poissons Ratio (z) = 0.10057 0.33483
#
# Static dielectric constant tensor:
#      x y z
#    x 4.014780 0.000000 0.000000 
#    y 0.000000 3.605960 0.000000 
#    z 0.000000 0.000000 3.708530 
# 
# 
# High freq. dielectric constant tensor:
#      x y z
#    x 1.810980 0.000000 0.000000 
#    y 0.000000 1.796120 0.000000 
#    z 0.000000 0.000000 1.788450 
# 
# From -- ./inp_files/14581.got.cif
#   From: 2010.03.12/outbox.cif.g09.slc.cpg/sg60_8_cif.got.tgz:14581.got - 2010.04.10 18:46:24.
