data_PCOD8247412
_publ_section_title
;
Structure prediction by ZEFSAII (Michael W. Deem and Ramdas Pophale) SiO2 
 PCOD8247412
Probable space group: P B C N
;
_chemical_formula_sum "Si O2"
_cell_formula_units_Z 64
_cell_length_a 24.723366
_cell_length_b 8.329059
_cell_length_c 14.040686
_cell_angle_alpha 90.000000
_cell_angle_beta 90.000000
_cell_angle_gamma 90.000000
_cell_volume 2891.291395
_symmetry_space_group_name_H-M "P B C N"
_symmetry_group_IT_number 60
_symmetry_cell_setting 'orthorhombic'
loop_
_space_group_symop_operation_xyz
x,y,z
1/2-x,1/2-y,1/2+z
1/2+x,1/2-y,-z
-x,y,1/2-z
-x,-y,-z
1/2+x,1/2+y,1/2-z
1/2-x,1/2+y,z
x,-y,1/2+z
loop_
_atom_site_type_symbol
_atom_site_label
_atom_site_fract_x
_atom_site_fract_y
_atom_site_fract_z
Si Si1 0.313457 0.500896 0.997478
Si Si2 0.508115 0.436540 0.358254
Si Si3 0.197731 0.624219 0.457910
Si Si4 0.964231 0.643277 0.035575
Si Si5 0.098118 0.122612 0.367385
Si Si6 0.376852 0.894099 0.119353
Si Si7 0.885992 0.507398 0.678927
Si Si8 0.126173 0.952191 0.671397
O O1 0.312279 0.685956 0.965755
O O2 0.261237 0.408719 0.960308
O O3 0.367247 0.418330 0.958643
O O4 0.323765 0.472936 0.111161
O O5 0.500000 0.373957 0.250000
O O6 0.500209 0.296583 0.436686
O O7 0.464838 0.577491 0.380085
O O8 0.567921 0.506694 0.374782
O O9 0.169532 0.536116 0.548976
O O10 0.172707 0.549558 0.361082
O O11 0.930918 0.604383 0.131239
O O12 0.925770 0.669748 0.945560
O O13 0.000000 0.500000 0.000000
O O14 0.100149 0.311132 0.348405
O O15 0.124276 0.009046 0.283603
O O16 0.389056 0.020155 0.205533
O O17 0.358466 0.735541 0.173099
#
# Coordination Sequence:
#
# PCOD8247412 Si02
#       8
#     8   8   8   8   8   8   8   8
#     4  11  22  40  65  86 126 153 204 257 306 367
#     4  10  22  40  60  89 129 165 210 247 301 367
#     4  10  22  42  61  93 117 161 200 255 312 367
#     4  11  25  37  56  93 123 165 204 244 302 357
#     4  10  21  39  63  91 118 165 206 250 307 361
#     4   9  21  41  62  85 124 157 204 251 304 359
#     4  10  22  41  62  88 125 158 203 254 305 364
#     4   9  21  39  64  90 119 163 205 252 301 367
#
# _framework density 22.135439000000002
#
# number of rings (size 3 to 8) (size 9 to 14) (size 15 to 20)
#    0.000    2.000    0.000    3.000    5.250    2.000 
#    0.000    2.500    0.000    0.000    0.000    0.000 
#    0.000    0.000    0.000    0.000    0.000    0.000 
#
# Total GULP energy -792951.313008 kJ/mol
# GULP energy per Si atom -12389.864266 kJ/mol
# Density = 2.208506 g / cm^3
# Si number density = 22.135439 Si / 1000 Ang^3
#
#
#
# Elastic Constant Matrix: (Units=GPa)
#
#
# Indices 1 2 3 4 5 6 
#
# 1 72.5596 3.9411 3.9475 0.0000 0.0000 0.0000
# 2 3.9411 52.3846 4.0758 0.0000 0.0000 0.0000
# 3 3.9475 4.0758 93.6596 0.0000 0.0000 0.0000
# 4 0.0000 0.0000 0.0000 28.8559 0.0000 0.0000
# 5 0.0000 0.0000 0.0000 0.0000 25.3093 0.0000
# 6 0.0000 0.0000 0.0000 0.0000 0.0000 26.9810
#
#
#
# Elastic Compliance Matrix: (Units=1/GPa)
#
#
# Indices 1 2 3 4 5 6 
#
# 1 0.013866 -0.001001 -0.000541 0.000000 0.000000 0.000000
# 2 -0.001001 0.019227 -0.000795 0.000000 0.000000 0.000000
# 3 -0.000541 -0.000795 0.010734 0.000000 0.000000 0.000000
# 4 0.000000 0.000000 0.000000 0.034655 0.000000 0.000000
# 5 0.000000 0.000000 0.000000 0.000000 0.039511 0.000000
# 6 0.000000 0.000000 0.000000 0.000000 0.000000 0.037063
#
#
# Mechanical properties :
#
#
# Convention : Reuss Voigt Hill
#
# Bulk Modulus (GPa) = 25.54030 26.94806 26.24418
# Shear Modulus (GPa) = 28.93856 30.00521 29.47189
#
# Velocity S-wave (km/s) = 3.61964 3.68574 3.65284
# Velocity P-wave (km/s) = 5.38816 5.50577 5.44729
#
# Compressibility (1/GPa) = 0.03915380
#
# Stress axis : x y z
#
# Youngs Moduli (GPa) = 72.12113 52.01095 93.15900
#
# Poissons Ratio (x) = 0.05207 0.05038
# Poissons Ratio (y) = 0.07220 0.07402
# Poissons Ratio (z) = 0.03901 0.04132
#
# Static dielectric constant tensor:
#      x y z
#    x 3.926560 0.000000 0.000000 
#    y 0.000000 3.744260 0.000000 
#    z 0.000000 0.000000 4.394170 
# 
# 
# High freq. dielectric constant tensor:
#      x y z
#    x 1.859660 0.000000 0.000000 
#    y 0.000000 1.857990 0.000000 
#    z 0.000000 0.000000 1.886020 
# 
# From -- ./inp_files/17932.got.cif
#   From: 2010.03.12/outbox.cif.g09.slc.cpg/sg60_9_cif.got.tgz:17932.got - 2010.04.10 18:46:24.
