data_PCOD8247276
_publ_section_title
;
Structure prediction by ZEFSAII (Michael W. Deem and Ramdas Pophale) SiO2 
 PCOD8247276
Probable space group: P B C N
;
_chemical_formula_sum "Si O2"
_cell_formula_units_Z 64
_cell_length_a 19.814859
_cell_length_b 18.555932
_cell_length_c 9.192975
_cell_angle_alpha 90.000000
_cell_angle_beta 90.000000
_cell_angle_gamma 90.000000
_cell_volume 3380.102247
_symmetry_space_group_name_H-M "P B C N"
_symmetry_group_IT_number 60
_symmetry_cell_setting 'orthorhombic'
loop_
_space_group_symop_operation_xyz
x,y,z
1/2-x,1/2-y,1/2+z
1/2+x,1/2-y,-z
-x,y,1/2-z
-x,-y,-z
1/2+x,1/2+y,1/2-z
1/2-x,1/2+y,z
x,-y,1/2+z
loop_
_atom_site_type_symbol
_atom_site_label
_atom_site_fract_x
_atom_site_fract_y
_atom_site_fract_z
Si Si1 0.545842 0.369081 0.624535
Si Si2 0.453120 0.620981 0.877745
Si Si3 0.137245 0.993464 0.753904
Si Si4 0.147577 0.226382 0.554436
Si Si5 0.851762 0.236170 0.608777
Si Si6 0.265593 0.503335 0.995595
Si Si7 0.284920 0.849203 0.405782
Si Si8 0.287157 0.855453 0.070714
O O1 0.500000 0.331935 0.750000
O O2 0.498122 0.412527 0.508844
O O3 0.593363 0.423904 0.711177
O O4 0.586336 0.310596 0.531458
O O5 0.500000 0.651592 0.750000
O O6 0.403085 0.564957 0.798927
O O7 0.413131 0.687786 0.952295
O O8 0.163269 0.994938 0.587003
O O9 0.209335 0.991189 0.832091
O O10 0.131980 0.244212 0.721151
O O11 0.157016 0.303966 0.482753
O O12 0.212791 0.175561 0.539943
O O13 0.784926 0.191814 0.578906
O O14 0.843439 0.312583 0.524845
O O15 0.222318 0.576508 0.995032
O O16 0.213909 0.439536 0.031138
O O17 0.307125 0.853721 0.238809
#
# Coordination Sequence:
#
# PCOD8247276 Si02
#       8
#     8   8   8   8   8   8   8   8
#     4  12  25  36  55  86 119 163 203 236 279 340
#     4  12  22  40  57  80 121 163 205 236 278 340
#     4  12  23  37  56  83 124 162 200 229 278 350
#     4  10  21  38  55  81 110 151 196 245 282 344
#     4  10  21  38  57  80 108 155 195 242 289 340
#     4  12  21  37  59  86 117 154 192 242 295 349
#     4  10  22  36  59  81 113 145 193 246 299 338
#     4  10  21  37  58  80 112 147 194 243 296 343
#
# _framework density 18.934339999999999
#
# number of rings (size 3 to 8) (size 9 to 14) (size 15 to 20)
#    0.000    1.000    5.000    3.000    3.500    1.000 
#    0.000    0.000    0.000    0.000    0.000    1.750 
#    0.000    0.000    0.000    0.000    0.000    0.000 
#
# Total GULP energy -793273.181114 kJ/mol
# GULP energy per Si atom -12394.893455 kJ/mol
# Density = 1.889124 g / cm^3
# Si number density = 18.934340 Si / 1000 Ang^3
#
#
#
# Elastic Constant Matrix: (Units=GPa)
#
#
# Indices 1 2 3 4 5 6 
#
# 1 42.9110 42.0787 22.7766 0.0000 0.0000 0.0000
# 2 42.0787 134.5393 50.3104 0.0000 0.0000 0.0000
# 3 22.7766 50.3104 69.6154 0.0000 0.0000 0.0000
# 4 0.0000 0.0000 0.0000 39.3498 0.0000 0.0000
# 5 0.0000 0.0000 0.0000 0.0000 36.4075 0.0000
# 6 0.0000 0.0000 0.0000 0.0000 0.0000 -1.0767
#
#
#
# Elastic Compliance Matrix: (Units=1/GPa)
#
#
# Indices 1 2 3 4 5 6 
#
# 1 0.034753 -0.009068 -0.004817 0.000000 0.000000 0.000000
# 2 -0.009068 0.012551 -0.006104 0.000000 0.000000 0.000000
# 3 -0.004817 -0.006104 0.020352 0.000000 0.000000 0.000000
# 4 0.000000 0.000000 0.000000 0.025413 0.000000 0.000000
# 5 0.000000 0.000000 0.000000 0.000000 0.027467 0.000000
# 6 0.000000 0.000000 0.000000 0.000000 0.000000 -0.928749
#
#
# Mechanical properties :
#
#
# Convention : Reuss Voigt Hill
#
# Bulk Modulus (GPa) = 36.12926 53.04412 44.58669
# Shear Modulus (GPa) = -6.58755 23.72946 8.57096
#
# Velocity S-wave (km/s) = -1.86727 3.54397 2.12991
# Velocity P-wave (km/s) = 3.80445 6.69491 5.44498
#
# Compressibility (1/GPa) = 0.02767840
#
# Stress axis : x y z
#
# Youngs Moduli (GPa) = 28.77436 79.67184 49.13554
#
# Poissons Ratio (x) = 0.72248 0.23668
# Poissons Ratio (y) = 0.26093 0.29992
# Poissons Ratio (z) = 0.13860 0.48631
#
# Static dielectric constant tensor:
#      x y z
#    x 3.343810 0.000000 0.000000 
#    y 0.000000 3.485920 0.000000 
#    z 0.000000 0.000000 3.791320 
# 
# 
# High freq. dielectric constant tensor:
#      x y z
#    x 1.700230 0.000000 0.000000 
#    y 0.000000 1.718480 0.000000 
#    z 0.000000 0.000000 1.758830 
# 
# From -- ./inp_files/7044.got.cif
#   From: 2010.03.12/outbox.cif.g09.slc.cpg/sg60_4_cif.got.tgz:7044.got - 2010.04.10 18:46:24.
