data_PCOD8247615
_publ_section_title
;
Structure prediction by ZEFSAII (Michael W. Deem and Ramdas Pophale) SiO2 
 PCOD8247615
Probable space group: P B C N
;
_chemical_formula_sum "Si O2"
_cell_formula_units_Z 28
_cell_length_a 10.528702
_cell_length_b 8.869369
_cell_length_c 13.543984
_cell_angle_alpha 90.000000
_cell_angle_beta 90.000000
_cell_angle_gamma 90.000000
_cell_volume 1264.777088
_symmetry_space_group_name_H-M "P B C N"
_symmetry_group_IT_number 60
_symmetry_cell_setting 'orthorhombic'
loop_
_space_group_symop_operation_xyz
x,y,z
1/2-x,1/2-y,1/2+z
1/2+x,1/2-y,-z
-x,y,1/2-z
-x,-y,-z
1/2+x,1/2+y,1/2-z
1/2-x,1/2+y,z
x,-y,1/2+z
loop_
_atom_site_type_symbol
_atom_site_label
_atom_site_fract_x
_atom_site_fract_y
_atom_site_fract_z
Si Si1 0.000000 0.087146 0.250000
Si Si2 0.951098 0.343067 0.612598
Si Si3 0.671154 0.681768 0.785381
Si Si4 0.439419 0.831999 0.112217
O O1 0.980422 0.190112 0.152155
O O2 0.126006 0.986663 0.240368
O O3 0.842435 0.287146 0.688017
O O4 0.903148 0.312258 0.501995
O O5 0.081430 0.250971 0.629292
O O6 0.976647 0.519658 0.630138
O O7 0.813255 0.667558 0.821793
#
# Coordination Sequence:
#
# PCOD8247615 Si02
#       4
#     4   8   8   8
#     4  10  22  36  60  90 118 154 204 242 300 376
#     4   9  22  41  63  93 124 159 213 252 305 383
#     4  10  22  41  61  92 129 157 201 264 308 359
#     4  11  21  40  66  89 124 168 200 254 315 362
#
# _framework density 22.138289
#
# number of rings (size 3 to 8) (size 9 to 14) (size 15 to 20)
#    0.000    2.286    0.000    3.429    0.000    6.857 
#    0.000   17.143    0.000    0.000    0.000    0.000 
#    0.000    0.000    0.000    0.000    0.000    0.000 
#
# Total GULP energy -347183.154796 kJ/mol
# GULP energy per Si atom -12399.398386 kJ/mol
# Density = 2.208790 g / cm^3
# Si number density = 22.138289 Si / 1000 Ang^3
#
#
#
# Elastic Constant Matrix: (Units=GPa)
#
#
# Indices 1 2 3 4 5 6 
#
# 1 53.7921 35.2484 59.5789 0.0000 0.0000 0.0000
# 2 35.2484 161.7418 84.0351 0.0000 0.0000 0.0000
# 3 59.5789 84.0351 191.3956 0.0000 0.0000 0.0000
# 4 0.0000 0.0000 0.0000 32.3475 0.0000 0.0000
# 5 0.0000 0.0000 0.0000 0.0000 32.3097 0.0000
# 6 0.0000 0.0000 0.0000 0.0000 0.0000 13.6950
#
#
#
# Elastic Compliance Matrix: (Units=1/GPa)
#
#
# Indices 1 2 3 4 5 6 
#
# 1 0.028915 -0.002105 -0.008077 0.000000 0.000000 0.000000
# 2 -0.002105 0.008163 -0.002929 0.000000 0.000000 0.000000
# 3 -0.008077 -0.002929 0.009025 0.000000 0.000000 0.000000
# 4 0.000000 0.000000 0.000000 0.030914 0.000000 0.000000
# 5 0.000000 0.000000 0.000000 0.000000 0.030950 0.000000
# 6 0.000000 0.000000 0.000000 0.000000 0.000000 0.073019
#
#
# Mechanical properties :
#
#
# Convention : Reuss Voigt Hill
#
# Bulk Modulus (GPa) = 50.29706 84.96159 67.62933
# Shear Modulus (GPa) = 23.38248 30.87492 27.12870
#
# Velocity S-wave (km/s) = 3.25345 3.73854 3.50440
# Velocity P-wave (km/s) = 6.07306 7.55623 6.85487
#
# Compressibility (1/GPa) = 0.01988188
#
# Stress axis : x y z
#
# Youngs Moduli (GPa) = 34.58421 122.50091 110.80498
#
# Poissons Ratio (x) = 0.25788 0.89492
# Poissons Ratio (y) = 0.07281 0.32453
# Poissons Ratio (z) = 0.27932 0.35879
#
# Static dielectric constant tensor:
#      x y z
#    x 3.589080 0.000000 0.000000 
#    y 0.000000 4.356590 0.000000 
#    z 0.000000 0.000000 4.147920 
# 
# 
# High freq. dielectric constant tensor:
#      x y z
#    x 1.852720 0.000000 0.000000 
#    y 0.000000 1.893250 0.000000 
#    z 0.000000 0.000000 1.873740 
# 
# From -- ./inp_files/15550.got.cif
#   From: 2010.03.12/outbox.cif.g09.slc.cpg/sg60_8_cif.got.tgz:15550.got - 2010.04.10 18:46:24.
