data_PCOD8247956
_publ_section_title
;
Structure prediction by ZEFSAII (Michael W. Deem and Ramdas Pophale) SiO2 
 PCOD8247956
Probable space group: P B C N
;
_chemical_formula_sum "Si O2"
_cell_formula_units_Z 48
_cell_length_a 8.129521
_cell_length_b 19.728051
_cell_length_c 15.356804
_cell_angle_alpha 90.000000
_cell_angle_beta 90.000000
_cell_angle_gamma 90.000000
_cell_volume 2462.918158
_symmetry_space_group_name_H-M "P B C N"
_symmetry_group_IT_number 60
_symmetry_cell_setting 'orthorhombic'
loop_
_space_group_symop_operation_xyz
x,y,z
1/2-x,1/2-y,1/2+z
1/2+x,1/2-y,-z
-x,y,1/2-z
-x,-y,-z
1/2+x,1/2+y,1/2-z
1/2-x,1/2+y,z
x,-y,1/2+z
loop_
_atom_site_type_symbol
_atom_site_label
_atom_site_fract_x
_atom_site_fract_y
_atom_site_fract_z
Si Si1 0.039075 0.650138 0.496601
Si Si2 0.396294 0.709995 0.489043
Si Si3 0.627566 0.687333 0.823868
Si Si4 0.125527 0.575853 0.671712
Si Si5 0.113553 0.420710 0.666925
Si Si6 0.880023 0.189926 0.329654
O O1 0.210697 0.685804 0.471314
O O2 0.049841 0.606280 0.583777
O O3 0.901370 0.707980 0.511190
O O4 0.985592 0.601818 0.418278
O O5 0.461563 0.682142 0.582466
O O6 0.515431 0.679459 0.416750
O O7 0.500000 0.709710 0.750000
O O8 0.708852 0.615354 0.800453
O O9 0.767311 0.743902 0.836487
O O10 0.170523 0.497973 0.655477
O O11 0.000000 0.584820 0.750000
O O12 0.276282 0.377634 0.683604
O O13 0.000000 0.410761 0.750000
O O14 0.000000 0.201898 0.250000
#
# Coordination Sequence:
#
# PCOD8247956 Si02
#       6
#     8   8   8   8   8   8
#     4  11  21  39  61  93 122 164 205 252 306 360
#     4  11  22  38  62  92 126 155 203 260 299 357
#     4  11  24  39  62  92 122 158 205 257 305 360
#     4  10  23  42  63  87 124 163 205 245 308 370
#     4  11  23  42  62  89 124 163 204 253 303 364
#     4  12  24  38  62  92 122 160 207 253 309 359
#
# _framework density 19.489077000000002
#
# number of rings (size 3 to 8) (size 9 to 14) (size 15 to 20)
#    0.000    1.000    5.000    2.500    2.333    2.000 
#    0.000    3.333    0.000    0.000    0.000    0.000 
#    0.000    0.000    0.000    0.000    0.000    0.000 
#
# Total GULP energy -595361.524251 kJ/mol
# GULP energy per Si atom -12403.365089 kJ/mol
# Density = 1.944472 g / cm^3
# Si number density = 19.489077 Si / 1000 Ang^3
#
#
#
# Elastic Constant Matrix: (Units=GPa)
#
#
# Indices 1 2 3 4 5 6 
#
# 1 83.1094 45.2700 45.8600 0.0000 0.0000 0.0000
# 2 45.2700 133.8602 35.0094 0.0000 0.0000 0.0000
# 3 45.8600 35.0094 107.9561 0.0000 0.0000 0.0000
# 4 0.0000 0.0000 0.0000 34.2609 0.0000 0.0000
# 5 0.0000 0.0000 0.0000 0.0000 34.4757 0.0000
# 6 0.0000 0.0000 0.0000 0.0000 0.0000 36.4785
#
#
#
# Elastic Compliance Matrix: (Units=1/GPa)
#
#
# Indices 1 2 3 4 5 6 
#
# 1 0.017830 -0.004424 -0.006139 0.000000 0.000000 0.000000
# 2 -0.004424 0.009261 -0.001124 0.000000 0.000000 0.000000
# 3 -0.006139 -0.001124 0.012236 0.000000 0.000000 0.000000
# 4 0.000000 0.000000 0.000000 0.029188 0.000000 0.000000
# 5 0.000000 0.000000 0.000000 0.000000 0.029006 0.000000
# 6 0.000000 0.000000 0.000000 0.000000 0.000000 0.027413
#
#
# Mechanical properties :
#
#
# Convention : Reuss Voigt Hill
#
# Bulk Modulus (GPa) = 62.69097 64.13383 63.41240
# Shear Modulus (GPa) = 32.54675 34.29543 33.42109
#
# Velocity S-wave (km/s) = 4.09100 4.19946 4.14558
# Velocity P-wave (km/s) = 7.38594 7.51618 7.45134
#
# Compressibility (1/GPa) = 0.01595126
#
# Stress axis : x y z
#
# Youngs Moduli (GPa) = 56.08530 107.98445 81.72929
#
# Poissons Ratio (x) = 0.47774 0.50178
# Poissons Ratio (y) = 0.24813 0.09184
# Poissons Ratio (z) = 0.34433 0.12135
#
# Static dielectric constant tensor:
#      x y z
#    x 3.522980 0.000000 0.000000 
#    y 0.000000 3.676660 0.000000 
#    z 0.000000 0.000000 3.816780 
# 
# 
# High freq. dielectric constant tensor:
#      x y z
#    x 1.754120 0.000000 0.000000 
#    y 0.000000 1.758830 0.000000 
#    z 0.000000 0.000000 1.783210 
# 
# From -- ./inp_files/14990.got.cif
#   From: 2010.03.12/outbox.cif.g09.slc.cpg/sg60_8_cif.got.tgz:14990.got - 2010.04.10 18:46:24.
