data_PCOD8247657
_publ_section_title
;
Structure prediction by ZEFSAII (Michael W. Deem and Ramdas Pophale) SiO2 
 PCOD8247657
Probable space group: P B C N
;
_chemical_formula_sum "Si O2"
_cell_formula_units_Z 60
_cell_length_a 12.403262
_cell_length_b 27.853900
_cell_length_c 8.185564
_cell_angle_alpha 90.000000
_cell_angle_beta 90.000000
_cell_angle_gamma 90.000000
_cell_volume 2827.942261
_symmetry_space_group_name_H-M "P B C N"
_symmetry_group_IT_number 60
_symmetry_cell_setting 'orthorhombic'
loop_
_space_group_symop_operation_xyz
x,y,z
1/2-x,1/2-y,1/2+z
1/2+x,1/2-y,-z
-x,y,1/2-z
-x,-y,-z
1/2+x,1/2+y,1/2-z
1/2-x,1/2+y,z
x,-y,1/2+z
loop_
_atom_site_type_symbol
_atom_site_label
_atom_site_fract_x
_atom_site_fract_y
_atom_site_fract_z
Si Si1 0.774559 0.876210 0.270399
Si Si2 0.096987 0.593462 0.138456
Si Si3 0.380074 0.543861 0.260378
Si Si4 0.085554 0.673698 0.892865
Si Si5 0.566368 0.281813 0.583151
Si Si6 0.219010 0.133032 0.370687
Si Si7 0.500000 0.672217 0.750000
Si Si8 0.758558 0.035987 0.556675
O O1 0.705015 0.839901 0.163558
O O2 0.729352 0.876689 0.453393
O O3 0.764149 0.930383 0.212763
O O4 0.897458 0.861593 0.252923
O O5 0.191241 0.621591 0.235706
O O6 0.000000 0.573214 0.250000
O O7 0.045917 0.634907 0.025513
O O8 0.144082 0.547228 0.036758
O O9 0.500000 0.521056 0.250000
O O10 0.382531 0.597135 0.338754
O O11 0.286432 0.515915 0.364811
O O12 0.351125 0.547754 0.071238
O O13 0.097465 0.727352 0.961578
O O14 0.000000 0.671551 0.750000
O O15 0.500000 0.284465 0.750000
O O16 0.674083 0.312589 0.622579
O O17 0.501315 0.298068 0.420481
#
# Coordination Sequence:
#
# PCOD8247657 Si02
#       8
#     8   8   8   8   8   8   4   8
#     4  10  22  40  60  88 130 159 212 260 319 388
#     4  10  22  41  64  88 122 166 214 266 320 377
#     4  11  22  36  61  92 125 164 207 255 326 391
#     4  10  22  41  63  93 122 169 215 266 318 380
#     4  10  23  40  62  91 131 167 214 267 323 388
#     4  10  22  38  61  92 124 168 207 261 321 386
#     4  10  24  38  60  92 122 174 204 260 334 382
#     4  10  23  38  60  91 122 161 207 262 316 388
#
# _framework density 21.216842
#
# number of rings (size 3 to 8) (size 9 to 14) (size 15 to 20)
#    0.000    1.867    0.000    2.400   11.200    2.133 
#    4.800    2.667    0.000    8.000    0.000    0.000 
#    0.000    0.000    0.000    0.000    0.000    0.000 
#
# Total GULP energy -743402.900129 kJ/mol
# GULP energy per Si atom -12390.048335 kJ/mol
# Density = 2.116855 g / cm^3
# Si number density = 21.216842 Si / 1000 Ang^3
#
#
#
# Elastic Constant Matrix: (Units=GPa)
#
#
# Indices 1 2 3 4 5 6 
#
# 1 87.4514 29.2984 13.0725 0.0000 0.0000 0.0000
# 2 29.2984 78.3886 14.0487 0.0000 0.0000 0.0000
# 3 13.0725 14.0487 89.9893 0.0000 0.0000 0.0000
# 4 0.0000 0.0000 0.0000 10.9204 0.0000 0.0000
# 5 0.0000 0.0000 0.0000 0.0000 30.5286 0.0000
# 6 0.0000 0.0000 0.0000 0.0000 0.0000 16.9705
#
#
#
# Elastic Compliance Matrix: (Units=1/GPa)
#
#
# Indices 1 2 3 4 5 6 
#
# 1 0.013192 -0.004719 -0.001180 0.000000 0.000000 0.000000
# 2 -0.004719 0.014812 -0.001627 0.000000 0.000000 0.000000
# 3 -0.001180 -0.001627 0.011538 0.000000 0.000000 0.000000
# 4 0.000000 0.000000 0.000000 0.091571 0.000000 0.000000
# 5 0.000000 0.000000 0.000000 0.000000 0.032756 0.000000
# 6 0.000000 0.000000 0.000000 0.000000 0.000000 0.058926
#
#
# Mechanical properties :
#
#
# Convention : Reuss Voigt Hill
#
# Bulk Modulus (GPa) = 40.83163 40.96314 40.89739
# Shear Modulus (GPa) = 20.32427 24.97789 22.65108
#
# Velocity S-wave (km/s) = 3.09840 3.43485 3.27096
# Velocity P-wave (km/s) = 5.66452 5.92282 5.79511
#
# Compressibility (1/GPa) = 0.02449082
#
# Stress axis : x y z
#
# Youngs Moduli (GPa) = 75.80145 67.51095 86.67185
#
# Poissons Ratio (x) = 0.31861 0.10224
# Poissons Ratio (y) = 0.35773 0.14100
# Poissons Ratio (z) = 0.08942 0.10983
#
# Static dielectric constant tensor:
#      x y z
#    x 3.716380 0.000000 0.000000 
#    y 0.000000 3.901160 0.000000 
#    z 0.000000 0.000000 4.091600 
# 
# 
# High freq. dielectric constant tensor:
#      x y z
#    x 1.818960 0.000000 0.000000 
#    y 0.000000 1.825470 0.000000 
#    z 0.000000 0.000000 1.854580 
# 
# From -- ./inp_files/5232.got.cif
#   From: 2010.03.12/outbox.cif.g09.slc.cpg/sg60_3_cif.got.tgz:5232.got - 2010.04.10 18:46:24.
