data_PCOD8247720
_publ_section_title
;
Structure prediction by ZEFSAII (Michael W. Deem and Ramdas Pophale) SiO2 
 PCOD8247720
Probable space group: P B C N
;
_chemical_formula_sum "Si O2"
_cell_formula_units_Z 32
_cell_length_a 8.128388
_cell_length_b 11.274450
_cell_length_c 14.782578
_cell_angle_alpha 90.000000
_cell_angle_beta 90.000000
_cell_angle_gamma 90.000000
_cell_volume 1354.721334
_symmetry_space_group_name_H-M "P B C N"
_symmetry_group_IT_number 60
_symmetry_cell_setting 'orthorhombic'
loop_
_space_group_symop_operation_xyz
x,y,z
1/2-x,1/2-y,1/2+z
1/2+x,1/2-y,-z
-x,y,1/2-z
-x,-y,-z
1/2+x,1/2+y,1/2-z
1/2-x,1/2+y,z
x,-y,1/2+z
loop_
_atom_site_type_symbol
_atom_site_label
_atom_site_fract_x
_atom_site_fract_y
_atom_site_fract_z
Si Si1 0.615211 0.035619 0.636751
Si Si2 0.062847 0.230015 0.093188
Si Si3 0.765159 0.459487 0.820703
Si Si4 0.296995 0.596977 0.511431
O O1 0.556178 0.172678 0.639580
O O2 0.455805 0.950770 0.648120
O O3 0.743006 0.008512 0.718231
O O4 0.703063 0.007262 0.542634
O O5 0.173309 0.167414 0.171409
O O6 0.180332 0.288114 0.017720
O O7 0.964343 0.129127 0.039048
O O8 0.670163 0.551136 0.886896
#
# Coordination Sequence:
#
# PCOD8247720 Si02
#       4
#     8   8   8   8
#     4  10  23  41  62  94 129 166 218 270 320 388
#     4  11  22  41  66  93 133 176 211 273 330 378
#     4  10  22  40  62  89 125 168 216 265 322 390
#     4  11  22  39  63  95 129 171 219 264 322 391
#
# _framework density 23.621095
#
# number of rings (size 3 to 8) (size 9 to 14) (size 15 to 20)
#    0.000    1.500    0.000    6.750    0.000    9.000 
#    0.000    0.000    0.000    0.000    0.000    0.000 
#    0.000    0.000    0.000    0.000    0.000    0.000 
#
# Total GULP energy -396790.543160 kJ/mol
# GULP energy per Si atom -12399.704474 kJ/mol
# Density = 2.356733 g / cm^3
# Si number density = 23.621095 Si / 1000 Ang^3
#
#
#
# Elastic Constant Matrix: (Units=GPa)
#
#
# Indices 1 2 3 4 5 6 
#
# 1 66.2797 44.7833 32.5006 0.0000 0.0000 0.0000
# 2 44.7833 119.9886 43.6102 0.0000 0.0000 0.0000
# 3 32.5006 43.6102 117.5056 0.0000 0.0000 0.0000
# 4 0.0000 0.0000 0.0000 27.4008 0.0000 0.0000
# 5 0.0000 0.0000 0.0000 0.0000 37.1306 0.0000
# 6 0.0000 0.0000 0.0000 0.0000 0.0000 58.4596
#
#
#
# Elastic Compliance Matrix: (Units=1/GPa)
#
#
# Indices 1 2 3 4 5 6 
#
# 1 0.021288 -0.006710 -0.003397 0.000000 0.000000 0.000000
# 2 -0.006710 0.011749 -0.002504 0.000000 0.000000 0.000000
# 3 -0.003397 -0.002504 0.010379 0.000000 0.000000 0.000000
# 4 0.000000 0.000000 0.000000 0.036495 0.000000 0.000000
# 5 0.000000 0.000000 0.000000 0.000000 0.026932 0.000000
# 6 0.000000 0.000000 0.000000 0.000000 0.000000 0.017106
#
#
# Mechanical properties :
#
#
# Convention : Reuss Voigt Hill
#
# Bulk Modulus (GPa) = 54.97092 60.61802 57.79447
# Shear Modulus (GPa) = 32.20882 36.79019 34.49950
#
# Velocity S-wave (km/s) = 3.69665 3.95082 3.82584
# Velocity P-wave (km/s) = 6.44537 6.82131 6.63600
#
# Compressibility (1/GPa) = 0.01819143
#
# Stress axis : x y z
#
# Youngs Moduli (GPa) = 46.97590 85.11471 96.34482
#
# Poissons Ratio (x) = 0.57115 0.32732
# Poissons Ratio (y) = 0.31522 0.24129
# Poissons Ratio (z) = 0.15960 0.21316
#
# Static dielectric constant tensor:
#      x y z
#    x 4.223010 0.000000 0.000000 
#    y 0.000000 4.144930 0.000000 
#    z 0.000000 0.000000 4.314830 
# 
# 
# High freq. dielectric constant tensor:
#      x y z
#    x 1.929570 0.000000 0.000000 
#    y 0.000000 1.929090 0.000000 
#    z 0.000000 0.000000 1.935110 
# 
# From -- ./inp_files/14350.got.cif
#   From: 2010.03.12/outbox.cif.g09.slc.cpg/sg60_8_cif.got.tgz:14350.got - 2010.04.10 18:46:24.
