data_PCOD8247467
_publ_section_title
;
Structure prediction by ZEFSAII (Michael W. Deem and Ramdas Pophale) SiO2 
 PCOD8247467
Probable space group: P B C N
;
_chemical_formula_sum "Si O2"
_cell_formula_units_Z 40
_cell_length_a 7.569465
_cell_length_b 23.493701
_cell_length_c 9.499385
_cell_angle_alpha 90.000000
_cell_angle_beta 90.000000
_cell_angle_gamma 90.000000
_cell_volume 1689.320732
_symmetry_space_group_name_H-M "P B C N"
_symmetry_group_IT_number 60
_symmetry_cell_setting 'orthorhombic'
loop_
_space_group_symop_operation_xyz
x,y,z
1/2-x,1/2-y,1/2+z
1/2+x,1/2-y,-z
-x,y,1/2-z
-x,-y,-z
1/2+x,1/2+y,1/2-z
1/2-x,1/2+y,z
x,-y,1/2+z
loop_
_atom_site_type_symbol
_atom_site_label
_atom_site_fract_x
_atom_site_fract_y
_atom_site_fract_z
Si Si1 0.891595 0.879541 0.109788
Si Si2 0.291883 0.484412 0.257585
Si Si3 0.608825 0.187364 0.114560
Si Si4 0.123360 0.280726 0.379017
Si Si5 0.766967 0.075154 0.023577
O O1 0.753211 0.930789 0.140215
O O2 0.772718 0.825700 0.071399
O O3 0.000000 0.863179 0.250000
O O4 0.029759 0.901760 0.990085
O O5 0.500000 0.489871 0.250000
O O6 0.225370 0.542838 0.328481
O O7 0.215258 0.469002 0.102672
O O8 0.500000 0.169207 0.250000
O O9 0.786225 0.220622 0.160267
O O10 0.645558 0.130792 0.023481
O O11 0.497221 0.229677 0.015568
O O12 0.000000 0.301244 0.250000
#
# Coordination Sequence:
#
# PCOD8247467 Si02
#       5
#     8   8   8   8   8
#     4   9  18  37  66  97 125 167 218 265 318 385
#     4   9  18  35  63  92 123 169 217 260 313 383
#     4  12  27  43  64  99 131 169 218 272 328 386
#     4  12  24  45  69  94 130 171 212 267 331 395
#     4  10  21  40  63  94 131 170 220 266 312 379
#
# _framework density 23.678156000000001
#
# number of rings (size 3 to 8) (size 9 to 14) (size 15 to 20)
#    0.000    2.000    0.000    7.800    0.000    4.000 
#    0.000    5.000    0.000    0.000    0.000    0.000 
#    0.000    0.000    0.000    0.000    0.000    0.000 
#
# Total GULP energy -495654.349309 kJ/mol
# GULP energy per Si atom -12391.358733 kJ/mol
# Density = 2.362426 g / cm^3
# Si number density = 23.678156 Si / 1000 Ang^3
#
#
#
# Elastic Constant Matrix: (Units=GPa)
#
#
# Indices 1 2 3 4 5 6 
#
# 1 69.0707 41.2318 43.3504 0.0000 0.0000 0.0000
# 2 41.2318 118.8457 49.5878 0.0000 0.0000 0.0000
# 3 43.3504 49.5878 114.4063 0.0000 0.0000 0.0000
# 4 0.0000 0.0000 0.0000 34.1053 0.0000 0.0000
# 5 0.0000 0.0000 0.0000 0.0000 33.1392 0.0000
# 6 0.0000 0.0000 0.0000 0.0000 0.0000 21.5998
#
#
#
# Elastic Compliance Matrix: (Units=1/GPa)
#
#
# Indices 1 2 3 4 5 6 
#
# 1 0.021065 -0.004856 -0.005877 0.000000 0.000000 0.000000
# 2 -0.004856 0.011391 -0.003097 0.000000 0.000000 0.000000
# 3 -0.005877 -0.003097 0.012310 0.000000 0.000000 0.000000
# 4 0.000000 0.000000 0.000000 0.029321 0.000000 0.000000
# 5 0.000000 0.000000 0.000000 0.000000 0.030176 0.000000
# 6 0.000000 0.000000 0.000000 0.000000 0.000000 0.046297
#
#
# Mechanical properties :
#
#
# Convention : Reuss Voigt Hill
#
# Bulk Modulus (GPa) = 58.46011 63.40696 60.93354
# Shear Modulus (GPa) = 27.18516 28.97904 28.08210
#
# Velocity S-wave (km/s) = 3.39206 3.50218 3.44756
# Velocity P-wave (km/s) = 6.33123 6.57195 6.45271
#
# Compressibility (1/GPa) = 0.01710568
#
# Stress axis : x y z
#
# Youngs Moduli (GPa) = 47.47105 87.78558 81.23298
#
# Poissons Ratio (x) = 0.42630 0.47743
# Poissons Ratio (y) = 0.23052 0.25161
# Poissons Ratio (z) = 0.27900 0.27190
#
# Static dielectric constant tensor:
#      x y z
#    x 4.110250 0.000000 0.000000 
#    y 0.000000 4.488780 0.000000 
#    z 0.000000 0.000000 4.106480 
# 
# 
# High freq. dielectric constant tensor:
#      x y z
#    x 1.916150 0.000000 0.000000 
#    y 0.000000 1.943300 0.000000 
#    z 0.000000 0.000000 1.924340 
# 
# From -- ./inp_files/3870.got.cif
#   From: 2010.03.12/outbox.cif.g09.slc.cpg/sg60_2_cif.got.tgz:3870.got - 2010.04.10 18:46:24.
