data_PCOD8247035
_publ_section_title
;
Structure prediction by ZEFSAII (Michael W. Deem and Ramdas Pophale) SiO2 
 PCOD8247035
Probable space group: P B C N
;
_chemical_formula_sum "Si O2"
_cell_formula_units_Z 48
_cell_length_a 13.149107
_cell_length_b 13.389444
_cell_length_c 14.381429
_cell_angle_alpha 90.000000
_cell_angle_beta 90.000000
_cell_angle_gamma 90.000000
_cell_volume 2531.983342
_symmetry_space_group_name_H-M "P B C N"
_symmetry_group_IT_number 60
_symmetry_cell_setting 'orthorhombic'
loop_
_space_group_symop_operation_xyz
x,y,z
1/2-x,1/2-y,1/2+z
1/2+x,1/2-y,-z
-x,y,1/2-z
-x,-y,-z
1/2+x,1/2+y,1/2-z
1/2-x,1/2+y,z
x,-y,1/2+z
loop_
_atom_site_type_symbol
_atom_site_label
_atom_site_fract_x
_atom_site_fract_y
_atom_site_fract_z
Si Si1 0.500000 0.481912 0.750000
Si Si2 0.745196 0.872555 0.602633
Si Si3 0.500000 0.151976 0.750000
Si Si4 0.756216 0.822495 0.989790
Si Si5 0.416541 0.961883 0.428174
Si Si6 0.162347 0.818085 0.710835
Si Si7 0.586881 0.530907 0.568460
O O1 0.589253 0.413819 0.792627
O O2 0.541071 0.554944 0.669975
O O3 0.739407 0.790605 0.522813
O O4 0.760638 0.820827 0.702437
O O5 0.646479 0.942060 0.604871
O O6 0.843258 0.934933 0.576296
O O7 0.531519 0.084390 0.662798
O O8 0.595245 0.218012 0.783490
O O9 0.765176 0.820582 0.878743
O O10 0.654104 0.879470 0.021227
O O11 0.855751 0.872189 0.033583
O O12 0.500000 0.000000 0.500000
O O13 0.500000 0.500000 0.500000
#
# Coordination Sequence:
#
# PCOD8247035 Si02
#       7
#     4   8   4   8   8   8   8
#     4   9  18  36  61  90 118 154 199 248 307 366
#     4  10  23  41  58  95 124 154 211 256 308 375
#     4  11  22  42  67  92 124 174 211 250 331 382
#     4  11  22  41  62  90 124 162 210 256 312 368
#     4  11  25  41  64  91 126 170 211 259 314 383
#     4  10  20  38  67  85 122 164 200 258 310 371
#     4  10  20  38  63  90 120 156 199 254 309 367
#
# _framework density 18.957471999999999
#
# number of rings (size 3 to 8) (size 9 to 14) (size 15 to 20)
#    0.000    1.667    3.333    1.000    2.333    1.333 
#    3.000    0.833    0.000    0.000    0.000    0.000 
#    0.000    0.000    0.000    0.000    0.000    0.000 
#
# Total GULP energy -595289.444932 kJ/mol
# GULP energy per Si atom -12401.863436 kJ/mol
# Density = 1.891432 g / cm^3
# Si number density = 18.957472 Si / 1000 Ang^3
#
#
#
# Elastic Constant Matrix: (Units=GPa)
#
#
# Indices 1 2 3 4 5 6 
#
# 1 107.9252 35.8302 66.5507 0.0000 0.0000 0.0000
# 2 35.8302 62.7573 36.8502 0.0000 0.0000 0.0000
# 3 66.5507 36.8502 143.9169 0.0000 0.0000 0.0000
# 4 0.0000 0.0000 0.0000 29.4652 0.0000 0.0000
# 5 0.0000 0.0000 0.0000 0.0000 42.6002 0.0000
# 6 0.0000 0.0000 0.0000 0.0000 0.0000 19.8596
#
#
#
# Elastic Compliance Matrix: (Units=1/GPa)
#
#
# Indices 1 2 3 4 5 6 
#
# 1 0.014178 -0.004996 -0.005277 0.000000 0.000000 0.000000
# 2 -0.004996 0.020515 -0.002942 0.000000 0.000000 0.000000
# 3 -0.005277 -0.002942 0.010142 0.000000 0.000000 0.000000
# 4 0.000000 0.000000 0.000000 0.033938 0.000000 0.000000
# 5 0.000000 0.000000 0.000000 0.000000 0.023474 0.000000
# 6 0.000000 0.000000 0.000000 0.000000 0.000000 0.050354
#
#
# Mechanical properties :
#
#
# Convention : Reuss Voigt Hill
#
# Bulk Modulus (GPa) = 54.33722 65.89570 60.11646
# Shear Modulus (GPa) = 27.00257 30.07622 28.53939
#
# Velocity S-wave (km/s) = 3.77819 3.98742 3.88421
# Velocity P-wave (km/s) = 6.91070 7.48563 7.20390
#
# Compressibility (1/GPa) = 0.01840359
#
# Stress axis : x y z
#
# Youngs Moduli (GPa) = 70.52937 48.74559 98.59834
#
# Poissons Ratio (x) = 0.24355 0.52032
# Poissons Ratio (y) = 0.35238 0.29012
# Poissons Ratio (z) = 0.37220 0.14343
#
# Static dielectric constant tensor:
#      x y z
#    x 3.633410 0.000000 0.000000 
#    y 0.000000 3.424710 0.000000 
#    z 0.000000 0.000000 3.665200 
# 
# 
# High freq. dielectric constant tensor:
#      x y z
#    x 1.740700 0.000000 0.000000 
#    y 0.000000 1.731790 0.000000 
#    z 0.000000 0.000000 1.752600 
# 
# From -- ./inp_files/11932.got.cif
#   From: 2010.03.12/outbox.cif.g09.slc.cpg/sg60_6_cif.got.tgz:11932.got - 2010.04.10 18:46:24.
