data_PCOD8247042
_publ_section_title
;
Structure prediction by ZEFSAII (Michael W. Deem and Ramdas Pophale) SiO2 
 PCOD8247042
Probable space group: P B C N
;
_chemical_formula_sum "Si O2"
_cell_formula_units_Z 60
_cell_length_a 12.750537
_cell_length_b 9.750482
_cell_length_c 24.607130
_cell_angle_alpha 90.000000
_cell_angle_beta 90.000000
_cell_angle_gamma 90.000000
_cell_volume 3059.253914
_symmetry_space_group_name_H-M "P B C N"
_symmetry_group_IT_number 60
_symmetry_cell_setting 'orthorhombic'
loop_
_space_group_symop_operation_xyz
x,y,z
1/2-x,1/2-y,1/2+z
1/2+x,1/2-y,-z
-x,y,1/2-z
-x,-y,-z
1/2+x,1/2+y,1/2-z
1/2-x,1/2+y,z
x,-y,1/2+z
loop_
_atom_site_type_symbol
_atom_site_label
_atom_site_fract_x
_atom_site_fract_y
_atom_site_fract_z
Si Si1 0.726830 0.849949 0.586462
Si Si2 0.559705 0.474378 0.917963
Si Si3 0.647950 0.584975 0.531234
Si Si4 0.328105 0.594560 0.680154
Si Si5 0.348848 0.105414 0.209841
Si Si6 0.073443 0.540206 0.326087
Si Si7 0.570343 0.723124 0.152282
Si Si8 0.500000 0.449915 0.750000
O O1 0.691113 0.734461 0.544558
O O2 0.627215 0.896584 0.621184
O O3 0.815266 0.792985 0.626639
O O4 0.766970 0.975325 0.550611
O O5 0.461696 0.562407 0.938582
O O6 0.625757 0.577182 0.880246
O O7 0.519941 0.337384 0.887087
O O8 0.633748 0.425240 0.966735
O O9 0.221766 0.509148 0.682122
O O10 0.296166 0.748501 0.696580
O O11 0.415496 0.546773 0.722426
O O12 0.462292 0.112339 0.182057
O O13 0.354329 0.070530 0.273780
O O14 0.050440 0.380616 0.334748
O O15 0.566163 0.642376 0.208726
#
# Coordination Sequence:
#
# PCOD8247042 Si02
#       8
#     8   8   8   8   8   8   8   4
#     4  11  21  38  66  93 122 157 215 261 324 368
#     4   9  22  42  66  83 128 160 216 253 325 369
#     4  10  21  41  64  92 116 163 206 273 311 374
#     4  11  24  41  61  92 122 174 203 258 311 381
#     4  11  26  38  61  89 133 165 207 250 318 381
#     4  11  23  40  61  92 131 159 210 260 310 386
#     4  10  21  38  65  96 120 167 200 264 311 386
#     4  10  20  38  64  86 126 158 214 244 320 374
#
# _framework density 19.612625999999999
#
# number of rings (size 3 to 8) (size 9 to 14) (size 15 to 20)
#    0.000    1.600    1.333    3.200    7.467    3.200 
#    0.000    2.000    0.000    0.000    0.000    0.000 
#    0.000    0.000    0.000    0.000    0.000    0.000 
#
# Total GULP energy -744276.482765 kJ/mol
# GULP energy per Si atom -12404.608046 kJ/mol
# Density = 1.956799 g / cm^3
# Si number density = 19.612626 Si / 1000 Ang^3
#
#
#
# Elastic Constant Matrix: (Units=GPa)
#
#
# Indices 1 2 3 4 5 6 
#
# 1 64.4585 17.6218 33.8760 0.0000 0.0000 0.0000
# 2 17.6218 122.0229 41.3809 0.0000 0.0000 0.0000
# 3 33.8760 41.3809 126.8469 0.0000 0.0000 0.0000
# 4 0.0000 0.0000 0.0000 26.7382 0.0000 0.0000
# 5 0.0000 0.0000 0.0000 0.0000 30.6071 0.0000
# 6 0.0000 0.0000 0.0000 0.0000 0.0000 25.0998
#
#
#
# Elastic Compliance Matrix: (Units=1/GPa)
#
#
# Indices 1 2 3 4 5 6 
#
# 1 0.018177 -0.001101 -0.004495 0.000000 0.000000 0.000000
# 2 -0.001101 0.009281 -0.002734 0.000000 0.000000 0.000000
# 3 -0.004495 -0.002734 0.009976 0.000000 0.000000 0.000000
# 4 0.000000 0.000000 0.000000 0.037400 0.000000 0.000000
# 5 0.000000 0.000000 0.000000 0.000000 0.032672 0.000000
# 6 0.000000 0.000000 0.000000 0.000000 0.000000 0.039841
#
#
# Mechanical properties :
#
#
# Convention : Reuss Voigt Hill
#
# Bulk Modulus (GPa) = 48.13534 55.45397 51.79465
# Shear Modulus (GPa) = 29.25142 31.18566 30.21854
#
# Velocity S-wave (km/s) = 3.86613 3.99191 3.92952
# Velocity P-wave (km/s) = 6.67275 7.04153 6.85962
#
# Compressibility (1/GPa) = 0.02077476
#
# Stress axis : x y z
#
# Youngs Moduli (GPa) = 55.01369 107.74416 100.24118
#
# Poissons Ratio (x) = 0.11858 0.45063
# Poissons Ratio (y) = 0.06055 0.27405
# Poissons Ratio (z) = 0.24731 0.29456
#
# Static dielectric constant tensor:
#      x y z
#    x 3.487400 0.000000 0.000000 
#    y 0.000000 3.578310 0.000000 
#    z 0.000000 0.000000 3.678480 
# 
# 
# High freq. dielectric constant tensor:
#      x y z
#    x 1.769140 0.000000 0.000000 
#    y 0.000000 1.770100 0.000000 
#    z 0.000000 0.000000 1.765770 
# 
# From -- ./inp_files/25340.got.cif
#   From: 2010.03.12/outbox.cif.g09.slc.cpg/sg60_13_cif.got.tgz:25340.got - 2010.04.10 18:46:24.
