data_PCOD8247597
_publ_section_title
;
Structure prediction by ZEFSAII (Michael W. Deem and Ramdas Pophale) SiO2 
 PCOD8247597
Probable space group: P B C N
;
_chemical_formula_sum "Si O2"
_cell_formula_units_Z 60
_cell_length_a 21.317932
_cell_length_b 15.591055
_cell_length_c 8.578655
_cell_angle_alpha 90.000000
_cell_angle_beta 90.000000
_cell_angle_gamma 90.000000
_cell_volume 2851.279415
_symmetry_space_group_name_H-M "P B C N"
_symmetry_group_IT_number 60
_symmetry_cell_setting 'orthorhombic'
loop_
_space_group_symop_operation_xyz
x,y,z
1/2-x,1/2-y,1/2+z
1/2+x,1/2-y,-z
-x,y,1/2-z
-x,-y,-z
1/2+x,1/2+y,1/2-z
1/2-x,1/2+y,z
x,-y,1/2+z
loop_
_atom_site_type_symbol
_atom_site_label
_atom_site_fract_x
_atom_site_fract_y
_atom_site_fract_z
Si Si1 0.309448 0.014316 0.604914
Si Si2 0.887936 0.915447 0.688290
Si Si3 0.799993 0.798534 0.198356
Si Si4 0.663203 0.876835 0.137586
Si Si5 0.096509 0.901916 0.456849
Si Si6 0.000000 0.810855 0.250000
Si Si7 0.249370 0.612846 0.344237
Si Si8 0.105813 0.777461 0.035233
O O1 0.345771 0.948795 0.494883
O O2 0.268705 0.960951 0.724996
O O3 0.357890 0.076632 0.700867
O O4 0.260863 0.075763 0.516092
O O5 0.821276 0.866130 0.689980
O O6 0.924801 0.855918 0.564229
O O7 0.881029 0.010830 0.624401
O O8 0.917843 0.915044 0.860145
O O9 0.735185 0.848272 0.168891
O O10 0.848069 0.833034 0.067759
O O11 0.792137 0.697292 0.176064
O O12 0.830709 0.807740 0.372276
O O13 0.619090 0.799316 0.085470
O O14 0.032902 0.872041 0.375954
O O15 0.948006 0.752095 0.338311
#
# Coordination Sequence:
#
# PCOD8247597 Si02
#       8
#     8   8   8   8   8   4   8   8
#     4  10  22  33  56  87 132 172 200 252 320 398
#     4  12  23  38  64  94 128 170 221 263 327 373
#     4  11  22  36  61  92 135 170 212 261 332 383
#     4  11  21  38  59  92 126 164 210 259 326 388
#     4  11  25  41  64  95 128 178 222 268 318 385
#     4  10  26  50  64  90 128 176 226 270 314 378
#     4  11  20  36  56  94 140 170 207 259 325 397
#     4  11  24  41  66  91 128 179 213 275 320 388
#
# _framework density 21.043185999999999
#
# number of rings (size 3 to 8) (size 9 to 14) (size 15 to 20)
#    0.000    1.067    2.667    5.600    1.867    2.667 
#    0.000    0.000    0.000    0.800    0.000    0.000 
#    0.000    0.000    0.000    0.000    0.000    0.000 
#
# Total GULP energy -743699.597278 kJ/mol
# GULP energy per Si atom -12394.993288 kJ/mol
# Density = 2.099529 g / cm^3
# Si number density = 21.043186 Si / 1000 Ang^3
#
#
#
# Elastic Constant Matrix: (Units=GPa)
#
#
# Indices 1 2 3 4 5 6 
#
# 1 71.7406 38.4327 32.7887 0.0000 0.0000 0.0000
# 2 38.4327 106.4457 63.4412 0.0000 0.0000 0.0000
# 3 32.7887 63.4412 145.4014 0.0000 0.0000 0.0000
# 4 0.0000 0.0000 0.0000 29.8507 0.0000 0.0000
# 5 0.0000 0.0000 0.0000 0.0000 24.3394 0.0000
# 6 0.0000 0.0000 0.0000 0.0000 0.0000 15.9230
#
#
#
# Elastic Compliance Matrix: (Units=1/GPa)
#
#
# Indices 1 2 3 4 5 6 
#
# 1 0.017557 -0.005378 -0.001613 0.000000 0.000000 0.000000
# 2 -0.005378 0.014343 -0.005045 0.000000 0.000000 0.000000
# 3 -0.001613 -0.005045 0.009443 0.000000 0.000000 0.000000
# 4 0.000000 0.000000 0.000000 0.033500 0.000000 0.000000
# 5 0.000000 0.000000 0.000000 0.000000 0.041086 0.000000
# 6 0.000000 0.000000 0.000000 0.000000 0.000000 0.062802
#
#
# Mechanical properties :
#
#
# Convention : Reuss Voigt Hill
#
# Bulk Modulus (GPa) = 57.90110 65.87923 61.89016
# Shear Modulus (GPa) = 23.97385 26.61760 25.29573
#
# Velocity S-wave (km/s) = 3.37897 3.56041 3.47087
# Velocity P-wave (km/s) = 6.54204 6.94814 6.74815
#
# Compressibility (1/GPa) = 0.01727083
#
# Stress axis : x y z
#
# Youngs Moduli (GPa) = 56.95646 69.71905 105.90263
#
# Poissons Ratio (x) = 0.37494 0.17080
# Poissons Ratio (y) = 0.30631 0.53433
# Poissons Ratio (z) = 0.09186 0.35177
#
# Static dielectric constant tensor:
#      x y z
#    x 3.399980 0.000000 0.000000 
#    y 0.000000 3.943590 0.000000 
#    z 0.000000 0.000000 4.370370 
# 
# 
# High freq. dielectric constant tensor:
#      x y z
#    x 1.776140 0.000000 0.000000 
#    y 0.000000 1.830680 0.000000 
#    z 0.000000 0.000000 1.850530 
# 
# From -- ./inp_files/7941.got.cif
#   From: 2010.03.12/outbox.cif.g09.slc.cpg/sg60_4_cif.got.tgz:7941.got - 2010.04.10 18:46:24.
