data_PCOD8247756
_publ_section_title
;
Structure prediction by ZEFSAII (Michael W. Deem and Ramdas Pophale) SiO2 
 PCOD8247756
Probable space group: P B C N
;
_chemical_formula_sum "Si O2"
_cell_formula_units_Z 64
_cell_length_a 13.170147
_cell_length_b 17.042331
_cell_length_c 13.884972
_cell_angle_alpha 90.000000
_cell_angle_beta 90.000000
_cell_angle_gamma 90.000000
_cell_volume 3116.482028
_symmetry_space_group_name_H-M "P B C N"
_symmetry_group_IT_number 60
_symmetry_cell_setting 'orthorhombic'
loop_
_space_group_symop_operation_xyz
x,y,z
1/2-x,1/2-y,1/2+z
1/2+x,1/2-y,-z
-x,y,1/2-z
-x,-y,-z
1/2+x,1/2+y,1/2-z
1/2-x,1/2+y,z
x,-y,1/2+z
loop_
_atom_site_type_symbol
_atom_site_label
_atom_site_fract_x
_atom_site_fract_y
_atom_site_fract_z
Si Si1 0.852854 0.334272 0.393885
Si Si2 0.913216 0.630366 0.322629
Si Si3 0.804057 0.825981 0.555389
Si Si4 0.738794 0.403227 0.128336
Si Si5 0.071734 0.673954 0.966326
Si Si6 0.880869 0.008629 0.990769
Si Si7 0.262937 0.989652 0.180198
Si Si8 0.773869 0.249817 0.735536
O O1 0.798748 0.315494 0.494547
O O2 0.836387 0.424616 0.365908
O O3 0.810168 0.277032 0.311960
O O4 0.972008 0.319328 0.401598
O O5 0.958119 0.638499 0.429757
O O6 0.818139 0.572443 0.325401
O O7 0.872429 0.714862 0.287361
O O8 0.000000 0.599517 0.250000
O O9 0.883008 0.760459 0.519685
O O10 0.851312 0.911176 0.543197
O O11 0.777452 0.815084 0.667481
O O12 0.741376 0.470676 0.208832
O O13 0.688949 0.324477 0.172313
O O14 0.851002 0.383883 0.088761
O O15 0.670461 0.433786 0.041324
O O16 0.842890 0.008728 0.879793
O O17 0.000000 0.000000 0.000000
#
# Coordination Sequence:
#
# PCOD8247756 Si02
#       8
#     8   8   8   8   8   8   8   8
#     4  10  22  42  65  93 134 172 219 277 337 400
#     4  12  24  39  64 102 133 176 225 278 343 407
#     4  10  22  41  63  95 129 168 221 277 324 405
#     4  10  23  44  66  97 132 173 225 280 336 403
#     4  11  23  40  70  97 132 180 223 277 349 397
#     4  11  24  44  68  95 131 181 223 279 340 396
#     4  10  24  43  65  96 139 170 225 281 330 415
#     4  10  22  42  64  90 135 168 215 283 328 400
#
# _framework density 20.535976999999999
#
# number of rings (size 3 to 8) (size 9 to 14) (size 15 to 20)
#    0.000    1.500    2.500    1.500    1.750   10.000 
#    0.000    1.250    0.000    0.000    0.000    0.000 
#    0.000    0.000    0.000    0.000    0.000    0.000 
#
# Total GULP energy -793872.286081 kJ/mol
# GULP energy per Si atom -12404.254470 kJ/mol
# Density = 2.048924 g / cm^3
# Si number density = 20.535977 Si / 1000 Ang^3
#
#
#
# Elastic Constant Matrix: (Units=GPa)
#
#
# Indices 1 2 3 4 5 6 
#
# 1 131.5027 40.0282 41.5386 0.0000 0.0000 0.0000
# 2 40.0282 79.2267 34.0972 0.0000 0.0000 0.0000
# 3 41.5386 34.0972 119.8844 0.0000 0.0000 0.0000
# 4 0.0000 0.0000 0.0000 32.4072 0.0000 0.0000
# 5 0.0000 0.0000 0.0000 0.0000 29.7663 0.0000
# 6 0.0000 0.0000 0.0000 0.0000 0.0000 23.6333
#
#
#
# Elastic Compliance Matrix: (Units=1/GPa)
#
#
# Indices 1 2 3 4 5 6 
#
# 1 0.009464 -0.003840 -0.002187 0.000000 0.000000 0.000000
# 2 -0.003840 0.015941 -0.003203 0.000000 0.000000 0.000000
# 3 -0.002187 -0.003203 0.010010 0.000000 0.000000 0.000000
# 4 0.000000 0.000000 0.000000 0.030857 0.000000 0.000000
# 5 0.000000 0.000000 0.000000 0.000000 0.033595 0.000000
# 6 0.000000 0.000000 0.000000 0.000000 0.000000 0.042313
#
#
# Mechanical properties :
#
#
# Convention : Reuss Voigt Hill
#
# Bulk Modulus (GPa) = 58.98280 62.43796 60.71038
# Shear Modulus (GPa) = 30.06732 31.49134 30.77933
#
# Velocity S-wave (km/s) = 3.83055 3.92021 3.87563
# Velocity P-wave (km/s) = 6.95328 7.13869 7.04660
#
# Compressibility (1/GPa) = 0.01695409
#
# Stress axis : x y z
#
# Youngs Moduli (GPa) = 105.66125 62.73165 99.89842
#
# Poissons Ratio (x) = 0.24092 0.21847
# Poissons Ratio (y) = 0.40579 0.31999
# Poissons Ratio (z) = 0.23108 0.20094
#
# Static dielectric constant tensor:
#      x y z
#    x 3.436930 0.000000 0.000000 
#    y 0.000000 3.795140 0.000000 
#    z 0.000000 0.000000 4.011050 
# 
# 
# High freq. dielectric constant tensor:
#      x y z
#    x 1.785460 0.000000 0.000000 
#    y 0.000000 1.810060 0.000000 
#    z 0.000000 0.000000 1.820720 
# 
# From -- ./inp_files/16366.got.cif
#   From: 2010.03.12/outbox.cif.g09.slc.cpg/sg60_9_cif.got.tgz:16366.got - 2010.04.10 18:46:24.
