data_PCOD8247056
_publ_section_title
;
Structure prediction by ZEFSAII (Michael W. Deem and Ramdas Pophale) SiO2 
 PCOD8247056
Probable space group: P B C N
;
_chemical_formula_sum "Si O2"
_cell_formula_units_Z 44
_cell_length_a 26.266773
_cell_length_b 9.588817
_cell_length_c 8.789758
_cell_angle_alpha 90.000000
_cell_angle_beta 90.000000
_cell_angle_gamma 90.000000
_cell_volume 2213.852435
_symmetry_space_group_name_H-M "P B C N"
_symmetry_group_IT_number 60
_symmetry_cell_setting 'orthorhombic'
loop_
_space_group_symop_operation_xyz
x,y,z
1/2-x,1/2-y,1/2+z
1/2+x,1/2-y,-z
-x,y,1/2-z
-x,-y,-z
1/2+x,1/2+y,1/2-z
1/2-x,1/2+y,z
x,-y,1/2+z
loop_
_atom_site_type_symbol
_atom_site_label
_atom_site_fract_x
_atom_site_fract_y
_atom_site_fract_z
Si Si1 0.332785 0.374086 0.153927
Si Si2 0.000000 0.469859 0.750000
Si Si3 0.068944 0.392784 0.009952
Si Si4 0.286681 0.878192 0.146963
Si Si5 0.340246 0.103753 0.967504
Si Si6 0.853073 0.837821 0.003295
O O1 0.272564 0.370144 0.178821
O O2 0.352194 0.250846 0.045714
O O3 0.352396 0.516383 0.081841
O O4 0.357933 0.358752 0.317347
O O5 0.039806 0.568258 0.663282
O O6 0.970447 0.372647 0.629347
O O7 0.108687 0.512936 0.961430
O O8 0.097172 0.248520 0.046983
O O9 0.319636 0.868331 0.299498
O O10 0.302429 0.750244 0.037726
O O11 0.297096 0.024580 0.064238
#
# Coordination Sequence:
#
# PCOD8247056 Si02
#       6
#     8   4   8   8   8   8
#     4  12  22  36  56  83 121 166 192 230 275 333
#     4  10  20  38  70  86 106 132 190 242 302 364
#     4  10  21  40  62  90 106 142 185 245 297 348
#     4  11  21  36  55  85 118 162 203 232 264 325
#     4  11  22  37  60  84 122 153 199 242 281 332
#     4  11  24  37  56  84 122 152 196 235 284 336
#
# _framework density 19.874856999999999
#
# number of rings (size 3 to 8) (size 9 to 14) (size 15 to 20)
#    0.000    1.091    0.000    9.818    0.000    0.000 
#    0.000    0.000    0.000   18.545    0.000    0.000 
#    0.000    0.000    0.000    0.000    0.000    0.000 
#
# Total GULP energy -545818.131110 kJ/mol
# GULP energy per Si atom -12404.957525 kJ/mol
# Density = 1.982962 g / cm^3
# Si number density = 19.874857 Si / 1000 Ang^3
#
#
#
# Elastic Constant Matrix: (Units=GPa)
#
#
# Indices 1 2 3 4 5 6 
#
# 1 65.1010 22.5145 3.9993 0.0000 0.0000 0.0000
# 2 22.5145 142.2135 40.2227 0.0000 0.0000 0.0000
# 3 3.9993 40.2227 103.2176 0.0000 0.0000 0.0000
# 4 0.0000 0.0000 0.0000 36.5479 0.0000 0.0000
# 5 0.0000 0.0000 0.0000 0.0000 32.5627 0.0000
# 6 0.0000 0.0000 0.0000 0.0000 0.0000 6.7280
#
#
#
# Elastic Compliance Matrix: (Units=1/GPa)
#
#
# Indices 1 2 3 4 5 6 
#
# 1 0.016267 -0.002694 0.000420 0.000000 0.000000 0.000000
# 2 -0.002694 0.008349 -0.003149 0.000000 0.000000 0.000000
# 3 0.000420 -0.003149 0.010899 0.000000 0.000000 0.000000
# 4 0.000000 0.000000 0.000000 0.027361 0.000000 0.000000
# 5 0.000000 0.000000 0.000000 0.000000 0.030710 0.000000
# 6 0.000000 0.000000 0.000000 0.000000 0.000000 0.148632
#
#
# Mechanical properties :
#
#
# Convention : Reuss Voigt Hill
#
# Bulk Modulus (GPa) = 40.53880 49.33389 44.93634
# Shear Modulus (GPa) = 19.13602 31.42077 25.27840
#
# Velocity S-wave (km/s) = 3.10631 3.98041 3.57021
# Velocity P-wave (km/s) = 5.77121 6.78240 6.29714
#
# Compressibility (1/GPa) = 0.02466772
#
# Stress axis : x y z
#
# Youngs Moduli (GPa) = 61.47555 119.77731 91.75012
#
# Poissons Ratio (x) = 0.32267 -0.03849
# Poissons Ratio (y) = 0.16561 0.28893
# Poissons Ratio (z) = -0.02579 0.37719
#
# Static dielectric constant tensor:
#      x y z
#    x 3.652820 0.000000 0.000000 
#    y 0.000000 3.641920 0.000000 
#    z 0.000000 0.000000 3.816270 
# 
# 
# High freq. dielectric constant tensor:
#      x y z
#    x 1.766210 0.000000 0.000000 
#    y 0.000000 1.769440 0.000000 
#    z 0.000000 0.000000 1.797620 
# 
# From -- ./inp_files/8342.got.cif
#   From: 2010.03.12/outbox.cif.g09.slc.cpg/sg60_5_cif.got.tgz:8342.got - 2010.04.10 18:46:24.
