data_PCOD8247512
_publ_section_title
;
Structure prediction by ZEFSAII (Michael W. Deem and Ramdas Pophale) SiO2 
 PCOD8247512
Probable space group: P B C N
;
_chemical_formula_sum "Si O2"
_cell_formula_units_Z 60
_cell_length_a 10.737335
_cell_length_b 17.256094
_cell_length_c 15.451723
_cell_angle_alpha 90.000000
_cell_angle_beta 90.000000
_cell_angle_gamma 90.000000
_cell_volume 2862.964184
_symmetry_space_group_name_H-M "P B C N"
_symmetry_group_IT_number 60
_symmetry_cell_setting 'orthorhombic'
loop_
_space_group_symop_operation_xyz
x,y,z
1/2-x,1/2-y,1/2+z
1/2+x,1/2-y,-z
-x,y,1/2-z
-x,-y,-z
1/2+x,1/2+y,1/2-z
1/2-x,1/2+y,z
x,-y,1/2+z
loop_
_atom_site_type_symbol
_atom_site_label
_atom_site_fract_x
_atom_site_fract_y
_atom_site_fract_z
Si Si1 0.500000 0.690696 0.750000
Si Si2 0.887023 0.555581 0.979914
Si Si3 0.011103 0.668820 0.845254
Si Si4 0.766485 0.342681 0.619752
Si Si5 0.006289 0.845603 0.652252
Si Si6 0.620325 0.161771 0.295454
Si Si7 0.728845 0.416653 0.938461
Si Si8 0.299682 0.669998 0.885086
O O1 0.411592 0.746828 0.690976
O O2 0.405208 0.642501 0.813435
O O3 0.769802 0.506285 0.943850
O O4 0.930700 0.618250 0.910825
O O5 0.847634 0.594252 0.070001
O O6 0.000000 0.500000 0.000000
O O7 0.158571 0.665788 0.854774
O O8 0.000000 0.633818 0.750000
O O9 0.953136 0.755266 0.852953
O O10 0.621558 0.353527 0.597737
O O11 0.770770 0.349779 0.724617
O O12 0.825327 0.259947 0.591742
O O13 0.102582 0.906619 0.613382
O O14 0.000000 0.872962 0.750000
O O15 0.500000 0.120130 0.250000
O O16 0.658637 0.128429 0.388836
O O17 0.694634 0.384119 0.032156
#
# Coordination Sequence:
#
# PCOD8247512 Si02
#       8
#     4   8   8   8   8   8   8   8
#     4   8  20  36  64  92 132 168 220 278 344 390
#     4  12  25  41  62  96 136 167 220 270 336 409
#     4  10  23  42  66  94 131 169 219 284 335 381
#     4  10  21  41  64  91 133 173 214 280 326 396
#     4  10  21  42  68  96 125 169 226 270 327 395
#     4   9  19  35  64  93 125 170 223 266 330 398
#     4  12  23  38  67  97 132 176 223 271 337 408
#     4  10  21  41  64  98 129 169 225 278 335 393
#
# _framework density 20.957301000000001
#
# number of rings (size 3 to 8) (size 9 to 14) (size 15 to 20)
#    0.400    1.333    2.667    1.600    1.867    4.267 
#    2.400    0.000    1.467    0.000    0.000    0.000 
#    0.000    0.000    0.000    0.000    0.000    0.000 
#
# Total GULP energy -743358.199260 kJ/mol
# GULP energy per Si atom -12389.303321 kJ/mol
# Density = 2.090960 g / cm^3
# Si number density = 20.957301 Si / 1000 Ang^3
#
#
#
# Elastic Constant Matrix: (Units=GPa)
#
#
# Indices 1 2 3 4 5 6 
#
# 1 113.7340 38.8050 43.4496 0.0000 0.0000 0.0000
# 2 38.8050 71.0745 41.7065 0.0000 0.0000 0.0000
# 3 43.4496 41.7065 108.9626 0.0000 0.0000 0.0000
# 4 0.0000 0.0000 0.0000 51.9345 0.0000 0.0000
# 5 0.0000 0.0000 0.0000 0.0000 37.0326 0.0000
# 6 0.0000 0.0000 0.0000 0.0000 0.0000 39.1245
#
#
#
# Elastic Compliance Matrix: (Units=1/GPa)
#
#
# Indices 1 2 3 4 5 6 
#
# 1 0.011430 -0.004599 -0.002798 0.000000 0.000000 0.000000
# 2 -0.004599 0.019996 -0.005820 0.000000 0.000000 0.000000
# 3 -0.002798 -0.005820 0.012521 0.000000 0.000000 0.000000
# 4 0.000000 0.000000 0.000000 0.019255 0.000000 0.000000
# 5 0.000000 0.000000 0.000000 0.000000 0.027003 0.000000
# 6 0.000000 0.000000 0.000000 0.000000 0.000000 0.025559
#
#
# Mechanical properties :
#
#
# Convention : Reuss Voigt Hill
#
# Bulk Modulus (GPa) = 57.09722 60.18813 58.64267
# Shear Modulus (GPa) = 33.77583 36.93900 35.35742
#
# Velocity S-wave (km/s) = 4.01889 4.20287 4.11191
# Velocity P-wave (km/s) = 6.98849 7.23422 7.11242
#
# Compressibility (1/GPa) = 0.01751399
#
# Stress axis : x y z
#
# Youngs Moduli (GPa) = 87.48624 50.01080 79.86873
#
# Poissons Ratio (x) = 0.23000 0.22344
# Poissons Ratio (y) = 0.40236 0.46481
# Poissons Ratio (z) = 0.24475 0.29104
#
# Static dielectric constant tensor:
#      x y z
#    x 3.961940 0.000000 0.000000 
#    y 0.000000 3.770520 0.000000 
#    z 0.000000 0.000000 3.907720 
# 
# 
# High freq. dielectric constant tensor:
#      x y z
#    x 1.836580 0.000000 0.000000 
#    y 0.000000 1.783790 0.000000 
#    z 0.000000 0.000000 1.820110 
# 
# From -- ./inp_files/16345.got.cif
#   From: 2010.03.12/outbox.cif.g09.slc.cpg/sg60_9_cif.got.tgz:16345.got - 2010.04.10 18:46:24.
