data_PCOD8247055
_publ_section_title
;
Structure prediction by ZEFSAII (Michael W. Deem and Ramdas Pophale) SiO2 
 PCOD8247055
Probable space group: P B C N
;
_chemical_formula_sum "Si O2"
_cell_formula_units_Z 56
_cell_length_a 14.583278
_cell_length_b 11.590449
_cell_length_c 15.037756
_cell_angle_alpha 90.000000
_cell_angle_beta 90.000000
_cell_angle_gamma 90.000000
_cell_volume 2541.782872
_symmetry_space_group_name_H-M "P B C N"
_symmetry_group_IT_number 60
_symmetry_cell_setting 'orthorhombic'
loop_
_space_group_symop_operation_xyz
x,y,z
1/2-x,1/2-y,1/2+z
1/2+x,1/2-y,-z
-x,y,1/2-z
-x,-y,-z
1/2+x,1/2+y,1/2-z
1/2-x,1/2+y,z
x,-y,1/2+z
loop_
_atom_site_type_symbol
_atom_site_label
_atom_site_fract_x
_atom_site_fract_y
_atom_site_fract_z
Si Si1 0.408426 0.298189 0.466248
Si Si2 0.431658 0.393176 0.117827
Si Si3 0.821184 0.791513 0.775174
Si Si4 0.627304 0.777519 0.726523
Si Si5 0.000000 0.482180 0.750000
Si Si6 0.723582 0.543650 0.430553
Si Si7 0.108551 0.598899 0.603455
Si Si8 0.000000 0.918610 0.750000
O O1 0.506090 0.363807 0.469250
O O2 0.411004 0.280662 0.360932
O O3 0.318720 0.372510 0.493287
O O4 0.421361 0.182065 0.522991
O O5 0.411020 0.290763 0.187896
O O6 0.335048 0.426656 0.073871
O O7 0.476559 0.505345 0.164538
O O8 0.736543 0.773973 0.708724
O O9 0.783280 0.890318 0.838775
O O10 0.833077 0.671029 0.825531
O O11 0.914009 0.834472 0.727189
O O12 0.591271 0.907965 0.732692
O O13 0.980019 0.554200 0.840960
O O14 0.830033 0.504296 0.440848
#
# Coordination Sequence:
#
# PCOD8247055 Si02
#       8
#     8   8   8   8   4   8   8   4
#     4  11  24  41  64 107 135 170 233 295 341 399
#     4  11  20  42  71  93 137 181 230 281 342 420
#     4  10  22  41  69  97 133 177 232 277 338 416
#     4  12  22  43  71  99 136 184 231 276 348 434
#     4  12  24  44  72  96 136 196 226 272 362 422
#     4  10  22  41  69  92 135 181 222 284 350 395
#     4  11  24  44  65 102 143 178 228 288 346 413
#     4  10  20  38  70 100 124 176 238 280 324 408
#
# _framework density 22.031777999999999
#
# number of rings (size 3 to 8) (size 9 to 14) (size 15 to 20)
#    0.000    1.143    5.714    0.857    0.000    1.714 
#    2.571    1.429    0.000    0.000    0.000    0.000 
#    0.000    0.000    0.000    0.000    0.000    0.000 
#
# Total GULP energy -693887.098301 kJ/mol
# GULP energy per Si atom -12390.841041 kJ/mol
# Density = 2.198163 g / cm^3
# Si number density = 22.031778 Si / 1000 Ang^3
#
#
#
# Elastic Constant Matrix: (Units=GPa)
#
#
# Indices 1 2 3 4 5 6 
#
# 1 112.1106 31.7813 27.5975 0.0000 0.0000 0.0000
# 2 31.7813 87.6128 22.7724 0.0000 0.0000 0.0000
# 3 27.5975 22.7724 58.7461 0.0000 0.0000 0.0000
# 4 0.0000 0.0000 0.0000 19.5986 0.0000 0.0000
# 5 0.0000 0.0000 0.0000 0.0000 34.1103 0.0000
# 6 0.0000 0.0000 0.0000 0.0000 0.0000 30.7046
#
#
#
# Elastic Compliance Matrix: (Units=1/GPa)
#
#
# Indices 1 2 3 4 5 6 
#
# 1 0.010695 -0.002862 -0.003915 0.000000 0.000000 0.000000
# 2 -0.002862 0.013459 -0.003873 0.000000 0.000000 0.000000
# 3 -0.003915 -0.003873 0.020363 0.000000 0.000000 0.000000
# 4 0.000000 0.000000 0.000000 0.051024 0.000000 0.000000
# 5 0.000000 0.000000 0.000000 0.000000 0.029317 0.000000
# 6 0.000000 0.000000 0.000000 0.000000 0.000000 0.032568
#
#
# Mechanical properties :
#
#
# Convention : Reuss Voigt Hill
#
# Bulk Modulus (GPa) = 43.07121 46.97465 45.02293
# Shear Modulus (GPa) = 26.81501 28.63726 27.72613
#
# Velocity S-wave (km/s) = 3.49249 3.60921 3.55133
# Velocity P-wave (km/s) = 5.98793 6.22383 6.10702
#
# Compressibility (1/GPa) = 0.02321736
#
# Stress axis : x y z
#
# Youngs Moduli (GPa) = 93.50401 74.30191 49.10951
#
# Poissons Ratio (x) = 0.21265 0.19225
# Poissons Ratio (y) = 0.26760 0.19018
# Poissons Ratio (z) = 0.36604 0.28774
#
# Static dielectric constant tensor:
#      x y z
#    x 4.329810 0.000000 0.000000 
#    y 0.000000 4.085480 0.000000 
#    z 0.000000 0.000000 3.692550 
# 
# 
# High freq. dielectric constant tensor:
#      x y z
#    x 1.875640 0.000000 0.000000 
#    y 0.000000 1.875000 0.000000 
#    z 0.000000 0.000000 1.837900 
# 
# From -- ./inp_files/16884.got.cif
#   From: 2010.03.12/outbox.cif.g09.slc.cpg/sg60_9_cif.got.tgz:16884.got - 2010.04.10 18:46:24.
