data_PCOD8247096
_publ_section_title
;
Structure prediction by ZEFSAII (Michael W. Deem and Ramdas Pophale) SiO2 
 PCOD8247096
Probable space group: P B C N
;
_chemical_formula_sum "Si O2"
_cell_formula_units_Z 40
_cell_length_a 8.461569
_cell_length_b 23.976510
_cell_length_c 8.907504
_cell_angle_alpha 90.000000
_cell_angle_beta 90.000000
_cell_angle_gamma 90.000000
_cell_volume 1807.144558
_symmetry_space_group_name_H-M "P B C N"
_symmetry_group_IT_number 60
_symmetry_cell_setting 'orthorhombic'
loop_
_space_group_symop_operation_xyz
x,y,z
1/2-x,1/2-y,1/2+z
1/2+x,1/2-y,-z
-x,y,1/2-z
-x,-y,-z
1/2+x,1/2+y,1/2-z
1/2-x,1/2+y,z
x,-y,1/2+z
loop_
_atom_site_type_symbol
_atom_site_label
_atom_site_fract_x
_atom_site_fract_y
_atom_site_fract_z
Si Si1 0.686722 0.516891 0.242392
Si Si2 0.290141 0.072245 0.967420
Si Si3 0.354184 0.310527 0.545030
Si Si4 0.792455 0.208529 0.109013
Si Si5 0.098420 0.395175 0.901937
O O1 0.500000 0.524759 0.250000
O O2 0.736756 0.454625 0.190410
O O3 0.756867 0.525500 0.406779
O O4 0.759120 0.561702 0.125655
O O5 0.186914 0.126624 0.000907
O O6 0.478040 0.084797 0.967706
O O7 0.540601 0.302340 0.530409
O O8 0.297769 0.297610 0.712492
O O9 0.265725 0.270247 0.429319
O O10 0.669737 0.163476 0.043215
O O11 0.000000 0.386329 0.750000
#
# Coordination Sequence:
#
# PCOD8247096 Si02
#       5
#     8   8   8   8   8
#     4  11  22  40  64  92 130 173 218 269 329 390
#     4  11  23  42  64  94 131 174 218 271 330 390
#     4  11  24  43  69  98 132 169 219 268 333 393
#     4  11  23  43  71  95 130 173 213 274 331 394
#     4  10  20  39  69  89 130 175 215 270 334 389
#
# _framework density 22.134366
#
# number of rings (size 3 to 8) (size 9 to 14) (size 15 to 20)
#    0.000    1.200    4.000    3.600    0.000    0.000 
#    7.200    0.000    8.800    0.000    0.000    0.000 
#    0.000    0.000    0.000    0.000    0.000    0.000 
#
# Total GULP energy -496166.519013 kJ/mol
# GULP energy per Si atom -12404.162975 kJ/mol
# Density = 2.208399 g / cm^3
# Si number density = 22.134366 Si / 1000 Ang^3
#
#
#
# Elastic Constant Matrix: (Units=GPa)
#
#
# Indices 1 2 3 4 5 6 
#
# 1 163.7662 69.4336 37.0655 0.0000 0.0000 0.0000
# 2 69.4336 145.6370 69.7701 0.0000 0.0000 0.0000
# 3 37.0655 69.7701 44.3671 0.0000 0.0000 0.0000
# 4 0.0000 0.0000 0.0000 34.0872 0.0000 0.0000
# 5 0.0000 0.0000 0.0000 0.0000 17.1760 0.0000
# 6 0.0000 0.0000 0.0000 0.0000 0.0000 35.4742
#
#
#
# Elastic Compliance Matrix: (Units=1/GPa)
#
#
# Indices 1 2 3 4 5 6 
#
# 1 0.007731 -0.002399 -0.002686 0.000000 0.000000 0.000000
# 2 -0.002399 0.028585 -0.042947 0.000000 0.000000 0.000000
# 3 -0.002686 -0.042947 0.092321 0.000000 0.000000 0.000000
# 4 0.000000 0.000000 0.000000 0.029337 0.000000 0.000000
# 5 0.000000 0.000000 0.000000 0.000000 0.058221 0.000000
# 6 0.000000 0.000000 0.000000 0.000000 0.000000 0.028189
#
#
# Mechanical properties :
#
#
# Convention : Reuss Voigt Hill
#
# Bulk Modulus (GPa) = 30.70157 78.47878 54.59017
# Shear Modulus (GPa) = 14.23262 29.18090 21.70676
#
# Velocity S-wave (km/s) = 2.53851 3.63485 3.13498
# Velocity P-wave (km/s) = 4.74265 7.29032 6.14986
#
# Compressibility (1/GPa) = 0.03257162
#
# Stress axis : x y z
#
# Youngs Moduli (GPa) = 129.34212 34.98364 10.83183
#
# Poissons Ratio (x) = 0.08393 0.02910
# Poissons Ratio (y) = 0.31030 0.46520
# Poissons Ratio (z) = 0.34746 1.50245
#
# Static dielectric constant tensor:
#      x y z
#    x 4.328490 0.000000 0.000000 
#    y 0.000000 4.043340 0.000000 
#    z 0.000000 0.000000 3.725180 
# 
# 
# High freq. dielectric constant tensor:
#      x y z
#    x 1.891040 0.000000 0.000000 
#    y 0.000000 1.878780 0.000000 
#    z 0.000000 0.000000 1.843290 
# 
# From -- ./inp_files/3830.got.cif
#   From: 2010.03.12/outbox.cif.g09.slc.cpg/sg60_2_cif.got.tgz:3830.got - 2010.04.10 18:46:24.
