data_PCOD8247565
_publ_section_title
;
Structure prediction by ZEFSAII (Michael W. Deem and Ramdas Pophale) SiO2 
 PCOD8247565
Probable space group: P B C N
;
_chemical_formula_sum "Si O2"
_cell_formula_units_Z 48
_cell_length_a 27.870736
_cell_length_b 8.730554
_cell_length_c 8.766594
_cell_angle_alpha 90.000000
_cell_angle_beta 90.000000
_cell_angle_gamma 90.000000
_cell_volume 2133.148717
_symmetry_space_group_name_H-M "P B C N"
_symmetry_group_IT_number 60
_symmetry_cell_setting 'orthorhombic'
loop_
_space_group_symop_operation_xyz
x,y,z
1/2-x,1/2-y,1/2+z
1/2+x,1/2-y,-z
-x,y,1/2-z
-x,-y,-z
1/2+x,1/2+y,1/2-z
1/2-x,1/2+y,z
x,-y,1/2+z
loop_
_atom_site_type_symbol
_atom_site_label
_atom_site_fract_x
_atom_site_fract_y
_atom_site_fract_z
Si Si1 0.456833 0.881272 0.145630
Si Si2 0.198800 0.686487 0.171265
Si Si3 0.117100 0.867723 0.035373
Si Si4 0.978278 0.279358 0.896423
Si Si5 0.715113 0.143474 0.967919
Si Si6 0.132692 0.180478 0.195911
O O1 0.500000 0.822043 0.250000
O O2 0.406074 0.815533 0.196069
O O3 0.451398 0.063724 0.150505
O O4 0.472371 0.819148 0.981946
O O5 0.145111 0.753669 0.150717
O O6 0.203500 0.530074 0.076906
O O7 0.232100 0.814870 0.091933
O O8 0.210379 0.662007 0.349552
O O9 0.061201 0.821022 0.016729
O O10 0.114747 0.037507 0.099933
O O11 0.142700 0.866648 0.870620
O O12 0.000000 0.190913 0.750000
O O13 0.681033 0.260632 0.880065
#
# Coordination Sequence:
#
# PCOD8247565 Si02
#       6
#     8   8   8   8   8   8
#     4  10  21  43  64  94 128 176 220 278 331 400
#     4  12  26  47  74 102 137 172 222 266 335 388
#     4  12  26  44  64  99 134 180 223 279 329 399
#     4  10  23  39  68  93 131 171 227 274 338 395
#     4  12  26  47  74 103 135 176 215 275 325 400
#     4  12  26  43  67  95 138 175 228 273 336 391
#
# _framework density 22.501947000000001
#
# number of rings (size 3 to 8) (size 9 to 14) (size 15 to 20)
#    0.000    0.667    1.667    6.000    4.667    1.333 
#    0.000    0.000    0.000    0.000    0.000    0.000 
#    0.000    0.000    0.000    0.000    0.000    0.000 
#
# Total GULP energy -595243.475779 kJ/mol
# GULP energy per Si atom -12400.905745 kJ/mol
# Density = 2.245073 g / cm^3
# Si number density = 22.501947 Si / 1000 Ang^3
#
#
#
# Elastic Constant Matrix: (Units=GPa)
#
#
# Indices 1 2 3 4 5 6 
#
# 1 63.1028 2.1225 2.0797 0.0000 0.0000 0.0000
# 2 2.1225 79.1825 0.1003 0.0000 0.0000 0.0000
# 3 2.0797 0.1003 121.5920 0.0000 0.0000 0.0000
# 4 0.0000 0.0000 0.0000 32.9837 0.0000 0.0000
# 5 0.0000 0.0000 0.0000 0.0000 36.5734 0.0000
# 6 0.0000 0.0000 0.0000 0.0000 0.0000 28.4924
#
#
#
# Elastic Compliance Matrix: (Units=1/GPa)
#
#
# Indices 1 2 3 4 5 6 
#
# 1 0.015870 -0.000425 -0.000271 0.000000 0.000000 0.000000
# 2 -0.000425 0.012640 -0.000003 0.000000 0.000000 0.000000
# 3 -0.000271 -0.000003 0.008229 0.000000 0.000000 0.000000
# 4 0.000000 0.000000 0.000000 0.030318 0.000000 0.000000
# 5 0.000000 0.000000 0.000000 0.000000 0.027342 0.000000
# 6 0.000000 0.000000 0.000000 0.000000 0.000000 0.035097
#
#
# Mechanical properties :
#
#
# Convention : Reuss Voigt Hill
#
# Bulk Modulus (GPa) = 28.29568 30.27580 29.28574
# Shear Modulus (GPa) = 35.04443 36.91490 35.97967
#
# Velocity S-wave (km/s) = 3.95067 4.05473 4.00304
# Velocity P-wave (km/s) = 5.78035 5.95021 5.86590
#
# Compressibility (1/GPa) = 0.03534109
#
# Stress axis : x y z
#
# Youngs Moduli (GPa) = 63.01038 79.11108 121.52349
#
# Poissons Ratio (x) = 0.03363 0.03294
# Poissons Ratio (y) = 0.02678 0.00038
# Poissons Ratio (z) = 0.01708 0.00025
#
# Static dielectric constant tensor:
#      x y z
#    x 4.196290 0.000000 0.000000 
#    y 0.000000 3.954420 0.000000 
#    z 0.000000 0.000000 4.367330 
# 
# 
# High freq. dielectric constant tensor:
#      x y z
#    x 1.891130 0.000000 0.000000 
#    y 0.000000 1.884980 0.000000 
#    z 0.000000 0.000000 1.903410 
# 
# From -- ./inp_files/8414.got.cif
#   From: 2010.03.12/outbox.cif.g09.slc.cpg/sg60_5_cif.got.tgz:8414.got - 2010.04.10 18:46:24.
