data_PCOD8247265
_publ_section_title
;
Structure prediction by ZEFSAII (Michael W. Deem and Ramdas Pophale) SiO2 
 PCOD8247265
Probable space group: P B C N
;
_chemical_formula_sum "Si O2"
_cell_formula_units_Z 32
_cell_length_a 5.153113
_cell_length_b 19.291027
_cell_length_c 14.041500
_cell_angle_alpha 90.000000
_cell_angle_beta 90.000000
_cell_angle_gamma 90.000000
_cell_volume 1395.849255
_symmetry_space_group_name_H-M "P B C N"
_symmetry_group_IT_number 60
_symmetry_cell_setting 'orthorhombic'
loop_
_space_group_symop_operation_xyz
x,y,z
1/2-x,1/2-y,1/2+z
1/2+x,1/2-y,-z
-x,y,1/2-z
-x,-y,-z
1/2+x,1/2+y,1/2-z
1/2-x,1/2+y,z
x,-y,1/2+z
loop_
_atom_site_type_symbol
_atom_site_label
_atom_site_fract_x
_atom_site_fract_y
_atom_site_fract_z
Si Si1 0.924842 0.284078 0.042883
Si Si2 0.500000 0.587332 0.750000
Si Si3 0.694896 0.925471 0.944761
Si Si4 0.500000 0.175764 0.750000
Si Si5 0.807186 0.025342 0.106513
O O1 0.927184 0.277688 0.157948
O O2 0.702540 0.234891 0.001124
O O3 0.862867 0.363170 0.016164
O O4 0.253795 0.632563 0.716096
O O5 0.615313 0.540530 0.667374
O O6 0.465027 0.936910 0.866601
O O7 0.967595 0.915411 0.888481
O O8 0.748918 0.998153 0.999472
#
# Coordination Sequence:
#
# PCOD8247265 Si02
#       5
#     8   4   8   4   8
#     4  12  26  46  69  97 136 190 234 282 336 401
#     4  12  22  40  67 106 131 168 226 290 338 418
#     4  10  21  40  60  95 127 171 209 270 338 404
#     4  12  26  44  69 100 133 176 246 282 328 420
#     4  10  21  36  65  95 132 158 208 277 347 393
#
# _framework density 22.925111000000001
#
# number of rings (size 3 to 8) (size 9 to 14) (size 15 to 20)
#    0.000    1.000    2.500    4.500    7.000    0.000 
#    0.000    7.500    0.000    0.000    0.000    0.000 
#    0.000    0.000    0.000    0.000    0.000    0.000 
#
# Total GULP energy -396549.224452 kJ/mol
# GULP energy per Si atom -12392.163264 kJ/mol
# Density = 2.287293 g / cm^3
# Si number density = 22.925111 Si / 1000 Ang^3
#
#
#
# Elastic Constant Matrix: (Units=GPa)
#
#
# Indices 1 2 3 4 5 6 
#
# 1 209.2273 36.1007 45.8281 0.0000 0.0000 0.0000
# 2 36.1007 58.3031 35.0684 0.0000 0.0000 0.0000
# 3 45.8281 35.0684 108.7489 0.0000 0.0000 0.0000
# 4 0.0000 0.0000 0.0000 29.5837 0.0000 0.0000
# 5 0.0000 0.0000 0.0000 0.0000 31.3168 0.0000
# 6 0.0000 0.0000 0.0000 0.0000 0.0000 42.7769
#
#
#
# Elastic Compliance Matrix: (Units=1/GPa)
#
#
# Indices 1 2 3 4 5 6 
#
# 1 0.005548 -0.002517 -0.001526 0.000000 0.000000 0.000000
# 2 -0.002517 0.022421 -0.006169 0.000000 0.000000 0.000000
# 3 -0.001526 -0.006169 0.011828 0.000000 0.000000 0.000000
# 4 0.000000 0.000000 0.000000 0.033802 0.000000 0.000000
# 5 0.000000 0.000000 0.000000 0.000000 0.031932 0.000000
# 6 0.000000 0.000000 0.000000 0.000000 0.000000 0.023377
#
#
# Mechanical properties :
#
#
# Convention : Reuss Voigt Hill
#
# Bulk Modulus (GPa) = 51.62209 67.80818 59.71514
# Shear Modulus (GPa) = 32.09409 38.02096 35.05752
#
# Velocity S-wave (km/s) = 3.74565 4.07687 3.91477
# Velocity P-wave (km/s) = 6.42442 7.19746 6.82190
#
# Compressibility (1/GPa) = 0.01937155
#
# Stress axis : x y z
#
# Youngs Moduli (GPa) = 180.24036 44.60060 84.54417
#
# Poissons Ratio (x) = 0.11227 0.12904
# Poissons Ratio (y) = 0.45372 0.52158
# Poissons Ratio (z) = 0.27510 0.27516
#
# Static dielectric constant tensor:
#      x y z
#    x 5.276300 0.000000 0.000000 
#    y 0.000000 3.732820 0.000000 
#    z 0.000000 0.000000 3.821700 
# 
# 
# High freq. dielectric constant tensor:
#      x y z
#    x 1.952880 0.000000 0.000000 
#    y 0.000000 1.873140 0.000000 
#    z 0.000000 0.000000 1.877310 
# 
# From -- ./inp_files/13596.got.cif
#   From: 2010.03.12/outbox.cif.g09.slc.cpg/sg60_7_cif.got.tgz:13596.got - 2010.04.10 18:46:24.
