data_PCOD8247298
_publ_section_title
;
Structure prediction by ZEFSAII (Michael W. Deem and Ramdas Pophale) SiO2 
 PCOD8247298
Probable space group: P B C N
;
_chemical_formula_sum "Si O2"
_cell_formula_units_Z 64
_cell_length_a 17.797367
_cell_length_b 12.841369
_cell_length_c 12.822048
_cell_angle_alpha 90.000000
_cell_angle_beta 90.000000
_cell_angle_gamma 90.000000
_cell_volume 2930.383634
_symmetry_space_group_name_H-M "P B C N"
_symmetry_group_IT_number 60
_symmetry_cell_setting 'orthorhombic'
loop_
_space_group_symop_operation_xyz
x,y,z
1/2-x,1/2-y,1/2+z
1/2+x,1/2-y,-z
-x,y,1/2-z
-x,-y,-z
1/2+x,1/2+y,1/2-z
1/2-x,1/2+y,z
x,-y,1/2+z
loop_
_atom_site_type_symbol
_atom_site_label
_atom_site_fract_x
_atom_site_fract_y
_atom_site_fract_z
Si Si1 0.326962 0.671395 0.884008
Si Si2 0.661142 0.977480 0.376742
Si Si3 0.924375 0.671322 0.006673
Si Si4 0.320911 0.483513 0.033526
Si Si5 0.416943 0.800034 0.219007
Si Si6 0.421345 0.392393 0.200547
Si Si7 0.085461 0.681694 0.082596
Si Si8 0.826966 0.216059 0.102526
O O1 0.354776 0.604586 0.785518
O O2 0.249743 0.730225 0.860871
O O3 0.389236 0.759751 0.902536
O O4 0.321012 0.597663 0.984667
O O5 0.623471 0.933786 0.484478
O O6 0.750532 0.973929 0.388595
O O7 0.636225 0.903813 0.279758
O O8 0.630191 0.092906 0.354316
O O9 0.922279 0.741883 0.900079
O O10 0.007787 0.637224 0.037800
O O11 0.395951 0.464859 0.103137
O O12 0.314804 0.400366 0.939259
O O13 0.500000 0.834847 0.250000
O O14 0.382143 0.713587 0.296635
O O15 0.500000 0.433376 0.250000
O O16 0.432174 0.275332 0.160387
O O17 0.138084 0.714356 0.987733
#
# Coordination Sequence:
#
# PCOD8247298 Si02
#       8
#     8   8   8   8   8   8   8   8
#     4  12  24  45  69  94 135 177 227 279 335 403
#     4  10  21  41  65 101 133 169 225 269 329 412
#     4  10  22  40  65  96 137 170 214 277 333 400
#     4  11  25  44  69  97 131 184 226 277 340 395
#     4  10  21  37  63 101 132 167 223 271 333 406
#     4  11  26  46  66  99 132 176 234 274 332 407
#     4  11  21  43  70  90 138 176 212 281 339 393
#     4  11  21  43  66  94 136 175 216 280 339 393
#
# _framework density 21.840143999999999
#
# number of rings (size 3 to 8) (size 9 to 14) (size 15 to 20)
#    0.750    0.500    5.000    1.125    0.000    2.000 
#    6.750    1.250    0.000    0.000    0.000    0.000 
#    0.000    0.000    0.000    0.000    0.000    0.000 
#
# Total GULP energy -793445.115352 kJ/mol
# GULP energy per Si atom -12397.579927 kJ/mol
# Density = 2.179044 g / cm^3
# Si number density = 21.840144 Si / 1000 Ang^3
#
#
#
# Elastic Constant Matrix: (Units=GPa)
#
#
# Indices 1 2 3 4 5 6 
#
# 1 123.3391 16.6016 27.2391 0.0000 0.0000 0.0000
# 2 16.6016 42.8513 -6.7395 0.0000 0.0000 0.0000
# 3 27.2391 -6.7395 68.0043 0.0000 0.0000 0.0000
# 4 0.0000 0.0000 0.0000 16.8116 0.0000 0.0000
# 5 0.0000 0.0000 0.0000 0.0000 37.3967 0.0000
# 6 0.0000 0.0000 0.0000 0.0000 0.0000 24.5766
#
#
#
# Elastic Compliance Matrix: (Units=1/GPa)
#
#
# Indices 1 2 3 4 5 6 
#
# 1 0.009653 -0.004417 -0.004304 0.000000 0.000000 0.000000
# 2 -0.004417 0.025727 0.004319 0.000000 0.000000 0.000000
# 3 -0.004304 0.004319 0.016857 0.000000 0.000000 0.000000
# 4 0.000000 0.000000 0.000000 0.059483 0.000000 0.000000
# 5 0.000000 0.000000 0.000000 0.000000 0.026740 0.000000
# 6 0.000000 0.000000 0.000000 0.000000 0.000000 0.040689
#
#
# Mechanical properties :
#
#
# Convention : Reuss Voigt Hill
#
# Bulk Modulus (GPa) = 23.02424 34.26635 28.64529
# Shear Modulus (GPa) = 24.69986 28.89655 26.79821
#
# Velocity S-wave (km/s) = 3.36659 3.64138 3.50668
# Velocity P-wave (km/s) = 5.06724 5.77955 5.43508
#
# Compressibility (1/GPa) = 0.04343249
#
# Stress axis : x y z
#
# Youngs Moduli (GPa) = 103.59727 38.86987 59.32263
#
# Poissons Ratio (x) = 0.17167 0.25533
# Poissons Ratio (y) = 0.45755 -0.25620
# Poissons Ratio (z) = 0.44589 -0.16787
#
# Static dielectric constant tensor:
#      x y z
#    x 3.917380 0.000000 0.000000 
#    y 0.000000 3.586720 0.000000 
#    z 0.000000 0.000000 3.795520 
# 
# 
# High freq. dielectric constant tensor:
#      x y z
#    x 1.870970 0.000000 0.000000 
#    y 0.000000 1.835660 0.000000 
#    z 0.000000 0.000000 1.851370 
# 
# From -- ./inp_files/17490.got.cif
#   From: 2010.03.12/outbox.cif.g09.slc.cpg/sg60_9_cif.got.tgz:17490.got - 2010.04.10 18:46:24.
