data_PCOD8247433
_publ_section_title
;
Structure prediction by ZEFSAII (Michael W. Deem and Ramdas Pophale) SiO2 
 PCOD8247433
Probable space group: P B C N
;
_chemical_formula_sum "Si O2"
_cell_formula_units_Z 40
_cell_length_a 22.423742
_cell_length_b 16.817162
_cell_length_c 5.178561
_cell_angle_alpha 90.000000
_cell_angle_beta 90.000000
_cell_angle_gamma 90.000000
_cell_volume 1952.854523
_symmetry_space_group_name_H-M "P B C N"
_symmetry_group_IT_number 60
_symmetry_cell_setting 'orthorhombic'
loop_
_space_group_symop_operation_xyz
x,y,z
1/2-x,1/2-y,1/2+z
1/2+x,1/2-y,-z
-x,y,1/2-z
-x,-y,-z
1/2+x,1/2+y,1/2-z
1/2-x,1/2+y,z
x,-y,1/2+z
loop_
_atom_site_type_symbol
_atom_site_label
_atom_site_fract_x
_atom_site_fract_y
_atom_site_fract_z
Si Si1 0.950068 0.820115 0.950764
Si Si2 0.697094 0.827445 0.832703
Si Si3 0.000000 0.676665 0.250000
Si Si4 0.098471 0.551984 0.163855
Si Si5 0.824476 0.225568 0.330926
Si Si6 0.500000 0.553853 0.750000
O O1 0.885679 0.823121 0.816865
O O2 0.000000 0.851830 0.750000
O O3 0.967900 0.731095 0.035883
O O4 0.946391 0.882358 0.193310
O O5 0.665888 0.913535 0.841362
O O6 0.675060 0.779296 0.585217
O O7 0.768986 0.836197 0.829186
O O8 0.677252 0.781390 0.085480
O O9 0.949015 0.622499 0.379377
O O10 0.088060 0.511491 0.439593
O O11 0.500000 0.500000 0.500000
#
# Coordination Sequence:
#
# PCOD8247433 Si02
#       6
#     8   8   4   8   8   4
#     4  11  23  39  71  98 123 166 216 273 312 384
#     4  10  21  41  62  89 123 164 213 269 314 370
#     4  11  24  38  62  95 132 170 224 255 308 388
#     4  12  25  40  60  89 136 177 209 260 321 376
#     4  10  21  39  67  92 118 157 218 274 312 361
#     4  11  24  44  60  89 132 160 190 253 344 392
#
# _framework density 20.482837
#
# number of rings (size 3 to 8) (size 9 to 14) (size 15 to 20)
#    0.000    1.200    3.000    3.000    5.600    0.000 
#    0.000    2.000    0.000    0.000    0.000    0.000 
#    0.000    0.000    0.000    0.000    0.000    0.000 
#
# Total GULP energy -495782.421710 kJ/mol
# GULP energy per Si atom -12394.560543 kJ/mol
# Density = 2.043622 g / cm^3
# Si number density = 20.482837 Si / 1000 Ang^3
#
#
#
# Elastic Constant Matrix: (Units=GPa)
#
#
# Indices 1 2 3 4 5 6 
#
# 1 152.0940 52.4495 40.2179 0.0000 0.0000 0.0000
# 2 52.4495 108.1010 36.9073 0.0000 0.0000 0.0000
# 3 40.2179 36.9073 129.4199 0.0000 0.0000 0.0000
# 4 0.0000 0.0000 0.0000 29.1122 0.0000 0.0000
# 5 0.0000 0.0000 0.0000 0.0000 29.7142 0.0000
# 6 0.0000 0.0000 0.0000 0.0000 0.0000 25.4307
#
#
#
# Elastic Compliance Matrix: (Units=1/GPa)
#
#
# Indices 1 2 3 4 5 6 
#
# 1 0.008171 -0.003432 -0.001561 0.000000 0.000000 0.000000
# 2 -0.003432 0.011690 -0.002267 0.000000 0.000000 0.000000
# 3 -0.001561 -0.002267 0.008858 0.000000 0.000000 0.000000
# 4 0.000000 0.000000 0.000000 0.034350 0.000000 0.000000
# 5 0.000000 0.000000 0.000000 0.000000 0.033654 0.000000
# 6 0.000000 0.000000 0.000000 0.000000 0.000000 0.039323
#
#
# Mechanical properties :
#
#
# Convention : Reuss Voigt Hill
#
# Bulk Modulus (GPa) = 70.42205 72.08492 71.25348
# Shear Modulus (GPa) = 32.19628 34.18743 33.19185
#
# Velocity S-wave (km/s) = 3.96898 4.08987 4.02988
# Velocity P-wave (km/s) = 7.44710 7.58762 7.51769
#
# Compressibility (1/GPa) = 0.01420010
#
# Stress axis : x y z
#
# Youngs Moduli (GPa) = 122.38497 85.54560 112.88877
#
# Poissons Ratio (x) = 0.29356 0.17617
# Poissons Ratio (y) = 0.41998 0.25594
# Poissons Ratio (z) = 0.19099 0.19395
#
# Static dielectric constant tensor:
#      x y z
#    x 3.903280 0.000000 0.000000 
#    y 0.000000 3.766710 0.000000 
#    z 0.000000 0.000000 2.969650 
# 
# 
# High freq. dielectric constant tensor:
#      x y z
#    x 1.798930 0.000000 0.000000 
#    y 0.000000 1.788150 0.000000 
#    z 0.000000 0.000000 1.819330 
# 
# From -- ./inp_files/2314.got.cif
#   From: 2010.03.12/outbox.cif.g09.slc.cpg/sg60_2_cif.got.tgz:2314.got - 2010.04.10 18:46:24.
