data_PCOD8247585
_publ_section_title
;
Structure prediction by ZEFSAII (Michael W. Deem and Ramdas Pophale) SiO2 
 PCOD8247585
Probable space group: P B C N
;
_chemical_formula_sum "Si O2"
_cell_formula_units_Z 40
_cell_length_a 10.954752
_cell_length_b 12.956622
_cell_length_c 13.747484
_cell_angle_alpha 90.000000
_cell_angle_beta 90.000000
_cell_angle_gamma 90.000000
_cell_volume 1951.270873
_symmetry_space_group_name_H-M "P B C N"
_symmetry_group_IT_number 60
_symmetry_cell_setting 'orthorhombic'
loop_
_space_group_symop_operation_xyz
x,y,z
1/2-x,1/2-y,1/2+z
1/2+x,1/2-y,-z
-x,y,1/2-z
-x,-y,-z
1/2+x,1/2+y,1/2-z
1/2-x,1/2+y,z
x,-y,1/2+z
loop_
_atom_site_type_symbol
_atom_site_label
_atom_site_fract_x
_atom_site_fract_y
_atom_site_fract_z
Si Si1 0.817784 0.420779 0.131922
Si Si2 0.038073 0.708519 0.552051
Si Si3 0.112893 0.933303 0.529705
Si Si4 0.296172 0.054822 0.648264
Si Si5 0.011560 0.393589 0.856869
O O1 0.776229 0.403607 0.242732
O O2 0.867872 0.537575 0.125074
O O3 0.922389 0.335683 0.111295
O O4 0.704767 0.407997 0.059059
O O5 0.059998 0.827970 0.574992
O O6 0.163194 0.651184 0.582012
O O7 0.010438 0.695808 0.436942
O O8 0.172712 0.002056 0.613660
O O9 0.000000 0.000000 0.500000
O O10 0.398616 0.969194 0.632319
O O11 0.000000 0.341984 0.750000
#
# Coordination Sequence:
#
# PCOD8247585 Si02
#       5
#     8   8   8   8   8
#     4  10  21  44  68  97 128 175 226 272 324 403
#     4  11  21  42  72  94 131 178 225 265 342 398
#     4  12  27  42  65 100 141 168 214 285 335 390
#     4  10  21  44  69  94 130 176 224 271 326 404
#     4   9  17  37  74  95 119 174 228 262 320 401
#
# _framework density 20.499461
#
# number of rings (size 3 to 8) (size 9 to 14) (size 15 to 20)
#    0.000    1.600    4.000    3.000    2.800    0.800 
#   18.000    0.000    0.000    0.000    0.000    0.000 
#    0.000    0.000    0.000    0.000    0.000    0.000 
#
# Total GULP energy -495919.777566 kJ/mol
# GULP energy per Si atom -12397.994439 kJ/mol
# Density = 2.045280 g / cm^3
# Si number density = 20.499461 Si / 1000 Ang^3
#
#
#
# Elastic Constant Matrix: (Units=GPa)
#
#
# Indices 1 2 3 4 5 6 
#
# 1 90.1184 51.8891 51.1749 0.0000 0.0000 0.0000
# 2 51.8891 118.0377 55.9063 0.0000 0.0000 0.0000
# 3 51.1749 55.9063 144.6518 0.0000 0.0000 0.0000
# 4 0.0000 0.0000 0.0000 17.2586 0.0000 0.0000
# 5 0.0000 0.0000 0.0000 0.0000 24.4589 0.0000
# 6 0.0000 0.0000 0.0000 0.0000 0.0000 27.7775
#
#
#
# Elastic Compliance Matrix: (Units=1/GPa)
#
#
# Indices 1 2 3 4 5 6 
#
# 1 0.016308 -0.005430 -0.003671 0.000000 0.000000 0.000000
# 2 -0.005430 0.012178 -0.002786 0.000000 0.000000 0.000000
# 3 -0.003671 -0.002786 0.009288 0.000000 0.000000 0.000000
# 4 0.000000 0.000000 0.000000 0.057942 0.000000 0.000000
# 5 0.000000 0.000000 0.000000 0.000000 0.040885 0.000000
# 6 0.000000 0.000000 0.000000 0.000000 0.000000 0.036000
#
#
# Mechanical properties :
#
#
# Convention : Reuss Voigt Hill
#
# Bulk Modulus (GPa) = 71.42202 74.52762 72.97482
# Shear Modulus (GPa) = 24.87045 26.82151 25.84598
#
# Velocity S-wave (km/s) = 3.48692 3.62111 3.55464
# Velocity P-wave (km/s) = 7.15039 7.34289 7.24728
#
# Compressibility (1/GPa) = 0.01400128
#
# Stress axis : x y z
#
# Youngs Moduli (GPa) = 61.32118 82.11264 107.66166
#
# Poissons Ratio (x) = 0.44590 0.39518
# Poissons Ratio (y) = 0.33299 0.29991
# Poissons Ratio (z) = 0.22508 0.22874
#
# Static dielectric constant tensor:
#      x y z
#    x 3.642580 0.000000 0.000000 
#    y 0.000000 7.264370 0.000000 
#    z 0.000000 0.000000 4.312010 
# 
# 
# High freq. dielectric constant tensor:
#      x y z
#    x 1.793990 0.000000 0.000000 
#    y 0.000000 1.780650 0.000000 
#    z 0.000000 0.000000 1.811960 
# 
# From -- ./inp_files/15829.got.cif
#   From: 2010.03.12/outbox.cif.g09.slc.cpg/sg60_8_cif.got.tgz:15829.got - 2010.04.10 18:46:24.
