data_PCOD8247808
_publ_section_title
;
Structure prediction by ZEFSAII (Michael W. Deem and Ramdas Pophale) SiO2 
 PCOD8247808
Probable space group: P B C N
;
_chemical_formula_sum "Si O2"
_cell_formula_units_Z 40
_cell_length_a 7.805515
_cell_length_b 24.641128
_cell_length_c 9.552596
_cell_angle_alpha 90.000000
_cell_angle_beta 90.000000
_cell_angle_gamma 90.000000
_cell_volume 1837.314736
_symmetry_space_group_name_H-M "P B C N"
_symmetry_group_IT_number 60
_symmetry_cell_setting 'orthorhombic'
loop_
_space_group_symop_operation_xyz
x,y,z
1/2-x,1/2-y,1/2+z
1/2+x,1/2-y,-z
-x,y,1/2-z
-x,-y,-z
1/2+x,1/2+y,1/2-z
1/2-x,1/2+y,z
x,-y,1/2+z
loop_
_atom_site_type_symbol
_atom_site_label
_atom_site_fract_x
_atom_site_fract_y
_atom_site_fract_z
Si Si1 0.579790 0.399329 0.902110
Si Si2 0.842018 0.085591 0.854289
Si Si3 0.880966 0.215280 0.535419
Si Si4 0.120529 0.483398 0.627318
Si Si5 0.257067 0.296131 0.172381
O O1 0.500000 0.394699 0.750000
O O2 0.744759 0.437531 0.914819
O O3 0.423406 0.423480 0.992922
O O4 0.643575 0.341349 0.955905
O O5 0.725290 0.139531 0.846459
O O6 0.000000 0.093236 0.750000
O O7 0.723758 0.035245 0.814002
O O8 0.742491 0.220000 0.662911
O O9 0.877517 0.263363 0.421692
O O10 0.061277 0.219987 0.609807
O O11 0.000000 0.460491 0.750000
O O12 0.000000 0.500000 0.500000
#
# Coordination Sequence:
#
# PCOD8247808 Si02
#       5
#     8   8   8   8   8
#     4  11  23  43  67  94 126 177 221 258 319 395
#     4  11  21  45  70  88 127 178 220 253 315 405
#     4  10  23  41  65  94 129 164 215 261 318 383
#     4  12  26  42  64 100 132 161 214 279 331 371
#     4  10  22  42  65  97 124 168 213 262 317 383
#
# _framework density 21.770903000000001
#
# number of rings (size 3 to 8) (size 9 to 14) (size 15 to 20)
#    0.000    1.200    4.000    3.600    5.600    1.600 
#    3.600    0.000    0.000    0.000    0.000    0.000 
#    0.000    0.000    0.000    0.000    0.000    0.000 
#
# Total GULP energy -496008.656021 kJ/mol
# GULP energy per Si atom -12400.216401 kJ/mol
# Density = 2.172135 g / cm^3
# Si number density = 21.770903 Si / 1000 Ang^3
#
#
#
# Elastic Constant Matrix: (Units=GPa)
#
#
# Indices 1 2 3 4 5 6 
#
# 1 54.3672 40.3539 21.6503 0.0000 0.0000 0.0000
# 2 40.3539 114.7144 14.6959 0.0000 0.0000 0.0000
# 3 21.6503 14.6959 126.8691 0.0000 0.0000 0.0000
# 4 0.0000 0.0000 0.0000 29.5862 0.0000 0.0000
# 5 0.0000 0.0000 0.0000 0.0000 41.8449 0.0000
# 6 0.0000 0.0000 0.0000 0.0000 0.0000 37.3541
#
#
#
# Elastic Compliance Matrix: (Units=1/GPa)
#
#
# Indices 1 2 3 4 5 6 
#
# 1 0.026317 -0.008813 -0.003470 0.000000 0.000000 0.000000
# 2 -0.008813 0.011800 0.000137 0.000000 0.000000 0.000000
# 3 -0.003470 0.000137 0.008458 0.000000 0.000000 0.000000
# 4 0.000000 0.000000 0.000000 0.033800 0.000000 0.000000
# 5 0.000000 0.000000 0.000000 0.000000 0.023898 0.000000
# 6 0.000000 0.000000 0.000000 0.000000 0.000000 0.026771
#
#
# Mechanical properties :
#
#
# Convention : Reuss Voigt Hill
#
# Bulk Modulus (GPa) = 44.87722 49.92787 47.40255
# Shear Modulus (GPa) = 30.71946 36.37376 33.54661
#
# Velocity S-wave (km/s) = 3.76045 4.09192 3.92968
# Velocity P-wave (km/s) = 6.28592 6.73113 6.51233
#
# Compressibility (1/GPa) = 0.02228302
#
# Stress axis : x y z
#
# Youngs Moduli (GPa) = 37.99850 84.74586 118.22512
#
# Poissons Ratio (x) = 0.74687 0.41026
# Poissons Ratio (y) = 0.33488 -0.01621
# Poissons Ratio (z) = 0.13186 -0.01162
#
# Static dielectric constant tensor:
#      x y z
#    x 3.414560 0.000000 0.000000 
#    y 0.000000 4.121910 0.000000 
#    z 0.000000 0.000000 4.756040 
# 
# 
# High freq. dielectric constant tensor:
#      x y z
#    x 1.846470 0.000000 0.000000 
#    y 0.000000 1.856180 0.000000 
#    z 0.000000 0.000000 1.878070 
# 
# From -- ./inp_files/3882.got.cif
#   From: 2010.03.12/outbox.cif.g09.slc.cpg/sg60_2_cif.got.tgz:3882.got - 2010.04.10 18:46:24.
