data_PCOD8247611
_publ_section_title
;
Structure prediction by ZEFSAII (Michael W. Deem and Ramdas Pophale) SiO2 
 PCOD8247611
Probable space group: P B C N
;
_chemical_formula_sum "Si O2"
_cell_formula_units_Z 52
_cell_length_a 15.319622
_cell_length_b 21.190180
_cell_length_c 8.567191
_cell_angle_alpha 90.000000
_cell_angle_beta 90.000000
_cell_angle_gamma 90.000000
_cell_volume 2781.129071
_symmetry_space_group_name_H-M "P B C N"
_symmetry_group_IT_number 60
_symmetry_cell_setting 'orthorhombic'
loop_
_space_group_symop_operation_xyz
x,y,z
1/2-x,1/2-y,1/2+z
1/2+x,1/2-y,-z
-x,y,1/2-z
-x,-y,-z
1/2+x,1/2+y,1/2-z
1/2-x,1/2+y,z
x,-y,1/2+z
loop_
_atom_site_type_symbol
_atom_site_label
_atom_site_fract_x
_atom_site_fract_y
_atom_site_fract_z
Si Si1 0.261289 0.413855 0.983700
Si Si2 0.396668 0.415763 0.425058
Si Si3 0.500000 0.249039 0.750000
Si Si4 0.177581 0.983971 0.707599
Si Si5 0.565032 0.665299 0.969297
Si Si6 0.672260 0.706131 0.702797
Si Si7 0.836282 0.298785 0.413255
O O1 0.261719 0.470152 0.107633
O O2 0.349513 0.373716 0.988400
O O3 0.179065 0.369218 0.021350
O O4 0.254752 0.443515 0.811638
O O5 0.391139 0.477484 0.315248
O O6 0.377979 0.435950 0.602244
O O7 0.491838 0.384586 0.417131
O O8 0.324338 0.365288 0.365721
O O9 0.536409 0.293407 0.614672
O O10 0.574011 0.203339 0.818000
O O11 0.590119 0.710443 0.822690
O O12 0.657654 0.752780 0.560352
O O13 0.760795 0.722829 0.793785
#
# Coordination Sequence:
#
# PCOD8247611 Si02
#       7
#     8   8   4   8   8   8   8
#     4  10  22  38  56  86 116 159 197 242 293 366
#     4  11  21  37  56  87 125 164 190 246 283 361
#     4  12  24  38  62  90 122 160 200 262 298 358
#     4  10  22  36  57  85 122 162 202 233 292 358
#     4  11  22  38  56  90 128 156 197 236 298 362
#     4  11  23  40  59  85 122 161 197 249 301 363
#     4  11  23  39  61  85 117 158 206 251 308 356
#
# _framework density 18.697443
#
# number of rings (size 3 to 8) (size 9 to 14) (size 15 to 20)
#    0.000    1.231    4.615    3.231    2.154    3.692 
#    0.000    0.000    0.000    0.923    0.000    0.000 
#    0.000    0.000    0.000    0.000    0.000    0.000 
#
# Total GULP energy -644750.626058 kJ/mol
# GULP energy per Si atom -12399.050501 kJ/mol
# Density = 1.865489 g / cm^3
# Si number density = 18.697443 Si / 1000 Ang^3
#
#
#
# Elastic Constant Matrix: (Units=GPa)
#
#
# Indices 1 2 3 4 5 6 
#
# 1 85.2005 59.3648 73.4317 0.0000 0.0000 0.0000
# 2 59.3648 80.8872 57.3281 0.0000 0.0000 0.0000
# 3 73.4317 57.3281 142.9270 0.0000 0.0000 0.0000
# 4 0.0000 0.0000 0.0000 39.4216 0.0000 0.0000
# 5 0.0000 0.0000 0.0000 0.0000 27.8702 0.0000
# 6 0.0000 0.0000 0.0000 0.0000 0.0000 18.6124
#
#
#
# Elastic Compliance Matrix: (Units=1/GPa)
#
#
# Indices 1 2 3 4 5 6 
#
# 1 0.031231 -0.016136 -0.009573 0.000000 0.000000 0.000000
# 2 -0.016136 0.025610 -0.001982 0.000000 0.000000 0.000000
# 3 -0.009573 -0.001982 0.012710 0.000000 0.000000 0.000000
# 4 0.000000 0.000000 0.000000 0.025367 0.000000 0.000000
# 5 0.000000 0.000000 0.000000 0.000000 0.035881 0.000000
# 6 0.000000 0.000000 0.000000 0.000000 0.000000 0.053728
#
#
# Mechanical properties :
#
#
# Convention : Reuss Voigt Hill
#
# Bulk Modulus (GPa) = 70.57967 76.58486 73.58226
# Shear Modulus (GPa) = 20.43882 25.10684 22.77283
#
# Velocity S-wave (km/s) = 3.30985 3.66839 3.49372
# Velocity P-wave (km/s) = 7.24134 7.68061 7.46421
#
# Compressibility (1/GPa) = 0.01416839
#
# Stress axis : x y z
#
# Youngs Moduli (GPa) = 32.01936 39.04684 78.67736
#
# Poissons Ratio (x) = 0.63006 0.75321
# Poissons Ratio (y) = 0.51667 0.15594
# Poissons Ratio (z) = 0.30654 0.07739
#
# Static dielectric constant tensor:
#      x y z
#    x 3.289800 0.000000 0.000000 
#    y 0.000000 3.573160 0.000000 
#    z 0.000000 0.000000 3.887640 
# 
# 
# High freq. dielectric constant tensor:
#      x y z
#    x 1.688510 0.000000 0.000000 
#    y 0.000000 1.719800 0.000000 
#    z 0.000000 0.000000 1.758700 
# 
# From -- ./inp_files/6081.got.cif
#   From: 2010.03.12/outbox.cif.g09.slc.cpg/sg60_4_cif.got.tgz:6081.got - 2010.04.10 18:46:24.
