data_PCOD8247635
_publ_section_title
;
Structure prediction by ZEFSAII (Michael W. Deem and Ramdas Pophale) SiO2 
 PCOD8247635
Probable space group: P B C N
;
_chemical_formula_sum "Si O2"
_cell_formula_units_Z 60
_cell_length_a 8.106176
_cell_length_b 28.814529
_cell_length_c 11.328081
_cell_angle_alpha 90.000000
_cell_angle_beta 90.000000
_cell_angle_gamma 90.000000
_cell_volume 2645.963808
_symmetry_space_group_name_H-M "P B C N"
_symmetry_group_IT_number 60
_symmetry_cell_setting 'orthorhombic'
loop_
_space_group_symop_operation_xyz
x,y,z
1/2-x,1/2-y,1/2+z
1/2+x,1/2-y,-z
-x,y,1/2-z
-x,-y,-z
1/2+x,1/2+y,1/2-z
1/2-x,1/2+y,z
x,-y,1/2+z
loop_
_atom_site_type_symbol
_atom_site_label
_atom_site_fract_x
_atom_site_fract_y
_atom_site_fract_z
Si Si1 0.038118 0.596022 0.614453
Si Si2 0.693316 0.168642 0.023870
Si Si3 0.815545 0.518767 0.011599
Si Si4 0.500000 0.282345 0.750000
Si Si5 0.814318 0.412002 0.709159
Si Si6 0.284951 0.577230 0.034957
Si Si7 0.155291 0.243541 0.837154
Si Si8 0.949376 0.830342 0.993758
O O1 0.085219 0.648756 0.583395
O O2 0.190718 0.561099 0.583641
O O3 0.000000 0.589977 0.750000
O O4 0.890050 0.585594 0.525691
O O5 0.731188 0.131586 0.127806
O O6 0.605166 0.213154 0.079197
O O7 0.866486 0.181501 0.963493
O O8 0.783236 0.539452 0.141397
O O9 0.680149 0.477873 0.987386
O O10 0.000000 0.500000 0.000000
O O11 0.337608 0.251337 0.780859
O O12 0.436619 0.314534 0.642727
O O13 0.705535 0.412876 0.825960
O O14 0.000000 0.407268 0.750000
O O15 0.414961 0.614532 0.984798
O O16 0.000000 0.237708 0.750000
O O17 0.172329 0.198344 0.920722
#
# Coordination Sequence:
#
# PCOD8247635 Si02
#       8
#     8   8   8   4   8   8   8   8
#     4  10  22  37  63 100 135 175 225 283 349 413
#     4  10  23  44  67  99 135 175 231 290 341 431
#     4   9  19  32  59  98 128 169 221 291 329 409
#     4  10  26  48  74 104 142 182 246 300 346 442
#     4  11  18  37  66  97 128 172 233 279 346 402
#     4  11  22  37  66  94 131 177 221 286 345 407
#     4  11  26  46  77 100 144 188 237 296 363 428
#     4  11  26  47  66 103 138 181 235 290 354 430
#
# _framework density 22.676048000000002
#
# number of rings (size 3 to 8) (size 9 to 14) (size 15 to 20)
#    0.000    1.600    4.000    2.000    9.333    1.067 
#    2.400    2.667    0.000    0.000    0.000    0.000 
#    0.000    0.000    0.000    0.000    0.000    0.000 
#
# Total GULP energy -743322.365989 kJ/mol
# GULP energy per Si atom -12388.706100 kJ/mol
# Density = 2.262444 g / cm^3
# Si number density = 22.676048 Si / 1000 Ang^3
#
#
#
# Elastic Constant Matrix: (Units=GPa)
#
#
# Indices 1 2 3 4 5 6 
#
# 1 61.2555 27.8332 32.1011 0.0000 0.0000 0.0000
# 2 27.8332 95.8903 55.7317 0.0000 0.0000 0.0000
# 3 32.1011 55.7317 103.4295 0.0000 0.0000 0.0000
# 4 0.0000 0.0000 0.0000 31.3502 0.0000 0.0000
# 5 0.0000 0.0000 0.0000 0.0000 22.6650 0.0000
# 6 0.0000 0.0000 0.0000 0.0000 0.0000 26.1279
#
#
#
# Elastic Compliance Matrix: (Units=1/GPa)
#
#
# Indices 1 2 3 4 5 6 
#
# 1 0.020158 -0.003225 -0.004519 0.000000 0.000000 0.000000
# 2 -0.003225 0.015700 -0.007459 0.000000 0.000000 0.000000
# 3 -0.004519 -0.007459 0.015090 0.000000 0.000000 0.000000
# 4 0.000000 0.000000 0.000000 0.031898 0.000000 0.000000
# 5 0.000000 0.000000 0.000000 0.000000 0.044121 0.000000
# 6 0.000000 0.000000 0.000000 0.000000 0.000000 0.038273
#
#
# Mechanical properties :
#
#
# Convention : Reuss Voigt Hill
#
# Bulk Modulus (GPa) = 48.67766 54.65638 51.66702
# Shear Modulus (GPa) = 24.69228 25.68924 25.19076
#
# Velocity S-wave (km/s) = 3.30345 3.36948 3.33663
# Velocity P-wave (km/s) = 6.00529 6.26844 6.13828
#
# Compressibility (1/GPa) = 0.02054331
#
# Stress axis : x y z
#
# Youngs Moduli (GPa) = 49.60687 63.69583 66.26937
#
# Poissons Ratio (x) = 0.20541 0.29946
# Poissons Ratio (y) = 0.15997 0.49428
# Poissons Ratio (z) = 0.22417 0.47509
#
# Static dielectric constant tensor:
#      x y z
#    x 3.804590 0.000000 0.000000 
#    y 0.000000 4.732450 0.000000 
#    z 0.000000 0.000000 4.079260 
# 
# 
# High freq. dielectric constant tensor:
#      x y z
#    x 1.867990 0.000000 0.000000 
#    y 0.000000 1.909360 0.000000 
#    z 0.000000 0.000000 1.890010 
# 
# From -- ./inp_files/10284.got.cif
#   From: 2010.03.12/outbox.cif.g09.slc.cpg/sg60_6_cif.got.tgz:10284.got - 2010.04.10 18:46:24.
