data_PCOD8247540
_publ_section_title
;
Structure prediction by ZEFSAII (Michael W. Deem and Ramdas Pophale) SiO2 
 PCOD8247540
Probable space group: P B C N
;
_chemical_formula_sum "Si O2"
_cell_formula_units_Z 60
_cell_length_a 13.808422
_cell_length_b 8.625928
_cell_length_c 24.425860
_cell_angle_alpha 90.000000
_cell_angle_beta 90.000000
_cell_angle_gamma 90.000000
_cell_volume 2909.375273
_symmetry_space_group_name_H-M "P B C N"
_symmetry_group_IT_number 60
_symmetry_cell_setting 'orthorhombic'
loop_
_space_group_symop_operation_xyz
x,y,z
1/2-x,1/2-y,1/2+z
1/2+x,1/2-y,-z
-x,y,1/2-z
-x,-y,-z
1/2+x,1/2+y,1/2-z
1/2-x,1/2+y,z
x,-y,1/2+z
loop_
_atom_site_type_symbol
_atom_site_label
_atom_site_fract_x
_atom_site_fract_y
_atom_site_fract_z
Si Si1 0.799203 0.879701 0.772734
Si Si2 0.362925 0.680155 0.675251
Si Si3 0.847161 0.619505 0.580971
Si Si4 0.500000 0.124200 0.250000
Si Si5 0.718326 0.151279 0.012044
Si Si6 0.343980 0.907603 0.293527
Si Si7 0.402131 0.398250 0.055244
Si Si8 0.528183 0.274780 0.962810
O O1 0.735305 0.774277 0.813330
O O2 0.860937 0.757491 0.736910
O O3 0.862526 0.996790 0.809481
O O4 0.742692 0.993956 0.732195
O O5 0.445335 0.763785 0.709152
O O6 0.383487 0.693134 0.611112
O O7 0.835915 0.447963 0.557981
O O8 0.770414 0.713664 0.545144
O O9 0.816969 0.626979 0.644054
O O10 0.959235 0.673312 0.576465
O O11 0.438317 0.013076 0.289027
O O12 0.800787 0.065516 0.976007
O O13 0.634575 0.203724 0.970160
O O14 0.459123 0.557987 0.065479
O O15 0.472225 0.286955 0.020511
#
# Coordination Sequence:
#
# PCOD8247540 Si02
#       8
#     8   8   8   4   8   8   8   8
#     4   9  21  41  63  87 125 150 217 251 300 377
#     4  10  22  40  64  90 118 173 194 259 314 362
#     4  11  23  38  68  88 123 168 201 252 322 360
#     4  10  24  40  58  92 130 150 216 256 302 368
#     4  11  22  42  61  94 125 161 208 254 301 381
#     4  10  21  42  60  93 119 160 202 262 306 373
#     4  10  23  41  63  90 132 161 204 258 314 367
#     4  10  23  41  57  97 126 155 212 258 295 383
#
# _framework density 20.622983000000001
#
# number of rings (size 3 to 8) (size 9 to 14) (size 15 to 20)
#    0.000    1.867    1.333    1.200    3.733    2.667 
#    4.800    0.000    0.000    0.000    0.000    0.000 
#    0.000    0.000    0.000    0.000    0.000    0.000 
#
# Total GULP energy -743858.588583 kJ/mol
# GULP energy per Si atom -12397.643143 kJ/mol
# Density = 2.057604 g / cm^3
# Si number density = 20.622983 Si / 1000 Ang^3
#
#
#
# Elastic Constant Matrix: (Units=GPa)
#
#
# Indices 1 2 3 4 5 6 
#
# 1 86.0669 24.4190 16.9163 0.0000 0.0000 0.0000
# 2 24.4190 89.6215 21.0482 0.0000 0.0000 0.0000
# 3 16.9163 21.0482 93.8927 0.0000 0.0000 0.0000
# 4 0.0000 0.0000 0.0000 15.4463 0.0000 0.0000
# 5 0.0000 0.0000 0.0000 0.0000 7.3562 0.0000
# 6 0.0000 0.0000 0.0000 0.0000 0.0000 -0.6570
#
#
#
# Elastic Compliance Matrix: (Units=1/GPa)
#
#
# Indices 1 2 3 4 5 6 
#
# 1 0.012819 -0.003114 -0.001611 0.000000 0.000000 0.000000
# 2 -0.003114 0.012535 -0.002249 0.000000 0.000000 0.000000
# 3 -0.001611 -0.002249 0.011445 0.000000 0.000000 0.000000
# 4 0.000000 0.000000 0.000000 0.064741 0.000000 0.000000
# 5 0.000000 0.000000 0.000000 0.000000 0.135940 0.000000
# 6 0.000000 0.000000 0.000000 0.000000 0.000000 -1.522079
#
#
# Mechanical properties :
#
#
# Convention : Reuss Voigt Hill
#
# Bulk Modulus (GPa) = 43.76448 43.81646 43.79047
# Shear Modulus (GPa) = -3.95872 18.24227 7.14177
#
# Velocity S-wave (km/s) = -1.38699 2.97738 1.86294
# Velocity P-wave (km/s) = 4.32462 5.75433 5.08992
#
# Compressibility (1/GPa) = 0.02284958
#
# Stress axis : x y z
#
# Youngs Moduli (GPa) = 78.00796 79.77817 87.37506
#
# Poissons Ratio (x) = 0.24846 0.14080
# Poissons Ratio (y) = 0.24295 0.19649
# Poissons Ratio (z) = 0.12570 0.17941
#
# Static dielectric constant tensor:
#      x y z
#    x 3.767860 0.000000 0.000000 
#    y 0.000000 3.857970 0.000000 
#    z 0.000000 0.000000 3.511190 
# 
# 
# High freq. dielectric constant tensor:
#      x y z
#    x 1.803650 0.000000 0.000000 
#    y 0.000000 1.818200 0.000000 
#    z 0.000000 0.000000 1.800600 
# 
# From -- ./inp_files/24419.got.cif
#   From: 2010.03.12/outbox.cif.g09.slc.cpg/sg60_13_cif.got.tgz:24419.got - 2010.04.10 18:46:24.
