data_PCOD8247464
_publ_section_title
;
Structure prediction by ZEFSAII (Michael W. Deem and Ramdas Pophale) SiO2 
 PCOD8247464
Probable space group: P B C N
;
_chemical_formula_sum "Si O2"
_cell_formula_units_Z 48
_cell_length_a 15.533020
_cell_length_b 8.850485
_cell_length_c 16.209459
_cell_angle_alpha 90.000000
_cell_angle_beta 90.000000
_cell_angle_gamma 90.000000
_cell_volume 2228.391494
_symmetry_space_group_name_H-M "P B C N"
_symmetry_group_IT_number 60
_symmetry_cell_setting 'orthorhombic'
loop_
_space_group_symop_operation_xyz
x,y,z
1/2-x,1/2-y,1/2+z
1/2+x,1/2-y,-z
-x,y,1/2-z
-x,-y,-z
1/2+x,1/2+y,1/2-z
1/2-x,1/2+y,z
x,-y,1/2+z
loop_
_atom_site_type_symbol
_atom_site_label
_atom_site_fract_x
_atom_site_fract_y
_atom_site_fract_z
Si Si1 0.326597 0.614131 0.097868
Si Si2 0.494034 0.925958 0.411385
Si Si3 0.829925 0.881550 0.092698
Si Si4 0.820804 0.569121 0.838353
Si Si5 0.175888 0.444547 0.840814
Si Si6 0.990120 0.929817 0.588308
O O1 0.303939 0.752364 0.158252
O O2 0.248102 0.498626 0.097489
O O3 0.416989 0.543238 0.132709
O O4 0.343586 0.667929 0.003016
O O5 0.582153 0.964882 0.364856
O O6 0.472216 0.748989 0.416443
O O7 0.500000 0.000000 0.500000
O O8 0.420168 0.003712 0.359079
O O9 0.820036 0.735839 0.150448
O O10 0.743628 0.980951 0.096523
O O11 0.909444 0.982501 0.129265
O O12 0.799287 0.497605 0.750467
O O13 0.000000 0.000000 0.500000
#
# Coordination Sequence:
#
# PCOD8247464 Si02
#       6
#     8   8   8   8   8   8
#     4  10  21  40  63  90 122 164 210 256 310 376
#     4  11  22  40  65  90 123 169 215 264 317 382
#     4  11  22  40  65  93 123 166 216 263 315 386
#     4  11  24  40  60  90 127 163 204 264 322 372
#     4  12  24  40  61  92 128 164 209 267 327 378
#     4   9  20  38  62  91 120 154 209 264 309 366
#
# _framework density 21.540201
#
# number of rings (size 3 to 8) (size 9 to 14) (size 15 to 20)
#    0.000    1.333    0.000    7.500    0.000    5.333 
#    0.000    4.167    0.000    0.000    0.000    0.000 
#    0.000    0.000    0.000    0.000    0.000    0.000 
#
# Total GULP energy -595093.042322 kJ/mol
# GULP energy per Si atom -12397.771715 kJ/mol
# Density = 2.149117 g / cm^3
# Si number density = 21.540201 Si / 1000 Ang^3
#
#
#
# Elastic Constant Matrix: (Units=GPa)
#
#
# Indices 1 2 3 4 5 6 
#
# 1 151.2460 72.6982 4.8884 0.0000 0.0000 0.0000
# 2 72.6982 141.2531 23.4635 0.0000 0.0000 0.0000
# 3 4.8884 23.4635 65.4451 0.0000 0.0000 0.0000
# 4 0.0000 0.0000 0.0000 30.5319 0.0000 0.0000
# 5 0.0000 0.0000 0.0000 0.0000 23.2539 0.0000
# 6 0.0000 0.0000 0.0000 0.0000 0.0000 46.8511
#
#
#
# Elastic Compliance Matrix: (Units=1/GPa)
#
#
# Indices 1 2 3 4 5 6 
#
# 1 0.008850 -0.004727 0.001034 0.000000 0.000000 0.000000
# 2 -0.004727 0.010052 -0.003251 0.000000 0.000000 0.000000
# 3 0.001034 -0.003251 0.016368 0.000000 0.000000 0.000000
# 4 0.000000 0.000000 0.000000 0.032753 0.000000 0.000000
# 5 0.000000 0.000000 0.000000 0.000000 0.043004 0.000000
# 6 0.000000 0.000000 0.000000 0.000000 0.000000 0.021344
#
#
# Mechanical properties :
#
#
# Convention : Reuss Voigt Hill
#
# Bulk Modulus (GPa) = 46.76661 62.22717 54.49689
# Shear Modulus (GPa) = 32.59740 37.25365 34.92552
#
# Velocity S-wave (km/s) = 3.89437 4.16323 4.03104
# Velocity P-wave (km/s) = 6.47919 7.21537 6.85717
#
# Compressibility (1/GPa) = 0.02138278
#
# Stress axis : x y z
#
# Youngs Moduli (GPa) = 112.99131 99.48161 61.09377
#
# Poissons Ratio (x) = 0.47021 -0.06314
# Poissons Ratio (y) = 0.53406 0.19861
# Poissons Ratio (z) = -0.11678 0.32340
#
# Static dielectric constant tensor:
#      x y z
#    x 4.663860 0.000000 0.000000 
#    y 0.000000 3.947780 0.000000 
#    z 0.000000 0.000000 3.990860 
# 
# 
# High freq. dielectric constant tensor:
#      x y z
#    x 1.873810 0.000000 0.000000 
#    y 0.000000 1.850370 0.000000 
#    z 0.000000 0.000000 1.824420 
# 
# From -- ./inp_files/20495.got.cif
#   From: 2010.03.12/outbox.cif.g09.slc.cpg/sg60_11_cif.got.tgz:20495.got - 2010.04.10 18:46:24.
