data_PCOD8247289
_publ_section_title
;
Structure prediction by ZEFSAII (Michael W. Deem and Ramdas Pophale) SiO2 
 PCOD8247289
Probable space group: P B C N
;
_chemical_formula_sum "Si O2"
_cell_formula_units_Z 32
_cell_length_a 17.591608
_cell_length_b 16.900174
_cell_length_c 5.038761
_cell_angle_alpha 90.000000
_cell_angle_beta 90.000000
_cell_angle_gamma 90.000000
_cell_volume 1498.029874
_symmetry_space_group_name_H-M "P B C N"
_symmetry_group_IT_number 60
_symmetry_cell_setting 'orthorhombic'
loop_
_space_group_symop_operation_xyz
x,y,z
1/2-x,1/2-y,1/2+z
1/2+x,1/2-y,-z
-x,y,1/2-z
-x,-y,-z
1/2+x,1/2+y,1/2-z
1/2-x,1/2+y,z
x,-y,1/2+z
loop_
_atom_site_type_symbol
_atom_site_label
_atom_site_fract_x
_atom_site_fract_y
_atom_site_fract_z
Si Si1 0.710348 0.718779 0.347755
Si Si2 0.546478 0.225077 0.002316
Si Si3 0.917592 0.452335 0.600755
Si Si4 0.237830 0.047069 0.355193
O O1 0.770261 0.724698 0.594158
O O2 0.631427 0.742589 0.482267
O O3 0.704206 0.630816 0.232230
O O4 0.500000 0.253268 0.750000
O O5 0.500000 0.261433 0.250000
O O6 0.547196 0.130859 0.023764
O O7 0.944516 0.520116 0.392671
O O8 0.827595 0.444130 0.618973
O O9 0.209521 0.018832 0.643674
#
# Coordination Sequence:
#
# PCOD8247289 Si02
#       4
#     8   8   8   8
#     4  12  24  42  69  94 123 171 218 264 311 373
#     4  12  26  41  60  92 132 169 207 260 318 374
#     4  10  21  37  59  88 127 168 206 243 303 384
#     4  10  21  38  64  94 124 157 212 270 312 363
#
# _framework density 21.361388999999999
#
# number of rings (size 3 to 8) (size 9 to 14) (size 15 to 20)
#    0.000    1.000    2.500    4.500    7.000    3.000 
#    0.000    0.000    0.000    4.500    0.000    0.000 
#    0.000    0.000    0.000    0.000    0.000    0.000 
#
# Total GULP energy -396814.787972 kJ/mol
# GULP energy per Si atom -12400.462124 kJ/mol
# Density = 2.131277 g / cm^3
# Si number density = 21.361389 Si / 1000 Ang^3
#
#
#
# Elastic Constant Matrix: (Units=GPa)
#
#
# Indices 1 2 3 4 5 6 
#
# 1 75.8362 27.1796 33.5526 0.0000 0.0000 0.0000
# 2 27.1796 73.4848 9.1310 0.0000 0.0000 0.0000
# 3 33.5526 9.1310 127.5215 0.0000 0.0000 0.0000
# 4 0.0000 0.0000 0.0000 4.4679 0.0000 0.0000
# 5 0.0000 0.0000 0.0000 0.0000 39.8807 0.0000
# 6 0.0000 0.0000 0.0000 0.0000 0.0000 22.5549
#
#
#
# Elastic Compliance Matrix: (Units=1/GPa)
#
#
# Indices 1 2 3 4 5 6 
#
# 1 0.017071 -0.005808 -0.004076 0.000000 0.000000 0.000000
# 2 -0.005808 0.015706 0.000403 0.000000 0.000000 0.000000
# 3 -0.004076 0.000403 0.008885 0.000000 0.000000 0.000000
# 4 0.000000 0.000000 0.000000 0.223818 0.000000 0.000000
# 5 0.000000 0.000000 0.000000 0.000000 0.025075 0.000000
# 6 0.000000 0.000000 0.000000 0.000000 0.000000 0.044336
#
#
# Mechanical properties :
#
#
# Convention : Reuss Voigt Hill
#
# Bulk Modulus (GPa) = 44.04768 46.28545 45.16656
# Shear Modulus (GPa) = 13.83436 27.17932 20.50684
#
# Velocity S-wave (km/s) = 2.54763 3.57088 3.10174
# Velocity P-wave (km/s) = 5.41469 6.22225 5.83247
#
# Compressibility (1/GPa) = 0.02270267
#
# Stress axis : x y z
#
# Youngs Moduli (GPa) = 58.57886 63.66929 112.54521
#
# Poissons Ratio (x) = 0.36976 0.45871
# Poissons Ratio (y) = 0.34020 -0.04540
# Poissons Ratio (z) = 0.23875 -0.02569
#
# Static dielectric constant tensor:
#      x y z
#    x 4.249660 0.000000 0.000000 
#    y 0.000000 3.638100 0.000000 
#    z 0.000000 0.000000 4.510650 
# 
# 
# High freq. dielectric constant tensor:
#      x y z
#    x 1.830190 0.000000 0.000000 
#    y 0.000000 1.816650 0.000000 
#    z 0.000000 0.000000 1.870160 
# 
# From -- ./inp_files/1552.got.cif
#   From: 2010.03.12/outbox.cif.g09.slc.cpg/sg60_1_cif.got.tgz:1552.got - 2010.04.10 18:46:24.
