data_PCOD8247602
_publ_section_title
;
Structure prediction by ZEFSAII (Michael W. Deem and Ramdas Pophale) SiO2 
 PCOD8247602
Probable space group: P B C N
;
_chemical_formula_sum "Si O2"
_cell_formula_units_Z 52
_cell_length_a 13.997122
_cell_length_b 18.486515
_cell_length_c 9.652398
_cell_angle_alpha 90.000000
_cell_angle_beta 90.000000
_cell_angle_gamma 90.000000
_cell_volume 2497.635258
_symmetry_space_group_name_H-M "P B C N"
_symmetry_group_IT_number 60
_symmetry_cell_setting 'orthorhombic'
loop_
_space_group_symop_operation_xyz
x,y,z
1/2-x,1/2-y,1/2+z
1/2+x,1/2-y,-z
-x,y,1/2-z
-x,-y,-z
1/2+x,1/2+y,1/2-z
1/2-x,1/2+y,z
x,-y,1/2+z
loop_
_atom_site_type_symbol
_atom_site_label
_atom_site_fract_x
_atom_site_fract_y
_atom_site_fract_z
Si Si1 0.928617 0.264992 0.135491
Si Si2 0.192072 0.058040 0.617292
Si Si3 0.726826 0.320475 0.189851
Si Si4 0.500000 0.512664 0.750000
Si Si5 0.403563 0.199541 0.173478
Si Si6 0.105380 0.889830 0.861258
Si Si7 0.730714 0.393532 0.894578
O O1 0.819903 0.269939 0.190387
O O2 0.956096 0.181395 0.109633
O O3 0.000000 0.299852 0.250000
O O4 0.936800 0.300121 0.985981
O O5 0.253229 0.108371 0.720012
O O6 0.190249 0.100096 0.471418
O O7 0.240634 0.980531 0.589186
O O8 0.085202 0.059450 0.684564
O O9 0.640548 0.273723 0.259600
O O10 0.704898 0.349817 0.035048
O O11 0.539848 0.461163 0.627034
O O12 0.500000 0.176901 0.250000
O O13 0.326005 0.135591 0.180472
O O14 0.142228 0.881367 0.705430
#
# Coordination Sequence:
#
# PCOD8247602 Si02
#       7
#     8   8   8   4   8   8   8
#     4  11  24  41  64  96 126 166 217 264 322 382
#     4  11  23  40  64  91 129 170 210 262 328 383
#     4  11  24  43  64  96 131 167 213 266 322 383
#     4  10  22  34  56  96 130 156 202 256 318 392
#     4  11  25  40  66  93 128 173 218 269 321 380
#     4  11  20  36  62  89 123 169 197 255 321 379
#     4  10  23  42  61  92 127 168 213 261 316 385
#
# _framework density 20.819692
#
# number of rings (size 3 to 8) (size 9 to 14) (size 15 to 20)
#    0.000    1.231    3.846    2.308    3.231    2.462 
#    0.000    0.769    0.000    4.615    0.000    0.000 
#    0.000    0.000    0.000    0.000    0.000    0.000 
#
# Total GULP energy -644387.717567 kJ/mol
# GULP energy per Si atom -12392.071492 kJ/mol
# Density = 2.077231 g / cm^3
# Si number density = 20.819692 Si / 1000 Ang^3
#
#
#
# Elastic Constant Matrix: (Units=GPa)
#
#
# Indices 1 2 3 4 5 6 
#
# 1 69.6853 23.6844 39.8719 0.0000 0.0000 0.0000
# 2 23.6844 81.4691 33.9008 0.0000 0.0000 0.0000
# 3 39.8719 33.9008 91.2624 0.0000 0.0000 0.0000
# 4 0.0000 0.0000 0.0000 29.2538 0.0000 0.0000
# 5 0.0000 0.0000 0.0000 0.0000 36.8559 0.0000
# 6 0.0000 0.0000 0.0000 0.0000 0.0000 24.0696
#
#
#
# Elastic Compliance Matrix: (Units=1/GPa)
#
#
# Indices 1 2 3 4 5 6 
#
# 1 0.019561 -0.002520 -0.007610 0.000000 0.000000 0.000000
# 2 -0.002520 0.014843 -0.004413 0.000000 0.000000 0.000000
# 3 -0.007610 -0.004413 0.015921 0.000000 0.000000 0.000000
# 4 0.000000 0.000000 0.000000 0.034184 0.000000 0.000000
# 5 0.000000 0.000000 0.000000 0.000000 0.027133 0.000000
# 6 0.000000 0.000000 0.000000 0.000000 0.000000 0.041546
#
#
# Mechanical properties :
#
#
# Convention : Reuss Voigt Hill
#
# Bulk Modulus (GPa) = 47.08069 48.59232 47.83650
# Shear Modulus (GPa) = 26.40560 27.69985 27.05272
#
# Velocity S-wave (km/s) = 3.56518 3.65151 3.60860
# Velocity P-wave (km/s) = 6.29365 6.41625 6.35525
#
# Compressibility (1/GPa) = 0.02124013
#
# Stress axis : x y z
#
# Youngs Moduli (GPa) = 51.12238 67.36967 62.80874
#
# Poissons Ratio (x) = 0.16977 0.47797
# Poissons Ratio (y) = 0.12883 0.27717
# Poissons Ratio (z) = 0.38904 0.29729
#
# Static dielectric constant tensor:
#      x y z
#    x 3.707430 0.000000 0.000000 
#    y 0.000000 3.818350 0.000000 
#    z 0.000000 0.000000 3.974180 
# 
# 
# High freq. dielectric constant tensor:
#      x y z
#    x 1.788960 0.000000 0.000000 
#    y 0.000000 1.811400 0.000000 
#    z 0.000000 0.000000 1.834610 
# 
# From -- ./inp_files/6090.got.cif
#   From: 2010.03.12/outbox.cif.g09.slc.cpg/sg60_4_cif.got.tgz:6090.got - 2010.04.10 18:46:24.
