data_PCOD8247252
_publ_section_title
;
Structure prediction by ZEFSAII (Michael W. Deem and Ramdas Pophale) SiO2 
 PCOD8247252
Probable space group: P B C N
;
_chemical_formula_sum "Si O2"
_cell_formula_units_Z 40
_cell_length_a 6.165149
_cell_length_b 22.385292
_cell_length_c 13.860393
_cell_angle_alpha 90.000000
_cell_angle_beta 90.000000
_cell_angle_gamma 90.000000
_cell_volume 1912.854273
_symmetry_space_group_name_H-M "P B C N"
_symmetry_group_IT_number 60
_symmetry_cell_setting 'orthorhombic'
loop_
_space_group_symop_operation_xyz
x,y,z
1/2-x,1/2-y,1/2+z
1/2+x,1/2-y,-z
-x,y,1/2-z
-x,-y,-z
1/2+x,1/2+y,1/2-z
1/2-x,1/2+y,z
x,-y,1/2+z
loop_
_atom_site_type_symbol
_atom_site_label
_atom_site_fract_x
_atom_site_fract_y
_atom_site_fract_z
Si Si1 0.061237 0.014733 0.146228
Si Si2 0.943459 0.190377 0.022449
Si Si3 0.426113 0.773613 0.853294
Si Si4 0.335726 0.117416 0.092064
Si Si5 0.726268 0.067085 0.000111
O O1 0.191624 0.076504 0.161865
O O2 0.000000 0.988845 0.250000
O O3 0.847721 0.029432 0.083717
O O4 0.217883 0.965115 0.099810
O O5 0.831433 0.222721 0.117262
O O6 0.794921 0.135692 0.989600
O O7 0.183086 0.164885 0.037724
O O8 0.946379 0.237671 0.935756
O O9 0.500000 0.745195 0.750000
O O10 0.498931 0.842963 0.846956
O O11 0.466671 0.071484 0.020521
#
# Coordination Sequence:
#
# PCOD8247252 Si02
#       5
#     8   8   8   8   8
#     4  10  21  36  61  89 121 156 207 253 308 374
#     4  10  21  41  59  88 126 161 206 261 307 374
#     4  11  23  37  62  90 122 165 210 258 316 374
#     4  10  21  37  61  85 126 158 206 257 310 368
#     4   9  21  39  58  86 122 164 198 253 314 368
#
# _framework density 20.911159999999999
#
# number of rings (size 3 to 8) (size 9 to 14) (size 15 to 20)
#    0.000    2.000    2.000    0.600    8.400    0.800 
#    0.000    0.000    0.000    7.200    0.000    0.000 
#    0.000    0.000    0.000    0.000    0.000    0.000 
#
# Total GULP energy -495542.821501 kJ/mol
# GULP energy per Si atom -12388.570538 kJ/mol
# Density = 2.086357 g / cm^3
# Si number density = 20.911160 Si / 1000 Ang^3
#
#
#
# Elastic Constant Matrix: (Units=GPa)
#
#
# Indices 1 2 3 4 5 6 
#
# 1 112.9522 22.7804 54.6866 0.0000 0.0000 0.0000
# 2 22.7804 56.0149 36.8960 0.0000 0.0000 0.0000
# 3 54.6866 36.8960 137.8134 0.0000 0.0000 0.0000
# 4 0.0000 0.0000 0.0000 20.9323 0.0000 0.0000
# 5 0.0000 0.0000 0.0000 0.0000 19.9562 0.0000
# 6 0.0000 0.0000 0.0000 0.0000 0.0000 38.0588
#
#
#
# Elastic Compliance Matrix: (Units=1/GPa)
#
#
# Indices 1 2 3 4 5 6 
#
# 1 0.011134 -0.001964 -0.003892 0.000000 0.000000 0.000000
# 2 -0.001964 0.022021 -0.005116 0.000000 0.000000 0.000000
# 3 -0.003892 -0.005116 0.010170 0.000000 0.000000 0.000000
# 4 0.000000 0.000000 0.000000 0.047773 0.000000 0.000000
# 5 0.000000 0.000000 0.000000 0.000000 0.050110 0.000000
# 6 0.000000 0.000000 0.000000 0.000000 0.000000 0.026275
#
#
# Mechanical properties :
#
#
# Convention : Reuss Voigt Hill
#
# Bulk Modulus (GPa) = 46.77226 59.50072 53.13649
# Shear Modulus (GPa) = 25.43813 28.61730 27.02772
#
# Velocity S-wave (km/s) = 3.49160 3.70336 3.59904
# Velocity P-wave (km/s) = 6.21858 6.84122 6.53732
#
# Compressibility (1/GPa) = 0.02138019
#
# Stress axis : x y z
#
# Youngs Moduli (GPa) = 89.81574 45.41090 98.32444
#
# Poissons Ratio (x) = 0.08920 0.38270
# Poissons Ratio (y) = 0.17642 0.50304
# Poissons Ratio (z) = 0.34958 0.23233
#
# Static dielectric constant tensor:
#      x y z
#    x 4.085230 0.000000 0.000000 
#    y 0.000000 3.875930 0.000000 
#    z 0.000000 0.000000 3.471220 
# 
# 
# High freq. dielectric constant tensor:
#      x y z
#    x 1.828500 0.000000 0.000000 
#    y 0.000000 1.826140 0.000000 
#    z 0.000000 0.000000 1.782580 
# 
# From -- ./inp_files/13852.got.cif
#   From: 2010.03.12/outbox.cif.g09.slc.cpg/sg60_7_cif.got.tgz:13852.got - 2010.04.10 18:46:24.
