data_PCOD8247606
_publ_section_title
;
Structure prediction by ZEFSAII (Michael W. Deem and Ramdas Pophale) SiO2 
 PCOD8247606
Probable space group: P B C N
;
_chemical_formula_sum "Si O2"
_cell_formula_units_Z 56
_cell_length_a 14.505791
_cell_length_b 14.944024
_cell_length_c 12.081293
_cell_angle_alpha 90.000000
_cell_angle_beta 90.000000
_cell_angle_gamma 90.000000
_cell_volume 2618.920947
_symmetry_space_group_name_H-M "P B C N"
_symmetry_group_IT_number 60
_symmetry_cell_setting 'orthorhombic'
loop_
_space_group_symop_operation_xyz
x,y,z
1/2-x,1/2-y,1/2+z
1/2+x,1/2-y,-z
-x,y,1/2-z
-x,-y,-z
1/2+x,1/2+y,1/2-z
1/2-x,1/2+y,z
x,-y,1/2+z
loop_
_atom_site_type_symbol
_atom_site_label
_atom_site_fract_x
_atom_site_fract_y
_atom_site_fract_z
Si Si1 0.583355 0.095586 0.333981
Si Si2 0.254387 0.945127 0.824997
Si Si3 0.233715 0.123703 0.719936
Si Si4 0.444413 0.703328 0.637606
Si Si5 0.855107 0.222513 0.223015
Si Si6 0.024422 0.253362 0.073759
Si Si7 0.377372 0.069763 0.540077
O O1 0.500000 0.080600 0.250000
O O2 0.680914 0.080778 0.276450
O O3 0.587736 0.195033 0.381561
O O4 0.570314 0.023602 0.433226
O O5 0.170083 0.874907 0.824882
O O6 0.212846 0.044722 0.807826
O O7 0.309911 0.942199 0.938017
O O8 0.144320 0.139395 0.643211
O O9 0.263546 0.215096 0.782700
O O10 0.320698 0.096106 0.648107
O O11 0.500000 0.689940 0.750000
O O12 0.506705 0.683555 0.528416
O O13 0.894284 0.213869 0.348751
O O14 0.932050 0.266779 0.145065
O O15 0.051012 0.349454 0.019050
#
# Coordination Sequence:
#
# PCOD8247606 Si02
#       7
#     8   8   8   8   8   8   8
#     4  10  22  35  60  93 135 156 209 268 326 388
#     4  11  22  42  63  93 133 169 216 266 317 396
#     4  10  23  41  63  93 127 169 218 261 320 394
#     4  11  22  42  59  93 127 171 213 263 319 387
#     4  10  22  44  64  94 129 170 216 267 328 380
#     4  10  23  39  68  90 129 169 214 272 323 382
#     4  10  22  38  64 100 123 168 213 266 337 378
#
# _framework density 21.382852
#
# number of rings (size 3 to 8) (size 9 to 14) (size 15 to 20)
#    0.000    1.714    1.429    2.571    8.000    1.143 
#    7.714    0.714    0.000    0.000    0.000    0.000 
#    0.000    0.000    0.000    0.000    0.000    0.000 
#
# Total GULP energy -694439.894300 kJ/mol
# GULP energy per Si atom -12400.712398 kJ/mol
# Density = 2.133418 g / cm^3
# Si number density = 21.382852 Si / 1000 Ang^3
#
#
#
# Elastic Constant Matrix: (Units=GPa)
#
#
# Indices 1 2 3 4 5 6 
#
# 1 73.5383 48.6908 19.8663 0.0000 0.0000 0.0000
# 2 48.6908 111.3623 36.3961 0.0000 0.0000 0.0000
# 3 19.8663 36.3961 95.5063 0.0000 0.0000 0.0000
# 4 0.0000 0.0000 0.0000 15.9257 0.0000 0.0000
# 5 0.0000 0.0000 0.0000 0.0000 38.0342 0.0000
# 6 0.0000 0.0000 0.0000 0.0000 0.0000 22.3874
#
#
#
# Elastic Compliance Matrix: (Units=1/GPa)
#
#
# Indices 1 2 3 4 5 6 
#
# 1 0.019208 -0.008101 -0.000908 0.000000 0.000000 0.000000
# 2 -0.008101 0.013674 -0.003526 0.000000 0.000000 0.000000
# 3 -0.000908 -0.003526 0.012003 0.000000 0.000000 0.000000
# 4 0.000000 0.000000 0.000000 0.062792 0.000000 0.000000
# 5 0.000000 0.000000 0.000000 0.000000 0.026292 0.000000
# 6 0.000000 0.000000 0.000000 0.000000 0.000000 0.044668
#
#
# Mechanical properties :
#
#
# Convention : Reuss Voigt Hill
#
# Bulk Modulus (GPa) = 50.46855 54.47924 52.47389
# Shear Modulus (GPa) = 23.77418 26.96637 25.37027
#
# Velocity S-wave (km/s) = 3.33803 3.55508 3.44827
# Velocity P-wave (km/s) = 6.20566 6.51036 6.35983
#
# Compressibility (1/GPa) = 0.01981432
#
# Stress axis : x y z
#
# Youngs Moduli (GPa) = 52.06239 73.13034 83.31201
#
# Poissons Ratio (x) = 0.59246 0.07565
# Poissons Ratio (y) = 0.42178 0.29375
# Poissons Ratio (z) = 0.04728 0.25785
#
# Static dielectric constant tensor:
#      x y z
#    x 3.753240 0.000000 0.000000 
#    y 0.000000 3.989140 0.000000 
#    z 0.000000 0.000000 3.834040 
# 
# 
# High freq. dielectric constant tensor:
#      x y z
#    x 1.836620 0.000000 0.000000 
#    y 0.000000 1.827540 0.000000 
#    z 0.000000 0.000000 1.841660 
# 
# From -- ./inp_files/11969.got.cif
#   From: 2010.03.12/outbox.cif.g09.slc.cpg/sg60_6_cif.got.tgz:11969.got - 2010.04.10 18:46:24.
