data_PCOD8247688
_publ_section_title
;
Structure prediction by ZEFSAII (Michael W. Deem and Ramdas Pophale) SiO2 
 PCOD8247688
Probable space group: P B C N
;
_chemical_formula_sum "Si O2"
_cell_formula_units_Z 48
_cell_length_a 13.195804
_cell_length_b 13.923884
_cell_length_c 13.296921
_cell_angle_alpha 90.000000
_cell_angle_beta 90.000000
_cell_angle_gamma 90.000000
_cell_volume 2443.134302
_symmetry_space_group_name_H-M "P B C N"
_symmetry_group_IT_number 60
_symmetry_cell_setting 'orthorhombic'
loop_
_space_group_symop_operation_xyz
x,y,z
1/2-x,1/2-y,1/2+z
1/2+x,1/2-y,-z
-x,y,1/2-z
-x,-y,-z
1/2+x,1/2+y,1/2-z
1/2-x,1/2+y,z
x,-y,1/2+z
loop_
_atom_site_type_symbol
_atom_site_label
_atom_site_fract_x
_atom_site_fract_y
_atom_site_fract_z
Si Si1 0.208151 0.516448 0.121313
Si Si2 0.996965 0.189319 0.633848
Si Si3 0.720181 0.653831 0.538579
Si Si4 0.498977 0.087370 0.363017
Si Si5 0.784789 0.479188 0.645572
Si Si6 0.689512 0.358541 0.486193
O O1 0.223113 0.542871 0.237335
O O2 0.235093 0.406024 0.096651
O O3 0.092553 0.533733 0.082727
O O4 0.283734 0.587962 0.061417
O O5 0.890021 0.173851 0.581702
O O6 0.023675 0.300805 0.633097
O O7 0.000000 0.151188 0.750000
O O8 0.078810 0.136316 0.563791
O O9 0.779543 0.593349 0.624797
O O10 0.778541 0.751171 0.513614
O O11 0.500000 0.047859 0.250000
O O12 0.388231 0.061469 0.405686
O O13 0.693504 0.423246 0.588006
#
# Coordination Sequence:
#
# PCOD8247688 Si02
#       6
#     8   8   8   8   8   8
#     4  10  22  39  61  91 128 165 209 260 309 362
#     4  11  22  40  65  92 127 169 205 247 317 380
#     4  11  23  38  62  93 120 161 210 256 304 370
#     4   9  18  36  63  89 120 166 206 248 308 364
#     4  10  22  39  61  91 128 165 209 260 309 362
#     4  11  23  38  62  93 120 161 210 256 304 370
#
# _framework density 19.646894
#
# number of rings (size 3 to 8) (size 9 to 14) (size 15 to 20)
#    0.000    1.667    3.333    1.000    0.000    8.000 
#    0.000    2.500    0.000    0.000    0.000    0.000 
#    0.000    0.000    0.000    0.000    0.000    0.000 
#
# Total GULP energy -594880.183096 kJ/mol
# GULP energy per Si atom -12393.337148 kJ/mol
# Density = 1.960218 g / cm^3
# Si number density = 19.646894 Si / 1000 Ang^3
#
#
#
# Elastic Constant Matrix: (Units=GPa)
#
#
# Indices 1 2 3 4 5 6 
#
# 1 71.4618 -2.6175 25.0234 0.0000 0.0000 0.0000
# 2 -2.6175 69.3579 8.3394 0.0000 0.0000 0.0000
# 3 25.0234 8.3394 102.1075 0.0000 0.0000 0.0000
# 4 0.0000 0.0000 0.0000 27.2567 0.0000 0.0000
# 5 0.0000 0.0000 0.0000 0.0000 29.5715 0.0000
# 6 0.0000 0.0000 0.0000 0.0000 0.0000 22.6403
#
#
#
# Elastic Compliance Matrix: (Units=1/GPa)
#
#
# Indices 1 2 3 4 5 6 
#
# 1 0.015382 0.001044 -0.003855 0.000000 0.000000 0.000000
# 2 0.001044 0.014632 -0.001451 0.000000 0.000000 0.000000
# 3 -0.003855 -0.001451 0.010857 0.000000 0.000000 0.000000
# 4 0.000000 0.000000 0.000000 0.036688 0.000000 0.000000
# 5 0.000000 0.000000 0.000000 0.000000 0.033816 0.000000
# 6 0.000000 0.000000 0.000000 0.000000 0.000000 0.044169
#
#
# Mechanical properties :
#
#
# Convention : Reuss Voigt Hill
#
# Bulk Modulus (GPa) = 30.91503 33.82422 32.36962
# Shear Modulus (GPa) = 28.59603 30.03915 29.31759
#
# Velocity S-wave (km/s) = 3.81924 3.91442 3.86712
# Velocity P-wave (km/s) = 5.93450 6.13871 6.03747
#
# Compressibility (1/GPa) = 0.03234673
#
# Stress axis : x y z
#
# Youngs Moduli (GPa) = 65.01292 68.34425 92.10822
#
# Poissons Ratio (x) = -0.07135 0.35506
# Poissons Ratio (y) = -0.06787 0.13364
# Poissons Ratio (z) = 0.25061 0.09916
#
# Static dielectric constant tensor:
#      x y z
#    x 3.667490 0.000000 0.000000 
#    y 0.000000 3.650360 0.000000 
#    z 0.000000 0.000000 3.665120 
# 
# 
# High freq. dielectric constant tensor:
#      x y z
#    x 1.760690 0.000000 0.000000 
#    y 0.000000 1.764770 0.000000 
#    z 0.000000 0.000000 1.771620 
# 
# From -- ./inp_files/16044.got.cif
#   From: 2010.03.12/outbox.cif.g09.slc.cpg/sg60_9_cif.got.tgz:16044.got - 2010.04.10 18:46:24.
