data_PCOD8247928
_publ_section_title
;
Structure prediction by ZEFSAII (Michael W. Deem and Ramdas Pophale) SiO2 
 PCOD8247928
Probable space group: P B C N
;
_chemical_formula_sum "Si O2"
_cell_formula_units_Z 60
_cell_length_a 5.551349
_cell_length_b 17.965629
_cell_length_c 28.498463
_cell_angle_alpha 90.000000
_cell_angle_beta 90.000000
_cell_angle_gamma 90.000000
_cell_volume 2842.250792
_symmetry_space_group_name_H-M "P B C N"
_symmetry_group_IT_number 60
_symmetry_cell_setting 'orthorhombic'
loop_
_space_group_symop_operation_xyz
x,y,z
1/2-x,1/2-y,1/2+z
1/2+x,1/2-y,-z
-x,y,1/2-z
-x,-y,-z
1/2+x,1/2+y,1/2-z
1/2-x,1/2+y,z
x,-y,1/2+z
loop_
_atom_site_type_symbol
_atom_site_label
_atom_site_fract_x
_atom_site_fract_y
_atom_site_fract_z
Si Si1 0.314221 0.123489 0.291535
Si Si2 0.119857 0.417021 0.624835
Si Si3 0.500000 0.256874 0.750000
Si Si4 0.381119 0.065253 0.883600
Si Si5 0.651669 0.884354 0.292069
Si Si6 0.184387 0.715191 0.056879
Si Si7 0.818402 0.297474 0.053008
Si Si8 0.993542 0.999052 0.180462
O O1 0.500000 0.132347 0.250000
O O2 0.417668 0.124980 0.344224
O O3 0.134174 0.193046 0.288300
O O4 0.184964 0.043253 0.284583
O O5 0.208394 0.361542 0.585018
O O6 0.318110 0.438925 0.663347
O O7 0.031763 0.492999 0.599502
O O8 0.316035 0.203673 0.720203
O O9 0.517993 0.107717 0.841693
O O10 0.326405 0.119594 0.926484
O O11 0.128459 0.034177 0.865757
O O12 0.500000 0.922466 0.250000
O O13 0.902822 0.927627 0.292421
O O14 0.431227 0.758864 0.069504
O O15 0.932035 0.757506 0.069756
O O16 0.183326 0.694456 0.002571
#
# Coordination Sequence:
#
# PCOD8247928 Si02
#       8
#     8   8   4   8   8   8   8   8
#     4  11  24  40  63  95 129 170 225 273 332 398
#     4  10  24  41  65  96 131 175 218 278 333 400
#     4  10  24  42  60  92 124 168 220 274 324 392
#     4  10  23  39  66  96 129 173 226 272 333 393
#     4   9  23  41  60  91 128 171 220 270 330 386
#     4  10  24  45  71  99 140 173 225 274 346 406
#     4  10  24  45  70 103 133 181 218 279 342 409
#     4  10  23  43  62  91 127 177 219 274 335 398
#
# _framework density 21.110029000000001
#
# number of rings (size 3 to 8) (size 9 to 14) (size 15 to 20)
#    0.400    1.600    0.000    0.800    9.333   12.267 
#    0.000    0.667    2.933    0.000    0.000    0.000 
#    0.000    0.000    0.000    0.000    0.000    0.000 
#
# Total GULP energy -743590.577217 kJ/mol
# GULP energy per Si atom -12393.176287 kJ/mol
# Density = 2.106198 g / cm^3
# Si number density = 21.110029 Si / 1000 Ang^3
#
#
#
# Elastic Constant Matrix: (Units=GPa)
#
#
# Indices 1 2 3 4 5 6 
#
# 1 97.4440 45.7968 12.1670 0.0000 0.0000 0.0000
# 2 45.7968 149.8028 47.8598 0.0000 0.0000 0.0000
# 3 12.1670 47.8598 45.3646 0.0000 0.0000 0.0000
# 4 0.0000 0.0000 0.0000 42.9790 0.0000 0.0000
# 5 0.0000 0.0000 0.0000 0.0000 19.2175 0.0000
# 6 0.0000 0.0000 0.0000 0.0000 0.0000 7.3444
#
#
#
# Elastic Compliance Matrix: (Units=1/GPa)
#
#
# Indices 1 2 3 4 5 6 
#
# 1 0.012013 -0.003987 0.000984 0.000000 0.000000 0.000000
# 2 -0.003987 0.011393 -0.010950 0.000000 0.000000 0.000000
# 3 0.000984 -0.010950 0.033332 0.000000 0.000000 0.000000
# 4 0.000000 0.000000 0.000000 0.023267 0.000000 0.000000
# 5 0.000000 0.000000 0.000000 0.000000 0.052036 0.000000
# 6 0.000000 0.000000 0.000000 0.000000 0.000000 0.136159
#
#
# Mechanical properties :
#
#
# Convention : Reuss Voigt Hill
#
# Bulk Modulus (GPa) = 34.68314 56.02875 45.35595
# Shear Modulus (GPa) = 16.35504 26.36068 21.35786
#
# Velocity S-wave (km/s) = 2.78646 3.53757 3.18424
# Velocity P-wave (km/s) = 5.17859 6.57912 5.92041
#
# Compressibility (1/GPa) = 0.02883245
#
# Stress axis : x y z
#
# Youngs Moduli (GPa) = 83.24137 87.77524 30.00128
#
# Poissons Ratio (x) = 0.34997 -0.02953
# Poissons Ratio (y) = 0.33189 0.32851
# Poissons Ratio (z) = -0.08194 0.96114
#
# Static dielectric constant tensor:
#      x y z
#    x 4.117540 0.000000 0.000000 
#    y 0.000000 3.804690 0.000000 
#    z 0.000000 0.000000 3.514110 
# 
# 
# High freq. dielectric constant tensor:
#      x y z
#    x 1.837270 0.000000 0.000000 
#    y 0.000000 1.832640 0.000000 
#    z 0.000000 0.000000 1.810260 
# 
# From -- ./inp_files/24998.got.cif
#   From: 2010.03.12/outbox.cif.g09.slc.cpg/sg60_13_cif.got.tgz:24998.got - 2010.04.10 18:46:24.
