data_PCOD8247247
_publ_section_title
;
Structure prediction by ZEFSAII (Michael W. Deem and Ramdas Pophale) SiO2 
 PCOD8247247
Probable space group: P B C N
;
_chemical_formula_sum "Si O2"
_cell_formula_units_Z 48
_cell_length_a 8.210805
_cell_length_b 10.312457
_cell_length_c 27.145858
_cell_angle_alpha 90.000000
_cell_angle_beta 90.000000
_cell_angle_gamma 90.000000
_cell_volume 2298.536803
_symmetry_space_group_name_H-M "P B C N"
_symmetry_group_IT_number 60
_symmetry_cell_setting 'orthorhombic'
loop_
_space_group_symop_operation_xyz
x,y,z
1/2-x,1/2-y,1/2+z
1/2+x,1/2-y,-z
-x,y,1/2-z
-x,-y,-z
1/2+x,1/2+y,1/2-z
1/2-x,1/2+y,z
x,-y,1/2+z
loop_
_atom_site_type_symbol
_atom_site_label
_atom_site_fract_x
_atom_site_fract_y
_atom_site_fract_z
Si Si1 0.541870 0.136641 0.141934
Si Si2 0.370021 0.131156 0.643837
Si Si3 0.674401 0.248139 0.440472
Si Si4 0.442015 0.617802 0.695572
Si Si5 0.412025 0.618605 0.363101
Si Si6 0.004143 0.872386 0.970504
O O1 0.472737 0.182522 0.089342
O O2 0.467046 0.230325 0.183385
O O3 0.731461 0.154428 0.153166
O O4 0.498686 0.984901 0.144407
O O5 0.257615 0.137746 0.593577
O O6 0.252280 0.099411 0.689947
O O7 0.463192 0.267158 0.652286
O O8 0.594904 0.274157 0.493418
O O9 0.821125 0.154481 0.453861
O O10 0.500000 0.583571 0.750000
O O11 0.533582 0.519224 0.658798
O O12 0.391303 0.607705 0.421648
O O13 0.000000 0.000000 0.000000
#
# Coordination Sequence:
#
# PCOD8247247 Si02
#       6
#     8   8   8   8   8   8
#     4  11  22  41  63  90 125 164 208 256 309 367
#     4  10  22  43  65  90 126 166 206 255 308 366
#     4  10  21  36  59  90 125 166 209 254 302 357
#     4  11  24  43  66  92 120 158 204 258 317 375
#     4  11  24  41  63  93 128 166 205 254 309 369
#     4  11  21  36  58  87 123 166 209 251 299 360
#
# _framework density 20.882850000000001
#
# number of rings (size 3 to 8) (size 9 to 14) (size 15 to 20)
#    0.000    1.333    0.000    8.000    0.000    5.333 
#    0.000    8.333    0.000    0.000    0.000    0.000 
#    0.000    0.000    0.000    0.000    0.000    0.000 
#
# Total GULP energy -594711.345004 kJ/mol
# GULP energy per Si atom -12389.819688 kJ/mol
# Density = 2.083532 g / cm^3
# Si number density = 20.882850 Si / 1000 Ang^3
#
#
#
# Elastic Constant Matrix: (Units=GPa)
#
#
# Indices 1 2 3 4 5 6 
#
# 1 111.4884 21.5288 39.3415 0.0000 0.0000 0.0000
# 2 21.5288 100.8899 32.3434 0.0000 0.0000 0.0000
# 3 39.3415 32.3434 103.5829 0.0000 0.0000 0.0000
# 4 0.0000 0.0000 0.0000 17.8599 0.0000 0.0000
# 5 0.0000 0.0000 0.0000 0.0000 26.4417 0.0000
# 6 0.0000 0.0000 0.0000 0.0000 0.0000 30.1385
#
#
#
# Elastic Compliance Matrix: (Units=1/GPa)
#
#
# Indices 1 2 3 4 5 6 
#
# 1 0.010460 -0.001065 -0.003640 0.000000 0.000000 0.000000
# 2 -0.001065 0.011123 -0.003069 0.000000 0.000000 0.000000
# 3 -0.003640 -0.003069 0.011995 0.000000 0.000000 0.000000
# 4 0.000000 0.000000 0.000000 0.055991 0.000000 0.000000
# 5 0.000000 0.000000 0.000000 0.000000 0.037819 0.000000
# 6 0.000000 0.000000 0.000000 0.000000 0.000000 0.033180
#
#
# Mechanical properties :
#
#
# Convention : Reuss Voigt Hill
#
# Bulk Modulus (GPa) = 55.46344 55.82094 55.64219
# Shear Modulus (GPa) = 27.45362 29.73783 28.59573
#
# Velocity S-wave (km/s) = 3.62974 3.77773 3.70447
# Velocity P-wave (km/s) = 6.64708 6.76881 6.70822
#
# Compressibility (1/GPa) = 0.01802990
#
# Stress axis : x y z
#
# Youngs Moduli (GPa) = 95.60497 89.90556 83.36956
#
# Poissons Ratio (x) = 0.09575 0.30347
# Poissons Ratio (y) = 0.10182 0.25582
# Poissons Ratio (z) = 0.34801 0.27588
#
# Static dielectric constant tensor:
#      x y z
#    x 3.870180 0.000000 0.000000 
#    y 0.000000 3.700880 0.000000 
#    z 0.000000 0.000000 3.195730 
# 
# 
# High freq. dielectric constant tensor:
#      x y z
#    x 1.832600 0.000000 0.000000 
#    y 0.000000 1.820470 0.000000 
#    z 0.000000 0.000000 1.806720 
# 
# From -- ./inp_files/25922.got.cif
#   From: 2010.03.12/outbox.cif.g09.slc.cpg/sg60_13_cif.got.tgz:25922.got - 2010.04.10 18:46:24.
