data_PCOD8247398
_publ_section_title
;
Structure prediction by ZEFSAII (Michael W. Deem and Ramdas Pophale) SiO2 
 PCOD8247398
Probable space group: P B C N
;
_chemical_formula_sum "Si O2"
_cell_formula_units_Z 60
_cell_length_a 12.751027
_cell_length_b 8.079489
_cell_length_c 27.352111
_cell_angle_alpha 90.000000
_cell_angle_beta 90.000000
_cell_angle_gamma 90.000000
_cell_volume 2817.863227
_symmetry_space_group_name_H-M "P B C N"
_symmetry_group_IT_number 60
_symmetry_cell_setting 'orthorhombic'
loop_
_space_group_symop_operation_xyz
x,y,z
1/2-x,1/2-y,1/2+z
1/2+x,1/2-y,-z
-x,y,1/2-z
-x,-y,-z
1/2+x,1/2+y,1/2-z
1/2-x,1/2+y,z
x,-y,1/2+z
loop_
_atom_site_type_symbol
_atom_site_label
_atom_site_fract_x
_atom_site_fract_y
_atom_site_fract_z
Si Si1 0.643168 0.614262 0.086881
Si Si2 0.141253 0.895401 0.657779
Si Si3 0.415262 0.711294 0.055840
Si Si4 0.060804 0.313713 0.332511
Si Si5 0.000000 0.480411 0.750000
Si Si6 0.974845 0.547135 0.409793
Si Si7 0.351944 0.267939 0.450767
Si Si8 0.365689 0.775005 0.673337
O O1 0.539330 0.671332 0.058003
O O2 0.643552 0.682343 0.143679
O O3 0.643432 0.415164 0.088988
O O4 0.743915 0.671426 0.056589
O O5 0.145249 0.887970 0.598604
O O6 0.245890 0.824564 0.681972
O O7 0.050059 0.775267 0.675945
O O8 0.119605 0.078896 0.677367
O O9 0.404216 0.910692 0.062188
O O10 0.360246 0.657160 0.005461
O O11 0.083033 0.402655 0.280527
O O12 0.053915 0.458153 0.372489
O O13 0.934789 0.364657 0.785886
O O14 0.047478 0.649540 0.446550
O O15 0.897727 0.669199 0.380977
#
# Coordination Sequence:
#
# PCOD8247398 Si02
#       8
#     8   8   8   8   4   8   8   8
#     4  10  22  38  55  82 121 158 198 252 299 344
#     4  10  21  39  62  89 124 160 195 247 297 344
#     4  10  22  38  59  88 118 162 211 246 285 348
#     4   9  20  42  61  85 117 151 193 247 302 351
#     4  10  22  40  66  90 116 152 198 246 300 376
#     4   9  19  36  57  83 121 156 194 251 295 333
#     4  12  22  37  59  87 122 167 207 239 291 360
#     4  11  21  39  62  91 121 156 197 248 306 352
#
# _framework density 21.292731
#
# number of rings (size 3 to 8) (size 9 to 14) (size 15 to 20)
#    0.000    2.133    0.000    6.400    0.000    3.733 
#    0.000    8.000    0.000    3.200    0.000    0.000 
#    0.000    0.000    0.000    0.000    0.000    0.000 
#
# Total GULP energy -743681.082463 kJ/mol
# GULP energy per Si atom -12394.684708 kJ/mol
# Density = 2.124427 g / cm^3
# Si number density = 21.292731 Si / 1000 Ang^3
#
#
#
# Elastic Constant Matrix: (Units=GPa)
#
#
# Indices 1 2 3 4 5 6 
#
# 1 82.5374 15.2982 24.1669 0.0000 0.0000 0.0000
# 2 15.2982 104.8758 40.9834 0.0000 0.0000 0.0000
# 3 24.1669 40.9834 100.9223 0.0000 0.0000 0.0000
# 4 0.0000 0.0000 0.0000 28.8229 0.0000 0.0000
# 5 0.0000 0.0000 0.0000 0.0000 21.9704 0.0000
# 6 0.0000 0.0000 0.0000 0.0000 0.0000 24.2483
#
#
#
# Elastic Compliance Matrix: (Units=1/GPa)
#
#
# Indices 1 2 3 4 5 6 
#
# 1 0.013087 -0.000813 -0.002804 0.000000 0.000000 0.000000
# 2 -0.000813 0.011384 -0.004428 0.000000 0.000000 0.000000
# 3 -0.002804 -0.004428 0.012378 0.000000 0.000000 0.000000
# 4 0.000000 0.000000 0.000000 0.034695 0.000000 0.000000
# 5 0.000000 0.000000 0.000000 0.000000 0.045516 0.000000
# 6 0.000000 0.000000 0.000000 0.000000 0.000000 0.041240
#
#
# Mechanical properties :
#
#
# Convention : Reuss Voigt Hill
#
# Bulk Modulus (GPa) = 48.17117 49.91471 49.04294
# Shear Modulus (GPa) = 27.57703 28.86748 28.22225
#
# Velocity S-wave (km/s) = 3.60271 3.68604 3.64461
# Velocity P-wave (km/s) = 6.32285 6.45049 6.38699
#
# Compressibility (1/GPa) = 0.02075930
#
# Stress axis : x y z
#
# Youngs Moduli (GPa) = 76.40948 87.84104 80.78725
#
# Poissons Ratio (x) = 0.07146 0.22649
# Poissons Ratio (y) = 0.06216 0.35774
# Poissons Ratio (z) = 0.21422 0.38898
#
# Static dielectric constant tensor:
#      x y z
#    x 3.606760 0.000000 0.000000 
#    y 0.000000 4.076080 0.000000 
#    z 0.000000 0.000000 3.819410 
# 
# 
# High freq. dielectric constant tensor:
#      x y z
#    x 1.816580 0.000000 0.000000 
#    y 0.000000 1.850910 0.000000 
#    z 0.000000 0.000000 1.818990 
# 
# From -- ./inp_files/26074.got.cif
#   From: 2010.03.12/outbox.cif.g09.slc.cpg/sg60_14_cif.got.tgz:26074.got - 2010.04.10 18:46:24.
