data_PCOD8247504
_publ_section_title
;
Structure prediction by ZEFSAII (Michael W. Deem and Ramdas Pophale) SiO2 
 PCOD8247504
Probable space group: P B C N
;
_chemical_formula_sum "Si O2"
_cell_formula_units_Z 48
_cell_length_a 8.772325
_cell_length_b 29.083752
_cell_length_c 9.174133
_cell_angle_alpha 90.000000
_cell_angle_beta 90.000000
_cell_angle_gamma 90.000000
_cell_volume 2340.616045
_symmetry_space_group_name_H-M "P B C N"
_symmetry_group_IT_number 60
_symmetry_cell_setting 'orthorhombic'
loop_
_space_group_symop_operation_xyz
x,y,z
1/2-x,1/2-y,1/2+z
1/2+x,1/2-y,-z
-x,y,1/2-z
-x,-y,-z
1/2+x,1/2+y,1/2-z
1/2-x,1/2+y,z
x,-y,1/2+z
loop_
_atom_site_type_symbol
_atom_site_label
_atom_site_fract_x
_atom_site_fract_y
_atom_site_fract_z
Si Si1 0.654450 0.448827 0.554319
Si Si2 0.102169 0.707167 0.113835
Si Si3 0.643017 0.115064 0.557820
Si Si4 0.118057 0.272266 0.120253
Si Si5 0.805479 0.037755 0.384928
Si Si6 0.802087 0.626223 0.875861
O O1 0.726228 0.458986 0.712543
O O2 0.474169 0.448605 0.568398
O O3 0.721755 0.485854 0.440079
O O4 0.690990 0.398719 0.489866
O O5 0.256361 0.734006 0.157320
O O6 0.000000 0.691446 0.250000
O O7 0.161421 0.662617 0.028913
O O8 0.989585 0.739621 0.017918
O O9 0.690630 0.072370 0.460520
O O10 0.468989 0.106243 0.597072
O O11 0.743158 0.117505 0.706550
O O12 0.206687 0.319697 0.089555
O O13 0.000000 0.279959 0.250000
#
# Coordination Sequence:
#
# PCOD8247504 Si02
#       6
#     8   8   8   8   8   8
#     4  10  22  40  63  91 125 163 201 258 304 371
#     4  11  24  39  67  92 127 169 211 266 319 373
#     4  10  22  40  60  89 122 162 205 253 307 371
#     4  11  22  45  62  92 129 166 214 263 314 386
#     4  10  22  40  62  93 125 159 208 250 310 368
#     4  10  21  41  63  84 124 164 204 254 308 365
#
# _framework density 20.507421000000001
#
# number of rings (size 3 to 8) (size 9 to 14) (size 15 to 20)
#    0.000    1.667    3.333    2.000    4.667    4.000 
#    3.000    0.000    0.000    0.000    0.000    0.000 
#    0.000    0.000    0.000    0.000    0.000    0.000 
#
# Total GULP energy -595157.943259 kJ/mol
# GULP energy per Si atom -12399.123818 kJ/mol
# Density = 2.046075 g / cm^3
# Si number density = 20.507421 Si / 1000 Ang^3
#
#
#
# Elastic Constant Matrix: (Units=GPa)
#
#
# Indices 1 2 3 4 5 6 
#
# 1 43.4132 46.1296 27.2769 0.0000 0.0000 0.0000
# 2 46.1296 109.0808 49.6173 0.0000 0.0000 0.0000
# 3 27.2769 49.6173 130.5682 0.0000 0.0000 0.0000
# 4 0.0000 0.0000 0.0000 29.5668 0.0000 0.0000
# 5 0.0000 0.0000 0.0000 0.0000 32.1225 0.0000
# 6 0.0000 0.0000 0.0000 0.0000 0.0000 35.3506
#
#
#
# Elastic Compliance Matrix: (Units=1/GPa)
#
#
# Indices 1 2 3 4 5 6 
#
# 1 0.042484 -0.016840 -0.002476 0.000000 0.000000 0.000000
# 2 -0.016840 0.017758 -0.003230 0.000000 0.000000 0.000000
# 3 -0.002476 -0.003230 0.009404 0.000000 0.000000 0.000000
# 4 0.000000 0.000000 0.000000 0.033822 0.000000 0.000000
# 5 0.000000 0.000000 0.000000 0.000000 0.031131 0.000000
# 6 0.000000 0.000000 0.000000 0.000000 0.000000 0.028288
#
#
# Mechanical properties :
#
#
# Convention : Reuss Voigt Hill
#
# Bulk Modulus (GPa) = 40.72757 58.78998 49.75877
# Shear Modulus (GPa) = 23.13072 30.07721 26.60396
#
# Velocity S-wave (km/s) = 3.36209 3.83384 3.60569
# Velocity P-wave (km/s) = 5.91393 6.95181 6.45377
#
# Compressibility (1/GPa) = 0.02455340
#
# Stress axis : x y z
#
# Youngs Moduli (GPa) = 23.53852 56.31155 106.34175
#
# Poissons Ratio (x) = 0.94828 0.26329
# Poissons Ratio (y) = 0.39638 0.34352
# Poissons Ratio (z) = 0.05828 0.18191
#
# Static dielectric constant tensor:
#      x y z
#    x 3.546400 0.000000 0.000000 
#    y 0.000000 3.588610 0.000000 
#    z 0.000000 0.000000 4.070320 
# 
# 
# High freq. dielectric constant tensor:
#      x y z
#    x 1.787480 0.000000 0.000000 
#    y 0.000000 1.796090 0.000000 
#    z 0.000000 0.000000 1.820730 
# 
# From -- ./inp_files/4230.got.cif
#   From: 2010.03.12/outbox.cif.g09.slc.cpg/sg60_3_cif.got.tgz:4230.got - 2010.04.10 18:46:24.
