data_PCOD8247667
_publ_section_title
;
Structure prediction by ZEFSAII (Michael W. Deem and Ramdas Pophale) SiO2 
 PCOD8247667
Probable space group: P B C N
;
_chemical_formula_sum "Si O2"
_cell_formula_units_Z 48
_cell_length_a 9.872872
_cell_length_b 16.334587
_cell_length_c 14.997367
_cell_angle_alpha 90.000000
_cell_angle_beta 90.000000
_cell_angle_gamma 90.000000
_cell_volume 2418.614677
_symmetry_space_group_name_H-M "P B C N"
_symmetry_group_IT_number 60
_symmetry_cell_setting 'orthorhombic'
loop_
_space_group_symop_operation_xyz
x,y,z
1/2-x,1/2-y,1/2+z
1/2+x,1/2-y,-z
-x,y,1/2-z
-x,-y,-z
1/2+x,1/2+y,1/2-z
1/2-x,1/2+y,z
x,-y,1/2+z
loop_
_atom_site_type_symbol
_atom_site_label
_atom_site_fract_x
_atom_site_fract_y
_atom_site_fract_z
Si Si1 0.647858 0.034611 0.986243
Si Si2 0.894663 0.926605 0.006087
Si Si3 0.882731 0.366483 0.307820
Si Si4 0.983281 0.769726 0.926712
Si Si5 0.706268 0.193466 0.072275
Si Si6 0.629573 0.328160 0.189702
O O1 0.659293 0.080395 0.892470
O O2 0.698808 0.094551 0.067157
O O3 0.500000 0.000000 0.000000
O O4 0.744197 0.956457 0.985918
O O5 0.897525 0.882172 0.101746
O O6 0.931819 0.863275 0.926897
O O7 0.000000 0.000000 0.000000
O O8 0.944419 0.276998 0.335314
O O9 0.753271 0.362483 0.245572
O O10 0.000000 0.410882 0.250000
O O11 0.144145 0.770502 0.948009
O O12 0.906444 0.720515 0.002439
O O13 0.660090 0.232813 0.165999
O O14 0.500000 0.332445 0.250000
#
# Coordination Sequence:
#
# PCOD8247667 Si02
#       6
#     8   8   8   8   8   8
#     4  11  24  40  66  93 130 173 208 256 319 395
#     4  11  22  42  65  92 128 169 214 253 323 394
#     4  11  22  42  64  92 127 164 217 269 324 366
#     4  10  22  38  65  88 121 166 212 255 305 388
#     4  10  22  40  63  90 120 164 216 250 310 385
#     4  11  24  40  65  94 126 165 216 275 319 372
#
# _framework density 19.846070999999998
#
# number of rings (size 3 to 8) (size 9 to 14) (size 15 to 20)
#    0.000    1.333    3.333    2.000   14.000    0.000 
#    0.000   10.000    0.000    0.000    0.000    0.000 
#    0.000    0.000    0.000    0.000    0.000    0.000 
#
# Total GULP energy -594913.093149 kJ/mol
# GULP energy per Si atom -12394.022774 kJ/mol
# Density = 1.980090 g / cm^3
# Si number density = 19.846071 Si / 1000 Ang^3
#
#
#
# Elastic Constant Matrix: (Units=GPa)
#
#
# Indices 1 2 3 4 5 6 
#
# 1 151.9071 21.8974 37.7100 0.0000 0.0000 0.0000
# 2 21.8974 80.2379 35.6954 0.0000 0.0000 0.0000
# 3 37.7100 35.6954 89.1045 0.0000 0.0000 0.0000
# 4 0.0000 0.0000 0.0000 23.3316 0.0000 0.0000
# 5 0.0000 0.0000 0.0000 0.0000 35.5392 0.0000
# 6 0.0000 0.0000 0.0000 0.0000 0.0000 43.9562
#
#
#
# Elastic Compliance Matrix: (Units=1/GPa)
#
#
# Indices 1 2 3 4 5 6 
#
# 1 0.007394 -0.000761 -0.002824 0.000000 0.000000 0.000000
# 2 -0.000761 0.015244 -0.005785 0.000000 0.000000 0.000000
# 3 -0.002824 -0.005785 0.014735 0.000000 0.000000 0.000000
# 4 0.000000 0.000000 0.000000 0.042860 0.000000 0.000000
# 5 0.000000 0.000000 0.000000 0.000000 0.028138 0.000000
# 6 0.000000 0.000000 0.000000 0.000000 0.000000 0.022750
#
#
# Mechanical properties :
#
#
# Convention : Reuss Voigt Hill
#
# Bulk Modulus (GPa) = 53.66835 56.87281 55.27058
# Shear Modulus (GPa) = 32.03639 35.62852 33.83246
#
# Velocity S-wave (km/s) = 4.02212 4.24163 4.13333
# Velocity P-wave (km/s) = 6.97646 7.26001 7.11965
#
# Compressibility (1/GPa) = 0.01863296
#
# Stress axis : x y z
#
# Youngs Moduli (GPa) = 135.24849 65.59904 67.86441
#
# Poissons Ratio (x) = 0.04995 0.19166
# Poissons Ratio (y) = 0.10299 0.39257
# Poissons Ratio (z) = 0.38195 0.37946
#
# Static dielectric constant tensor:
#      x y z
#    x 3.762460 0.000000 0.000000 
#    y 0.000000 4.305520 0.000000 
#    z 0.000000 0.000000 3.936220 
# 
# 
# High freq. dielectric constant tensor:
#      x y z
#    x 1.801050 0.000000 0.000000 
#    y 0.000000 1.773140 0.000000 
#    z 0.000000 0.000000 1.760020 
# 
# From -- ./inp_files/14985.got.cif
#   From: 2010.03.12/outbox.cif.g09.slc.cpg/sg60_8_cif.got.tgz:14985.got - 2010.04.10 18:46:24.
