data_PCOD8247478
_publ_section_title
;
Structure prediction by ZEFSAII (Michael W. Deem and Ramdas Pophale) SiO2 
 PCOD8247478
Probable space group: P B C N
;
_chemical_formula_sum "Si O2"
_cell_formula_units_Z 64
_cell_length_a 13.584893
_cell_length_b 12.975409
_cell_length_c 17.817604
_cell_angle_alpha 90.000000
_cell_angle_beta 90.000000
_cell_angle_gamma 90.000000
_cell_volume 3140.700913
_symmetry_space_group_name_H-M "P B C N"
_symmetry_group_IT_number 60
_symmetry_cell_setting 'orthorhombic'
loop_
_space_group_symop_operation_xyz
x,y,z
1/2-x,1/2-y,1/2+z
1/2+x,1/2-y,-z
-x,y,1/2-z
-x,-y,-z
1/2+x,1/2+y,1/2-z
1/2-x,1/2+y,z
x,-y,1/2+z
loop_
_atom_site_type_symbol
_atom_site_label
_atom_site_fract_x
_atom_site_fract_y
_atom_site_fract_z
Si Si1 0.880497 0.558367 0.810218
Si Si2 0.069147 0.215162 0.018058
Si Si3 0.106243 0.671906 0.224796
Si Si4 0.297090 0.904462 0.035805
Si Si5 0.732828 0.194005 0.695189
Si Si6 0.370521 0.750442 0.558297
Si Si7 0.520715 0.757263 0.171080
Si Si8 0.245979 0.897506 0.459340
O O1 0.895888 0.451896 0.766056
O O2 0.838594 0.533689 0.892709
O O3 0.799958 0.626595 0.766225
O O4 0.981961 0.623700 0.820290
O O5 0.123705 0.323598 0.004506
O O6 0.035475 0.200634 0.104137
O O7 0.144207 0.122297 0.003473
O O8 0.979184 0.211297 0.961061
O O9 0.188407 0.720747 0.279371
O O10 0.129950 0.697573 0.139263
O O11 0.000000 0.715738 0.250000
O O12 0.198134 0.848716 0.061470
O O13 0.275048 0.983388 0.968539
O O14 0.637264 0.247459 0.657542
O O15 0.775854 0.124080 0.628188
O O16 0.334120 0.829195 0.494141
O O17 0.500000 0.698581 0.250000
#
# Coordination Sequence:
#
# PCOD8247478 Si02
#       8
#     8   8   8   8   8   8   8   8
#     4  10  21  40  65  93 118 167 210 255 314 371
#     4  10  22  39  62  92 126 164 211 257 315 372
#     4  12  24  39  66  93 127 163 208 254 319 377
#     4  10  22  40  65  90 121 168 212 256 311 378
#     4  11  22  40  61  93 130 161 204 267 308 369
#     4  11  22  41  62  91 127 162 203 258 317 369
#     4   9  19  36  62  88 127 161 206 256 307 366
#     4  11  23  39  64  92 123 165 211 258 315 360
#
# _framework density 20.377616
#
# number of rings (size 3 to 8) (size 9 to 14) (size 15 to 20)
#    0.000    1.500    3.750    1.875    1.750    5.000 
#    0.000    0.000    0.000    0.000    0.000    0.000 
#    0.000    0.000    0.000    0.000    0.000    0.000 
#
# Total GULP energy -793591.180243 kJ/mol
# GULP energy per Si atom -12399.862191 kJ/mol
# Density = 2.033124 g / cm^3
# Si number density = 20.377616 Si / 1000 Ang^3
#
#
#
# Elastic Constant Matrix: (Units=GPa)
#
#
# Indices 1 2 3 4 5 6 
#
# 1 133.2020 28.8314 27.6066 0.0000 0.0000 0.0000
# 2 28.8314 44.9038 7.1926 0.0000 0.0000 0.0000
# 3 27.6066 7.1926 74.6528 0.0000 0.0000 0.0000
# 4 0.0000 0.0000 0.0000 30.1131 0.0000 0.0000
# 5 0.0000 0.0000 0.0000 0.0000 34.2699 0.0000
# 6 0.0000 0.0000 0.0000 0.0000 0.0000 15.4961
#
#
#
# Elastic Compliance Matrix: (Units=1/GPa)
#
#
# Indices 1 2 3 4 5 6 
#
# 1 0.009302 -0.005507 -0.002909 0.000000 0.000000 0.000000
# 2 -0.005507 0.025879 -0.000457 0.000000 0.000000 0.000000
# 3 -0.002909 -0.000457 0.014515 0.000000 0.000000 0.000000
# 4 0.000000 0.000000 0.000000 0.033208 0.000000 0.000000
# 5 0.000000 0.000000 0.000000 0.000000 0.029180 0.000000
# 6 0.000000 0.000000 0.000000 0.000000 0.000000 0.064533
#
#
# Mechanical properties :
#
#
# Convention : Reuss Voigt Hill
#
# Bulk Modulus (GPa) = 31.29881 42.22443 36.76162
# Shear Modulus (GPa) = 24.38865 28.58435 26.48650
#
# Velocity S-wave (km/s) = 3.46328 3.74937 3.60916
# Velocity P-wave (km/s) = 5.60225 6.28567 5.95377
#
# Compressibility (1/GPa) = 0.03195010
#
# Stress axis : x y z
#
# Youngs Moduli (GPa) = 107.50014 38.64176 68.89286
#
# Poissons Ratio (x) = 0.21279 0.20044
# Poissons Ratio (y) = 0.59197 0.03148
# Poissons Ratio (z) = 0.31277 0.01766
#
# Static dielectric constant tensor:
#      x y z
#    x 3.785840 0.000000 0.000000 
#    y 0.000000 3.342850 0.000000 
#    z 0.000000 0.000000 3.805190 
# 
# 
# High freq. dielectric constant tensor:
#      x y z
#    x 1.804590 0.000000 0.000000 
#    y 0.000000 1.762480 0.000000 
#    z 0.000000 0.000000 1.810050 
# 
# From -- ./inp_files/20672.got.cif
#   From: 2010.03.12/outbox.cif.g09.slc.cpg/sg60_11_cif.got.tgz:20672.got - 2010.04.10 18:46:24.
