data_PCOD8247791
_publ_section_title
;
Structure prediction by ZEFSAII (Michael W. Deem and Ramdas Pophale) SiO2 
 PCOD8247791
Probable space group: P B C N
;
_chemical_formula_sum "Si O2"
_cell_formula_units_Z 40
_cell_length_a 9.298267
_cell_length_b 21.810407
_cell_length_c 8.873656
_cell_angle_alpha 90.000000
_cell_angle_beta 90.000000
_cell_angle_gamma 90.000000
_cell_volume 1799.568454
_symmetry_space_group_name_H-M "P B C N"
_symmetry_group_IT_number 60
_symmetry_cell_setting 'orthorhombic'
loop_
_space_group_symop_operation_xyz
x,y,z
1/2-x,1/2-y,1/2+z
1/2+x,1/2-y,-z
-x,y,1/2-z
-x,-y,-z
1/2+x,1/2+y,1/2-z
1/2-x,1/2+y,z
x,-y,1/2+z
loop_
_atom_site_type_symbol
_atom_site_label
_atom_site_fract_x
_atom_site_fract_y
_atom_site_fract_z
Si Si1 0.652784 0.228153 0.173763
Si Si2 0.409780 0.545626 0.102526
Si Si3 0.242377 0.164639 0.033228
Si Si4 0.395313 0.984207 0.128804
Si Si5 0.959325 0.350309 0.409397
O O1 0.500000 0.241586 0.250000
O O2 0.756145 0.197935 0.301432
O O3 0.716532 0.291336 0.110004
O O4 0.642602 0.187916 0.021037
O O5 0.500000 0.558531 0.250000
O O6 0.379671 0.611949 0.027923
O O7 0.258459 0.515216 0.140985
O O8 0.500000 0.500000 0.000000
O O9 0.397126 0.133500 0.004832
O O10 0.500000 0.012698 0.250000
O O11 0.371708 0.910984 0.138644
O O12 0.500000 0.000000 0.000000
O O13 0.000000 0.316239 0.250000
#
# Coordination Sequence:
#
# PCOD8247791 Si02
#       5
#     8   8   8   8   8
#     4  10  24  43  72 103 141 188 249 310 369 444
#     4  12  29  46  68 111 155 195 239 310 393 449
#     4  11  24  46  70 104 143 193 245 311 379 451
#     4  11  23  43  74  99 136 188 243 291 350 449
#     4  10  22  41  72 101 130 185 248 295 356 448
#
# _framework density 22.227551999999999
#
# number of rings (size 3 to 8) (size 9 to 14) (size 15 to 20)
#    0.000    1.200    2.000    2.400    8.400    4.800 
#    0.000    0.000    0.000    0.000    0.000    0.000 
#    0.000    0.000    0.000    0.000    0.000    0.000 
#
# Total GULP energy -495527.030626 kJ/mol
# GULP energy per Si atom -12388.175766 kJ/mol
# Density = 2.217696 g / cm^3
# Si number density = 22.227552 Si / 1000 Ang^3
#
#
#
# Elastic Constant Matrix: (Units=GPa)
#
#
# Indices 1 2 3 4 5 6 
#
# 1 114.9968 51.7334 28.0477 0.0000 0.0000 0.0000
# 2 51.7334 106.4261 42.4769 0.0000 0.0000 0.0000
# 3 28.0477 42.4769 133.2330 0.0000 0.0000 0.0000
# 4 0.0000 0.0000 0.0000 37.0821 0.0000 0.0000
# 5 0.0000 0.0000 0.0000 0.0000 41.8797 0.0000
# 6 0.0000 0.0000 0.0000 0.0000 0.0000 37.0646
#
#
#
# Elastic Compliance Matrix: (Units=1/GPa)
#
#
# Indices 1 2 3 4 5 6 
#
# 1 0.011188 -0.005154 -0.000712 0.000000 0.000000 0.000000
# 2 -0.005154 0.013141 -0.003104 0.000000 0.000000 0.000000
# 3 -0.000712 -0.003104 0.008645 0.000000 0.000000 0.000000
# 4 0.000000 0.000000 0.000000 0.026967 0.000000 0.000000
# 5 0.000000 0.000000 0.000000 0.000000 0.023878 0.000000
# 6 0.000000 0.000000 0.000000 0.000000 0.000000 0.026980
#
#
# Mechanical properties :
#
#
# Convention : Reuss Voigt Hill
#
# Bulk Modulus (GPa) = 66.52166 66.57466 66.54816
# Shear Modulus (GPa) = 37.38259 38.69848 38.04053
#
# Velocity S-wave (km/s) = 4.10544 4.17707 4.14141
# Velocity P-wave (km/s) = 7.24330 7.29934 7.27137
#
# Compressibility (1/GPa) = 0.01503270
#
# Stress axis : x y z
#
# Youngs Moduli (GPa) = 89.37844 76.09896 115.67018
#
# Poissons Ratio (x) = 0.39225 0.08236
# Poissons Ratio (y) = 0.46070 0.35909
# Poissons Ratio (z) = 0.06364 0.23624
#
# Static dielectric constant tensor:
#      x y z
#    x 4.127340 0.000000 0.000000 
#    y 0.000000 3.271260 0.000000 
#    z 0.000000 0.000000 4.211180 
# 
# 
# High freq. dielectric constant tensor:
#      x y z
#    x 1.868190 0.000000 0.000000 
#    y 0.000000 1.874000 0.000000 
#    z 0.000000 0.000000 1.898800 
# 
# From -- ./inp_files/3821.got.cif
#   From: 2010.03.12/outbox.cif.g09.slc.cpg/sg60_2_cif.got.tgz:3821.got - 2010.04.10 18:46:24.
