data_PCOD8247747
_publ_section_title
;
Structure prediction by ZEFSAII (Michael W. Deem and Ramdas Pophale) SiO2 
 PCOD8247747
Probable space group: P B C N
;
_chemical_formula_sum "Si O2"
_cell_formula_units_Z 48
_cell_length_a 8.255043
_cell_length_b 8.887011
_cell_length_c 28.299966
_cell_angle_alpha 90.000000
_cell_angle_beta 90.000000
_cell_angle_gamma 90.000000
_cell_volume 2076.160726
_symmetry_space_group_name_H-M "P B C N"
_symmetry_group_IT_number 60
_symmetry_cell_setting 'orthorhombic'
loop_
_space_group_symop_operation_xyz
x,y,z
1/2-x,1/2-y,1/2+z
1/2+x,1/2-y,-z
-x,y,1/2-z
-x,-y,-z
1/2+x,1/2+y,1/2-z
1/2-x,1/2+y,z
x,-y,1/2+z
loop_
_atom_site_type_symbol
_atom_site_label
_atom_site_fract_x
_atom_site_fract_y
_atom_site_fract_z
Si Si1 0.471874 0.327113 0.368009
Si Si2 0.430380 0.839750 0.199809
Si Si3 0.272071 0.048798 0.981303
Si Si4 0.156829 0.499462 0.875659
Si Si5 0.432816 0.699920 0.531153
Si Si6 0.624347 0.512784 0.292863
O O1 0.345036 0.465309 0.367705
O O2 0.591815 0.321049 0.413022
O O3 0.588768 0.368627 0.325866
O O4 0.373891 0.172687 0.361422
O O5 0.500000 0.790870 0.250000
O O6 0.546115 0.897047 0.157771
O O7 0.368786 0.675651 0.181536
O O8 0.309225 0.970276 0.218045
O O9 0.367909 0.024086 0.931909
O O10 0.119960 0.161980 0.977696
O O11 0.403632 0.126432 0.016031
O O12 0.198972 0.896234 0.002376
O O13 0.500000 0.501358 0.250000
#
# Coordination Sequence:
#
# PCOD8247747 Si02
#       6
#     8   8   8   8   8   8
#     4  11  24  41  65  95 128 173 222 279 336 400
#     4  11  25  44  69  98 133 175 215 270 333 400
#     4  10  22  41  62  90 127 170 216 273 332 395
#     4  11  23  42  67  94 130 175 224 275 339 401
#     4  10  23  40  62  91 128 170 220 273 332 396
#     4  11  25  44  67 100 136 171 219 272 333 404
#
# _framework density 23.119596999999999
#
# number of rings (size 3 to 8) (size 9 to 14) (size 15 to 20)
#    0.000    1.333    0.000    5.000    0.000   14.667 
#    0.000    0.000    0.000    0.000    0.000    0.000 
#    0.000    0.000    0.000    0.000    0.000    0.000 
#
# Total GULP energy -594701.753279 kJ/mol
# GULP energy per Si atom -12389.619860 kJ/mol
# Density = 2.306698 g / cm^3
# Si number density = 23.119597 Si / 1000 Ang^3
#
#
#
# Elastic Constant Matrix: (Units=GPa)
#
#
# Indices 1 2 3 4 5 6 
#
# 1 36.8831 29.0032 22.0671 0.0000 0.0000 0.0000
# 2 29.0032 121.7875 51.0900 0.0000 0.0000 0.0000
# 3 22.0671 51.0900 116.5796 0.0000 0.0000 0.0000
# 4 0.0000 0.0000 0.0000 34.3504 0.0000 0.0000
# 5 0.0000 0.0000 0.0000 0.0000 41.9302 0.0000
# 6 0.0000 0.0000 0.0000 0.0000 0.0000 20.3958
#
#
#
# Elastic Compliance Matrix: (Units=1/GPa)
#
#
# Indices 1 2 3 4 5 6 
#
# 1 0.034547 -0.006719 -0.003595 0.000000 0.000000 0.000000
# 2 -0.006719 0.011367 -0.003710 0.000000 0.000000 0.000000
# 3 -0.003595 -0.003710 0.010884 0.000000 0.000000 0.000000
# 4 0.000000 0.000000 0.000000 0.029112 0.000000 0.000000
# 5 0.000000 0.000000 0.000000 0.000000 0.023849 0.000000
# 6 0.000000 0.000000 0.000000 0.000000 0.000000 0.049030
#
#
# Mechanical properties :
#
#
# Convention : Reuss Voigt Hill
#
# Bulk Modulus (GPa) = 34.78134 53.28567 44.03351
# Shear Modulus (GPa) = 25.45560 30.87461 28.16510
#
# Velocity S-wave (km/s) = 3.32179 3.65832 3.49411
# Velocity P-wave (km/s) = 5.45794 6.39861 5.94691
#
# Compressibility (1/GPa) = 0.02875105
#
# Stress axis : x y z
#
# Youngs Moduli (GPa) = 28.94600 87.97038 91.87751
#
# Poissons Ratio (x) = 0.59110 0.33027
# Poissons Ratio (y) = 0.19450 0.34085
# Poissons Ratio (z) = 0.10405 0.32635
#
# Static dielectric constant tensor:
#      x y z
#    x 4.093500 0.000000 0.000000 
#    y 0.000000 4.282760 0.000000 
#    z 0.000000 0.000000 4.127100 
# 
# 
# High freq. dielectric constant tensor:
#      x y z
#    x 1.914910 0.000000 0.000000 
#    y 0.000000 1.934830 0.000000 
#    z 0.000000 0.000000 1.909230 
# 
# From -- ./inp_files/25940.got.cif
#   From: 2010.03.12/outbox.cif.g09.slc.cpg/sg60_13_cif.got.tgz:25940.got - 2010.04.10 18:46:24.
