data_PCOD8247794
_publ_section_title
;
Structure prediction by ZEFSAII (Michael W. Deem and Ramdas Pophale) SiO2 
 PCOD8247794
Probable space group: P B C N
;
_chemical_formula_sum "Si O2"
_cell_formula_units_Z 36
_cell_length_a 10.828859
_cell_length_b 15.989200
_cell_length_c 8.862575
_cell_angle_alpha 90.000000
_cell_angle_beta 90.000000
_cell_angle_gamma 90.000000
_cell_volume 1534.508708
_symmetry_space_group_name_H-M "P B C N"
_symmetry_group_IT_number 60
_symmetry_cell_setting 'orthorhombic'
loop_
_space_group_symop_operation_xyz
x,y,z
1/2-x,1/2-y,1/2+z
1/2+x,1/2-y,-z
-x,y,1/2-z
-x,-y,-z
1/2+x,1/2+y,1/2-z
1/2-x,1/2+y,z
x,-y,1/2+z
loop_
_atom_site_type_symbol
_atom_site_label
_atom_site_fract_x
_atom_site_fract_y
_atom_site_fract_z
Si Si1 0.862190 0.890741 0.280473
Si Si2 0.683780 0.463498 0.582430
Si Si3 0.500000 0.660164 0.250000
Si Si4 0.700012 0.252774 0.921649
Si Si5 0.857649 0.657208 0.212368
O O1 0.857504 0.963500 0.407992
O O2 0.761110 0.824713 0.332690
O O3 0.000000 0.852972 0.250000
O O4 0.825501 0.939524 0.128167
O O5 0.595067 0.397273 0.662844
O O6 0.820717 0.428699 0.625596
O O7 0.436280 0.724478 0.134020
O O8 0.789449 0.330420 0.874611
O O9 0.685401 0.234644 0.100555
O O10 0.000000 0.654980 0.250000
#
# Coordination Sequence:
#
# PCOD8247794 Si02
#       5
#     8   8   4   8   8
#     4  11  22  39  63  94 122 168 214 269 311 384
#     4  10  23  40  62  92 124 168 214 258 333 367
#     4  10  22  42  60  92 130 160 212 274 312 394
#     4  10  24  38  65  93 125 168 219 253 336 371
#     4  10  23  42  62  91 130 170 208 272 316 389
#
# _framework density 23.460277000000001
#
# number of rings (size 3 to 8) (size 9 to 14) (size 15 to 20)
#    0.000    1.778    1.111    1.333   12.444    1.778 
#    2.000    2.222    0.000    0.000    0.000    0.000 
#    0.000    0.000    0.000    0.000    0.000    0.000 
#
# Total GULP energy -445992.657111 kJ/mol
# GULP energy per Si atom -12388.684920 kJ/mol
# Density = 2.340688 g / cm^3
# Si number density = 23.460277 Si / 1000 Ang^3
#
#
#
# Elastic Constant Matrix: (Units=GPa)
#
#
# Indices 1 2 3 4 5 6 
#
# 1 125.8814 11.1574 31.9776 0.0000 0.0000 0.0000
# 2 11.1574 13.7968 -7.7967 0.0000 0.0000 0.0000
# 3 31.9776 -7.7967 74.9942 0.0000 0.0000 0.0000
# 4 0.0000 0.0000 0.0000 22.5157 0.0000 0.0000
# 5 0.0000 0.0000 0.0000 0.0000 33.2079 0.0000
# 6 0.0000 0.0000 0.0000 0.0000 0.0000 12.9864
#
#
#
# Elastic Compliance Matrix: (Units=1/GPa)
#
#
# Indices 1 2 3 4 5 6 
#
# 1 0.010406 -0.011605 -0.005644 0.000000 0.000000 0.000000
# 2 -0.011605 0.089946 0.014299 0.000000 0.000000 0.000000
# 3 -0.005644 0.014299 0.017228 0.000000 0.000000 0.000000
# 4 0.000000 0.000000 0.000000 0.044414 0.000000 0.000000
# 5 0.000000 0.000000 0.000000 0.000000 0.030113 0.000000
# 6 0.000000 0.000000 0.000000 0.000000 0.000000 0.077004
#
#
# Mechanical properties :
#
#
# Convention : Reuss Voigt Hill
#
# Bulk Modulus (GPa) = 8.95401 31.70545 20.32973
# Shear Modulus (GPa) = 16.01354 25.69760 20.85557
#
# Velocity S-wave (km/s) = 2.61546 3.31322 2.98480
# Velocity P-wave (km/s) = 3.59803 5.30853 4.53466
#
# Compressibility (1/GPa) = 0.11168183
#
# Stress axis : x y z
#
# Youngs Moduli (GPa) = 96.09611 11.11776 58.04671
#
# Poissons Ratio (x) = 0.12902 0.32760
# Poissons Ratio (y) = 1.11518 -0.83004
# Poissons Ratio (z) = 0.54234 -0.15898
#
# Static dielectric constant tensor:
#      x y z
#    x 4.483130 0.000000 0.000000 
#    y 0.000000 4.107310 0.000000 
#    z 0.000000 0.000000 4.830190 
# 
# 
# High freq. dielectric constant tensor:
#      x y z
#    x 1.921180 0.000000 0.000000 
#    y 0.000000 1.919120 0.000000 
#    z 0.000000 0.000000 1.942520 
# 
# From -- ./inp_files/4882.got.cif
#   From: 2010.03.12/outbox.cif.g09.slc.cpg/sg60_3_cif.got.tgz:4882.got - 2010.04.10 18:46:24.
