data_PCOD8247922
_publ_section_title
;
Structure prediction by ZEFSAII (Michael W. Deem and Ramdas Pophale) SiO2 
 PCOD8247922
Probable space group: P B C N
;
_chemical_formula_sum "Si O2"
_cell_formula_units_Z 48
_cell_length_a 5.283726
_cell_length_b 26.707773
_cell_length_c 14.105784
_cell_angle_alpha 90.000000
_cell_angle_beta 90.000000
_cell_angle_gamma 90.000000
_cell_volume 1990.559638
_symmetry_space_group_name_H-M "P B C N"
_symmetry_group_IT_number 60
_symmetry_cell_setting 'orthorhombic'
loop_
_space_group_symop_operation_xyz
x,y,z
1/2-x,1/2-y,1/2+z
1/2+x,1/2-y,-z
-x,y,1/2-z
-x,-y,-z
1/2+x,1/2+y,1/2-z
1/2-x,1/2+y,z
x,-y,1/2+z
loop_
_atom_site_type_symbol
_atom_site_label
_atom_site_fract_x
_atom_site_fract_y
_atom_site_fract_z
Si Si1 0.835251 0.835608 0.489745
Si Si2 0.257189 0.299263 0.806793
Si Si3 0.317318 0.192751 0.892539
Si Si4 0.460221 0.508684 0.352732
Si Si5 0.669767 0.914337 0.161318
Si Si6 0.268985 0.054941 0.523099
O O1 0.749177 0.831517 0.597925
O O2 0.603227 0.811653 0.430703
O O3 0.898015 0.893861 0.464016
O O4 0.094589 0.804120 0.472619
O O5 0.500000 0.318965 0.750000
O O6 0.292447 0.240436 0.826142
O O7 0.000000 0.309435 0.750000
O O8 0.253012 0.143725 0.829890
O O9 0.500000 0.535666 0.250000
O O10 0.404345 0.450693 0.330658
O O11 0.701978 0.497168 0.420337
O O12 0.248504 0.539953 0.411216
O O13 0.500000 0.929687 0.250000
O O14 0.543117 0.927164 0.058445
#
# Coordination Sequence:
#
# PCOD8247922 Si02
#       6
#     8   8   8   8   8   8
#     4  11  23  44  66  93 128 178 216 270 327 403
#     4  12  25  42  65  97 133 170 218 275 330 397
#     4  11  23  41  67  95 127 170 219 270 333 389
#     4  11  21  39  62  90 126 167 217 275 329 397
#     4  11  21  37  61  93 128 166 214 278 334 394
#     4  10  23  39  61  90 126 171 218 266 334 394
#
# _framework density 24.113823
#
# number of rings (size 3 to 8) (size 9 to 14) (size 15 to 20)
#    0.000    1.000    3.333    4.000    0.000    2.667 
#    0.000    0.833    0.000    0.000    0.000    0.000 
#    0.000    0.000    0.000    0.000    0.000    0.000 
#
# Total GULP energy -594659.904734 kJ/mol
# GULP energy per Si atom -12388.748015 kJ/mol
# Density = 2.405894 g / cm^3
# Si number density = 24.113823 Si / 1000 Ang^3
#
#
#
# Elastic Constant Matrix: (Units=GPa)
#
#
# Indices 1 2 3 4 5 6 
#
# 1 97.4085 3.2106 23.9919 0.0000 0.0000 0.0000
# 2 3.2106 48.1095 -4.0297 0.0000 0.0000 0.0000
# 3 23.9919 -4.0297 120.6034 0.0000 0.0000 0.0000
# 4 0.0000 0.0000 0.0000 22.6801 0.0000 0.0000
# 5 0.0000 0.0000 0.0000 0.0000 36.2392 0.0000
# 6 0.0000 0.0000 0.0000 0.0000 0.0000 15.3869
#
#
#
# Elastic Compliance Matrix: (Units=1/GPa)
#
#
# Indices 1 2 3 4 5 6 
#
# 1 0.010834 -0.000906 -0.002186 0.000000 0.000000 0.000000
# 2 -0.000906 0.020920 0.000879 0.000000 0.000000 0.000000
# 3 -0.002186 0.000879 0.008756 0.000000 0.000000 0.000000
# 4 0.000000 0.000000 0.000000 0.044092 0.000000 0.000000
# 5 0.000000 0.000000 0.000000 0.000000 0.027594 0.000000
# 6 0.000000 0.000000 0.000000 0.000000 0.000000 0.064990
#
#
# Mechanical properties :
#
#
# Convention : Reuss Voigt Hill
#
# Bulk Modulus (GPa) = 27.71216 34.71856 31.21536
# Shear Modulus (GPa) = 25.82118 31.05781 28.43950
#
# Velocity S-wave (km/s) = 3.27586 3.59272 3.43794
# Velocity P-wave (km/s) = 5.08189 5.62487 5.36026
#
# Compressibility (1/GPa) = 0.03608524
#
# Stress axis : x y z
#
# Youngs Moduli (GPa) = 92.30018 47.80110 114.21007
#
# Poissons Ratio (x) = 0.04331 0.24961
# Poissons Ratio (y) = 0.08363 -0.10042
# Poissons Ratio (z) = 0.20173 -0.04203
#
# Static dielectric constant tensor:
#      x y z
#    x 4.288370 0.000000 0.000000 
#    y 0.000000 4.335320 0.000000 
#    z 0.000000 0.000000 4.755260 
# 
# 
# High freq. dielectric constant tensor:
#      x y z
#    x 1.951330 0.000000 0.000000 
#    y 0.000000 1.949040 0.000000 
#    z 0.000000 0.000000 1.960020 
# 
# From -- ./inp_files/13948.got.cif
#   From: 2010.03.12/outbox.cif.g09.slc.cpg/sg60_7_cif.got.tgz:13948.got - 2010.04.10 18:46:24.
