data_PCOD8247799
_publ_section_title
;
Structure prediction by ZEFSAII (Michael W. Deem and Ramdas Pophale) SiO2 
 PCOD8247799
Probable space group: P B C N
;
_chemical_formula_sum "Si O2"
_cell_formula_units_Z 44
_cell_length_a 5.353192
_cell_length_b 19.091117
_cell_length_c 19.309006
_cell_angle_alpha 90.000000
_cell_angle_beta 90.000000
_cell_angle_gamma 90.000000
_cell_volume 1973.349804
_symmetry_space_group_name_H-M "P B C N"
_symmetry_group_IT_number 60
_symmetry_cell_setting 'orthorhombic'
loop_
_space_group_symop_operation_xyz
x,y,z
1/2-x,1/2-y,1/2+z
1/2+x,1/2-y,-z
-x,y,1/2-z
-x,-y,-z
1/2+x,1/2+y,1/2-z
1/2-x,1/2+y,z
x,-y,1/2+z
loop_
_atom_site_type_symbol
_atom_site_label
_atom_site_fract_x
_atom_site_fract_y
_atom_site_fract_z
Si Si1 0.504026 0.037303 0.828677
Si Si2 0.178638 0.171695 0.136510
Si Si3 0.316097 0.709120 0.992506
Si Si4 0.495648 0.526817 0.329757
Si Si5 0.000000 0.732371 0.250000
Si Si6 0.135727 0.691422 0.847790
O O1 0.500000 0.010305 0.750000
O O2 0.513841 0.121122 0.830808
O O3 0.753196 0.005623 0.865059
O O4 0.253634 0.005624 0.864993
O O5 0.255212 0.156189 0.056278
O O6 0.993624 0.111005 0.162513
O O7 0.410088 0.179432 0.189330
O O8 0.056969 0.247941 0.135174
O O9 0.604897 0.730695 0.002810
O O10 0.303211 0.675095 0.916039
O O11 0.500000 0.503877 0.250000
O O12 0.208364 0.784430 0.280641
#
# Coordination Sequence:
#
# PCOD8247799 Si02
#       6
#     8   8   8   8   4   8
#     4  10  23  39  60  91 129 168 206 263 325 378
#     4  11  24  40  65  97 127 168 216 272 315 384
#     4  10  22  42  62  92 132 170 206 262 334 378
#     4  10  23  39  60  91 129 168 206 263 325 378
#     4  12  22  36  68 102 120 154 236 272 306 372
#     4  11  24  40  65  97 127 168 216 272 315 384
#
# _framework density 22.297113
#
# number of rings (size 3 to 8) (size 9 to 14) (size 15 to 20)
#    0.000    1.455    1.818    2.727   12.727    0.000 
#    0.000    1.818    0.000    0.000    0.000    0.000 
#    0.000    0.000    0.000    0.000    0.000    0.000 
#
# Total GULP energy -545270.255766 kJ/mol
# GULP energy per Si atom -12392.505813 kJ/mol
# Density = 2.224636 g / cm^3
# Si number density = 22.297113 Si / 1000 Ang^3
#
#
#
# Elastic Constant Matrix: (Units=GPa)
#
#
# Indices 1 2 3 4 5 6 
#
# 1 123.4313 44.8750 -0.6893 0.0000 0.0000 0.0000
# 2 44.8750 116.3666 -9.7332 0.0000 0.0000 0.0000
# 3 -0.6893 -9.7332 70.5708 0.0000 0.0000 0.0000
# 4 0.0000 0.0000 0.0000 7.0113 0.0000 0.0000
# 5 0.0000 0.0000 0.0000 0.0000 23.6757 0.0000
# 6 0.0000 0.0000 0.0000 0.0000 0.0000 34.0263
#
#
#
# Elastic Compliance Matrix: (Units=1/GPa)
#
#
# Indices 1 2 3 4 5 6 
#
# 1 0.009435 -0.003673 -0.000414 0.000000 0.000000 0.000000
# 2 -0.003673 0.010124 0.001360 0.000000 0.000000 0.000000
# 3 -0.000414 0.001360 0.014354 0.000000 0.000000 0.000000
# 4 0.000000 0.000000 0.000000 0.142628 0.000000 0.000000
# 5 0.000000 0.000000 0.000000 0.000000 0.042237 0.000000
# 6 0.000000 0.000000 0.000000 0.000000 0.000000 0.029389
#
#
# Mechanical properties :
#
#
# Convention : Reuss Voigt Hill
#
# Bulk Modulus (GPa) = 35.13935 42.14153 38.64044
# Shear Modulus (GPa) = 19.00370 31.33706 25.17038
#
# Velocity S-wave (km/s) = 2.92258 3.75298 3.36350
# Velocity P-wave (km/s) = 5.21367 6.14172 5.69663
#
# Compressibility (1/GPa) = 0.02845813
#
# Stress axis : x y z
#
# Youngs Moduli (GPa) = 105.99131 98.77746 69.66821
#
# Poissons Ratio (x) = 0.36281 0.02887
# Poissons Ratio (y) = 0.38931 -0.09478
# Poissons Ratio (z) = 0.04393 -0.13438
#
# Static dielectric constant tensor:
#      x y z
#    x 4.298460 0.000000 0.000000 
#    y 0.000000 3.631890 0.000000 
#    z 0.000000 0.000000 4.576760 
# 
# 
# High freq. dielectric constant tensor:
#      x y z
#    x 1.886410 0.000000 0.000000 
#    y 0.000000 1.851330 0.000000 
#    z 0.000000 0.000000 1.864130 
# 
# From -- ./inp_files/23589.got.cif
#   From: 2010.03.12/outbox.cif.g09.slc.cpg/sg60_12_cif.got.tgz:23589.got - 2010.04.10 18:46:24.
