data_PCOD8247850
_publ_section_title
;
Structure prediction by ZEFSAII (Michael W. Deem and Ramdas Pophale) SiO2 
 PCOD8247850
Probable space group: P B C N
;
_chemical_formula_sum "Si O2"
_cell_formula_units_Z 56
_cell_length_a 16.010468
_cell_length_b 7.695379
_cell_length_c 19.141314
_cell_angle_alpha 90.000000
_cell_angle_beta 90.000000
_cell_angle_gamma 90.000000
_cell_volume 2358.336586
_symmetry_space_group_name_H-M "P B C N"
_symmetry_group_IT_number 60
_symmetry_cell_setting 'orthorhombic'
loop_
_space_group_symop_operation_xyz
x,y,z
1/2-x,1/2-y,1/2+z
1/2+x,1/2-y,-z
-x,y,1/2-z
-x,-y,-z
1/2+x,1/2+y,1/2-z
1/2-x,1/2+y,z
x,-y,1/2+z
loop_
_atom_site_type_symbol
_atom_site_label
_atom_site_fract_x
_atom_site_fract_y
_atom_site_fract_z
Si Si1 0.778792 0.234571 0.480313
Si Si2 0.656336 0.186634 0.275877
Si Si3 0.829386 0.682968 0.836482
Si Si4 0.055902 0.990216 0.168034
Si Si5 0.380007 0.605211 0.523749
Si Si6 0.383292 0.403015 0.869456
Si Si7 0.723560 0.737929 0.634827
O O1 0.829924 0.337147 0.420417
O O2 0.806548 0.036825 0.477298
O O3 0.678363 0.225492 0.464321
O O4 0.795909 0.316292 0.557535
O O5 0.735511 0.281026 0.311156
O O6 0.579134 0.320255 0.286799
O O7 0.672932 0.156889 0.193847
O O8 0.635038 0.997587 0.306808
O O9 0.885289 0.847371 0.813471
O O10 0.056336 0.928983 0.086519
O O11 0.959966 0.053898 0.183191
O O12 0.424164 0.610763 0.447599
O O13 0.308696 0.541797 0.862733
O O14 0.325646 0.234755 0.850842
#
# Coordination Sequence:
#
# PCOD8247850 Si02
#       7
#     8   8   8   8   8   8   8
#     4   9  17  34  61  92 125 174 220 261 329 400
#     4  12  22  40  68  97 133 179 222 273 342 397
#     4  11  21  39  67  99 131 175 223 272 332 399
#     4  11  23  39  69 100 136 169 227 282 327 397
#     4   9  17  33  63  96 128 169 219 272 329 387
#     4  10  22  43  66  93 131 180 217 276 340 394
#     4  10  23  42  65  89 133 174 219 270 342 407
#
# _framework density 23.745549
#
# number of rings (size 3 to 8) (size 9 to 14) (size 15 to 20)
#    0.000    1.714    2.857    2.143    0.000    0.571 
#    2.571    0.000    3.143    3.429    0.000    0.000 
#    0.000    0.000    0.000    0.000    0.000    0.000 
#
# Total GULP energy -693761.880167 kJ/mol
# GULP energy per Si atom -12388.605003 kJ/mol
# Density = 2.369150 g / cm^3
# Si number density = 23.745549 Si / 1000 Ang^3
#
#
#
# Elastic Constant Matrix: (Units=GPa)
#
#
# Indices 1 2 3 4 5 6 
#
# 1 90.8609 17.7015 22.8038 0.0000 0.0000 0.0000
# 2 17.7015 84.1270 34.0472 0.0000 0.0000 0.0000
# 3 22.8038 34.0472 89.1720 0.0000 0.0000 0.0000
# 4 0.0000 0.0000 0.0000 27.8046 0.0000 0.0000
# 5 0.0000 0.0000 0.0000 0.0000 31.5995 0.0000
# 6 0.0000 0.0000 0.0000 0.0000 0.0000 29.1589
#
#
#
# Elastic Compliance Matrix: (Units=1/GPa)
#
#
# Indices 1 2 3 4 5 6 
#
# 1 0.011920 -0.001507 -0.002473 0.000000 0.000000 0.000000
# 2 -0.001507 0.014250 -0.005055 0.000000 0.000000 0.000000
# 3 -0.002473 -0.005055 0.013777 0.000000 0.000000 0.000000
# 4 0.000000 0.000000 0.000000 0.035965 0.000000 0.000000
# 5 0.000000 0.000000 0.000000 0.000000 0.031646 0.000000
# 6 0.000000 0.000000 0.000000 0.000000 0.000000 0.034295
#
#
# Mechanical properties :
#
#
# Convention : Reuss Voigt Hill
#
# Bulk Modulus (GPa) = 45.71247 45.91830 45.81539
# Shear Modulus (GPa) = 29.90144 30.35310 30.12727
#
# Velocity S-wave (km/s) = 3.55243 3.57916 3.56582
# Velocity P-wave (km/s) = 6.00992 6.03822 6.02409
#
# Compressibility (1/GPa) = 0.02187587
#
# Stress axis : x y z
#
# Youngs Moduli (GPa) = 83.89184 70.17582 72.58564
#
# Poissons Ratio (x) = 0.10578 0.17949
# Poissons Ratio (y) = 0.12646 0.36694
# Poissons Ratio (z) = 0.20744 0.35476
#
# Static dielectric constant tensor:
#      x y z
#    x 3.916880 0.000000 0.000000 
#    y 0.000000 4.163050 0.000000 
#    z 0.000000 0.000000 4.791230 
# 
# 
# High freq. dielectric constant tensor:
#      x y z
#    x 1.904730 0.000000 0.000000 
#    y 0.000000 1.924990 0.000000 
#    z 0.000000 0.000000 1.969940 
# 
# From -- ./inp_files/22890.got.cif
#   From: 2010.03.12/outbox.cif.g09.slc.cpg/sg60_12_cif.got.tgz:22890.got - 2010.04.10 18:46:24.
