data_PCOD8247705
_publ_section_title
;
Structure prediction by ZEFSAII (Michael W. Deem and Ramdas Pophale) SiO2 
 PCOD8247705
Probable space group: P B C N
;
_chemical_formula_sum "Si O2"
_cell_formula_units_Z 56
_cell_length_a 13.518268
_cell_length_b 8.737119
_cell_length_c 21.243960
_cell_angle_alpha 90.000000
_cell_angle_beta 90.000000
_cell_angle_gamma 90.000000
_cell_volume 2509.139330
_symmetry_space_group_name_H-M "P B C N"
_symmetry_group_IT_number 60
_symmetry_cell_setting 'orthorhombic'
loop_
_space_group_symop_operation_xyz
x,y,z
1/2-x,1/2-y,1/2+z
1/2+x,1/2-y,-z
-x,y,1/2-z
-x,-y,-z
1/2+x,1/2+y,1/2-z
1/2-x,1/2+y,z
x,-y,1/2+z
loop_
_atom_site_type_symbol
_atom_site_label
_atom_site_fract_x
_atom_site_fract_y
_atom_site_fract_z
Si Si1 0.248618 0.630128 0.019434
Si Si2 0.096722 0.906480 0.071592
Si Si3 0.861671 0.395636 0.426696
Si Si4 0.595901 0.867585 0.832026
Si Si5 0.866859 0.620165 0.189230
Si Si6 0.454809 0.327252 0.935261
Si Si7 0.775160 0.334236 0.121739
O O1 0.321329 0.537680 0.066095
O O2 0.140648 0.549208 0.028797
O O3 0.262642 0.800157 0.049976
O O4 0.272312 0.618168 0.945624
O O5 0.117995 0.786472 0.127896
O O6 0.090939 0.816677 0.005145
O O7 0.994168 0.002945 0.082399
O O8 0.856419 0.472861 0.357661
O O9 0.959586 0.299270 0.434826
O O10 0.643142 0.852586 0.763538
O O11 0.479180 0.891733 0.831734
O O12 0.810652 0.471889 0.164719
O O13 0.816707 0.764980 0.157852
O O14 0.366824 0.283211 0.887529
#
# Coordination Sequence:
#
# PCOD8247705 Si02
#       7
#     8   8   8   8   8   8   8
#     4  11  24  39  67 111 138 173 228 285 361 413
#     4  10  23  40  69 102 143 170 228 288 349 425
#     4  11  22  41  68  99 142 177 222 291 346 417
#     4  11  25  48  66  98 137 190 238 281 343 410
#     4  11  28  44  70  94 140 188 241 281 331 414
#     4  10  22  39  69 107 136 178 215 289 368 403
#     4  12  24  45  69 103 139 183 232 287 342 426
#
# _framework density 22.318408999999999
#
# number of rings (size 3 to 8) (size 9 to 14) (size 15 to 20)
#    0.000    1.143    1.429    4.286   10.000    3.429 
#    0.000    1.429    0.000    0.000    0.000    0.000 
#    0.000    0.000    0.000    0.000    0.000    0.000 
#
# Total GULP energy -693842.211147 kJ/mol
# GULP energy per Si atom -12390.039485 kJ/mol
# Density = 2.226761 g / cm^3
# Si number density = 22.318409 Si / 1000 Ang^3
#
#
#
# Elastic Constant Matrix: (Units=GPa)
#
#
# Indices 1 2 3 4 5 6 
#
# 1 36.2650 20.8295 35.8993 0.0000 0.0000 0.0000
# 2 20.8295 102.5116 63.6232 0.0000 0.0000 0.0000
# 3 35.8993 63.6232 150.9513 0.0000 0.0000 0.0000
# 4 0.0000 0.0000 0.0000 26.9274 0.0000 0.0000
# 5 0.0000 0.0000 0.0000 0.0000 35.9572 0.0000
# 6 0.0000 0.0000 0.0000 0.0000 0.0000 50.5405
#
#
#
# Elastic Compliance Matrix: (Units=1/GPa)
#
#
# Indices 1 2 3 4 5 6 
#
# 1 0.036632 -0.002758 -0.007550 0.000000 0.000000 0.000000
# 2 -0.002758 0.013418 -0.005000 0.000000 0.000000 0.000000
# 3 -0.007550 -0.005000 0.010527 0.000000 0.000000 0.000000
# 4 0.000000 0.000000 0.000000 0.037137 0.000000 0.000000
# 5 0.000000 0.000000 0.000000 0.000000 0.027811 0.000000
# 6 0.000000 0.000000 0.000000 0.000000 0.000000 0.019786
#
#
# Mechanical properties :
#
#
# Convention : Reuss Voigt Hill
#
# Bulk Modulus (GPa) = 33.37356 58.93687 46.15521
# Shear Modulus (GPa) = 26.89418 33.97677 30.43547
#
# Velocity S-wave (km/s) = 3.47511 3.90598 3.69683
# Velocity P-wave (km/s) = 5.57563 6.84156 6.24078
#
# Compressibility (1/GPa) = 0.02996384
#
# Stress axis : x y z
#
# Youngs Moduli (GPa) = 27.29842 74.52439 94.99035
#
# Poissons Ratio (x) = 0.20552 0.71713
# Poissons Ratio (y) = 0.07528 0.47493
# Poissons Ratio (z) = 0.20609 0.37260
#
# Static dielectric constant tensor:
#      x y z
#    x 4.308750 0.000000 0.000000 
#    y 0.000000 4.503690 0.000000 
#    z 0.000000 0.000000 3.973320 
# 
# 
# High freq. dielectric constant tensor:
#      x y z
#    x 1.900920 0.000000 0.000000 
#    y 0.000000 1.909240 0.000000 
#    z 0.000000 0.000000 1.853310 
# 
# From -- ./inp_files/22899.got.cif
#   From: 2010.03.12/outbox.cif.g09.slc.cpg/sg60_12_cif.got.tgz:22899.got - 2010.04.10 18:46:24.
