data_PCOD8247945
_publ_section_title
;
Structure prediction by ZEFSAII (Michael W. Deem and Ramdas Pophale) SiO2 
 PCOD8247945
Probable space group: P B C N
;
_chemical_formula_sum "Si O2"
_cell_formula_units_Z 40
_cell_length_a 23.739723
_cell_length_b 13.186783
_cell_length_c 5.314353
_cell_angle_alpha 90.000000
_cell_angle_beta 90.000000
_cell_angle_gamma 90.000000
_cell_volume 1663.661266
_symmetry_space_group_name_H-M "P B C N"
_symmetry_group_IT_number 60
_symmetry_cell_setting 'orthorhombic'
loop_
_space_group_symop_operation_xyz
x,y,z
1/2-x,1/2-y,1/2+z
1/2+x,1/2-y,-z
-x,y,1/2-z
-x,-y,-z
1/2+x,1/2+y,1/2-z
1/2-x,1/2+y,z
x,-y,1/2+z
loop_
_atom_site_type_symbol
_atom_site_label
_atom_site_fract_x
_atom_site_fract_y
_atom_site_fract_z
Si Si1 0.117902 0.761857 0.116257
Si Si2 0.937133 0.045089 0.008316
Si Si3 0.566731 0.943097 0.743404
Si Si4 0.313376 0.440904 0.286826
Si Si5 0.773968 0.296470 0.131267
O O1 0.089312 0.671593 0.269889
O O2 0.153488 0.832755 0.307673
O O3 0.068225 0.832660 0.989131
O O4 0.158640 0.714324 0.901510
O O5 0.906612 0.997816 0.254468
O O6 0.000000 0.000000 0.000000
O O7 0.500000 0.938581 0.750000
O O8 0.588821 0.000536 0.494671
O O9 0.328365 0.520273 0.505322
O O10 0.246782 0.411681 0.307602
O O11 0.755277 0.225696 0.361194
#
# Coordination Sequence:
#
# PCOD8247945 Si02
#       5
#     8   8   8   8   8
#     4  11  24  43  74  99 139 185 232 283 355 421
#     4  10  23  41  62 102 141 175 223 273 350 425
#     4  10  25  47  67  97 132 178 238 292 339 399
#     4  11  23  41  65 101 144 175 219 284 345 419
#     4  10  23  41  62  94 132 181 230 272 332 402
#
# _framework density 24.043354000000001
#
# number of rings (size 3 to 8) (size 9 to 14) (size 15 to 20)
#    0.000    1.600    0.000    3.600    2.800   11.200 
#    7.200    0.000    0.000    0.000    0.000    0.000 
#    0.000    0.000    0.000    0.000    0.000    0.000 
#
# Total GULP energy -495725.724211 kJ/mol
# GULP energy per Si atom -12393.143105 kJ/mol
# Density = 2.398863 g / cm^3
# Si number density = 24.043354 Si / 1000 Ang^3
#
#
#
# Elastic Constant Matrix: (Units=GPa)
#
#
# Indices 1 2 3 4 5 6 
#
# 1 86.9710 48.4611 39.6754 0.0000 0.0000 0.0000
# 2 48.4611 164.9398 65.6304 0.0000 0.0000 0.0000
# 3 39.6754 65.6304 179.6210 0.0000 0.0000 0.0000
# 4 0.0000 0.0000 0.0000 27.3483 0.0000 0.0000
# 5 0.0000 0.0000 0.0000 0.0000 29.5459 0.0000
# 6 0.0000 0.0000 0.0000 0.0000 0.0000 62.8966
#
#
#
# Elastic Compliance Matrix: (Units=1/GPa)
#
#
# Indices 1 2 3 4 5 6 
#
# 1 0.014281 -0.003441 -0.001897 0.000000 0.000000 0.000000
# 2 -0.003441 0.007923 -0.002135 0.000000 0.000000 0.000000
# 3 -0.001897 -0.002135 0.006766 0.000000 0.000000 0.000000
# 4 0.000000 0.000000 0.000000 0.036565 0.000000 0.000000
# 5 0.000000 0.000000 0.000000 0.000000 0.033846 0.000000
# 6 0.000000 0.000000 0.000000 0.000000 0.000000 0.015899
#
#
# Mechanical properties :
#
#
# Convention : Reuss Voigt Hill
#
# Bulk Modulus (GPa) = 71.30431 82.11839 76.71135
# Shear Modulus (GPa) = 37.06400 42.47583 39.76992
#
# Velocity S-wave (km/s) = 3.93052 4.20770 4.07147
# Velocity P-wave (km/s) = 7.09363 7.60491 7.35372
#
# Compressibility (1/GPa) = 0.01402440
#
# Stress axis : x y z
#
# Youngs Moduli (GPa) = 70.02359 126.20933 147.78879
#
# Poissons Ratio (x) = 0.43429 0.28038
# Poissons Ratio (y) = 0.24095 0.31553
# Poissons Ratio (z) = 0.13284 0.26946
#
# Static dielectric constant tensor:
#      x y z
#    x 4.722570 0.000000 0.000000 
#    y 0.000000 4.328620 0.000000 
#    z 0.000000 0.000000 5.370610 
# 
# 
# High freq. dielectric constant tensor:
#      x y z
#    x 1.971620 0.000000 0.000000 
#    y 0.000000 1.941600 0.000000 
#    z 0.000000 0.000000 1.965150 
# 
# From -- ./inp_files/2676.got.cif
#   From: 2010.03.12/outbox.cif.g09.slc.cpg/sg60_2_cif.got.tgz:2676.got - 2010.04.10 18:46:24.
