data_PCOD8247911
_publ_section_title
;
Structure prediction by ZEFSAII (Michael W. Deem and Ramdas Pophale) SiO2 
 PCOD8247911
Probable space group: P B C N
;
_chemical_formula_sum "Si O2"
_cell_formula_units_Z 52
_cell_length_a 23.120459
_cell_length_b 10.453669
_cell_length_c 9.602092
_cell_angle_alpha 90.000000
_cell_angle_beta 90.000000
_cell_angle_gamma 90.000000
_cell_volume 2320.764428
_symmetry_space_group_name_H-M "P B C N"
_symmetry_group_IT_number 60
_symmetry_cell_setting 'orthorhombic'
loop_
_space_group_symop_operation_xyz
x,y,z
1/2-x,1/2-y,1/2+z
1/2+x,1/2-y,-z
-x,y,1/2-z
-x,-y,-z
1/2+x,1/2+y,1/2-z
1/2-x,1/2+y,z
x,-y,1/2+z
loop_
_atom_site_type_symbol
_atom_site_label
_atom_site_fract_x
_atom_site_fract_y
_atom_site_fract_z
Si Si1 0.912354 0.343754 0.388499
Si Si2 0.127625 0.485177 0.852116
Si Si3 0.186407 0.733922 0.936061
Si Si4 0.726068 0.183182 0.285994
Si Si5 0.661084 0.390218 0.913643
Si Si6 0.109020 0.961842 0.844674
Si Si7 0.500000 0.657789 0.250000
O O1 0.915190 0.409961 0.541292
O O2 0.911472 0.450210 0.267420
O O3 0.853567 0.259424 0.384238
O O4 0.965519 0.246751 0.360367
O O5 0.162450 0.590221 0.940599
O O6 0.174267 0.395195 0.780184
O O7 0.243179 0.739997 0.838096
O O8 0.137318 0.826948 0.882767
O O9 0.201280 0.777072 0.094255
O O10 0.771033 0.093644 0.376820
O O11 0.625731 0.488658 0.815563
O O12 0.637435 0.423596 0.067549
O O13 0.040063 0.936010 0.845837
#
# Coordination Sequence:
#
# PCOD8247911 Si02
#       7
#     8   8   8   8   8   8   4
#     4  11  24  45  66  96 131 170 231 276 337 393
#     4  12  23  42  62  98 134 175 215 278 322 420
#     4  11  24  41  60  98 130 176 220 263 327 411
#     4  11  24  36  67  91 141 176 211 261 339 398
#     4  10  23  41  63 101 130 172 219 269 327 417
#     4  10  23  41  66  93 132 166 223 276 332 391
#     4  10  22  48  72  92 130 178 216 300 346 374
#
# _framework density 22.406409
#
# number of rings (size 3 to 8) (size 9 to 14) (size 15 to 20)
#    0.000    1.231    6.154    0.923    6.462    4.308 
#    0.000    0.000    0.000    8.308    0.000    0.000 
#    0.000    0.000    0.000    0.000    0.000    0.000 
#
# Total GULP energy -644352.130159 kJ/mol
# GULP energy per Si atom -12391.387118 kJ/mol
# Density = 2.235541 g / cm^3
# Si number density = 22.406409 Si / 1000 Ang^3
#
#
#
# Elastic Constant Matrix: (Units=GPa)
#
#
# Indices 1 2 3 4 5 6 
#
# 1 52.2213 -9.8425 -4.3924 0.0000 0.0000 0.0000
# 2 -9.8425 32.6125 15.8325 0.0000 0.0000 0.0000
# 3 -4.3924 15.8325 87.9519 0.0000 0.0000 0.0000
# 4 0.0000 0.0000 0.0000 36.0672 0.0000 0.0000
# 5 0.0000 0.0000 0.0000 0.0000 26.9818 0.0000
# 6 0.0000 0.0000 0.0000 0.0000 0.0000 26.7434
#
#
#
# Elastic Compliance Matrix: (Units=1/GPa)
#
#
# Indices 1 2 3 4 5 6 
#
# 1 0.020305 0.006175 -0.000098 0.000000 0.000000 0.000000
# 2 0.006175 0.035478 -0.006078 0.000000 0.000000 0.000000
# 3 -0.000098 -0.006078 0.012459 0.000000 0.000000 0.000000
# 4 0.000000 0.000000 0.000000 0.027726 0.000000 0.000000
# 5 0.000000 0.000000 0.000000 0.000000 0.037062 0.000000
# 6 0.000000 0.000000 0.000000 0.000000 0.000000 0.037392
#
#
# Mechanical properties :
#
#
# Convention : Reuss Voigt Hill
#
# Bulk Modulus (GPa) = 14.65389 19.55344 17.10367
# Shear Modulus (GPa) = 25.88400 29.37102 27.62751
#
# Velocity S-wave (km/s) = 3.40252 3.62447 3.51525
# Velocity P-wave (km/s) = 4.68939 5.12458 4.91181
#
# Compressibility (1/GPa) = 0.06824124
#
# Stress axis : x y z
#
# Youngs Moduli (GPa) = 49.24896 28.18686 80.26262
#
# Poissons Ratio (x) = -0.17407 0.00783
# Poissons Ratio (y) = -0.30413 0.48784
# Poissons Ratio (z) = 0.00481 0.17132
#
# Static dielectric constant tensor:
#      x y z
#    x 3.927180 0.000000 0.000000 
#    y 0.000000 3.767850 0.000000 
#    z 0.000000 0.000000 4.764360 
# 
# 
# High freq. dielectric constant tensor:
#      x y z
#    x 1.867800 0.000000 0.000000 
#    y 0.000000 1.861680 0.000000 
#    z 0.000000 0.000000 1.901480 
# 
# From -- ./inp_files/8128.got.cif
#   From: 2010.03.12/outbox.cif.g09.slc.cpg/sg60_5_cif.got.tgz:8128.got - 2010.04.10 18:46:24.
