data_PCOD8247675
_publ_section_title
;
Structure prediction by ZEFSAII (Michael W. Deem and Ramdas Pophale) SiO2 
 PCOD8247675
Probable space group: P B C N
;
_chemical_formula_sum "Si O2"
_cell_formula_units_Z 40
_cell_length_a 8.888620
_cell_length_b 19.679221
_cell_length_c 9.774457
_cell_angle_alpha 90.000000
_cell_angle_beta 90.000000
_cell_angle_gamma 90.000000
_cell_volume 1709.758940
_symmetry_space_group_name_H-M "P B C N"
_symmetry_group_IT_number 60
_symmetry_cell_setting 'orthorhombic'
loop_
_space_group_symop_operation_xyz
x,y,z
1/2-x,1/2-y,1/2+z
1/2+x,1/2-y,-z
-x,y,1/2-z
-x,-y,-z
1/2+x,1/2+y,1/2-z
1/2-x,1/2+y,z
x,-y,1/2+z
loop_
_atom_site_type_symbol
_atom_site_label
_atom_site_fract_x
_atom_site_fract_y
_atom_site_fract_z
Si Si1 0.311849 0.290738 0.129113
Si Si2 0.751112 0.103003 0.069172
Si Si3 0.500000 0.430001 0.750000
Si Si4 0.500000 0.082424 0.250000
Si Si5 0.160150 0.814993 0.434884
Si Si6 0.252197 0.460269 0.553241
O O1 0.484511 0.298740 0.083117
O O2 0.272398 0.290831 0.289240
O O3 0.232590 0.358897 0.072790
O O4 0.236883 0.225765 0.058436
O O5 0.616620 0.129578 0.167439
O O6 0.907467 0.119360 0.147551
O O7 0.740529 0.021602 0.053477
O O8 0.385714 0.476356 0.661979
O O9 0.404762 0.040510 0.136893
O O10 0.202880 0.893173 0.466787
#
# Coordination Sequence:
#
# PCOD8247675 Si02
#       6
#     8   8   4   4   8   8
#     4  11  28  47  71 102 140 183 232 286 348 413
#     4  11  24  44  71 103 138 184 234 289 344 411
#     4  10  22  38  76 100 136 172 236 290 350 396
#     4  10  26  42  68 100 148 180 228 286 358 400
#     4  11  28  47  71 102 140 183 232 286 348 413
#     4  11  24  44  71 103 138 184 234 289 344 411
#
# _framework density 23.395112000000001
#
# number of rings (size 3 to 8) (size 9 to 14) (size 15 to 20)
#    0.000    1.200    2.000    1.200   14.000    0.800 
#    0.000    0.000    0.000    0.000    0.000    0.000 
#    0.000    0.000    0.000    0.000    0.000    0.000 
#
# Total GULP energy -495664.158591 kJ/mol
# GULP energy per Si atom -12391.603965 kJ/mol
# Density = 2.334186 g / cm^3
# Si number density = 23.395112 Si / 1000 Ang^3
#
#
#
# Elastic Constant Matrix: (Units=GPa)
#
#
# Indices 1 2 3 4 5 6 
#
# 1 83.7382 1.2793 18.7501 0.0000 0.0000 0.0000
# 2 1.2793 107.5922 32.4456 0.0000 0.0000 0.0000
# 3 18.7501 32.4456 137.4549 0.0000 0.0000 0.0000
# 4 0.0000 0.0000 0.0000 20.6535 0.0000 0.0000
# 5 0.0000 0.0000 0.0000 0.0000 36.4028 0.0000
# 6 0.0000 0.0000 0.0000 0.0000 0.0000 14.9434
#
#
#
# Elastic Compliance Matrix: (Units=1/GPa)
#
#
# Indices 1 2 3 4 5 6 
#
# 1 0.012333 0.000388 -0.001774 0.000000 0.000000 0.000000
# 2 0.000388 0.010019 -0.002418 0.000000 0.000000 0.000000
# 3 -0.001774 -0.002418 0.008088 0.000000 0.000000 0.000000
# 4 0.000000 0.000000 0.000000 0.048418 0.000000 0.000000
# 5 0.000000 0.000000 0.000000 0.000000 0.027470 0.000000
# 6 0.000000 0.000000 0.000000 0.000000 0.000000 0.066919
#
#
# Mechanical properties :
#
#
# Convention : Reuss Voigt Hill
#
# Bulk Modulus (GPa) = 43.79661 48.19282 45.99471
# Shear Modulus (GPa) = 26.53000 32.82061 29.67530
#
# Velocity S-wave (km/s) = 3.37114 3.74957 3.56538
# Velocity P-wave (km/s) = 5.82356 6.27614 6.05408
#
# Compressibility (1/GPa) = 0.02283282
#
# Stress axis : x y z
#
# Youngs Moduli (GPa) = 81.08144 99.81162 123.64247
#
# Poissons Ratio (x) = -0.03876 0.21935
# Poissons Ratio (y) = -0.03149 0.29895
# Poissons Ratio (z) = 0.14384 0.24133
#
# Static dielectric constant tensor:
#      x y z
#    x 4.511800 0.000000 0.000000 
#    y 0.000000 3.776240 0.000000 
#    z 0.000000 0.000000 4.515100 
# 
# 
# High freq. dielectric constant tensor:
#      x y z
#    x 1.939330 0.000000 0.000000 
#    y 0.000000 1.896910 0.000000 
#    z 0.000000 0.000000 1.948910 
# 
# From -- ./inp_files/3910.got.cif
#   From: 2010.03.12/outbox.cif.g09.slc.cpg/sg60_2_cif.got.tgz:3910.got - 2010.04.10 18:46:24.
