data_PCOD8247330
_publ_section_title
;
Structure prediction by ZEFSAII (Michael W. Deem and Ramdas Pophale) SiO2 
 PCOD8247330
Probable space group: P B C N
;
_chemical_formula_sum "Si O2"
_cell_formula_units_Z 60
_cell_length_a 26.403188
_cell_length_b 9.172726
_cell_length_c 12.336253
_cell_angle_alpha 90.000000
_cell_angle_beta 90.000000
_cell_angle_gamma 90.000000
_cell_volume 2987.707357
_symmetry_space_group_name_H-M "P B C N"
_symmetry_group_IT_number 60
_symmetry_cell_setting 'orthorhombic'
loop_
_space_group_symop_operation_xyz
x,y,z
1/2-x,1/2-y,1/2+z
1/2+x,1/2-y,-z
-x,y,1/2-z
-x,-y,-z
1/2+x,1/2+y,1/2-z
1/2-x,1/2+y,z
x,-y,1/2+z
loop_
_atom_site_type_symbol
_atom_site_label
_atom_site_fract_x
_atom_site_fract_y
_atom_site_fract_z
Si Si1 0.965315 0.242057 0.876165
Si Si2 0.435721 0.420474 0.327441
Si Si3 0.000000 0.511099 0.750000
Si Si4 0.322516 0.555647 0.887480
Si Si5 0.753905 0.855253 0.308434
Si Si6 0.235973 0.389578 0.538278
Si Si7 0.174631 0.726491 0.858764
Si Si8 0.438310 0.247488 0.877533
O O1 0.934653 0.129555 0.798643
O O2 0.964537 0.403715 0.821995
O O3 0.022831 0.179801 0.889208
O O4 0.938851 0.248189 0.992060
O O5 0.380982 0.393108 0.382718
O O6 0.451548 0.591244 0.332361
O O7 0.973635 0.619081 0.665084
O O8 0.296084 0.584650 0.772517
O O9 0.318706 0.384686 0.912628
O O10 0.292381 0.633596 0.985821
O O11 0.781145 0.740019 0.384485
O O12 0.706145 0.779420 0.251483
O O13 0.730089 0.971342 0.388382
O O14 0.195889 0.397424 0.439884
O O15 0.116310 0.698202 0.834151
#
# Coordination Sequence:
#
# PCOD8247330 Si02
#       8
#     8   8   4   8   8   8   8   8
#     4  10  22  42  63  90 123 161 198 253 324 349
#     4   9  21  39  62  92 115 157 211 250 295 368
#     4  10  22  42  60  90 126 154 196 256 306 370
#     4  10  21  38  60  88 121 152 206 247 290 363
#     4  11  22  40  60  84 123 157 194 246 299 348
#     4  11  22  39  61  85 121 162 195 245 304 351
#     4  10  23  39  58  93 115 157 206 242 293 366
#     4  11  22  41  65  87 123 160 205 252 304 368
#
# _framework density 20.082287999999998
#
# number of rings (size 3 to 8) (size 9 to 14) (size 15 to 20)
#    0.000    1.867    2.667    1.600    1.867    1.067 
#    9.600    0.000    0.000    0.000    0.000    0.000 
#    0.000    0.000    0.000    0.000    0.000    0.000 
#
# Total GULP energy -743684.699035 kJ/mol
# GULP energy per Si atom -12394.744984 kJ/mol
# Density = 2.003658 g / cm^3
# Si number density = 20.082288 Si / 1000 Ang^3
#
#
#
# Elastic Constant Matrix: (Units=GPa)
#
#
# Indices 1 2 3 4 5 6 
#
# 1 68.6100 1.4151 4.9956 0.0000 0.0000 0.0000
# 2 1.4151 91.2561 18.9097 0.0000 0.0000 0.0000
# 3 4.9956 18.9097 76.9660 0.0000 0.0000 0.0000
# 4 0.0000 0.0000 0.0000 40.4954 0.0000 0.0000
# 5 0.0000 0.0000 0.0000 0.0000 17.4385 0.0000
# 6 0.0000 0.0000 0.0000 0.0000 0.0000 24.4842
#
#
#
# Elastic Compliance Matrix: (Units=1/GPa)
#
#
# Indices 1 2 3 4 5 6 
#
# 1 0.014644 -0.000032 -0.000943 0.000000 0.000000 0.000000
# 2 -0.000032 0.011546 -0.002835 0.000000 0.000000 0.000000
# 3 -0.000943 -0.002835 0.013750 0.000000 0.000000 0.000000
# 4 0.000000 0.000000 0.000000 0.024694 0.000000 0.000000
# 5 0.000000 0.000000 0.000000 0.000000 0.057345 0.000000
# 6 0.000000 0.000000 0.000000 0.000000 0.000000 0.040843
#
#
# Mechanical properties :
#
#
# Convention : Reuss Voigt Hill
#
# Bulk Modulus (GPa) = 30.93811 31.94143 31.43977
# Shear Modulus (GPa) = 27.59158 30.58439 29.08798
#
# Velocity S-wave (km/s) = 3.71067 3.90674 3.80997
# Velocity P-wave (km/s) = 5.81360 6.02411 5.91979
#
# Compressibility (1/GPa) = 0.03232260
#
# Stress axis : x y z
#
# Youngs Moduli (GPa) = 68.28532 86.60973 72.72528
#
# Poissons Ratio (x) = 0.00275 0.06856
# Poissons Ratio (y) = 0.00217 0.20615
# Poissons Ratio (z) = 0.06437 0.24551
#
# Static dielectric constant tensor:
#      x y z
#    x 3.530980 0.000000 0.000000 
#    y 0.000000 3.595690 0.000000 
#    z 0.000000 0.000000 3.621990 
# 
# 
# High freq. dielectric constant tensor:
#      x y z
#    x 1.770930 0.000000 0.000000 
#    y 0.000000 1.787690 0.000000 
#    z 0.000000 0.000000 1.790180 
# 
# From -- ./inp_files/13298.got.cif
#   From: 2010.03.12/outbox.cif.g09.slc.cpg/sg60_7_cif.got.tgz:13298.got - 2010.04.10 18:46:24.
