data_PCOD8247420
_publ_section_title
;
Structure prediction by ZEFSAII (Michael W. Deem and Ramdas Pophale) SiO2 
 PCOD8247420
Probable space group: P B C N
;
_chemical_formula_sum "Si O2"
_cell_formula_units_Z 32
_cell_length_a 12.480462
_cell_length_b 20.446531
_cell_length_c 5.030926
_cell_angle_alpha 90.000000
_cell_angle_beta 90.000000
_cell_angle_gamma 90.000000
_cell_volume 1283.802529
_symmetry_space_group_name_H-M "P B C N"
_symmetry_group_IT_number 60
_symmetry_cell_setting 'orthorhombic'
loop_
_space_group_symop_operation_xyz
x,y,z
1/2-x,1/2-y,1/2+z
1/2+x,1/2-y,-z
-x,y,1/2-z
-x,-y,-z
1/2+x,1/2+y,1/2-z
1/2-x,1/2+y,z
x,-y,1/2+z
loop_
_atom_site_type_symbol
_atom_site_label
_atom_site_fract_x
_atom_site_fract_y
_atom_site_fract_z
Si Si1 0.927452 0.119218 0.990030
Si Si2 0.717135 0.041365 0.019231
Si Si3 0.876075 0.260117 0.810480
Si Si4 0.123140 0.328561 0.188471
O O1 0.840595 0.062901 0.025972
O O2 0.865015 0.185107 0.902887
O O3 0.000000 0.094147 0.750000
O O4 0.000000 0.131532 0.250000
O O5 0.639417 0.098826 0.921482
O O6 0.693074 0.981433 0.818725
O O7 0.675950 0.223123 0.022588
O O8 0.000000 0.277750 0.750000
O O9 0.822620 0.309789 0.028812
O O10 0.000000 0.314684 0.250000
#
# Coordination Sequence:
#
# PCOD8247420 Si02
#       4
#     8   8   8   8
#     4  11  23  41  65  91 123 160 203 263 318 366
#     4  12  27  42  59  89 125 170 221 249 292 375
#     4   9  18  36  63  94 120 150 198 253 322 382
#     4  10  21  39  64  92 125 158 196 258 316 367
#
# _framework density 24.925951999999999
#
# number of rings (size 3 to 8) (size 9 to 14) (size 15 to 20)
#    0.000    1.500    0.000    6.750    0.000    6.000 
#    0.000    0.000    0.000    0.000    0.000    0.000 
#    0.000    0.000    0.000    0.000    0.000    0.000 
#
# Total GULP energy -396607.146875 kJ/mol
# GULP energy per Si atom -12393.973340 kJ/mol
# Density = 2.486922 g / cm^3
# Si number density = 24.925952 Si / 1000 Ang^3
#
#
#
# Elastic Constant Matrix: (Units=GPa)
#
#
# Indices 1 2 3 4 5 6 
#
# 1 32.9776 7.1580 14.9204 0.0000 0.0000 0.0000
# 2 7.1580 90.7113 30.2102 0.0000 0.0000 0.0000
# 3 14.9204 30.2102 144.8373 0.0000 0.0000 0.0000
# 4 0.0000 0.0000 0.0000 88.9604 0.0000 0.0000
# 5 0.0000 0.0000 0.0000 0.0000 8.3698 0.0000
# 6 0.0000 0.0000 0.0000 0.0000 0.0000 40.5783
#
#
#
# Elastic Compliance Matrix: (Units=1/GPa)
#
#
# Indices 1 2 3 4 5 6 
#
# 1 0.032003 -0.001534 -0.002977 0.000000 0.000000 0.000000
# 2 -0.001534 0.011920 -0.002328 0.000000 0.000000 0.000000
# 3 -0.002977 -0.002328 0.007697 0.000000 0.000000 0.000000
# 4 0.000000 0.000000 0.000000 0.011241 0.000000 0.000000
# 5 0.000000 0.000000 0.000000 0.000000 0.119477 0.000000
# 6 0.000000 0.000000 0.000000 0.000000 0.000000 0.024644
#
#
# Mechanical properties :
#
#
# Convention : Reuss Voigt Hill
#
# Bulk Modulus (GPa) = 26.35594 41.45592 33.90593
# Shear Modulus (GPa) = 21.43095 41.99756 31.71425
#
# Velocity S-wave (km/s) = 2.93539 4.10920 3.57086
# Velocity P-wave (km/s) = 4.69950 6.25953 5.53476
#
# Compressibility (1/GPa) = 0.03794211
#
# Stress axis : x y z
#
# Youngs Moduli (GPa) = 31.24667 83.88940 129.92736
#
# Poissons Ratio (x) = 0.12868 0.38678
# Poissons Ratio (y) = 0.04793 0.30252
# Poissons Ratio (z) = 0.09302 0.19532
#
# Static dielectric constant tensor:
#      x y z
#    x 4.405610 0.000000 0.000000 
#    y 0.000000 4.106600 0.000000 
#    z 0.000000 0.000000 5.425290 
# 
# 
# High freq. dielectric constant tensor:
#      x y z
#    x 1.997380 0.000000 0.000000 
#    y 0.000000 1.978540 0.000000 
#    z 0.000000 0.000000 2.021420 
# 
# From -- ./inp_files/654.got.cif
#   From: 2010.03.12/outbox.cif.g09.slc.cpg/sg60_1_cif.got.tgz:654.got - 2010.04.10 18:46:24.
