data_PCOD8247020
_publ_section_title
;
Structure prediction by ZEFSAII (Michael W. Deem and Ramdas Pophale) SiO2 
 PCOD8247020
Probable space group: P B C N
;
_chemical_formula_sum "Si O2"
_cell_formula_units_Z 40
_cell_length_a 9.604051
_cell_length_b 13.890695
_cell_length_c 13.965757
_cell_angle_alpha 90.000000
_cell_angle_beta 90.000000
_cell_angle_gamma 90.000000
_cell_volume 1863.128951
_symmetry_space_group_name_H-M "P B C N"
_symmetry_group_IT_number 60
_symmetry_cell_setting 'orthorhombic'
loop_
_space_group_symop_operation_xyz
x,y,z
1/2-x,1/2-y,1/2+z
1/2+x,1/2-y,-z
-x,y,1/2-z
-x,-y,-z
1/2+x,1/2+y,1/2-z
1/2-x,1/2+y,z
x,-y,1/2+z
loop_
_atom_site_type_symbol
_atom_site_label
_atom_site_fract_x
_atom_site_fract_y
_atom_site_fract_z
Si Si1 0.037400 0.511009 0.390393
Si Si2 0.757516 0.647201 0.577951
Si Si3 0.747818 0.920822 0.871701
Si Si4 0.522200 0.480678 0.140487
Si Si5 0.268874 0.645214 0.334450
O O1 0.136612 0.421702 0.362512
O O2 0.117200 0.609973 0.367553
O O3 0.000000 0.500000 0.500000
O O4 0.887730 0.516852 0.336791
O O5 0.787905 0.645756 0.463555
O O6 0.597946 0.611643 0.593498
O O7 0.788285 0.750411 0.621356
O O8 0.788935 0.853956 0.781412
O O9 0.869729 0.995880 0.903154
O O10 0.500000 0.454301 0.250000
O O11 0.614063 0.575682 0.122077
#
# Coordination Sequence:
#
# PCOD8247020 Si02
#       5
#     8   8   8   8   8
#     4   9  20  39  60  85 118 154 195 243 296 350
#     4  10  21  39  62  87 116 158 200 237 296 360
#     4  10  20  38  61  85 119 156 192 248 297 341
#     4   9  20  39  58  83 118 151 192 246 298 349
#     4  10  21  39  58  86 123 153 197 248 291 356
#
# _framework density 21.469259000000001
#
# number of rings (size 3 to 8) (size 9 to 14) (size 15 to 20)
#    0.000    2.400    0.000    1.200    0.000    4.800 
#    0.000   40.000    0.000    0.000    0.000    0.000 
#    0.000    0.000    0.000    0.000    0.000    0.000 
#
# Total GULP energy -495749.991752 kJ/mol
# GULP energy per Si atom -12393.749794 kJ/mol
# Density = 2.142039 g / cm^3
# Si number density = 21.469259 Si / 1000 Ang^3
#
#
#
# Elastic Constant Matrix: (Units=GPa)
#
#
# Indices 1 2 3 4 5 6 
#
# 1 132.8591 19.9171 -5.8663 0.0000 0.0000 0.0000
# 2 19.9171 88.4693 16.0105 0.0000 0.0000 0.0000
# 3 -5.8663 16.0105 69.2994 0.0000 0.0000 0.0000
# 4 0.0000 0.0000 0.0000 27.5786 0.0000 0.0000
# 5 0.0000 0.0000 0.0000 0.0000 29.3170 0.0000
# 6 0.0000 0.0000 0.0000 0.0000 0.0000 14.6832
#
#
#
# Elastic Compliance Matrix: (Units=1/GPa)
#
#
# Indices 1 2 3 4 5 6 
#
# 1 0.007873 -0.001976 0.001123 0.000000 0.000000 0.000000
# 2 -0.001976 0.012292 -0.003007 0.000000 0.000000 0.000000
# 3 0.001123 -0.003007 0.015220 0.000000 0.000000 0.000000
# 4 0.000000 0.000000 0.000000 0.036260 0.000000 0.000000
# 5 0.000000 0.000000 0.000000 0.000000 0.034110 0.000000
# 6 0.000000 0.000000 0.000000 0.000000 0.000000 0.068105
#
#
# Mechanical properties :
#
#
# Convention : Reuss Voigt Hill
#
# Bulk Modulus (GPa) = 36.14673 38.97227 37.55950
# Shear Modulus (GPa) = 26.20529 31.68686 28.94608
#
# Velocity S-wave (km/s) = 3.49749 3.84594 3.67585
# Velocity P-wave (km/s) = 5.76047 6.15740 5.96224
#
# Compressibility (1/GPa) = 0.02766502
#
# Stress axis : x y z
#
# Youngs Moduli (GPa) = 127.02433 81.35156 65.70327
#
# Poissons Ratio (x) = 0.16071 -0.07377
# Poissons Ratio (y) = 0.25094 0.19758
# Poissons Ratio (z) = -0.14263 0.24464
#
# Static dielectric constant tensor:
#      x y z
#    x 4.670870 0.000000 0.000000 
#    y 0.000000 3.683000 0.000000 
#    z 0.000000 0.000000 3.991160 
# 
# 
# High freq. dielectric constant tensor:
#      x y z
#    x 1.863430 0.000000 0.000000 
#    y 0.000000 1.799010 0.000000 
#    z 0.000000 0.000000 1.851200 
# 
# From -- ./inp_files/14642.got.cif
#   From: 2010.03.12/outbox.cif.g09.slc.cpg/sg60_8_cif.got.tgz:14642.got - 2010.04.10 18:46:24.
