data_PCOD8247738
_publ_section_title
;
Structure prediction by ZEFSAII (Michael W. Deem and Ramdas Pophale) SiO2 
 PCOD8247738
Probable space group: P B C N
;
_chemical_formula_sum "Si O2"
_cell_formula_units_Z 56
_cell_length_a 14.434785
_cell_length_b 16.668825
_cell_length_c 10.560051
_cell_angle_alpha 90.000000
_cell_angle_beta 90.000000
_cell_angle_gamma 90.000000
_cell_volume 2540.863429
_symmetry_space_group_name_H-M "P B C N"
_symmetry_group_IT_number 60
_symmetry_cell_setting 'orthorhombic'
loop_
_space_group_symop_operation_xyz
x,y,z
1/2-x,1/2-y,1/2+z
1/2+x,1/2-y,-z
-x,y,1/2-z
-x,-y,-z
1/2+x,1/2+y,1/2-z
1/2-x,1/2+y,z
x,-y,1/2+z
loop_
_atom_site_type_symbol
_atom_site_label
_atom_site_fract_x
_atom_site_fract_y
_atom_site_fract_z
Si Si1 0.085736 0.906428 0.341687
Si Si2 0.921262 0.079673 0.145154
Si Si3 0.001216 0.221224 0.995395
Si Si4 0.327352 0.185614 0.078409
Si Si5 0.711136 0.908183 0.676618
Si Si6 0.665574 0.186158 0.919727
Si Si7 0.208179 0.409476 0.318278
O O1 0.081481 0.823584 0.416826
O O2 0.184628 0.905708 0.273636
O O3 0.000000 0.907265 0.250000
O O4 0.079933 0.990821 0.421099
O O5 0.820771 0.096861 0.203312
O O6 0.000000 0.083879 0.250000
O O7 0.938274 0.149744 0.047406
O O8 0.063490 0.273581 0.089686
O O9 0.929432 0.275504 0.919080
O O10 0.334216 0.125059 0.195600
O O11 0.247617 0.250692 0.103718
O O12 0.309626 0.140878 0.945701
O O13 0.680218 0.858401 0.553336
O O14 0.676864 0.999335 0.656614
O O15 0.655549 0.125415 0.802641
#
# Coordination Sequence:
#
# PCOD8247738 Si02
#       7
#     8   8   8   8   8   8   8
#     4  10  22  40  67 100 135 173 219 282 353 416
#     4  10  22  40  67 100 135 173 219 282 353 416
#     4  12  25  40  69 100 140 172 230 282 347 398
#     4  12  25  44  70 102 139 176 228 281 342 402
#     4  11  25  47  69  97 138 185 226 277 340 407
#     4  12  25  44  70 102 139 176 228 281 342 402
#     4  11  25  47  69  97 138 185 226 277 340 407
#
# _framework density 22.039750999999999
#
# number of rings (size 3 to 8) (size 9 to 14) (size 15 to 20)
#    0.000    0.857    2.857    3.857    4.000    0.000 
#    0.000    4.286    0.000    0.000    0.000    0.000 
#    0.000    0.000    0.000    0.000    0.000    0.000 
#
# Total GULP energy -694036.358494 kJ/mol
# GULP energy per Si atom -12393.506402 kJ/mol
# Density = 2.198959 g / cm^3
# Si number density = 22.039751 Si / 1000 Ang^3
#
#
#
# Elastic Constant Matrix: (Units=GPa)
#
#
# Indices 1 2 3 4 5 6 
#
# 1 67.7702 38.7571 6.8165 0.0000 0.0000 0.0000
# 2 38.7571 131.7544 39.3832 0.0000 0.0000 0.0000
# 3 6.8165 39.3832 93.4563 0.0000 0.0000 0.0000
# 4 0.0000 0.0000 0.0000 19.6312 0.0000 0.0000
# 5 0.0000 0.0000 0.0000 0.0000 26.5665 0.0000
# 6 0.0000 0.0000 0.0000 0.0000 0.0000 33.6043
#
#
#
# Elastic Compliance Matrix: (Units=1/GPa)
#
#
# Indices 1 2 3 4 5 6 
#
# 1 0.017828 -0.005555 0.001041 0.000000 0.000000 0.000000
# 2 -0.005555 0.010415 -0.003984 0.000000 0.000000 0.000000
# 3 0.001041 -0.003984 0.012303 0.000000 0.000000 0.000000
# 4 0.000000 0.000000 0.000000 0.050939 0.000000 0.000000
# 5 0.000000 0.000000 0.000000 0.000000 0.037641 0.000000
# 6 0.000000 0.000000 0.000000 0.000000 0.000000 0.029758
#
#
# Mechanical properties :
#
#
# Convention : Reuss Voigt Hill
#
# Bulk Modulus (GPa) = 42.46415 51.43271 46.94843
# Shear Modulus (GPa) = 27.21364 29.82868 28.52116
#
# Velocity S-wave (km/s) = 3.51772 3.68285 3.60123
# Velocity P-wave (km/s) = 5.98398 6.43984 6.21609
#
# Compressibility (1/GPa) = 0.02354928
#
# Stress axis : x y z
#
# Youngs Moduli (GPa) = 56.09101 96.01665 81.28078
#
# Poissons Ratio (x) = 0.53342 -0.08459
# Poissons Ratio (y) = 0.31161 0.32380
# Poissons Ratio (z) = -0.05838 0.38250
#
# Static dielectric constant tensor:
#      x y z
#    x 3.982130 0.000000 0.000000 
#    y 0.000000 4.728920 0.000000 
#    z 0.000000 0.000000 2.529870 
# 
# 
# High freq. dielectric constant tensor:
#      x y z
#    x 1.868280 0.000000 0.000000 
#    y 0.000000 1.892200 0.000000 
#    z 0.000000 0.000000 1.851280 
# 
# From -- ./inp_files/11972.got.cif
#   From: 2010.03.12/outbox.cif.g09.slc.cpg/sg60_6_cif.got.tgz:11972.got - 2010.04.10 18:46:24.
