data_PCOD8247483
_publ_section_title
;
Structure prediction by ZEFSAII (Michael W. Deem and Ramdas Pophale) SiO2 
 PCOD8247483
Probable space group: P B C N
;
_chemical_formula_sum "Si O2"
_cell_formula_units_Z 64
_cell_length_a 9.758975
_cell_length_b 16.866813
_cell_length_c 18.332958
_cell_angle_alpha 90.000000
_cell_angle_beta 90.000000
_cell_angle_gamma 90.000000
_cell_volume 3017.656336
_symmetry_space_group_name_H-M "P B C N"
_symmetry_group_IT_number 60
_symmetry_cell_setting 'orthorhombic'
loop_
_space_group_symop_operation_xyz
x,y,z
1/2-x,1/2-y,1/2+z
1/2+x,1/2-y,-z
-x,y,1/2-z
-x,-y,-z
1/2+x,1/2+y,1/2-z
1/2-x,1/2+y,z
x,-y,1/2+z
loop_
_atom_site_type_symbol
_atom_site_label
_atom_site_fract_x
_atom_site_fract_y
_atom_site_fract_z
Si Si1 0.146077 0.841964 0.276439
Si Si2 0.715778 0.908989 0.570191
Si Si3 0.001213 0.342729 0.466535
Si Si4 0.998787 0.157272 0.033465
Si Si5 0.715777 0.408989 0.070191
Si Si6 0.146077 0.658036 0.276439
Si Si7 0.905223 0.158169 0.312446
Si Si8 0.405223 0.158168 0.687554
O O1 0.203788 0.890542 0.344339
O O2 0.136682 0.750000 0.299605
O O3 0.246753 0.854114 0.207732
O O4 0.000000 0.874809 0.250000
O O5 0.571373 0.888484 0.532619
O O6 0.703787 0.890542 0.655661
O O7 0.836034 0.857636 0.532656
O O8 0.750003 1.000000 0.559045
O O9 0.972351 0.250001 0.476460
O O10 0.937657 0.378653 0.391431
O O11 0.163965 0.357638 0.467345
O O12 0.062343 0.121348 0.108569
O O13 0.071372 0.111518 0.967380
O O14 0.246753 0.645886 0.207732
O O15 0.000000 0.625192 0.250000
O O16 0.946744 0.250000 0.317648
O O17 0.000000 0.118049 0.250000
O O18 0.500000 0.118049 0.750000
#
# Coordination Sequence:
#
# PCOD8247483 Si02
#       8
#     8   8   8   8   8   8   8   8
#     4  10  21  40  66  94 125 164 224 278 315 385
#     4  12  26  44  61  98 138 174 211 273 343 393
#     4  11  23  42  70  94 124 175 227 267 318 397
#     4  11  23  42  70  94 124 175 227 267 318 397
#     4  12  26  44  61  98 138 174 211 273 343 393
#     4  10  21  40  66  94 125 164 224 278 315 385
#     4   9  17  35  63  92 117 157 215 274 319 366
#     4   9  17  35  63  92 117 157 215 274 319 366
#
# _framework density 21.208513
#
# number of rings (size 3 to 8) (size 9 to 14) (size 15 to 20)
#    0.000    1.500    2.500    3.000    3.500    0.000 
#    4.500    0.000    0.000    0.000    0.000    0.000 
#    0.000    0.000    0.000    0.000    0.000    0.000 
#
# Total GULP energy -793848.500097 kJ/mol
# GULP energy per Si atom -12403.882814 kJ/mol
# Density = 2.116024 g / cm^3
# Si number density = 21.208513 Si / 1000 Ang^3
#
#
#
# Elastic Constant Matrix: (Units=GPa)
#
#
# Indices 1 2 3 4 5 6 
#
# 1 113.8443 13.2153 7.3472 0.0000 0.0000 0.0000
# 2 13.2153 68.1865 15.1593 0.0000 0.0000 0.0000
# 3 7.3472 15.1593 59.3995 0.0000 0.0000 0.0000
# 4 0.0000 0.0000 0.0000 18.5013 0.0000 0.0000
# 5 0.0000 0.0000 0.0000 0.0000 45.1984 0.0000
# 6 0.0000 0.0000 0.0000 0.0000 0.0000 22.9788
#
#
#
# Elastic Compliance Matrix: (Units=1/GPa)
#
#
# Indices 1 2 3 4 5 6 
#
# 1 0.009014 -0.001589 -0.000709 0.000000 0.000000 0.000000
# 2 -0.001589 0.015828 -0.003843 0.000000 0.000000 0.000000
# 3 -0.000709 -0.003843 0.017904 0.000000 0.000000 0.000000
# 4 0.000000 0.000000 0.000000 0.054050 0.000000 0.000000
# 5 0.000000 0.000000 0.000000 0.000000 0.022125 0.000000
# 6 0.000000 0.000000 0.000000 0.000000 0.000000 0.043518
#
#
# Mechanical properties :
#
#
# Convention : Reuss Voigt Hill
#
# Bulk Modulus (GPa) = 32.82704 34.76379 33.79541
# Shear Modulus (GPa) = 27.04508 31.04960 29.04734
#
# Velocity S-wave (km/s) = 3.57487 3.83040 3.70484
# Velocity P-wave (km/s) = 5.70538 5.99913 5.85410
#
# Compressibility (1/GPa) = 0.03046270
#
# Stress axis : x y z
#
# Youngs Moduli (GPa) = 110.93607 63.17902 55.85457
#
# Poissons Ratio (x) = 0.10041 0.03962
# Poissons Ratio (y) = 0.17632 0.21464
# Poissons Ratio (z) = 0.07869 0.24279
#
# Static dielectric constant tensor:
#      x y z
#    x 3.909490 0.000000 0.000000 
#    y 0.000000 3.433210 0.000000 
#    z 0.000000 0.000000 3.887180 
# 
# 
# High freq. dielectric constant tensor:
#      x y z
#    x 1.844430 0.000000 0.000000 
#    y 0.000000 1.794160 0.000000 
#    z 0.000000 0.000000 1.835030 
# 
# From -- ./inp_files/22362.got.cif
#   From: 2010.03.12/outbox.cif.g09.slc.cpg/sg60_12_cif.got.tgz:22362.got - 2010.04.10 18:46:24.
