data_PCOD8247459
_publ_section_title
;
Structure prediction by ZEFSAII (Michael W. Deem and Ramdas Pophale) SiO2 
 PCOD8247459
Probable space group: P B C N
;
_chemical_formula_sum "Si O2"
_cell_formula_units_Z 28
_cell_length_a 7.185841
_cell_length_b 13.866619
_cell_length_c 13.540558
_cell_angle_alpha 90.000000
_cell_angle_beta 90.000000
_cell_angle_gamma 90.000000
_cell_volume 1349.226145
_symmetry_space_group_name_H-M "P B C N"
_symmetry_group_IT_number 60
_symmetry_cell_setting 'orthorhombic'
loop_
_space_group_symop_operation_xyz
x,y,z
1/2-x,1/2-y,1/2+z
1/2+x,1/2-y,-z
-x,y,1/2-z
-x,-y,-z
1/2+x,1/2+y,1/2-z
1/2-x,1/2+y,z
x,-y,1/2+z
loop_
_atom_site_type_symbol
_atom_site_label
_atom_site_fract_x
_atom_site_fract_y
_atom_site_fract_z
Si Si1 0.694949 0.337878 0.589179
Si Si2 0.000000 0.052024 0.250000
Si Si3 0.726538 0.519201 0.927969
Si Si4 0.050449 0.359715 0.484024
O O1 0.648118 0.378817 0.696529
O O2 0.613287 0.415199 0.507896
O O3 0.604286 0.233693 0.577606
O O4 0.917858 0.329311 0.576309
O O5 0.112885 0.984739 0.173852
O O6 0.930619 0.569544 0.911491
O O7 0.766580 0.412453 0.972668
#
# Coordination Sequence:
#
# PCOD8247459 Si02
#       4
#     8   4   8   8
#     4  10  21  40  62  89 127 161 209 257 315 380
#     4  12  22  38  64  98 120 166 216 256 316 380
#     4   9  22  42  61  89 127 166 205 264 314 375
#     4   9  20  44  63  83 128 173 201 262 325 367
#
# _framework density 20.752638000000001
#
# number of rings (size 3 to 8) (size 9 to 14) (size 15 to 20)
#    1.714    0.571    0.000    2.571    0.000    1.143 
#   10.286    0.000    0.000    0.000    0.000    0.000 
#    0.000    0.000    0.000    0.000    0.000    0.000 
#
# Total GULP energy -346959.640185 kJ/mol
# GULP energy per Si atom -12391.415721 kJ/mol
# Density = 2.070540 g / cm^3
# Si number density = 20.752638 Si / 1000 Ang^3
#
#
#
# Elastic Constant Matrix: (Units=GPa)
#
#
# Indices 1 2 3 4 5 6 
#
# 1 64.5145 18.4472 31.5003 0.0000 0.0000 0.0000
# 2 18.4472 109.5934 40.5024 0.0000 0.0000 0.0000
# 3 31.5003 40.5024 98.6999 0.0000 0.0000 0.0000
# 4 0.0000 0.0000 0.0000 23.4565 0.0000 0.0000
# 5 0.0000 0.0000 0.0000 0.0000 31.5995 0.0000
# 6 0.0000 0.0000 0.0000 0.0000 0.0000 24.3746
#
#
#
# Elastic Compliance Matrix: (Units=1/GPa)
#
#
# Indices 1 2 3 4 5 6 
#
# 1 0.018473 -0.001097 -0.005446 0.000000 0.000000 0.000000
# 2 -0.001097 0.010821 -0.004090 0.000000 0.000000 0.000000
# 3 -0.005446 -0.004090 0.013548 0.000000 0.000000 0.000000
# 4 0.000000 0.000000 0.000000 0.042632 0.000000 0.000000
# 5 0.000000 0.000000 0.000000 0.000000 0.031646 0.000000
# 6 0.000000 0.000000 0.000000 0.000000 0.000000 0.041026
#
#
# Mechanical properties :
#
#
# Convention : Reuss Voigt Hill
#
# Bulk Modulus (GPa) = 46.34703 50.41198 48.37950
# Shear Modulus (GPa) = 26.79463 28.04330 27.41896
#
# Velocity S-wave (km/s) = 3.59715 3.68001 3.63881
# Velocity P-wave (km/s) = 6.29557 6.51162 6.40450
#
# Compressibility (1/GPa) = 0.02157635
#
# Stress axis : x y z
#
# Youngs Moduli (GPa) = 54.13328 92.41324 73.81046
#
# Poissons Ratio (x) = 0.10137 0.40194
# Poissons Ratio (y) = 0.05938 0.30191
# Poissons Ratio (z) = 0.29479 0.37801
#
# Static dielectric constant tensor:
#      x y z
#    x 3.779070 0.000000 0.000000 
#    y 0.000000 3.680900 0.000000 
#    z 0.000000 0.000000 3.274940 
# 
# 
# High freq. dielectric constant tensor:
#      x y z
#    x 1.819210 0.000000 0.000000 
#    y 0.000000 1.818510 0.000000 
#    z 0.000000 0.000000 1.769650 
# 
# From -- ./inp_files/9403.got.cif
#   From: 2010.03.12/outbox.cif.g09.slc.cpg/sg60_5_cif.got.tgz:9403.got - 2010.04.10 18:46:24.
