data_PCOD8247381
_publ_section_title
;
Structure prediction by ZEFSAII (Michael W. Deem and Ramdas Pophale) SiO2 
 PCOD8247381
Probable space group: P B C N
;
_chemical_formula_sum "Si O2"
_cell_formula_units_Z 52
_cell_length_a 13.305119
_cell_length_b 22.464042
_cell_length_c 8.498920
_cell_angle_alpha 90.000000
_cell_angle_beta 90.000000
_cell_angle_gamma 90.000000
_cell_volume 2540.214595
_symmetry_space_group_name_H-M "P B C N"
_symmetry_group_IT_number 60
_symmetry_cell_setting 'orthorhombic'
loop_
_space_group_symop_operation_xyz
x,y,z
1/2-x,1/2-y,1/2+z
1/2+x,1/2-y,-z
-x,y,1/2-z
-x,-y,-z
1/2+x,1/2+y,1/2-z
1/2-x,1/2+y,z
x,-y,1/2+z
loop_
_atom_site_type_symbol
_atom_site_label
_atom_site_fract_x
_atom_site_fract_y
_atom_site_fract_z
Si Si1 0.000000 0.278295 0.750000
Si Si2 0.804298 0.079850 0.169187
Si Si3 0.000000 0.137198 0.250000
Si Si4 0.133045 0.580075 0.911283
Si Si5 0.893990 0.236703 0.441338
Si Si6 0.500000 0.164768 0.750000
Si Si7 0.796248 0.671476 0.370485
Si Si8 0.289498 0.983900 0.116564
O O1 0.934686 0.242296 0.620162
O O2 0.914534 0.314164 0.846301
O O3 0.921621 0.094564 0.162153
O O4 0.743013 0.140480 0.210001
O O5 0.786186 0.028086 0.296128
O O6 0.773093 0.057403 0.999042
O O7 0.945666 0.176977 0.379974
O O8 0.035920 0.621975 0.892369
O O9 0.158824 0.560810 0.735743
O O10 0.216361 0.622875 0.989984
O O11 0.123463 0.521601 0.023130
O O12 0.915910 0.293346 0.329814
O O13 0.772678 0.227321 0.426397
#
# Coordination Sequence:
#
# PCOD8247381 Si02
#       8
#     4   8   4   8   8   4   8   8
#     4  12  24  40  65  93 123 169 216 246 324 378
#     4   9  19  37  60  86 124 161 205 268 311 379
#     4   9  20  40  58  85 125 164 208 259 326 370
#     4  10  21  39  59  87 121 160 205 258 314 377
#     4  10  24  40  60  92 126 163 210 261 311 391
#     4  11  22  40  59  88 122 163 204 253 324 382
#     4  10  23  40  60  90 127 162 208 260 312 385
#     4   9  20  37  59  88 117 163 211 261 322 367
#
# _framework density 20.47071
#
# number of rings (size 3 to 8) (size 9 to 14) (size 15 to 20)
#    0.000    2.154    1.538    0.000    4.308    3.692 
#    0.000    5.385    0.000    0.000    0.000    0.000 
#    0.000    0.000    0.000    0.000    0.000    0.000 
#
# Total GULP energy -644263.566246 kJ/mol
# GULP energy per Si atom -12389.683966 kJ/mol
# Density = 2.042412 g / cm^3
# Si number density = 20.470710 Si / 1000 Ang^3
#
#
#
# Elastic Constant Matrix: (Units=GPa)
#
#
# Indices 1 2 3 4 5 6 
#
# 1 114.8859 49.4852 34.7706 0.0000 0.0000 0.0000
# 2 49.4852 93.3540 45.5864 0.0000 0.0000 0.0000
# 3 34.7706 45.5864 121.0590 0.0000 0.0000 0.0000
# 4 0.0000 0.0000 0.0000 39.1849 0.0000 0.0000
# 5 0.0000 0.0000 0.0000 0.0000 23.8938 0.0000
# 6 0.0000 0.0000 0.0000 0.0000 0.0000 22.2899
#
#
#
# Elastic Compliance Matrix: (Units=1/GPa)
#
#
# Indices 1 2 3 4 5 6 
#
# 1 0.011426 -0.005458 -0.001227 0.000000 0.000000 0.000000
# 2 -0.005458 0.015733 -0.004357 0.000000 0.000000 0.000000
# 3 -0.001227 -0.004357 0.010253 0.000000 0.000000 0.000000
# 4 0.000000 0.000000 0.000000 0.025520 0.000000 0.000000
# 5 0.000000 0.000000 0.000000 0.000000 0.041852 0.000000
# 6 0.000000 0.000000 0.000000 0.000000 0.000000 0.044863
#
#
# Mechanical properties :
#
#
# Convention : Reuss Voigt Hill
#
# Bulk Modulus (GPa) = 65.23258 65.44260 65.33759
# Shear Modulus (GPa) = 28.27414 30.37083 29.32249
#
# Velocity S-wave (km/s) = 3.72048 3.85596 3.78883
# Velocity P-wave (km/s) = 7.09869 7.20159 7.15033
#
# Compressibility (1/GPa) = 0.01532976
#
# Stress axis : x y z
#
# Youngs Moduli (GPa) = 87.51617 63.56264 97.52950
#
# Poissons Ratio (x) = 0.34692 0.11963
# Poissons Ratio (y) = 0.47766 0.42490
# Poissons Ratio (z) = 0.10735 0.27692
#
# Static dielectric constant tensor:
#      x y z
#    x 3.647940 0.000000 0.000000 
#    y 0.000000 3.847690 0.000000 
#    z 0.000000 0.000000 3.833200 
# 
# 
# High freq. dielectric constant tensor:
#      x y z
#    x 1.780920 0.000000 0.000000 
#    y 0.000000 1.806680 0.000000 
#    z 0.000000 0.000000 1.807800 
# 
# From -- ./inp_files/6113.got.cif
#   From: 2010.03.12/outbox.cif.g09.slc.cpg/sg60_4_cif.got.tgz:6113.got - 2010.04.10 18:46:24.
