data_PCOD8247429
_publ_section_title
;
Structure prediction by ZEFSAII (Michael W. Deem and Ramdas Pophale) SiO2 
 PCOD8247429
Probable space group: P B C N
;
_chemical_formula_sum "Si O2"
_cell_formula_units_Z 28
_cell_length_a 7.386519
_cell_length_b 12.046660
_cell_length_c 14.951495
_cell_angle_alpha 90.000000
_cell_angle_beta 90.000000
_cell_angle_gamma 90.000000
_cell_volume 1330.427130
_symmetry_space_group_name_H-M "P B C N"
_symmetry_group_IT_number 60
_symmetry_cell_setting 'orthorhombic'
loop_
_space_group_symop_operation_xyz
x,y,z
1/2-x,1/2-y,1/2+z
1/2+x,1/2-y,-z
-x,y,1/2-z
-x,-y,-z
1/2+x,1/2+y,1/2-z
1/2-x,1/2+y,z
x,-y,1/2+z
loop_
_atom_site_type_symbol
_atom_site_label
_atom_site_fract_x
_atom_site_fract_y
_atom_site_fract_z
Si Si1 0.500000 0.884104 0.250000
Si Si2 0.817255 0.614902 0.466345
Si Si3 0.837338 0.546595 0.127005
Si Si4 0.534042 0.714633 0.102268
O O1 0.442112 0.805105 0.168061
O O2 0.337228 0.961725 0.288405
O O3 0.788724 0.512586 0.533728
O O4 0.621821 0.630205 0.423720
O O5 0.957314 0.590506 0.385906
O O6 0.884433 0.725673 0.515665
O O7 0.696177 0.644784 0.148488
#
# Coordination Sequence:
#
# PCOD8247429 Si02
#       4
#     4   8   8   8
#     4  10  26  40  58  98 132 158 212 252 320 380
#     4  10  21  39  66  89 118 160 219 255 306 373
#     4  10  22  42  61  90 127 160 210 269 301 376
#     4  11  21  42  64  92 122 169 204 260 316 368
#
# _framework density 21.045874000000001
#
# number of rings (size 3 to 8) (size 9 to 14) (size 15 to 20)
#    0.000    1.714    2.857    0.857    4.000    0.000 
#    0.000    2.857    0.000    0.000    0.000    0.000 
#    0.000    0.000    0.000    0.000    0.000    0.000 
#
# Total GULP energy -347136.115025 kJ/mol
# GULP energy per Si atom -12397.718394 kJ/mol
# Density = 2.099797 g / cm^3
# Si number density = 21.045874 Si / 1000 Ang^3
#
#
#
# Elastic Constant Matrix: (Units=GPa)
#
#
# Indices 1 2 3 4 5 6 
#
# 1 90.0564 41.3657 30.8805 0.0000 0.0000 0.0000
# 2 41.3657 97.5630 27.2572 0.0000 0.0000 0.0000
# 3 30.8805 27.2572 71.7239 0.0000 0.0000 0.0000
# 4 0.0000 0.0000 0.0000 25.9995 0.0000 0.0000
# 5 0.0000 0.0000 0.0000 0.0000 17.1642 0.0000
# 6 0.0000 0.0000 0.0000 0.0000 0.0000 30.2708
#
#
#
# Elastic Compliance Matrix: (Units=1/GPa)
#
#
# Indices 1 2 3 4 5 6 
#
# 1 0.014994 -0.005095 -0.004520 0.000000 0.000000 0.000000
# 2 -0.005095 0.013198 -0.002822 0.000000 0.000000 0.000000
# 3 -0.004520 -0.002822 0.016961 0.000000 0.000000 0.000000
# 4 0.000000 0.000000 0.000000 0.038462 0.000000 0.000000
# 5 0.000000 0.000000 0.000000 0.000000 0.058261 0.000000
# 6 0.000000 0.000000 0.000000 0.000000 0.000000 0.033035
#
#
# Mechanical properties :
#
#
# Convention : Reuss Voigt Hill
#
# Bulk Modulus (GPa) = 49.30901 50.92778 50.11840
# Shear Modulus (GPa) = 24.20791 25.34292 24.77541
#
# Velocity S-wave (km/s) = 3.39521 3.47389 3.43477
# Velocity P-wave (km/s) = 6.23298 6.35150 6.29252
#
# Compressibility (1/GPa) = 0.02028027
#
# Stress axis : x y z
#
# Youngs Moduli (GPa) = 66.69324 75.76703 58.95964
#
# Poissons Ratio (x) = 0.38601 0.26647
# Poissons Ratio (y) = 0.33978 0.16640
# Poissons Ratio (z) = 0.30142 0.21384
#
# Static dielectric constant tensor:
#      x y z
#    x 3.547770 0.000000 0.000000 
#    y 0.000000 3.946120 0.000000 
#    z 0.000000 0.000000 3.706780 
# 
# 
# High freq. dielectric constant tensor:
#      x y z
#    x 1.803200 0.000000 0.000000 
#    y 0.000000 1.838700 0.000000 
#    z 0.000000 0.000000 1.817290 
# 
# From -- ./inp_files/14233.got.cif
#   From: 2010.03.12/outbox.cif.g09.slc.cpg/sg60_8_cif.got.tgz:14233.got - 2010.04.10 18:46:24.
