data_PCOD8247239
_publ_section_title
;
Structure prediction by ZEFSAII (Michael W. Deem and Ramdas Pophale) SiO2 
 PCOD8247239
Probable space group: P B C N
;
_chemical_formula_sum "Si O2"
_cell_formula_units_Z 64
_cell_length_a 8.640835
_cell_length_b 18.970750
_cell_length_c 19.832599
_cell_angle_alpha 90.000000
_cell_angle_beta 90.000000
_cell_angle_gamma 90.000000
_cell_volume 3251.021517
_symmetry_space_group_name_H-M "P B C N"
_symmetry_group_IT_number 60
_symmetry_cell_setting 'orthorhombic'
loop_
_space_group_symop_operation_xyz
x,y,z
1/2-x,1/2-y,1/2+z
1/2+x,1/2-y,-z
-x,y,1/2-z
-x,-y,-z
1/2+x,1/2+y,1/2-z
1/2-x,1/2+y,z
x,-y,1/2+z
loop_
_atom_site_type_symbol
_atom_site_label
_atom_site_fract_x
_atom_site_fract_y
_atom_site_fract_z
Si Si1 0.118085 0.079313 0.940824
Si Si2 0.723646 0.532414 0.692271
Si Si3 0.713434 0.964702 0.336207
Si Si4 0.596773 0.166374 0.045446
Si Si5 0.456761 0.916283 0.821810
Si Si6 0.482822 0.150798 0.822353
Si Si7 0.836662 0.711513 0.552457
Si Si8 0.793782 0.949430 0.481079
O O1 0.093050 0.058807 0.861110
O O2 0.211320 0.150214 0.951174
O O3 0.961303 0.088757 0.984228
O O4 0.220926 0.015212 0.969100
O O5 0.670255 0.532560 0.771124
O O6 0.787744 0.453692 0.675914
O O7 0.862578 0.587661 0.686004
O O8 0.644159 0.885669 0.343171
O O9 0.797462 0.980686 0.405794
O O10 0.583325 0.023348 0.329051
O O11 0.538510 0.141587 0.118929
O O12 0.746935 0.215215 0.052120
O O13 0.453799 0.206338 0.010499
O O14 0.650067 0.100795 0.998933
O O15 0.500000 0.878753 0.750000
O O16 0.500000 0.190259 0.750000
O O17 0.433764 0.207594 0.878200
#
# Coordination Sequence:
#
# PCOD8247239 Si02
#       8
#     8   8   8   8   8   8   8   8
#     4  10  21  36  54  85 117 150 185 238 285 340
#     4   8  15  30  55  84 114 140 178 233 283 330
#     4   9  16  30  56  90 108 140 185 233 283 345
#     4  12  23  38  59  83 115 157 195 244 290 346
#     4   9  18  34  59  85 113 145 190 235 289 350
#     4   8  15  31  55  80 106 139 183 227 279 336
#     4  11  23  38  57  80 116 152 196 239 288 338
#     4  11  21  33  57  87 117 146 190 232 289 345
#
# _framework density 19.686119999999999
#
# number of rings (size 3 to 8) (size 9 to 14) (size 15 to 20)
#    0.000    2.250    2.500    3.000    0.000    1.500 
#    0.000    1.250    5.500    3.000    0.000    0.000 
#    0.000    0.000    0.000    0.000    0.000    0.000 
#
# Total GULP energy -793056.379264 kJ/mol
# GULP energy per Si atom -12391.505926 kJ/mol
# Density = 1.964131 g / cm^3
# Si number density = 19.686120 Si / 1000 Ang^3
#
#
#
# Elastic Constant Matrix: (Units=GPa)
#
#
# Indices 1 2 3 4 5 6 
#
# 1 8.5447 -0.6874 10.8749 0.0000 0.0000 0.0000
# 2 -0.6874 42.2596 31.3091 0.0000 0.0000 0.0000
# 3 10.8749 31.3091 140.4320 0.0000 0.0000 0.0000
# 4 0.0000 0.0000 0.0000 14.8204 0.0000 0.0000
# 5 0.0000 0.0000 0.0000 0.0000 27.8408 0.0000
# 6 0.0000 0.0000 0.0000 0.0000 0.0000 14.2980
#
#
#
# Elastic Compliance Matrix: (Units=1/GPa)
#
#
# Indices 1 2 3 4 5 6 
#
# 1 0.134624 0.011875 -0.013073 0.000000 0.000000 0.000000
# 2 0.011875 0.029393 -0.007473 0.000000 0.000000 0.000000
# 3 -0.013073 -0.007473 0.009799 0.000000 0.000000 0.000000
# 4 0.000000 0.000000 0.000000 0.067474 0.000000 0.000000
# 5 0.000000 0.000000 0.000000 0.000000 0.035918 0.000000
# 6 0.000000 0.000000 0.000000 0.000000 0.000000 0.069940
#
#
# Mechanical properties :
#
#
# Convention : Reuss Voigt Hill
#
# Bulk Modulus (GPa) = 6.39078 30.46994 18.43036
# Shear Modulus (GPa) = 12.00056 21.37452 16.68754
#
# Velocity S-wave (km/s) = 2.47168 3.29867 2.91465
# Velocity P-wave (km/s) = 3.37624 5.47903 4.55076
#
# Compressibility (1/GPa) = 0.15647545
#
# Stress axis : x y z
#
# Youngs Moduli (GPa) = 7.42810 34.02205 102.04889
#
# Poissons Ratio (x) = -0.40402 1.33405
# Poissons Ratio (y) = -0.08821 0.76258
# Poissons Ratio (z) = 0.09710 0.25423
#
# Static dielectric constant tensor:
#      x y z
#    x 3.443750 0.000000 0.000000 
#    y 0.000000 3.224760 0.000000 
#    z 0.000000 0.000000 4.052760 
# 
# 
# High freq. dielectric constant tensor:
#      x y z
#    x 1.750820 0.000000 0.000000 
#    y 0.000000 1.727960 0.000000 
#    z 0.000000 0.000000 1.789420 
# 
# From -- ./inp_files/22366.got.cif
#   From: 2010.03.12/outbox.cif.g09.slc.cpg/sg60_12_cif.got.tgz:22366.got - 2010.04.10 18:46:24.
