data_PCOD8247601
_publ_section_title
;
Structure prediction by ZEFSAII (Michael W. Deem and Ramdas Pophale) SiO2 
 PCOD8247601
Probable space group: P B C N
;
_chemical_formula_sum "Si O2"
_cell_formula_units_Z 64
_cell_length_a 12.634010
_cell_length_b 22.885778
_cell_length_c 11.104553
_cell_angle_alpha 90.000000
_cell_angle_beta 90.000000
_cell_angle_gamma 90.000000
_cell_volume 3210.760995
_symmetry_space_group_name_H-M "P B C N"
_symmetry_group_IT_number 60
_symmetry_cell_setting 'orthorhombic'
loop_
_space_group_symop_operation_xyz
x,y,z
1/2-x,1/2-y,1/2+z
1/2+x,1/2-y,-z
-x,y,1/2-z
-x,-y,-z
1/2+x,1/2+y,1/2-z
1/2-x,1/2+y,z
x,-y,1/2+z
loop_
_atom_site_type_symbol
_atom_site_label
_atom_site_fract_x
_atom_site_fract_y
_atom_site_fract_z
Si Si1 0.854316 0.115935 0.459381
Si Si2 0.414324 0.139425 0.422803
Si Si3 0.143143 0.358276 0.646044
Si Si4 0.548024 0.548020 0.090381
Si Si5 0.776512 0.108524 0.935987
Si Si6 0.113848 0.058720 0.786373
Si Si7 0.092166 0.772245 0.416865
Si Si8 0.643689 0.725198 0.845546
O O1 0.743058 0.103101 0.394161
O O2 0.848401 0.085218 0.588691
O O3 0.869363 0.185324 0.476771
O O4 0.949979 0.090848 0.376600
O O5 0.371487 0.134383 0.287644
O O6 0.537513 0.119947 0.424685
O O7 0.342617 0.099202 0.511575
O O8 0.405219 0.206406 0.465608
O O9 0.167452 0.290967 0.611647
O O10 0.597109 0.511803 0.203067
O O11 0.500000 0.500000 0.000000
O O12 0.639560 0.587241 0.033983
O O13 0.796845 0.072051 0.813615
O O14 0.784760 0.178084 0.914582
O O15 0.000000 0.087329 0.750000
O O16 0.164961 0.779992 0.297834
O O17 0.975727 0.790999 0.377312
#
# Coordination Sequence:
#
# PCOD8247601 Si02
#       8
#     8   8   8   8   8   8   8   8
#     4  11  18  33  59  85 112 159 183 244 291 350
#     4   9  21  36  55  84 114 162 197 236 275 356
#     4   9  20  38  54  85 123 152 198 230 285 342
#     4  10  22  34  54  92 113 141 193 246 304 342
#     4  12  19  36  61  85 112 160 196 232 301 348
#     4  11  21  37  56  86 117 144 193 243 304 359
#     4   9  15  29  54  86 118 151 197 223 286 350
#     4   9  16  29  57  85 119 156 185 233 275 369
#
# _framework density 19.932969
#
# number of rings (size 3 to 8) (size 9 to 14) (size 15 to 20)
#    0.000    2.000    5.000    2.250    0.000    1.000 
#    0.000    0.625    0.000    3.000    3.250    0.000 
#    0.000    0.000    0.000    0.000    0.000    0.000 
#
# Total GULP energy -793130.080903 kJ/mol
# GULP energy per Si atom -12392.657514 kJ/mol
# Density = 1.988760 g / cm^3
# Si number density = 19.932969 Si / 1000 Ang^3
#
#
#
# Elastic Constant Matrix: (Units=GPa)
#
#
# Indices 1 2 3 4 5 6 
#
# 1 115.3140 46.6469 45.9600 0.0000 0.0000 0.0000
# 2 46.6469 50.2825 33.9284 0.0000 0.0000 0.0000
# 3 45.9600 33.9284 56.9711 0.0000 0.0000 0.0000
# 4 0.0000 0.0000 0.0000 30.9009 0.0000 0.0000
# 5 0.0000 0.0000 0.0000 0.0000 38.3915 0.0000
# 6 0.0000 0.0000 0.0000 0.0000 0.0000 22.4511
#
#
#
# Elastic Compliance Matrix: (Units=1/GPa)
#
#
# Indices 1 2 3 4 5 6 
#
# 1 0.015178 -0.009728 -0.006452 0.000000 0.000000 0.000000
# 2 -0.009728 0.039483 -0.015666 0.000000 0.000000 0.000000
# 3 -0.006452 -0.015666 0.032087 0.000000 0.000000 0.000000
# 4 0.000000 0.000000 0.000000 0.032362 0.000000 0.000000
# 5 0.000000 0.000000 0.000000 0.000000 0.026047 0.000000
# 6 0.000000 0.000000 0.000000 0.000000 0.000000 0.044541
#
#
# Mechanical properties :
#
#
# Convention : Reuss Voigt Hill
#
# Bulk Modulus (GPa) = 43.36922 52.84870 48.10896
# Shear Modulus (GPa) = 19.15166 24.75085 21.95125
#
# Velocity S-wave (km/s) = 3.10305 3.52760 3.32211
# Velocity P-wave (km/s) = 5.88585 6.56984 6.23723
#
# Compressibility (1/GPa) = 0.02305783
#
# Stress axis : x y z
#
# Youngs Moduli (GPa) = 65.88311 25.32766 31.16538
#
# Poissons Ratio (x) = 0.24638 0.20107
# Poissons Ratio (y) = 0.64089 0.48823
# Poissons Ratio (z) = 0.42505 0.39678
#
# Static dielectric constant tensor:
#      x y z
#    x 3.555900 0.000000 0.000000 
#    y 0.000000 3.715610 0.000000 
#    z 0.000000 0.000000 3.513580 
# 
# 
# High freq. dielectric constant tensor:
#      x y z
#    x 1.759260 0.000000 0.000000 
#    y 0.000000 1.766600 0.000000 
#    z 0.000000 0.000000 1.762000 
# 
# From -- ./inp_files/11370.got.cif
#   From: 2010.03.12/outbox.cif.g09.slc.cpg/sg60_6_cif.got.tgz:11370.got - 2010.04.10 18:46:24.
