data_PCOD8247796
_publ_section_title
;
Structure prediction by ZEFSAII (Michael W. Deem and Ramdas Pophale) SiO2 
 PCOD8247796
Probable space group: P B C N
;
_chemical_formula_sum "Si O2"
_cell_formula_units_Z 40
_cell_length_a 10.552949
_cell_length_b 19.482576
_cell_length_c 9.026707
_cell_angle_alpha 90.000000
_cell_angle_beta 90.000000
_cell_angle_gamma 90.000000
_cell_volume 1855.878601
_symmetry_space_group_name_H-M "P B C N"
_symmetry_group_IT_number 60
_symmetry_cell_setting 'orthorhombic'
loop_
_space_group_symop_operation_xyz
x,y,z
1/2-x,1/2-y,1/2+z
1/2+x,1/2-y,-z
-x,y,1/2-z
-x,-y,-z
1/2+x,1/2+y,1/2-z
1/2-x,1/2+y,z
x,-y,1/2+z
loop_
_atom_site_type_symbol
_atom_site_label
_atom_site_fract_x
_atom_site_fract_y
_atom_site_fract_z
Si Si1 0.638344 0.947738 0.112348
Si Si2 0.000000 0.180612 0.750000
Si Si3 0.358340 0.916798 0.062406
Si Si4 0.165255 0.144432 0.002670
Si Si5 0.813663 0.783523 0.496205
Si Si6 0.500000 0.320715 0.750000
O O1 0.507343 0.905395 0.094580
O O2 0.694398 0.942809 0.278846
O O3 0.725877 0.910720 0.993334
O O4 0.640253 0.027345 0.068822
O O5 0.076909 0.131738 0.860418
O O6 0.098605 0.225256 0.650515
O O7 0.274413 0.852075 0.009142
O O8 0.214516 0.222293 0.998580
O O9 0.085279 0.130295 0.149684
O O10 0.905341 0.777712 0.641348
#
# Coordination Sequence:
#
# PCOD8247796 Si02
#       6
#     8   4   8   8   8   4
#     4  10  23  43  66  94 126 167 215 263 315 371
#     4  10  22  42  61  94 123 168 212 250 326 368
#     4  10  23  43  66  94 126 167 215 263 315 371
#     4  11  23  42  66  92 131 167 210 264 311 380
#     4  11  23  42  66  92 131 167 210 264 311 380
#     4  10  26  38  61 102 125 158 226 248 326 380
#
# _framework density 21.553132999999999
#
# number of rings (size 3 to 8) (size 9 to 14) (size 15 to 20)
#    0.000    1.600    2.000    1.200    8.400    0.000 
#    0.000    6.000    0.000    0.000    0.000    0.000 
#    0.000    0.000    0.000    0.000    0.000    0.000 
#
# Total GULP energy -495535.394826 kJ/mol
# GULP energy per Si atom -12388.384871 kJ/mol
# Density = 2.150408 g / cm^3
# Si number density = 21.553133 Si / 1000 Ang^3
#
#
#
# Elastic Constant Matrix: (Units=GPa)
#
#
# Indices 1 2 3 4 5 6 
#
# 1 107.2528 37.1964 44.1825 0.0000 0.0000 0.0000
# 2 37.1964 58.3667 12.1176 0.0000 0.0000 0.0000
# 3 44.1825 12.1176 127.2019 0.0000 0.0000 0.0000
# 4 0.0000 0.0000 0.0000 13.3433 0.0000 0.0000
# 5 0.0000 0.0000 0.0000 0.0000 40.1122 0.0000
# 6 0.0000 0.0000 0.0000 0.0000 0.0000 18.0348
#
#
#
# Elastic Compliance Matrix: (Units=1/GPa)
#
#
# Indices 1 2 3 4 5 6 
#
# 1 0.013720 -0.007911 -0.004012 0.000000 0.000000 0.000000
# 2 -0.007911 0.022040 0.000648 0.000000 0.000000 0.000000
# 3 -0.004012 0.000648 0.009193 0.000000 0.000000 0.000000
# 4 0.000000 0.000000 0.000000 0.074944 0.000000 0.000000
# 5 0.000000 0.000000 0.000000 0.000000 0.024930 0.000000
# 6 0.000000 0.000000 0.000000 0.000000 0.000000 0.055448
#
#
# Mechanical properties :
#
#
# Convention : Reuss Voigt Hill
#
# Bulk Modulus (GPa) = 44.63449 53.31272 48.97361
# Shear Modulus (GPa) = 21.71150 27.58639 24.64895
#
# Velocity S-wave (km/s) = 3.17732 3.58148 3.38544
# Velocity P-wave (km/s) = 5.84931 6.47239 6.16873
#
# Compressibility (1/GPa) = 0.02240420
#
# Stress axis : x y z
#
# Youngs Moduli (GPa) = 72.88647 45.37234 108.77503
#
# Poissons Ratio (x) = 0.35892 0.43640
# Poissons Ratio (y) = 0.57658 -0.07050
# Poissons Ratio (z) = 0.29242 -0.02941
#
# Static dielectric constant tensor:
#      x y z
#    x 4.226950 0.000000 0.000000 
#    y 0.000000 3.341410 0.000000 
#    z 0.000000 0.000000 4.292540 
# 
# 
# High freq. dielectric constant tensor:
#      x y z
#    x 1.867870 0.000000 0.000000 
#    y 0.000000 1.798770 0.000000 
#    z 0.000000 0.000000 1.868770 
# 
# From -- ./inp_files/4796.got.cif
#   From: 2010.03.12/outbox.cif.g09.slc.cpg/sg60_3_cif.got.tgz:4796.got - 2010.04.10 18:46:24.
