data_PCOD8247486
_publ_section_title
;
Structure prediction by ZEFSAII (Michael W. Deem and Ramdas Pophale) SiO2 
 PCOD8247486
Probable space group: P B C N
;
_chemical_formula_sum "Si O2"
_cell_formula_units_Z 64
_cell_length_a 14.390017
_cell_length_b 9.771200
_cell_length_c 21.515772
_cell_angle_alpha 90.000000
_cell_angle_beta 90.000000
_cell_angle_gamma 90.000000
_cell_volume 3025.283949
_symmetry_space_group_name_H-M "P B C N"
_symmetry_group_IT_number 60
_symmetry_cell_setting 'orthorhombic'
loop_
_space_group_symop_operation_xyz
x,y,z
1/2-x,1/2-y,1/2+z
1/2+x,1/2-y,-z
-x,y,1/2-z
-x,-y,-z
1/2+x,1/2+y,1/2-z
1/2-x,1/2+y,z
x,-y,1/2+z
loop_
_atom_site_type_symbol
_atom_site_label
_atom_site_fract_x
_atom_site_fract_y
_atom_site_fract_z
Si Si1 0.062967 0.979040 0.180156
Si Si2 0.595878 0.706019 0.657376
Si Si3 0.816199 0.293917 0.376253
Si Si4 0.415789 0.494085 0.952520
Si Si5 0.478431 0.732609 0.362316
Si Si6 0.739000 0.392147 0.251756
Si Si7 0.809983 0.988507 0.930467
Si Si8 0.082260 0.499817 0.800239
O O1 0.154842 0.981293 0.220829
O O2 0.094411 0.972634 0.107187
O O3 0.991410 0.857091 0.196246
O O4 0.007823 0.121837 0.190581
O O5 0.594995 0.628341 0.591310
O O6 0.694433 0.687611 0.693035
O O7 0.577029 0.869631 0.653096
O O8 0.781664 0.290915 0.304179
O O9 0.777496 0.422929 0.411869
O O10 0.926730 0.302666 0.385817
O O11 0.777094 0.161946 0.411188
O O12 0.420828 0.351335 0.914489
O O13 0.500000 0.500000 0.000000
O O14 0.324375 0.494341 0.995841
O O15 0.416389 0.855606 0.336378
O O16 0.817905 0.501382 0.233402
O O17 0.000000 0.492869 0.750000
#
# Coordination Sequence:
#
# PCOD8247486 Si02
#       8
#     8   8   8   8   8   8   8   8
#     4   9  20  42  70  94 125 180 229 265 338 417
#     4  11  25  42  66  97 138 178 222 278 356 402
#     4  10  21  40  67 100 126 168 228 277 335 400
#     4  11  21  49  71  89 131 182 232 271 332 421
#     4  10  22  41  67  97 131 174 223 272 336 404
#     4  11  24  40  64 100 139 176 218 279 342 422
#     4  10  21  41  72  98 123 175 229 284 325 404
#     4  12  26  42  64 101 143 172 217 288 342 403
#
# _framework density 21.15504
#
# number of rings (size 3 to 8) (size 9 to 14) (size 15 to 20)
#    0.000    1.500    5.000    1.125    5.250    6.000 
#    4.500    0.625    0.000    0.000    0.000    0.000 
#    0.000    0.000    0.000    0.000    0.000    0.000 
#
# Total GULP energy -793007.594196 kJ/mol
# GULP energy per Si atom -12390.743659 kJ/mol
# Density = 2.110689 g / cm^3
# Si number density = 21.155040 Si / 1000 Ang^3
#
#
#
# Elastic Constant Matrix: (Units=GPa)
#
#
# Indices 1 2 3 4 5 6 
#
# 1 82.6592 30.8667 29.0720 0.0000 0.0000 0.0000
# 2 30.8667 106.4481 40.9894 0.0000 0.0000 0.0000
# 3 29.0720 40.9894 115.7698 0.0000 0.0000 0.0000
# 4 0.0000 0.0000 0.0000 -17.6849 0.0000 0.0000
# 5 0.0000 0.0000 0.0000 0.0000 28.1135 0.0000
# 6 0.0000 0.0000 0.0000 0.0000 0.0000 15.8047
#
#
#
# Elastic Compliance Matrix: (Units=1/GPa)
#
#
# Indices 1 2 3 4 5 6 
#
# 1 0.014133 -0.003163 -0.002429 0.000000 0.000000 0.000000
# 2 -0.003163 0.011585 -0.003308 0.000000 0.000000 0.000000
# 3 -0.002429 -0.003308 0.010419 0.000000 0.000000 0.000000
# 4 0.000000 0.000000 0.000000 -0.056546 0.000000 0.000000
# 5 0.000000 0.000000 0.000000 0.000000 0.035570 0.000000
# 6 0.000000 0.000000 0.000000 0.000000 0.000000 0.063272
#
#
# Mechanical properties :
#
#
# Convention : Reuss Voigt Hill
#
# Bulk Modulus (GPa) = 54.53173 56.30370 55.41771
# Shear Modulus (GPa) = 48.85390 18.84327 33.84859
#
# Velocity S-wave (km/s) = 4.81076 2.98774 4.00437
# Velocity P-wave (km/s) = 7.52934 6.21085 6.90165
#
# Compressibility (1/GPa) = 0.01833795
#
# Stress axis : x y z
#
# Youngs Moduli (GPa) = 70.75471 86.31871 95.97902
#
# Poissons Ratio (x) = 0.27301 0.23316
# Poissons Ratio (y) = 0.22378 0.31745
# Poissons Ratio (z) = 0.17189 0.28550
#
# Static dielectric constant tensor:
#      x y z
#    x 3.978580 0.000000 0.000000 
#    y 0.000000 3.857280 0.000000 
#    z 0.000000 0.000000 3.670750 
# 
# 
# High freq. dielectric constant tensor:
#      x y z
#    x 1.831590 0.000000 0.000000 
#    y 0.000000 1.824430 0.000000 
#    z 0.000000 0.000000 1.817990 
# 
# From -- ./inp_files/24449.got.cif
#   From: 2010.03.12/outbox.cif.g09.slc.cpg/sg60_13_cif.got.tgz:24449.got - 2010.04.10 18:46:24.
