data_PCOD8247362
_publ_section_title
;
Structure prediction by ZEFSAII (Michael W. Deem and Ramdas Pophale) SiO2 
 PCOD8247362
Probable space group: P B C N
;
_chemical_formula_sum "Si O2"
_cell_formula_units_Z 56
_cell_length_a 18.892312
_cell_length_b 8.936652
_cell_length_c 15.105423
_cell_angle_alpha 90.000000
_cell_angle_beta 90.000000
_cell_angle_gamma 90.000000
_cell_volume 2550.309256
_symmetry_space_group_name_H-M "P B C N"
_symmetry_group_IT_number 60
_symmetry_cell_setting 'orthorhombic'
loop_
_space_group_symop_operation_xyz
x,y,z
1/2-x,1/2-y,1/2+z
1/2+x,1/2-y,-z
-x,y,1/2-z
-x,-y,-z
1/2+x,1/2+y,1/2-z
1/2-x,1/2+y,z
x,-y,1/2+z
loop_
_atom_site_type_symbol
_atom_site_label
_atom_site_fract_x
_atom_site_fract_y
_atom_site_fract_z
Si Si1 0.365791 0.663750 0.695455
Si Si2 0.654707 0.729848 0.000197
Si Si3 0.721569 0.031832 0.020254
Si Si4 0.093473 0.836998 0.694049
Si Si5 0.292543 0.884030 0.180841
Si Si6 0.376746 0.920915 0.820521
Si Si7 0.460492 0.199607 0.868206
O O1 0.360913 0.751000 0.603013
O O2 0.412013 0.514583 0.678988
O O3 0.285725 0.621235 0.721316
O O4 0.400163 0.764328 0.774291
O O5 0.695006 0.576298 0.028474
O O6 0.577929 0.748226 0.042930
O O7 0.710573 0.854949 0.033917
O O8 0.671908 0.112933 0.093595
O O9 0.699260 0.069732 0.920727
O O10 0.174278 0.783064 0.683306
O O11 0.069855 0.806820 0.793279
O O12 0.044052 0.738591 0.626279
O O13 0.334639 0.994140 0.244109
O O14 0.444963 0.023121 0.848014
#
# Coordination Sequence:
#
# PCOD8247362 Si02
#       7
#     8   8   8   8   8   8   8
#     4  11  22  36  65  97 121 158 215 269 310 374
#     4  10  22  38  60  92 131 158 215 260 317 379
#     4  10  22  36  59  96 127 163 205 266 313 370
#     4  10  22  41  65  86 127 172 205 256 320 382
#     4  10  21  39  61  93 128 162 208 257 326 371
#     4  10  21  38  64  91 127 167 210 257 319 379
#     4   9  22  44  62  86 126 177 203 251 324 385
#
# _framework density 21.958120999999998
#
# number of rings (size 3 to 8) (size 9 to 14) (size 15 to 20)
#    0.000    2.000    1.429    0.857   14.000    0.571 
#    0.000    8.571    3.143    0.000    0.000    0.000 
#    0.000    0.000    0.000    0.000    0.000    0.000 
#
# Total GULP energy -693985.015898 kJ/mol
# GULP energy per Si atom -12392.589570 kJ/mol
# Density = 2.190814 g / cm^3
# Si number density = 21.958121 Si / 1000 Ang^3
#
#
#
# Elastic Constant Matrix: (Units=GPa)
#
#
# Indices 1 2 3 4 5 6 
#
# 1 69.2575 28.4295 4.7171 0.0000 0.0000 0.0000
# 2 28.4295 90.9911 11.9938 0.0000 0.0000 0.0000
# 3 4.7171 11.9938 52.8794 0.0000 0.0000 0.0000
# 4 0.0000 0.0000 0.0000 27.1531 0.0000 0.0000
# 5 0.0000 0.0000 0.0000 0.0000 16.5661 0.0000
# 6 0.0000 0.0000 0.0000 0.0000 0.0000 21.9648
#
#
#
# Elastic Compliance Matrix: (Units=1/GPa)
#
#
# Indices 1 2 3 4 5 6 
#
# 1 0.016568 -0.005135 -0.000313 0.000000 0.000000 0.000000
# 2 -0.005135 0.012920 -0.002472 0.000000 0.000000 0.000000
# 3 -0.000313 -0.002472 0.019500 0.000000 0.000000 0.000000
# 4 0.000000 0.000000 0.000000 0.036828 0.000000 0.000000
# 5 0.000000 0.000000 0.000000 0.000000 0.060364 0.000000
# 6 0.000000 0.000000 0.000000 0.000000 0.000000 0.045527
#
#
# Mechanical properties :
#
#
# Convention : Reuss Voigt Hill
#
# Bulk Modulus (GPa) = 30.16916 33.71207 31.94062
# Shear Modulus (GPa) = 22.87292 24.33596 23.60444
#
# Velocity S-wave (km/s) = 3.23098 3.33271 3.28224
# Velocity P-wave (km/s) = 5.26196 5.49504 5.37976
#
# Compressibility (1/GPa) = 0.03314643
#
# Stress axis : x y z
#
# Youngs Moduli (GPa) = 60.35654 77.39649 51.28290
#
# Poissons Ratio (x) = 0.39746 0.01606
# Poissons Ratio (y) = 0.30995 0.12679
# Poissons Ratio (z) = 0.01890 0.19136
#
# Static dielectric constant tensor:
#      x y z
#    x 4.092420 0.000000 0.000000 
#    y 0.000000 4.047000 0.000000 
#    z 0.000000 0.000000 3.991030 
# 
# 
# High freq. dielectric constant tensor:
#      x y z
#    x 1.840170 0.000000 0.000000 
#    y 0.000000 1.859060 0.000000 
#    z 0.000000 0.000000 1.865150 
# 
# From -- ./inp_files/17735.got.cif
#   From: 2010.03.12/outbox.cif.g09.slc.cpg/sg60_9_cif.got.tgz:17735.got - 2010.04.10 18:46:24.
