data_PCOD8247907
_publ_section_title
;
Structure prediction by ZEFSAII (Michael W. Deem and Ramdas Pophale) SiO2 
 PCOD8247907
Probable space group: P B C N
;
_chemical_formula_sum "Si O2"
_cell_formula_units_Z 48
_cell_length_a 8.496727
_cell_length_b 10.016398
_cell_length_c 26.128263
_cell_angle_alpha 90.000000
_cell_angle_beta 90.000000
_cell_angle_gamma 90.000000
_cell_volume 2223.687610
_symmetry_space_group_name_H-M "P B C N"
_symmetry_group_IT_number 60
_symmetry_cell_setting 'orthorhombic'
loop_
_space_group_symop_operation_xyz
x,y,z
1/2-x,1/2-y,1/2+z
1/2+x,1/2-y,-z
-x,y,1/2-z
-x,-y,-z
1/2+x,1/2+y,1/2-z
1/2-x,1/2+y,z
x,-y,1/2+z
loop_
_atom_site_type_symbol
_atom_site_label
_atom_site_fract_x
_atom_site_fract_y
_atom_site_fract_z
Si Si1 0.488685 0.267897 0.408426
Si Si2 0.437700 0.692116 0.193747
Si Si3 0.850239 0.089058 0.998593
Si Si4 0.139321 0.744385 0.904047
Si Si5 0.090042 0.514115 0.570391
Si Si6 0.701612 0.417757 0.338707
O O1 0.604544 0.301915 0.455826
O O2 0.311220 0.325707 0.403776
O O3 0.560781 0.319399 0.355236
O O4 0.478948 0.108566 0.414497
O O5 0.500000 0.710790 0.250000
O O6 0.576861 0.700401 0.150800
O O7 0.355528 0.545805 0.193909
O O8 0.324498 0.820840 0.189151
O O9 0.684106 0.014241 0.984293
O O10 0.835317 0.136995 0.056233
O O11 0.000000 0.000000 0.000000
O O12 0.011320 0.647004 0.927732
O O13 0.229562 0.513104 0.611183
#
# Coordination Sequence:
#
# PCOD8247907 Si02
#       6
#     8   8   8   8   8   8
#     4  11  24  41  70  97 137 182 221 286 346 421
#     4  11  25  48  73  99 136 178 233 289 351 408
#     4  11  25  39  62  96 137 184 229 273 344 418
#     4  11  25  41  64 100 135 179 229 284 339 416
#     4  10  23  42  67  94 138 180 230 275 348 415
#     4  10  22  47  71  97 133 179 224 284 346 410
#
# _framework density 21.585764999999999
#
# number of rings (size 3 to 8) (size 9 to 14) (size 15 to 20)
#    0.000    1.333    1.667    3.000   11.667    2.667 
#    3.000    0.833    0.000    0.000    0.000    0.000 
#    0.000    0.000    0.000    0.000    0.000    0.000 
#
# Total GULP energy -594650.865506 kJ/mol
# GULP energy per Si atom -12388.559698 kJ/mol
# Density = 2.153663 g / cm^3
# Si number density = 21.585765 Si / 1000 Ang^3
#
#
#
# Elastic Constant Matrix: (Units=GPa)
#
#
# Indices 1 2 3 4 5 6 
#
# 1 98.6326 3.0419 25.7062 0.0000 0.0000 0.0000
# 2 3.0419 77.2572 20.5132 0.0000 0.0000 0.0000
# 3 25.7062 20.5132 113.9454 0.0000 0.0000 0.0000
# 4 0.0000 0.0000 0.0000 18.4926 0.0000 0.0000
# 5 0.0000 0.0000 0.0000 0.0000 34.7910 0.0000
# 6 0.0000 0.0000 0.0000 0.0000 0.0000 29.6003
#
#
#
# Elastic Compliance Matrix: (Units=1/GPa)
#
#
# Indices 1 2 3 4 5 6 
#
# 1 0.010776 0.000232 -0.002473 0.000000 0.000000 0.000000
# 2 0.000232 0.013599 -0.002501 0.000000 0.000000 0.000000
# 3 -0.002473 -0.002501 0.009784 0.000000 0.000000 0.000000
# 4 0.000000 0.000000 0.000000 0.054076 0.000000 0.000000
# 5 0.000000 0.000000 0.000000 0.000000 0.028743 0.000000
# 6 0.000000 0.000000 0.000000 0.000000 0.000000 0.033783
#
#
# Mechanical properties :
#
#
# Convention : Reuss Voigt Hill
#
# Bulk Modulus (GPa) = 40.52436 43.15087 41.83761
# Shear Modulus (GPa) = 29.67911 32.61503 31.14707
#
# Velocity S-wave (km/s) = 3.71204 3.89131 3.80273
# Velocity P-wave (km/s) = 6.09809 6.34221 6.22135
#
# Compressibility (1/GPa) = 0.02467652
#
# Stress axis : x y z
#
# Youngs Moduli (GPa) = 92.79903 73.53720 102.20583
#
# Poissons Ratio (x) = -0.01708 0.25274
# Poissons Ratio (y) = -0.02156 0.25557
# Poissons Ratio (z) = 0.22948 0.18388
#
# Static dielectric constant tensor:
#      x y z
#    x 3.748490 0.000000 0.000000 
#    y 0.000000 3.701510 0.000000 
#    z 0.000000 0.000000 3.541800 
# 
# 
# High freq. dielectric constant tensor:
#      x y z
#    x 1.865960 0.000000 0.000000 
#    y 0.000000 1.853290 0.000000 
#    z 0.000000 0.000000 1.827320 
# 
# From -- ./inp_files/25938.got.cif
#   From: 2010.03.12/outbox.cif.g09.slc.cpg/sg60_13_cif.got.tgz:25938.got - 2010.04.10 18:46:24.
