data_PCOD8247641
_publ_section_title
;
Structure prediction by ZEFSAII (Michael W. Deem and Ramdas Pophale) SiO2 
 PCOD8247641
Probable space group: P B C N
;
_chemical_formula_sum "Si O2"
_cell_formula_units_Z 52
_cell_length_a 15.917541
_cell_length_b 20.184768
_cell_length_c 7.708414
_cell_angle_alpha 90.000000
_cell_angle_beta 90.000000
_cell_angle_gamma 90.000000
_cell_volume 2476.650766
_symmetry_space_group_name_H-M "P B C N"
_symmetry_group_IT_number 60
_symmetry_cell_setting 'orthorhombic'
loop_
_space_group_symop_operation_xyz
x,y,z
1/2-x,1/2-y,1/2+z
1/2+x,1/2-y,-z
-x,y,1/2-z
-x,-y,-z
1/2+x,1/2+y,1/2-z
1/2-x,1/2+y,z
x,-y,1/2+z
loop_
_atom_site_type_symbol
_atom_site_label
_atom_site_fract_x
_atom_site_fract_y
_atom_site_fract_z
Si Si1 0.000000 0.605318 0.750000
Si Si2 0.198558 0.600500 0.372453
Si Si3 0.531653 0.341734 0.053391
Si Si4 0.552569 0.807781 0.574990
Si Si5 0.378670 0.414571 0.941554
Si Si6 0.345559 0.557663 0.835976
Si Si7 0.332094 0.968505 0.234879
O O1 0.920893 0.559564 0.699139
O O2 0.015003 0.649049 0.579959
O O3 0.146398 0.668305 0.376333
O O4 0.296987 0.619063 0.350453
O O5 0.185891 0.558077 0.545706
O O6 0.165960 0.549138 0.225072
O O7 0.500000 0.345175 0.250000
O O8 0.557010 0.267122 0.005871
O O9 0.613749 0.388753 0.031961
O O10 0.460399 0.367817 0.918137
O O11 0.500000 0.814940 0.750000
O O12 0.392390 0.487572 0.863720
O O13 0.362921 0.418855 0.144139
O O14 0.244917 0.552625 0.864349
#
# Coordination Sequence:
#
# PCOD8247641 Si02
#       7
#     4   8   8   8   8   8   8
#     4  10  22  38  54  82 116 148 182 240 278 328
#     4   9  19  33  54  81 111 139 183 233 279 335
#     4   9  18  35  56  76 109 152 182 227 284 341
#     4  10  22  38  56  80 113 152 190 222 280 346
#     4   9  17  33  55  81 110 140 181 235 282 334
#     4   9  17  33  54  81 109 138 184 232 283 330
#     4   9  19  32  54  79 109 140 180 234 281 324
#
# _framework density 20.996096000000001
#
# number of rings (size 3 to 8) (size 9 to 14) (size 15 to 20)
#    0.000    2.769    0.000    0.462    3.231    1.231 
#    5.538    0.000    0.000    0.000    0.000    0.000 
#    0.000    0.000    0.000    0.000    0.000    0.000 
#
# Total GULP energy -644440.952098 kJ/mol
# GULP energy per Si atom -12393.095233 kJ/mol
# Density = 2.094831 g / cm^3
# Si number density = 20.996096 Si / 1000 Ang^3
#
#
#
# Elastic Constant Matrix: (Units=GPa)
#
#
# Indices 1 2 3 4 5 6 
#
# 1 130.8329 83.9495 18.8692 0.0000 0.0000 0.0000
# 2 83.9495 136.1639 15.7838 0.0000 0.0000 0.0000
# 3 18.8692 15.7838 28.5243 0.0000 0.0000 0.0000
# 4 0.0000 0.0000 0.0000 36.9592 0.0000 0.0000
# 5 0.0000 0.0000 0.0000 0.0000 17.7941 0.0000
# 6 0.0000 0.0000 0.0000 0.0000 0.0000 32.9889
#
#
#
# Elastic Compliance Matrix: (Units=1/GPa)
#
#
# Indices 1 2 3 4 5 6 
#
# 1 0.013167 -0.007595 -0.004507 0.000000 0.000000 0.000000
# 2 -0.007595 0.012229 -0.001742 0.000000 0.000000 0.000000
# 3 -0.004507 -0.001742 0.039004 0.000000 0.000000 0.000000
# 4 0.000000 0.000000 0.000000 0.027057 0.000000 0.000000
# 5 0.000000 0.000000 0.000000 0.000000 0.056198 0.000000
# 6 0.000000 0.000000 0.000000 0.000000 0.000000 0.030313
#
#
# Mechanical properties :
#
#
# Convention : Reuss Voigt Hill
#
# Bulk Modulus (GPa) = 27.24096 59.19180 43.21638
# Shear Modulus (GPa) = 22.94689 29.34302 26.14496
#
# Velocity S-wave (km/s) = 3.30951 3.74243 3.53261
# Velocity P-wave (km/s) = 5.25417 6.85036 6.10466
#
# Compressibility (1/GPa) = 0.03670942
#
# Stress axis : x y z
#
# Youngs Moduli (GPa) = 75.94721 81.77355 25.63869
#
# Poissons Ratio (x) = 0.62111 0.11556
# Poissons Ratio (y) = 0.57685 0.04467
# Poissons Ratio (z) = 0.34231 0.14248
#
# Static dielectric constant tensor:
#      x y z
#    x 4.414960 0.000000 0.000000 
#    y 0.000000 3.101950 0.000000 
#    z 0.000000 0.000000 3.611190 
# 
# 
# High freq. dielectric constant tensor:
#      x y z
#    x 1.829660 0.000000 0.000000 
#    y 0.000000 1.805170 0.000000 
#    z 0.000000 0.000000 1.814430 
# 
# From -- ./inp_files/6105.got.cif
#   From: 2010.03.12/outbox.cif.g09.slc.cpg/sg60_4_cif.got.tgz:6105.got - 2010.04.10 18:46:24.
