data_PCOD8247578
_publ_section_title
;
Structure prediction by ZEFSAII (Michael W. Deem and Ramdas Pophale) SiO2 
 PCOD8247578
Probable space group: P B C N
;
_chemical_formula_sum "Si O2"
_cell_formula_units_Z 52
_cell_length_a 8.213108
_cell_length_b 14.876728
_cell_length_c 20.123076
_cell_angle_alpha 90.000000
_cell_angle_beta 90.000000
_cell_angle_gamma 90.000000
_cell_volume 2458.721414
_symmetry_space_group_name_H-M "P B C N"
_symmetry_group_IT_number 60
_symmetry_cell_setting 'orthorhombic'
loop_
_space_group_symop_operation_xyz
x,y,z
1/2-x,1/2-y,1/2+z
1/2+x,1/2-y,-z
-x,y,1/2-z
-x,-y,-z
1/2+x,1/2+y,1/2-z
1/2-x,1/2+y,z
x,-y,1/2+z
loop_
_atom_site_type_symbol
_atom_site_label
_atom_site_fract_x
_atom_site_fract_y
_atom_site_fract_z
Si Si1 0.817295 0.901374 0.096175
Si Si2 0.840202 0.941478 0.702159
Si Si3 0.288680 0.707572 0.403106
Si Si4 0.000000 0.382954 0.750000
Si Si5 0.647498 0.663000 0.954158
Si Si6 0.828239 0.511240 0.469063
Si Si7 0.074402 0.670948 0.110595
O O1 0.697200 0.815756 0.110292
O O2 0.992972 0.860095 0.089708
O O3 0.822078 0.971366 0.156112
O O4 0.787712 0.951377 0.026501
O O5 0.857343 0.849497 0.659170
O O6 0.664934 0.941142 0.739373
O O7 0.000000 0.948243 0.750000
O O8 0.392611 0.680898 0.468321
O O9 0.104138 0.678680 0.423454
O O10 0.041815 0.317729 0.688746
O O11 0.775139 0.584680 0.941364
O O12 0.702339 0.756388 0.919165
O O13 0.841968 0.575630 0.405205
O O14 0.000000 0.500000 0.500000
#
# Coordination Sequence:
#
# PCOD8247578 Si02
#       7
#     8   8   8   4   8   8   8
#     4  11  24  42  65 100 142 168 232 294 343 425
#     4  11  25  48  71  99 140 192 234 289 352 419
#     4  10  21  44  66  99 139 173 224 297 344 415
#     4  10  24  50  68  90 146 188 232 284 346 428
#     4  11  22  39  68 100 132 173 219 284 359 403
#     4  12  21  37  66 100 130 174 219 284 357 407
#     4  10  22  41  66  94 136 183 220 286 353 417
#
# _framework density 21.149204999999998
#
# number of rings (size 3 to 8) (size 9 to 14) (size 15 to 20)
#    0.000    1.231    4.615    1.385    2.154    0.000 
#   16.615    0.000    0.000    0.000    0.000    0.000 
#    0.000    0.000    0.000    0.000    0.000    0.000 
#
# Total GULP energy -644331.639253 kJ/mol
# GULP energy per Si atom -12390.993063 kJ/mol
# Density = 2.110107 g / cm^3
# Si number density = 21.149205 Si / 1000 Ang^3
#
#
#
# Elastic Constant Matrix: (Units=GPa)
#
#
# Indices 1 2 3 4 5 6 
#
# 1 66.0315 34.7638 32.0997 0.0000 0.0000 0.0000
# 2 34.7638 144.7520 59.1697 0.0000 0.0000 0.0000
# 3 32.0997 59.1697 117.8614 0.0000 0.0000 0.0000
# 4 0.0000 0.0000 0.0000 39.6513 0.0000 0.0000
# 5 0.0000 0.0000 0.0000 0.0000 36.5834 0.0000
# 6 0.0000 0.0000 0.0000 0.0000 0.0000 29.5419
#
#
#
# Elastic Compliance Matrix: (Units=1/GPa)
#
#
# Indices 1 2 3 4 5 6 
#
# 1 0.018428 -0.002987 -0.003519 0.000000 0.000000 0.000000
# 2 -0.002987 0.009176 -0.003793 0.000000 0.000000 0.000000
# 3 -0.003519 -0.003793 0.011347 0.000000 0.000000 0.000000
# 4 0.000000 0.000000 0.000000 0.025220 0.000000 0.000000
# 5 0.000000 0.000000 0.000000 0.000000 0.027335 0.000000
# 6 0.000000 0.000000 0.000000 0.000000 0.000000 0.033850
#
#
# Mechanical properties :
#
#
# Convention : Reuss Voigt Hill
#
# Bulk Modulus (GPa) = 54.48917 64.52348 59.50633
# Shear Modulus (GPa) = 32.87902 34.66275 33.77089
#
# Velocity S-wave (km/s) = 3.94715 4.05280 4.00032
# Velocity P-wave (km/s) = 6.82594 7.24398 7.03806
#
# Compressibility (1/GPa) = 0.01835227
#
# Stress axis : x y z
#
# Youngs Moduli (GPa) = 54.26611 108.97650 88.12671
#
# Poissons Ratio (x) = 0.32552 0.31014
# Poissons Ratio (y) = 0.16210 0.33428
# Poissons Ratio (z) = 0.19097 0.41337
#
# Static dielectric constant tensor:
#      x y z
#    x 3.662090 0.000000 0.000000 
#    y 0.000000 3.417680 0.000000 
#    z 0.000000 0.000000 3.733290 
# 
# 
# High freq. dielectric constant tensor:
#      x y z
#    x 1.818010 0.000000 0.000000 
#    y 0.000000 1.844040 0.000000 
#    z 0.000000 0.000000 1.820320 
# 
# From -- ./inp_files/22127.got.cif
#   From: 2010.03.12/outbox.cif.g09.slc.cpg/sg60_12_cif.got.tgz:22127.got - 2010.04.10 18:46:24.
