data_PCOD8247506
_publ_section_title
;
Structure prediction by ZEFSAII (Michael W. Deem and Ramdas Pophale) SiO2 
 PCOD8247506
Probable space group: P B C N
;
_chemical_formula_sum "Si O2"
_cell_formula_units_Z 60
_cell_length_a 17.021848
_cell_length_b 12.022275
_cell_length_c 14.859279
_cell_angle_alpha 90.000000
_cell_angle_beta 90.000000
_cell_angle_gamma 90.000000
_cell_volume 3040.822731
_symmetry_space_group_name_H-M "P B C N"
_symmetry_group_IT_number 60
_symmetry_cell_setting 'orthorhombic'
loop_
_space_group_symop_operation_xyz
x,y,z
1/2-x,1/2-y,1/2+z
1/2+x,1/2-y,-z
-x,y,1/2-z
-x,-y,-z
1/2+x,1/2+y,1/2-z
1/2-x,1/2+y,z
x,-y,1/2+z
loop_
_atom_site_type_symbol
_atom_site_label
_atom_site_fract_x
_atom_site_fract_y
_atom_site_fract_z
Si Si1 0.441472 0.597289 0.670047
Si Si2 0.150946 0.099453 0.087141
Si Si3 0.500000 0.159847 0.750000
Si Si4 0.813167 0.513545 0.352356
Si Si5 0.332417 0.217272 0.729656
Si Si6 0.928081 0.216084 0.562914
Si Si7 0.835262 0.726193 0.236788
Si Si8 0.048418 0.579998 0.560226
O O1 0.500000 0.567779 0.750000
O O2 0.414234 0.479316 0.631812
O O3 0.489685 0.664914 0.595109
O O4 0.367270 0.669728 0.704702
O O5 0.233107 0.037670 0.095698
O O6 0.158723 0.218759 0.135323
O O7 0.127424 0.121530 0.982786
O O8 0.419663 0.228918 0.774502
O O9 0.517056 0.085051 0.837267
O O10 0.807297 0.410211 0.284320
O O11 0.848991 0.615531 0.294947
O O12 0.867581 0.479319 0.435628
O O13 0.258785 0.267179 0.785537
O O14 0.882247 0.278899 0.643113
O O15 0.950276 0.299474 0.483577
O O16 0.000000 0.500000 0.500000
#
# Coordination Sequence:
#
# PCOD8247506 Si02
#       8
#     8   8   4   8   8   8   8   8
#     4  10  22  39  65  90 129 170 209 251 323 383
#     4  11  21  40  64  89 132 163 210 266 311 377
#     4  10  22  40  64  86 128 160 204 268 314 376
#     4  10  21  41  67  84 129 171 206 263 317 382
#     4  10  21  41  63  91 119 168 213 249 321 383
#     4  11  23  40  61 100 129 157 221 266 307 385
#     4  10  22  41  64  90 122 171 210 254 320 383
#     4  11  24  40  63  96 126 164 212 264 319 381
#
# _framework density 19.731503
#
# number of rings (size 3 to 8) (size 9 to 14) (size 15 to 20)
#    0.000    1.600    4.000    1.200    4.667    1.067 
#    1.200    1.333    0.000    0.000    0.000    0.000 
#    0.000    0.000    0.000    0.000    0.000    0.000 
#
# Total GULP energy -743536.030108 kJ/mol
# GULP energy per Si atom -12392.267168 kJ/mol
# Density = 1.968659 g / cm^3
# Si number density = 19.731503 Si / 1000 Ang^3
#
#
#
# Elastic Constant Matrix: (Units=GPa)
#
#
# Indices 1 2 3 4 5 6 
#
# 1 126.3927 24.8652 40.8249 0.0000 0.0000 0.0000
# 2 24.8652 83.1026 33.9310 0.0000 0.0000 0.0000
# 3 40.8249 33.9310 97.3840 0.0000 0.0000 0.0000
# 4 0.0000 0.0000 0.0000 25.9799 0.0000 0.0000
# 5 0.0000 0.0000 0.0000 0.0000 33.0823 0.0000
# 6 0.0000 0.0000 0.0000 0.0000 0.0000 30.9246
#
#
#
# Elastic Compliance Matrix: (Units=1/GPa)
#
#
# Indices 1 2 3 4 5 6 
#
# 1 0.009286 -0.001386 -0.003410 0.000000 0.000000 0.000000
# 2 -0.001386 0.014236 -0.004379 0.000000 0.000000 0.000000
# 3 -0.003410 -0.004379 0.013224 0.000000 0.000000 0.000000
# 4 0.000000 0.000000 0.000000 0.038491 0.000000 0.000000
# 5 0.000000 0.000000 0.000000 0.000000 0.030228 0.000000
# 6 0.000000 0.000000 0.000000 0.000000 0.000000 0.032337
#
#
# Mechanical properties :
#
#
# Convention : Reuss Voigt Hill
#
# Bulk Modulus (GPa) = 54.36068 56.23570 55.29819
# Shear Modulus (GPa) = 30.81027 31.81459 31.31243
#
# Velocity S-wave (km/s) = 3.95584 4.01980 3.98795
# Velocity P-wave (km/s) = 6.96239 7.07865 7.02076
#
# Compressibility (1/GPa) = 0.01839565
#
# Stress axis : x y z
#
# Youngs Moduli (GPa) = 107.68980 70.24410 75.62091
#
# Poissons Ratio (x) = 0.09737 0.25785
# Poissons Ratio (y) = 0.14928 0.33115
# Poissons Ratio (z) = 0.36720 0.30760
#
# Static dielectric constant tensor:
#      x y z
#    x 4.066680 0.000000 0.000000 
#    y 0.000000 3.607980 0.000000 
#    z 0.000000 0.000000 3.401130 
# 
# 
# High freq. dielectric constant tensor:
#      x y z
#    x 1.787920 0.000000 0.000000 
#    y 0.000000 1.772980 0.000000 
#    z 0.000000 0.000000 1.749880 
# 
# From -- ./inp_files/17464.got.cif
#   From: 2010.03.12/outbox.cif.g09.slc.cpg/sg60_9_cif.got.tgz:17464.got - 2010.04.10 18:46:24.
