data_PCOD8247491
_publ_section_title
;
Structure prediction by ZEFSAII (Michael W. Deem and Ramdas Pophale) SiO2 
 PCOD8247491
Probable space group: P B C N
;
_chemical_formula_sum "Si O2"
_cell_formula_units_Z 60
_cell_length_a 27.145991
_cell_length_b 5.398840
_cell_length_c 17.424105
_cell_angle_alpha 90.000000
_cell_angle_beta 90.000000
_cell_angle_gamma 90.000000
_cell_volume 2553.622153
_symmetry_space_group_name_H-M "P B C N"
_symmetry_group_IT_number 60
_symmetry_cell_setting 'orthorhombic'
loop_
_space_group_symop_operation_xyz
x,y,z
1/2-x,1/2-y,1/2+z
1/2+x,1/2-y,-z
-x,y,1/2-z
-x,-y,-z
1/2+x,1/2+y,1/2-z
1/2-x,1/2+y,z
x,-y,1/2+z
loop_
_atom_site_type_symbol
_atom_site_label
_atom_site_fract_x
_atom_site_fract_y
_atom_site_fract_z
Si Si1 0.876071 0.490635 0.093015
Si Si2 0.394190 0.048932 0.734085
Si Si3 0.000000 0.417293 0.750000
Si Si4 0.979401 0.743860 0.087276
Si Si5 0.125367 0.039359 0.644046
Si Si6 0.774334 0.661546 0.042169
Si Si7 0.234954 0.873226 0.126487
Si Si8 0.068129 0.159224 0.502131
O O1 0.868037 0.444298 0.182747
O O2 0.931276 0.580960 0.073979
O O3 0.832503 0.665118 0.061947
O O4 0.880825 0.249479 0.038619
O O5 0.452647 0.095590 0.741163
O O6 0.386700 0.776575 0.697471
O O7 0.371238 0.279427 0.688841
O O8 0.007152 0.239820 0.823032
O O9 0.964195 0.017338 0.060872
O O10 0.027929 0.649083 0.039992
O O11 0.178188 0.092687 0.606849
O O12 0.086653 0.999562 0.575344
O O13 0.750088 0.410593 0.078032
O O14 0.767048 0.664710 0.950844
O O15 0.243875 0.613884 0.172754
#
# Coordination Sequence:
#
# PCOD8247491 Si02
#       8
#     8   8   4   8   8   8   8   8
#     4  11  26  44  73 101 150 186 251 292 370 431
#     4  11  28  46  74 104 150 203 236 290 367 446
#     4  10  22  50  66 100 160 200 238 278 370 442
#     4  10  24  41  69 108 146 193 238 297 356 430
#     4  12  26  47  72 107 147 189 250 301 367 433
#     4  10  23  42  69 102 132 181 234 296 366 414
#     4  10  21  40  69 100 134 179 232 298 369 414
#     4  11  24  40  72 108 144 188 248 308 348 426
#
# _framework density 23.496036
#
# number of rings (size 3 to 8) (size 9 to 14) (size 15 to 20)
#    0.000    1.333    1.333    2.800   11.200    4.800 
#    0.000    4.000    0.000    0.000    0.000    0.000 
#    0.000    0.000    0.000    0.000    0.000    0.000 
#
# Total GULP energy -743304.254924 kJ/mol
# GULP energy per Si atom -12388.404249 kJ/mol
# Density = 2.344256 g / cm^3
# Si number density = 23.496036 Si / 1000 Ang^3
#
#
#
# Elastic Constant Matrix: (Units=GPa)
#
#
# Indices 1 2 3 4 5 6 
#
# 1 78.0649 8.6946 21.4252 0.0000 0.0000 0.0000
# 2 8.6946 127.7958 27.5060 0.0000 0.0000 0.0000
# 3 21.4252 27.5060 113.9663 0.0000 0.0000 0.0000
# 4 0.0000 0.0000 0.0000 16.3821 0.0000 0.0000
# 5 0.0000 0.0000 0.0000 0.0000 29.6957 0.0000
# 6 0.0000 0.0000 0.0000 0.0000 0.0000 21.6182
#
#
#
# Elastic Compliance Matrix: (Units=1/GPa)
#
#
# Indices 1 2 3 4 5 6 
#
# 1 0.013525 -0.000393 -0.002448 0.000000 0.000000 0.000000
# 2 -0.000393 0.008265 -0.001921 0.000000 0.000000 0.000000
# 3 -0.002448 -0.001921 0.009698 0.000000 0.000000 0.000000
# 4 0.000000 0.000000 0.000000 0.061042 0.000000 0.000000
# 5 0.000000 0.000000 0.000000 0.000000 0.033675 0.000000
# 6 0.000000 0.000000 0.000000 0.000000 0.000000 0.046257
#
#
# Mechanical properties :
#
#
# Convention : Reuss Voigt Hill
#
# Bulk Modulus (GPa) = 45.52714 48.34206 46.93460
# Shear Modulus (GPa) = 26.41186 31.01929 28.71558
#
# Velocity S-wave (km/s) = 3.35640 3.63739 3.49971
# Velocity P-wave (km/s) = 5.86848 6.18547 6.02906
#
# Compressibility (1/GPa) = 0.02196492
#
# Stress axis : x y z
#
# Youngs Moduli (GPa) = 73.93453 120.98950 103.11084
#
# Poissons Ratio (x) = 0.04759 0.25239
# Poissons Ratio (y) = 0.02908 0.19806
# Poissons Ratio (z) = 0.18098 0.23240
#
# Static dielectric constant tensor:
#      x y z
#    x 4.391300 0.000000 0.000000 
#    y 0.000000 4.622200 0.000000 
#    z 0.000000 0.000000 4.089940 
# 
# 
# High freq. dielectric constant tensor:
#      x y z
#    x 1.948040 0.000000 0.000000 
#    y 0.000000 1.922070 0.000000 
#    z 0.000000 0.000000 1.912430 
# 
# From -- ./inp_files/21224.got.cif
#   From: 2010.03.12/outbox.cif.g09.slc.cpg/sg60_11_cif.got.tgz:21224.got - 2010.04.10 18:46:24.
