data_PCOD8247543
_publ_section_title
;
Structure prediction by ZEFSAII (Michael W. Deem and Ramdas Pophale) SiO2 
 PCOD8247543
Probable space group: P B C N
;
_chemical_formula_sum "Si O2"
_cell_formula_units_Z 64
_cell_length_a 11.180835
_cell_length_b 11.822607
_cell_length_c 23.044292
_cell_angle_alpha 90.000000
_cell_angle_beta 90.000000
_cell_angle_gamma 90.000000
_cell_volume 3046.147027
_symmetry_space_group_name_H-M "P B C N"
_symmetry_group_IT_number 60
_symmetry_cell_setting 'orthorhombic'
loop_
_space_group_symop_operation_xyz
x,y,z
1/2-x,1/2-y,1/2+z
1/2+x,1/2-y,-z
-x,y,1/2-z
-x,-y,-z
1/2+x,1/2+y,1/2-z
1/2-x,1/2+y,z
x,-y,1/2+z
loop_
_atom_site_type_symbol
_atom_site_label
_atom_site_fract_x
_atom_site_fract_y
_atom_site_fract_z
Si Si1 0.364433 0.435028 0.247107
Si Si2 0.140010 0.559463 0.950978
Si Si3 0.254948 0.321161 0.349400
Si Si4 0.435501 0.342277 0.805034
Si Si5 0.099557 0.341309 0.018021
Si Si6 0.615133 0.491569 0.873941
Si Si7 0.990537 0.206025 0.583248
Si Si8 0.278737 0.177284 0.062954
O O1 0.500000 0.387217 0.250000
O O2 0.274066 0.357632 0.282865
O O3 0.358439 0.558110 0.276256
O O4 0.325697 0.439189 0.179755
O O5 0.210105 0.576090 0.890457
O O6 0.999255 0.590648 0.944514
O O7 0.156384 0.429952 0.971731
O O8 0.194672 0.648054 0.996369
O O9 0.149356 0.230971 0.346006
O O10 0.380149 0.271582 0.373284
O O11 0.500000 0.278334 0.750000
O O12 0.532068 0.392341 0.849388
O O13 0.196738 0.290621 0.062676
O O14 0.048216 0.233028 0.982798
O O15 0.535951 0.576303 0.913380
O O16 0.721015 0.434348 0.909711
O O17 0.100255 0.291723 0.598254
#
# Coordination Sequence:
#
# PCOD8247543 Si02
#       8
#     8   8   8   8   8   8   8   8
#     4   9  20  40  60  85 120 159 210 271 310 358
#     4  10  23  39  61  92 132 168 199 272 316 370
#     4  12  21  40  68  91 126 169 213 259 320 389
#     4   9  21  40  62  90 120 166 215 257 315 377
#     4  10  22  42  57  93 133 163 214 259 319 384
#     4  10  21  42  62  91 124 163 213 269 321 375
#     4  11  23  37  64  96 118 169 217 250 330 385
#     4  11  22  39  62  93 126 168 210 264 317 394
#
# _framework density 21.010148000000001
#
# number of rings (size 3 to 8) (size 9 to 14) (size 15 to 20)
#    0.000    2.000    3.750    1.500    1.750    2.500 
#    4.500    3.750    0.000    0.000    0.000    0.000 
#    0.000    0.000    0.000    0.000    0.000    0.000 
#
# Total GULP energy -793312.082747 kJ/mol
# GULP energy per Si atom -12395.501293 kJ/mol
# Density = 2.096233 g / cm^3
# Si number density = 21.010148 Si / 1000 Ang^3
#
#
#
# Elastic Constant Matrix: (Units=GPa)
#
#
# Indices 1 2 3 4 5 6 
#
# 1 100.6186 40.1462 41.1200 0.0000 0.0000 0.0000
# 2 40.1462 56.1494 22.9554 0.0000 0.0000 0.0000
# 3 41.1200 22.9554 68.4758 0.0000 0.0000 0.0000
# 4 0.0000 0.0000 0.0000 30.9618 0.0000 0.0000
# 5 0.0000 0.0000 0.0000 0.0000 30.8071 0.0000
# 6 0.0000 0.0000 0.0000 0.0000 0.0000 25.2938
#
#
#
# Elastic Compliance Matrix: (Units=1/GPa)
#
#
# Indices 1 2 3 4 5 6 
#
# 1 0.016238 -0.008834 -0.006789 0.000000 0.000000 0.000000
# 2 -0.008834 0.025444 -0.003225 0.000000 0.000000 0.000000
# 3 -0.006789 -0.003225 0.019762 0.000000 0.000000 0.000000
# 4 0.000000 0.000000 0.000000 0.032298 0.000000 0.000000
# 5 0.000000 0.000000 0.000000 0.000000 0.032460 0.000000
# 6 0.000000 0.000000 0.000000 0.000000 0.000000 0.039535
#
#
# Mechanical properties :
#
#
# Convention : Reuss Voigt Hill
#
# Bulk Modulus (GPa) = 42.11017 48.18743 45.14880
# Shear Modulus (GPa) = 23.65741 25.48070 24.56905
#
# Velocity S-wave (km/s) = 3.35923 3.48628 3.42334
# Velocity P-wave (km/s) = 5.92724 6.26024 6.09602
#
# Compressibility (1/GPa) = 0.02374723
#
# Stress axis : x y z
#
# Youngs Moduli (GPa) = 61.58398 39.30133 50.60261
#
# Poissons Ratio (x) = 0.34720 0.34356
# Poissons Ratio (y) = 0.54405 0.16318
# Poissons Ratio (z) = 0.41812 0.12674
#
# Static dielectric constant tensor:
#      x y z
#    x 3.862990 0.000000 0.000000 
#    y 0.000000 3.592020 0.000000 
#    z 0.000000 0.000000 3.747430 
# 
# 
# High freq. dielectric constant tensor:
#      x y z
#    x 1.823490 0.000000 0.000000 
#    y 0.000000 1.807110 0.000000 
#    z 0.000000 0.000000 1.810840 
# 
# From -- ./inp_files/24299.got.cif
#   From: 2010.03.12/outbox.cif.g09.slc.cpg/sg60_13_cif.got.tgz:24299.got - 2010.04.10 18:46:24.
