data_PCOD8247946
_publ_section_title
;
Structure prediction by ZEFSAII (Michael W. Deem and Ramdas Pophale) SiO2 
 PCOD8247946
Probable space group: P B C N
;
_chemical_formula_sum "Si O2"
_cell_formula_units_Z 40
_cell_length_a 8.426700
_cell_length_b 22.257696
_cell_length_c 9.807657
_cell_angle_alpha 90.000000
_cell_angle_beta 90.000000
_cell_angle_gamma 90.000000
_cell_volume 1839.513622
_symmetry_space_group_name_H-M "P B C N"
_symmetry_group_IT_number 60
_symmetry_cell_setting 'orthorhombic'
loop_
_space_group_symop_operation_xyz
x,y,z
1/2-x,1/2-y,1/2+z
1/2+x,1/2-y,-z
-x,y,1/2-z
-x,-y,-z
1/2+x,1/2+y,1/2-z
1/2-x,1/2+y,z
x,-y,1/2+z
loop_
_atom_site_type_symbol
_atom_site_label
_atom_site_fract_x
_atom_site_fract_y
_atom_site_fract_z
Si Si1 0.116560 0.996893 0.870791
Si Si2 0.285950 0.189048 0.025894
Si Si3 0.178529 0.613124 0.284603
Si Si4 0.819050 0.120892 0.714937
Si Si5 0.850927 0.315506 0.455422
O O1 0.227507 0.056381 0.852071
O O2 0.000000 0.985003 0.750000
O O3 0.235928 0.941088 0.862625
O O4 0.000000 0.000000 0.000000
O O5 0.253138 0.139168 0.142719
O O6 0.459860 0.189906 0.957853
O O7 0.177192 0.172871 0.897801
O O8 0.235524 0.253507 0.084007
O O9 0.195087 0.667384 0.391154
O O10 0.000000 0.593109 0.250000
O O11 0.000000 0.111917 0.750000
O O12 0.705860 0.135502 0.843560
#
# Coordination Sequence:
#
# PCOD8247946 Si02
#       5
#     8   8   8   8   8
#     4  11  23  41  64  92 123 163 210 257 308 367
#     4  11  23  40  63  91 124 164 207 254 313 372
#     4  10  23  41  62  90 126 162 204 256 313 370
#     4  11  23  40  61  89 124 162 207 258 307 368
#     4  11  23  40  62  92 124 163 207 257 312 373
#
# _framework density 21.744879000000001
#
# number of rings (size 3 to 8) (size 9 to 14) (size 15 to 20)
#    0.000    1.200    0.000    6.600    0.000    4.800 
#    0.000    5.000    0.000    0.000    0.000    0.000 
#    0.000    0.000    0.000    0.000    0.000    0.000 
#
# Total GULP energy -495673.602343 kJ/mol
# GULP energy per Si atom -12391.840059 kJ/mol
# Density = 2.169539 g / cm^3
# Si number density = 21.744879 Si / 1000 Ang^3
#
#
#
# Elastic Constant Matrix: (Units=GPa)
#
#
# Indices 1 2 3 4 5 6 
#
# 1 59.1873 55.4793 40.9384 0.0000 0.0000 0.0000
# 2 55.4793 124.9792 35.3581 0.0000 0.0000 0.0000
# 3 40.9384 35.3581 124.7718 0.0000 0.0000 0.0000
# 4 0.0000 0.0000 0.0000 31.0611 0.0000 0.0000
# 5 0.0000 0.0000 0.0000 0.0000 34.3806 0.0000
# 6 0.0000 0.0000 0.0000 0.0000 0.0000 28.6735
#
#
#
# Elastic Compliance Matrix: (Units=1/GPa)
#
#
# Indices 1 2 3 4 5 6 
#
# 1 0.034474 -0.013158 -0.007582 0.000000 0.000000 0.000000
# 2 -0.013158 0.013721 0.000429 0.000000 0.000000 0.000000
# 3 -0.007582 0.000429 0.010381 0.000000 0.000000 0.000000
# 4 0.000000 0.000000 0.000000 0.032195 0.000000 0.000000
# 5 0.000000 0.000000 0.000000 0.000000 0.029086 0.000000
# 6 0.000000 0.000000 0.000000 0.000000 0.000000 0.034875
#
#
# Mechanical properties :
#
#
# Convention : Reuss Voigt Hill
#
# Bulk Modulus (GPa) = 55.70165 63.60999 59.65582
# Shear Modulus (GPa) = 24.83378 30.63387 27.73383
#
# Velocity S-wave (km/s) = 3.38309 3.75745 3.57517
# Velocity P-wave (km/s) = 6.39781 6.93837 6.67357
#
# Compressibility (1/GPa) = 0.01795279
#
# Stress axis : x y z
#
# Youngs Moduli (GPa) = 29.00760 72.88129 96.33105
#
# Poissons Ratio (x) = 0.95898 0.73041
# Poissons Ratio (y) = 0.38168 -0.04132
# Poissons Ratio (z) = 0.21994 -0.03126
#
# Static dielectric constant tensor:
#      x y z
#    x 3.855230 0.000000 0.000000 
#    y 0.000000 4.260830 0.000000 
#    z 0.000000 0.000000 3.976170 
# 
# 
# High freq. dielectric constant tensor:
#      x y z
#    x 1.846490 0.000000 0.000000 
#    y 0.000000 1.861400 0.000000 
#    z 0.000000 0.000000 1.873900 
# 
# From -- ./inp_files/3812.got.cif
#   From: 2010.03.12/outbox.cif.g09.slc.cpg/sg60_2_cif.got.tgz:3812.got - 2010.04.10 18:46:24.
