data_PCOD8247528
_publ_section_title
;
Structure prediction by ZEFSAII (Michael W. Deem and Ramdas Pophale) SiO2 
 PCOD8247528
Probable space group: P B C N
;
_chemical_formula_sum "Si O2"
_cell_formula_units_Z 48
_cell_length_a 10.408390
_cell_length_b 12.327547
_cell_length_c 16.791063
_cell_angle_alpha 90.000000
_cell_angle_beta 90.000000
_cell_angle_gamma 90.000000
_cell_volume 2154.459899
_symmetry_space_group_name_H-M "P B C N"
_symmetry_group_IT_number 60
_symmetry_cell_setting 'orthorhombic'
loop_
_space_group_symop_operation_xyz
x,y,z
1/2-x,1/2-y,1/2+z
1/2+x,1/2-y,-z
-x,y,1/2-z
-x,-y,-z
1/2+x,1/2+y,1/2-z
1/2-x,1/2+y,z
x,-y,1/2+z
loop_
_atom_site_type_symbol
_atom_site_label
_atom_site_fract_x
_atom_site_fract_y
_atom_site_fract_z
Si Si1 0.687431 0.512892 0.938885
Si Si2 0.855707 0.972656 0.760434
Si Si3 0.131557 0.371045 0.946162
Si Si4 0.022547 0.841144 0.501837
Si Si5 0.398406 0.043231 0.818255
Si Si6 0.632868 0.287719 0.646985
O O1 0.706506 0.480450 0.847552
O O2 0.658147 0.405597 0.992738
O O3 0.811827 0.570959 0.975274
O O4 0.568828 0.596809 0.940365
O O5 0.752318 0.032502 0.704237
O O6 0.000000 0.023857 0.750000
O O7 0.862725 0.846448 0.733045
O O8 0.067434 0.462533 0.890972
O O9 0.230743 0.297215 0.896719
O O10 0.027302 0.284165 0.975937
O O11 0.968282 0.851878 0.591842
O O12 0.500000 0.012813 0.750000
O O13 0.416686 0.166290 0.844372
#
# Coordination Sequence:
#
# PCOD8247528 Si02
#       6
#     8   8   8   8   8   8
#     4  10  22  40  69  98 125 176 236 280 327 418
#     4  11  23  43  68  98 128 175 234 273 333 414
#     4  10  23  42  64 100 133 177 227 292 342 406
#     4  10  21  41  67  92 130 172 231 273 339 405
#     4  11  26  45  63  98 143 177 216 288 358 402
#     4  10  22  42  66  92 134 181 219 278 345 410
#
# _framework density 22.279366
#
# number of rings (size 3 to 8) (size 9 to 14) (size 15 to 20)
#    0.000    1.667    1.667    1.500    7.000    0.667 
#   12.000    0.000    0.000    0.000    0.000    0.000 
#    0.000    0.000    0.000    0.000    0.000    0.000 
#
# Total GULP energy -595129.829769 kJ/mol
# GULP energy per Si atom -12398.538120 kJ/mol
# Density = 2.222866 g / cm^3
# Si number density = 22.279366 Si / 1000 Ang^3
#
#
#
# Elastic Constant Matrix: (Units=GPa)
#
#
# Indices 1 2 3 4 5 6 
#
# 1 55.8189 13.5857 10.0405 0.0000 0.0000 0.0000
# 2 13.5857 132.6941 53.9172 0.0000 0.0000 0.0000
# 3 10.0405 53.9172 128.1479 0.0000 0.0000 0.0000
# 4 0.0000 0.0000 0.0000 35.2897 0.0000 0.0000
# 5 0.0000 0.0000 0.0000 0.0000 25.2172 0.0000
# 6 0.0000 0.0000 0.0000 0.0000 0.0000 31.0905
#
#
#
# Elastic Compliance Matrix: (Units=1/GPa)
#
#
# Indices 1 2 3 4 5 6 
#
# 1 0.018438 -0.001569 -0.000785 0.000000 0.000000 0.000000
# 2 -0.001569 0.009224 -0.003758 0.000000 0.000000 0.000000
# 3 -0.000785 -0.003758 0.009446 0.000000 0.000000 0.000000
# 4 0.000000 0.000000 0.000000 0.028337 0.000000 0.000000
# 5 0.000000 0.000000 0.000000 0.000000 0.039655 0.000000
# 6 0.000000 0.000000 0.000000 0.000000 0.000000 0.032164
#
#
# Mechanical properties :
#
#
# Convention : Reuss Voigt Hill
#
# Bulk Modulus (GPa) = 40.18473 52.41642 46.30058
# Shear Modulus (GPa) = 31.68929 34.26064 32.97496
#
# Velocity S-wave (km/s) = 3.77551 3.92570 3.85134
# Velocity P-wave (km/s) = 6.08949 6.64275 6.37213
#
# Compressibility (1/GPa) = 0.02488508
#
# Stress axis : x y z
#
# Youngs Moduli (GPa) = 54.23564 108.41642 105.86441
#
# Poissons Ratio (x) = 0.17010 0.08305
# Poissons Ratio (y) = 0.08510 0.39782
# Poissons Ratio (z) = 0.04255 0.40741
#
# Static dielectric constant tensor:
#      x y z
#    x 3.886100 0.000000 0.000000 
#    y 0.000000 3.875660 0.000000 
#    z 0.000000 0.000000 3.956080 
# 
# 
# High freq. dielectric constant tensor:
#      x y z
#    x 1.866460 0.000000 0.000000 
#    y 0.000000 1.875400 0.000000 
#    z 0.000000 0.000000 1.881540 
# 
# From -- ./inp_files/19994.got.cif
#   From: 2010.03.12/outbox.cif.g09.slc.cpg/sg60_10_cif.got.tgz:19994.got - 2010.04.10 18:46:24.
