data_PCOD8247406
_publ_section_title
;
Structure prediction by ZEFSAII (Michael W. Deem and Ramdas Pophale) SiO2 
 PCOD8247406
Probable space group: P B C N
;
_chemical_formula_sum "Si O2"
_cell_formula_units_Z 44
_cell_length_a 13.281252
_cell_length_b 17.219118
_cell_length_c 8.410170
_cell_angle_alpha 90.000000
_cell_angle_beta 90.000000
_cell_angle_gamma 90.000000
_cell_volume 1923.333933
_symmetry_space_group_name_H-M "P B C N"
_symmetry_group_IT_number 60
_symmetry_cell_setting 'orthorhombic'
loop_
_space_group_symop_operation_xyz
x,y,z
1/2-x,1/2-y,1/2+z
1/2+x,1/2-y,-z
-x,y,1/2-z
-x,-y,-z
1/2+x,1/2+y,1/2-z
1/2-x,1/2+y,z
x,-y,1/2+z
loop_
_atom_site_type_symbol
_atom_site_label
_atom_site_fract_x
_atom_site_fract_y
_atom_site_fract_z
Si Si1 0.943905 0.877765 0.911232
Si Si2 0.822677 0.267774 0.750963
Si Si3 0.871333 0.713189 0.903750
Si Si4 0.000000 0.852156 0.250000
Si Si5 0.709387 0.084279 0.437423
Si Si6 0.891084 0.445814 0.267414
O O1 0.951908 0.783521 0.907225
O O2 0.828799 0.905287 0.915491
O O3 0.000000 0.909975 0.750000
O O4 0.991307 0.903242 0.084643
O O5 0.713551 0.231541 0.775291
O O6 0.818116 0.297420 0.572182
O O7 0.846971 0.341999 0.860701
O O8 0.903239 0.200813 0.777180
O O9 0.922183 0.631007 0.866412
O O10 0.671697 0.080334 0.615864
O O11 0.682487 0.002974 0.358595
O O12 0.000000 0.488087 0.250000
#
# Coordination Sequence:
#
# PCOD8247406 Si02
#       6
#     8   8   8   4   8   8
#     4  10  23  44  72 102 137 177 231 288 343 411
#     4  10  22  37  65  95 137 167 224 281 333 403
#     4  10  21  39  63 101 130 176 216 283 340 405
#     4  10  22  36  68 102 130 172 228 280 340 404
#     4  11  26  44  63 101 135 180 228 278 349 412
#     4  12  25  42  69  93 139 179 226 278 352 418
#
# _framework density 22.876940999999999
#
# number of rings (size 3 to 8) (size 9 to 14) (size 15 to 20)
#    0.000    1.455    0.000    5.455   14.000    0.000 
#    3.273    0.909    2.000    0.000    0.000    0.000 
#    0.000    0.000    0.000    0.000    0.000    0.000 
#
# Total GULP energy -545362.384305 kJ/mol
# GULP energy per Si atom -12394.599643 kJ/mol
# Density = 2.282487 g / cm^3
# Si number density = 22.876941 Si / 1000 Ang^3
#
#
#
# Elastic Constant Matrix: (Units=GPa)
#
#
# Indices 1 2 3 4 5 6 
#
# 1 86.1940 2.8389 39.2531 0.0000 0.0000 0.0000
# 2 2.8389 58.7503 16.9609 0.0000 0.0000 0.0000
# 3 39.2531 16.9609 149.9610 0.0000 0.0000 0.0000
# 4 0.0000 0.0000 0.0000 23.3144 0.0000 0.0000
# 5 0.0000 0.0000 0.0000 0.0000 37.4201 0.0000
# 6 0.0000 0.0000 0.0000 0.0000 0.0000 4.2206
#
#
#
# Elastic Compliance Matrix: (Units=1/GPa)
#
#
# Indices 1 2 3 4 5 6 
#
# 1 0.013180 0.000371 -0.003492 0.000000 0.000000 0.000000
# 2 0.000371 0.017606 -0.002088 0.000000 0.000000 0.000000
# 3 -0.003492 -0.002088 0.007819 0.000000 0.000000 0.000000
# 4 0.000000 0.000000 0.000000 0.042892 0.000000 0.000000
# 5 0.000000 0.000000 0.000000 0.000000 0.026724 0.000000
# 6 0.000000 0.000000 0.000000 0.000000 0.000000 0.236932
#
#
# Mechanical properties :
#
#
# Convention : Reuss Voigt Hill
#
# Bulk Modulus (GPa) = 35.47820 45.89013 40.68416
# Shear Modulus (GPa) = 13.69994 28.71453 21.20724
#
# Velocity S-wave (km/s) = 2.44980 3.54669 3.04799
# Velocity P-wave (km/s) = 4.85222 6.07249 5.49632
#
# Compressibility (1/GPa) = 0.02818632
#
# Stress axis : x y z
#
# Youngs Moduli (GPa) = 75.87423 56.79821 127.89985
#
# Poissons Ratio (x) = -0.02108 0.44661
# Poissons Ratio (y) = -0.02817 0.26711
# Poissons Ratio (z) = 0.26494 0.11862
#
# Static dielectric constant tensor:
#      x y z
#    x 9.789240 0.000000 0.000000 
#    y 0.000000 4.729290 0.000000 
#    z 0.000000 0.000000 4.582330 
# 
# 
# High freq. dielectric constant tensor:
#      x y z
#    x 1.900090 0.000000 0.000000 
#    y 0.000000 1.888740 0.000000 
#    z 0.000000 0.000000 1.924400 
# 
# From -- ./inp_files/5836.got.cif
#   From: 2010.03.12/outbox.cif.g09.slc.cpg/sg60_3_cif.got.tgz:5836.got - 2010.04.10 18:46:24.
