data_PCOD8248327
_publ_section_title
;
Structure prediction by ZEFSAII (Michael W. Deem and Ramdas Pophale) SiO2 
 PCOD8248327
Probable space group: P B C N
;
_chemical_formula_sum "Si O2"
_cell_formula_units_Z 48
_cell_length_a 18.533600
_cell_length_b 13.335680
_cell_length_c 8.256858
_cell_angle_alpha 90.000000
_cell_angle_beta 90.000000
_cell_angle_gamma 90.000000
_cell_volume 2040.749821
_symmetry_space_group_name_H-M "P B C N"
_symmetry_group_IT_number 60
_symmetry_cell_setting 'orthorhombic'
loop_
_space_group_symop_operation_xyz
x,y,z
1/2-x,1/2-y,1/2+z
1/2+x,1/2-y,-z
-x,y,1/2-z
-x,-y,-z
1/2+x,1/2+y,1/2-z
1/2-x,1/2+y,z
x,-y,1/2+z
loop_
_atom_site_type_symbol
_atom_site_label
_atom_site_fract_x
_atom_site_fract_y
_atom_site_fract_z
Si Si1 0.419195 0.244368 0.723469
Si Si2 0.381430 0.956244 0.092145
Si Si3 0.720120 0.534819 0.783739
Si Si4 0.581419 0.144737 0.243194
Si Si5 0.823533 0.786639 0.080866
Si Si6 0.810300 0.852143 0.574749
O O1 0.500000 0.284930 0.750000
O O2 0.420347 0.123680 0.710534
O O3 0.382510 0.292221 0.562653
O O4 0.375312 0.277617 0.882484
O O5 0.297571 0.955692 0.134296
O O6 0.411122 0.069496 0.105674
O O7 0.396207 0.924235 0.909156
O O8 0.709580 0.605255 0.624867
O O9 0.705205 0.420566 0.734184
O O10 0.666830 0.576445 0.924428
O O11 0.500000 0.186016 0.250000
O O12 0.635837 0.239701 0.240405
O O13 0.759392 0.713276 0.025572
#
# Coordination Sequence:
#
# PCOD8248327 Si02
#       6
#     8   8   8   8   8   8
#     4  11  25  45  67 100 139 178 224 283 348 405
#     4  11  21  40  63  95 135 175 218 276 336 395
#     4  12  23  41  71 101 128 173 234 286 325 401
#     4  11  23  38  61  98 139 173 215 269 340 409
#     4  11  23  44  67  98 132 178 231 272 339 401
#     4  12  23  44  68  99 132 176 228 281 337 401
#
# _framework density 23.520765999999998
#
# number of rings (size 3 to 8) (size 9 to 14) (size 15 to 20)
#    0.000    0.667    6.667    2.000    0.000    5.333 
#    0.000    4.167    0.000    0.000    0.000    0.000 
#    0.000    0.000    0.000    0.000    0.000    0.000 
#
# Total GULP energy -595066.328303 kJ/mol
# GULP energy per Si atom -12397.215173 kJ/mol
# Density = 2.346723 g / cm^3
# Si number density = 23.520766 Si / 1000 Ang^3
#
#
#
# Elastic Constant Matrix: (Units=GPa)
#
#
# Indices 1 2 3 4 5 6 
#
# 1 103.6886 15.5361 3.3173 0.0000 0.0000 0.0000
# 2 15.5361 54.2679 -15.9570 0.0000 0.0000 0.0000
# 3 3.3173 -15.9570 43.2203 0.0000 0.0000 0.0000
# 4 0.0000 0.0000 0.0000 33.4783 0.0000 0.0000
# 5 0.0000 0.0000 0.0000 0.0000 31.7429 0.0000
# 6 0.0000 0.0000 0.0000 0.0000 0.0000 18.4976
#
#
#
# Elastic Compliance Matrix: (Units=1/GPa)
#
#
# Indices 1 2 3 4 5 6 
#
# 1 0.010243 -0.003549 -0.002096 0.000000 0.000000 0.000000
# 2 -0.003549 0.021901 0.008358 0.000000 0.000000 0.000000
# 3 -0.002096 0.008358 0.026384 0.000000 0.000000 0.000000
# 4 0.000000 0.000000 0.000000 0.029870 0.000000 0.000000
# 5 0.000000 0.000000 0.000000 0.000000 0.031503 0.000000
# 6 0.000000 0.000000 0.000000 0.000000 0.000000 0.054061
#
#
# Mechanical properties :
#
#
# Convention : Reuss Voigt Hill
#
# Bulk Modulus (GPa) = 15.63637 22.99664 19.31650
# Shear Modulus (GPa) = 26.33599 29.96244 28.14922
#
# Velocity S-wave (km/s) = 3.34981 3.57301 3.46321
# Velocity P-wave (km/s) = 4.65016 5.17882 4.92159
#
# Compressibility (1/GPa) = 0.06395346
#
# Stress axis : x y z
#
# Youngs Moduli (GPa) = 97.62688 45.66055 37.90177
#
# Poissons Ratio (x) = 0.16204 0.07946
# Poissons Ratio (y) = 0.34647 -0.31679
# Poissons Ratio (z) = 0.20467 -0.38164
#
# Static dielectric constant tensor:
#      x y z
#    x 4.088480 0.000000 0.000000 
#    y 0.000000 4.391480 0.000000 
#    z 0.000000 0.000000 4.282730 
# 
# 
# High freq. dielectric constant tensor:
#      x y z
#    x 1.910970 0.000000 0.000000 
#    y 0.000000 1.929650 0.000000 
#    z 0.000000 0.000000 1.938070 
# 
# From -- ./inp_files/6726.got.cif
#   From: 2010.03.12/outbox.cif.g09.slc.cpg/sg60_4_cif.got.tgz:6726.got - 2010.04.10 18:46:24.
