data_PCOD8248532
_publ_section_title
;
Structure prediction by ZEFSAII (Michael W. Deem and Ramdas Pophale) SiO2 
 PCOD8248532
Probable space group: P B C N
;
_chemical_formula_sum "Si O2"
_cell_formula_units_Z 48
_cell_length_a 8.523388
_cell_length_b 25.784334
_cell_length_c 9.489328
_cell_angle_alpha 90.000000
_cell_angle_beta 90.000000
_cell_angle_gamma 90.000000
_cell_volume 2085.468504
_symmetry_space_group_name_H-M "P B C N"
_symmetry_group_IT_number 60
_symmetry_cell_setting 'orthorhombic'
loop_
_space_group_symop_operation_xyz
x,y,z
1/2-x,1/2-y,1/2+z
1/2+x,1/2-y,-z
-x,y,1/2-z
-x,-y,-z
1/2+x,1/2+y,1/2-z
1/2-x,1/2+y,z
x,-y,1/2+z
loop_
_atom_site_type_symbol
_atom_site_label
_atom_site_fract_x
_atom_site_fract_y
_atom_site_fract_z
Si Si1 0.830062 0.086994 0.789844
Si Si2 0.507583 0.775138 0.082662
Si Si3 0.815761 0.177643 0.001152
Si Si4 0.322512 0.592315 0.263548
Si Si5 0.619011 0.046951 0.016562
Si Si6 0.847191 0.378568 0.018896
O O1 0.722148 0.092814 0.654080
O O2 0.000000 0.064502 0.750000
O O3 0.853243 0.142288 0.866281
O O4 0.747757 0.045170 0.892494
O O5 0.500000 0.771147 0.250000
O O6 0.546861 0.719742 0.015260
O O7 0.641419 0.817033 0.040917
O O8 0.344974 0.791674 0.014638
O O9 0.814071 0.143464 0.141702
O O10 0.500000 0.571404 0.250000
O O11 0.211707 0.547519 0.333613
O O12 0.263097 0.607233 0.110215
O O13 0.524257 0.100845 0.003954
O O14 0.500000 0.000000 0.000000
#
# Coordination Sequence:
#
# PCOD8248532 Si02
#       6
#     8   8   8   8   8   8
#     4  11  24  46  71 107 145 191 239 300 369 436
#     4  12  25  43  63 106 147 194 256 303 351 429
#     4  11  26  42  67 101 149 199 249 293 364 423
#     4  11  25  46  70 108 147 190 239 303 368 440
#     4  11  25  49  76 106 139 191 242 298 371 446
#     4  12  23  44  72 101 145 187 246 305 358 441
#
# _framework density 23.016411000000002
#
# number of rings (size 3 to 8) (size 9 to 14) (size 15 to 20)
#    0.000    0.667    5.000    3.500    7.000    2.667 
#    0.000    5.000    0.000    0.000    0.000    0.000 
#    0.000    0.000    0.000    0.000    0.000    0.000 
#
# Total GULP energy -595444.916369 kJ/mol
# GULP energy per Si atom -12405.102424 kJ/mol
# Density = 2.296402 g / cm^3
# Si number density = 23.016411 Si / 1000 Ang^3
#
#
#
# Elastic Constant Matrix: (Units=GPa)
#
#
# Indices 1 2 3 4 5 6 
#
# 1 138.6128 45.7419 49.0032 0.0000 0.0000 0.0000
# 2 45.7419 95.4467 30.4326 0.0000 0.0000 0.0000
# 3 49.0032 30.4326 143.4868 0.0000 0.0000 0.0000
# 4 0.0000 0.0000 0.0000 16.2269 0.0000 0.0000
# 5 0.0000 0.0000 0.0000 0.0000 50.5824 0.0000
# 6 0.0000 0.0000 0.0000 0.0000 0.0000 41.5167
#
#
#
# Elastic Compliance Matrix: (Units=1/GPa)
#
#
# Indices 1 2 3 4 5 6 
#
# 1 0.009273 -0.003683 -0.002386 0.000000 0.000000 0.000000
# 2 -0.003683 0.012700 -0.001436 0.000000 0.000000 0.000000
# 3 -0.002386 -0.001436 0.008089 0.000000 0.000000 0.000000
# 4 0.000000 0.000000 0.000000 0.061626 0.000000 0.000000
# 5 0.000000 0.000000 0.000000 0.000000 0.019770 0.000000
# 6 0.000000 0.000000 0.000000 0.000000 0.000000 0.024087
#
#
# Mechanical properties :
#
#
# Convention : Reuss Voigt Hill
#
# Bulk Modulus (GPa) = 66.43540 69.76685 68.10112
# Shear Modulus (GPa) = 32.13959 38.48977 35.31468
#
# Velocity S-wave (km/s) = 3.74087 4.09378 3.92130
# Velocity P-wave (km/s) = 6.89825 7.26106 7.08198
#
# Compressibility (1/GPa) = 0.01505222
#
# Stress axis : x y z
#
# Youngs Moduli (GPa) = 107.83649 78.73980 123.63163
#
# Poissons Ratio (x) = 0.29003 0.29495
# Poissons Ratio (y) = 0.39721 0.17749
# Poissons Ratio (z) = 0.25727 0.11304
#
# Static dielectric constant tensor:
#      x y z
#    x 4.450650 0.000000 0.000000 
#    y 0.000000 4.163560 0.000000 
#    z 0.000000 0.000000 4.338100 
# 
# 
# High freq. dielectric constant tensor:
#      x y z
#    x 1.924820 0.000000 0.000000 
#    y 0.000000 1.902040 0.000000 
#    z 0.000000 0.000000 1.920040 
# 
# From -- ./inp_files/4211.got.cif
#   From: 2010.03.12/outbox.cif.g09.slc.cpg/sg60_3_cif.got.tgz:4211.got - 2010.04.10 18:46:24.
