data_PCOD8248459
_publ_section_title
;
Structure prediction by ZEFSAII (Michael W. Deem and Ramdas Pophale) SiO2 
 PCOD8248459
Probable space group: P B C N
;
_chemical_formula_sum "Si O2"
_cell_formula_units_Z 48
_cell_length_a 12.909372
_cell_length_b 8.196711
_cell_length_c 19.847406
_cell_angle_alpha 90.000000
_cell_angle_beta 90.000000
_cell_angle_gamma 90.000000
_cell_volume 2100.141188
_symmetry_space_group_name_H-M "P B C N"
_symmetry_group_IT_number 60
_symmetry_cell_setting 'orthorhombic'
loop_
_space_group_symop_operation_xyz
x,y,z
1/2-x,1/2-y,1/2+z
1/2+x,1/2-y,-z
-x,y,1/2-z
-x,-y,-z
1/2+x,1/2+y,1/2-z
1/2-x,1/2+y,z
x,-y,1/2+z
loop_
_atom_site_type_symbol
_atom_site_label
_atom_site_fract_x
_atom_site_fract_y
_atom_site_fract_z
Si Si1 0.773471 0.119646 0.721520
Si Si2 0.458422 0.531966 0.604609
Si Si3 0.854817 0.876131 0.529513
Si Si4 0.543312 0.825863 0.681937
Si Si5 0.108855 0.181579 0.217527
Si Si6 0.158501 0.466093 0.412388
O O1 0.843052 0.276524 0.706613
O O2 0.689393 0.166777 0.779716
O O3 0.714043 0.100384 0.652624
O O4 0.843199 0.965850 0.739255
O O5 0.377861 0.589855 0.548445
O O6 0.571146 0.490448 0.574702
O O7 0.471653 0.672342 0.661159
O O8 0.408658 0.373552 0.640458
O O9 0.878017 0.685752 0.542326
O O10 0.734759 0.917402 0.544459
O O11 0.500000 0.912942 0.750000
O O12 0.555876 0.939378 0.615319
O O13 0.000000 0.233700 0.250000
#
# Coordination Sequence:
#
# PCOD8248459 Si02
#       6
#     8   8   8   8   8   8
#     4  12  21  39  68  94 125 174 212 272 345 396
#     4  11  23  43  64  91 133 175 222 272 340 394
#     4  11  24  41  66  90 129 185 218 270 326 413
#     4  12  23  41  69  96 132 172 219 285 341 401
#     4  12  23  41  66  98 133 167 219 286 336 398
#     4  12  22  41  66  96 127 171 229 264 337 410
#
# _framework density 22.855606999999999
#
# number of rings (size 3 to 8) (size 9 to 14) (size 15 to 20)
#    0.000    0.333    8.333    1.000    0.000    4.000 
#    0.000    0.000    0.000    0.000    0.000    0.000 
#    0.000    0.000    0.000    0.000    0.000    0.000 
#
# Total GULP energy -595197.714507 kJ/mol
# GULP energy per Si atom -12399.952386 kJ/mol
# Density = 2.280359 g / cm^3
# Si number density = 22.855607 Si / 1000 Ang^3
#
#
#
# Elastic Constant Matrix: (Units=GPa)
#
#
# Indices 1 2 3 4 5 6 
#
# 1 51.8799 21.5679 25.2364 0.0000 0.0000 0.0000
# 2 21.5679 58.1217 4.0439 0.0000 0.0000 0.0000
# 3 25.2364 4.0439 97.8898 0.0000 0.0000 0.0000
# 4 0.0000 0.0000 0.0000 -5.9484 0.0000 0.0000
# 5 0.0000 0.0000 0.0000 0.0000 37.4338 0.0000
# 6 0.0000 0.0000 0.0000 0.0000 0.0000 32.2890
#
#
#
# Elastic Compliance Matrix: (Units=1/GPa)
#
#
# Indices 1 2 3 4 5 6 
#
# 1 0.026244 -0.009294 -0.006382 0.000000 0.000000 0.000000
# 2 -0.009294 0.020547 0.001547 0.000000 0.000000 0.000000
# 3 -0.006382 0.001547 0.011797 0.000000 0.000000 0.000000
# 4 0.000000 0.000000 0.000000 -0.168112 0.000000 0.000000
# 5 0.000000 0.000000 0.000000 0.000000 0.026714 0.000000
# 6 0.000000 0.000000 0.000000 0.000000 0.000000 0.030970
#
#
# Mechanical properties :
#
#
# Convention : Reuss Voigt Hill
#
# Bulk Modulus (GPa) = 32.97134 34.39863 33.68498
# Shear Modulus (GPa) = -371.09289 23.22444 -173.93422
#
# Velocity S-wave (km/s) = -12.75604 3.19115 -8.73307
# Velocity P-wave (km/s) = 14.23018 5.35360 9.32301
#
# Compressibility (1/GPa) = 0.03032937
#
# Stress axis : x y z
#
# Youngs Moduli (GPa) = 38.10452 48.66981 84.76807
#
# Poissons Ratio (x) = 0.45236 0.54097
# Poissons Ratio (y) = 0.35416 -0.13117
# Poissons Ratio (z) = 0.24317 -0.07531
#
# Static dielectric constant tensor:
#      x y z
#    x 5.088540 0.000000 0.000000 
#    y 0.000000 4.148760 0.000000 
#    z 0.000000 0.000000 4.136150 
# 
# 
# High freq. dielectric constant tensor:
#      x y z
#    x 1.899230 0.000000 0.000000 
#    y 0.000000 1.899790 0.000000 
#    z 0.000000 0.000000 1.891500 
# 
# From -- ./inp_files/20529.got.cif
#   From: 2010.03.12/outbox.cif.g09.slc.cpg/sg60_11_cif.got.tgz:20529.got - 2010.04.10 18:46:24.
