data_PCOD8248194
_publ_section_title
;
Structure prediction by ZEFSAII (Michael W. Deem and Ramdas Pophale) SiO2 
 PCOD8248194
Probable space group: P B C N
;
_chemical_formula_sum "Si O2"
_cell_formula_units_Z 48
_cell_length_a 24.559778
_cell_length_b 7.663100
_cell_length_c 10.526382
_cell_angle_alpha 90.000000
_cell_angle_beta 90.000000
_cell_angle_gamma 90.000000
_cell_volume 1981.107564
_symmetry_space_group_name_H-M "P B C N"
_symmetry_group_IT_number 60
_symmetry_cell_setting 'orthorhombic'
loop_
_space_group_symop_operation_xyz
x,y,z
1/2-x,1/2-y,1/2+z
1/2+x,1/2-y,-z
-x,y,1/2-z
-x,-y,-z
1/2+x,1/2+y,1/2-z
1/2-x,1/2+y,z
x,-y,1/2+z
loop_
_atom_site_type_symbol
_atom_site_label
_atom_site_fract_x
_atom_site_fract_y
_atom_site_fract_z
Si Si1 0.352050 0.812586 0.188631
Si Si2 0.471321 0.203237 0.624263
Si Si3 0.756586 0.120796 0.920035
Si Si4 0.196660 0.990556 0.823956
Si Si5 0.147566 0.293648 0.695525
Si Si6 0.028805 0.290393 0.624670
O O1 0.407475 0.746528 0.123241
O O2 0.304772 0.803822 0.080425
O O3 0.338255 0.686298 0.307116
O O4 0.358836 0.008246 0.244275
O O5 0.500000 0.280836 0.750000
O O6 0.499969 0.288541 0.500837
O O7 0.478603 0.996909 0.621940
O O8 0.803175 0.272070 0.907336
O O9 0.760967 0.995508 0.795044
O O10 0.768262 0.011161 0.047751
O O11 0.159077 0.164875 0.815838
O O12 0.092058 0.234746 0.625808
O O13 0.000000 0.212617 0.750000
#
# Coordination Sequence:
#
# PCOD8248194 Si02
#       6
#     8   8   8   8   8   8
#     4  11  22  45  69 102 133 186 218 280 349 399
#     4   9  20  36  64  96 128 168 227 274 326 403
#     4  10  24  47  64 101 140 173 226 281 333 410
#     4  10  25  45  65 102 138 170 229 280 325 419
#     4   9  23  44  68  97 135 178 222 277 341 398
#     4   9  18  39  60  93 131 170 218 276 328 395
#
# _framework density 24.228871000000002
#
# number of rings (size 3 to 8) (size 9 to 14) (size 15 to 20)
#    1.000    1.333    0.000    1.000    2.333    4.000 
#   21.000    1.667    0.000    0.000    0.000    0.000 
#    0.000    0.000    0.000    0.000    0.000    0.000 
#
# Total GULP energy -594853.731973 kJ/mol
# GULP energy per Si atom -12392.786083 kJ/mol
# Density = 2.417372 g / cm^3
# Si number density = 24.228871 Si / 1000 Ang^3
#
#
#
# Elastic Constant Matrix: (Units=GPa)
#
#
# Indices 1 2 3 4 5 6 
#
# 1 211.4795 18.7992 70.4700 0.0000 0.0000 0.0000
# 2 18.7992 75.1149 12.0297 0.0000 0.0000 0.0000
# 3 70.4700 12.0297 160.8723 0.0000 0.0000 0.0000
# 4 0.0000 0.0000 0.0000 7.7916 0.0000 0.0000
# 5 0.0000 0.0000 0.0000 0.0000 33.3515 0.0000
# 6 0.0000 0.0000 0.0000 0.0000 0.0000 14.1481
#
#
#
# Elastic Compliance Matrix: (Units=1/GPa)
#
#
# Indices 1 2 3 4 5 6 
#
# 1 0.005613 -0.001023 -0.002382 0.000000 0.000000 0.000000
# 2 -0.001023 0.013661 -0.000573 0.000000 0.000000 0.000000
# 3 -0.002382 -0.000573 0.007303 0.000000 0.000000 0.000000
# 4 0.000000 0.000000 0.000000 0.128343 0.000000 0.000000
# 5 0.000000 0.000000 0.000000 0.000000 0.029984 0.000000
# 6 0.000000 0.000000 0.000000 0.000000 0.000000 0.070681
#
#
# Mechanical properties :
#
#
# Convention : Reuss Voigt Hill
#
# Bulk Modulus (GPa) = 53.70909 72.22940 62.96925
# Shear Modulus (GPa) = 18.53576 34.13610 26.33593
#
# Velocity S-wave (km/s) = 2.76891 3.75761 3.30049
# Velocity P-wave (km/s) = 5.69544 6.97869 6.36947
#
# Compressibility (1/GPa) = 0.01861882
#
# Stress axis : x y z
#
# Youngs Moduli (GPa) = 178.14375 73.20187 136.93741
#
# Poissons Ratio (x) = 0.07491 0.32625
# Poissons Ratio (y) = 0.18230 0.07850
# Poissons Ratio (z) = 0.42442 0.04196
#
# Static dielectric constant tensor:
#      x y z
#    x 4.479680 0.000000 0.000000 
#    y 0.000000 4.009990 0.000000 
#    z 0.000000 0.000000 4.069540 
# 
# 
# High freq. dielectric constant tensor:
#      x y z
#    x 1.969670 0.000000 0.000000 
#    y 0.000000 1.945220 0.000000 
#    z 0.000000 0.000000 1.934380 
# 
# From -- ./inp_files/13241.got.cif
#   From: 2010.03.12/outbox.cif.g09.slc.cpg/sg60_7_cif.got.tgz:13241.got - 2010.04.10 18:46:24.
