data_PCOD8248326
_publ_section_title
;
Structure prediction by ZEFSAII (Michael W. Deem and Ramdas Pophale) SiO2 
 PCOD8248326
Probable space group: P B C N
;
_chemical_formula_sum "Si O2"
_cell_formula_units_Z 56
_cell_length_a 14.624173
_cell_length_b 20.450834
_cell_length_c 9.747261
_cell_angle_alpha 90.000000
_cell_angle_beta 90.000000
_cell_angle_gamma 90.000000
_cell_volume 2915.177040
_symmetry_space_group_name_H-M "P B C N"
_symmetry_group_IT_number 60
_symmetry_cell_setting 'orthorhombic'
loop_
_space_group_symop_operation_xyz
x,y,z
1/2-x,1/2-y,1/2+z
1/2+x,1/2-y,-z
-x,y,1/2-z
-x,-y,-z
1/2+x,1/2+y,1/2-z
1/2-x,1/2+y,z
x,-y,1/2+z
loop_
_atom_site_type_symbol
_atom_site_label
_atom_site_fract_x
_atom_site_fract_y
_atom_site_fract_z
Si Si1 0.000000 0.216388 0.750000
Si Si2 0.807940 0.867235 0.595555
Si Si3 0.000000 0.328218 0.250000
Si Si4 0.592697 0.241363 0.501392
Si Si5 0.565310 0.490121 0.627096
Si Si6 0.276801 0.306340 0.613115
Si Si7 0.684552 0.844462 0.353750
Si Si8 0.342201 0.628075 0.849112
O O1 0.985919 0.260490 0.885027
O O2 0.909294 0.173645 0.737205
O O3 0.875393 0.815356 0.526361
O O4 0.859749 0.935301 0.600364
O O5 0.773233 0.845081 0.744266
O O6 0.719839 0.875361 0.496249
O O7 0.919858 0.369738 0.325864
O O8 0.052297 0.283452 0.357909
O O9 0.675664 0.196532 0.449801
O O10 0.500000 0.468242 0.750000
O O11 0.500000 0.500000 0.500000
O O12 0.621239 0.555081 0.659951
O O13 0.317945 0.234511 0.636643
O O14 0.338575 0.347117 0.506149
O O15 0.744540 0.867669 0.224701
#
# Coordination Sequence:
#
# PCOD8248326 Si02
#       8
#     4   8   4   8   8   8   8   8
#     4  12  22  36  61  90 125 166 198 256 312 384
#     4  11  23  40  59  90 131 165 204 260 314 375
#     4  12  22  40  63  92 119 164 214 258 322 376
#     4  11  24  36  62  92 122 166 206 255 318 377
#     4  12  25  41  62  95 127 173 212 242 304 389
#     4  11  21  40  58  89 127 165 204 260 316 375
#     4  11  22  40  62  88 124 164 209 260 321 374
#     4  12  22  41  60  90 133 164 206 254 312 371
#
# _framework density 19.209811999999999
#
# number of rings (size 3 to 8) (size 9 to 14) (size 15 to 20)
#    0.000    0.571    6.429    4.286    3.000    0.000 
#    0.000    0.000    0.000    0.857    0.000    0.000 
#    0.000    0.000    0.000    0.000    0.000    0.000 
#
# Total GULP energy -694502.666494 kJ/mol
# GULP energy per Si atom -12401.833330 kJ/mol
# Density = 1.916609 g / cm^3
# Si number density = 19.209812 Si / 1000 Ang^3
#
#
#
# Elastic Constant Matrix: (Units=GPa)
#
#
# Indices 1 2 3 4 5 6 
#
# 1 124.1781 25.2379 47.1050 0.0000 0.0000 0.0000
# 2 25.2379 55.5098 22.6707 0.0000 0.0000 0.0000
# 3 47.1050 22.6707 141.6084 0.0000 0.0000 0.0000
# 4 0.0000 0.0000 0.0000 -9.0734 0.0000 0.0000
# 5 0.0000 0.0000 0.0000 0.0000 52.1477 0.0000
# 6 0.0000 0.0000 0.0000 0.0000 0.0000 20.6744
#
#
#
# Elastic Compliance Matrix: (Units=1/GPa)
#
#
# Indices 1 2 3 4 5 6 
#
# 1 0.009759 -0.003329 -0.002713 0.000000 0.000000 0.000000
# 2 -0.003329 0.020411 -0.002160 0.000000 0.000000 0.000000
# 3 -0.002713 -0.002160 0.008310 0.000000 0.000000 0.000000
# 4 0.000000 0.000000 0.000000 -0.110212 0.000000 0.000000
# 5 0.000000 0.000000 0.000000 0.000000 0.019176 0.000000
# 6 0.000000 0.000000 0.000000 0.000000 0.000000 0.048369
#
#
# Mechanical properties :
#
#
# Convention : Reuss Voigt Hill
#
# Bulk Modulus (GPa) = 45.30064 56.81372 51.05718
# Shear Modulus (GPa) = 255.42555 27.83527 141.63041
#
# Velocity S-wave (km/s) = 11.54361 3.81072 8.59583
# Velocity P-wave (km/s) = 14.18825 7.00012 11.18723
#
# Compressibility (1/GPa) = 0.02207475
#
# Stress axis : x y z
#
# Youngs Moduli (GPa) = 102.47257 48.99428 120.33510
#
# Poissons Ratio (x) = 0.16309 0.32650
# Poissons Ratio (y) = 0.34110 0.25996
# Poissons Ratio (z) = 0.27803 0.10584
#
# Static dielectric constant tensor:
#      x y z
#    x 3.769230 0.000000 0.000000 
#    y 0.000000 3.266730 0.000000 
#    z 0.000000 0.000000 3.890120 
# 
# 
# High freq. dielectric constant tensor:
#      x y z
#    x 1.753100 0.000000 0.000000 
#    y 0.000000 1.702790 0.000000 
#    z 0.000000 0.000000 1.779630 
# 
# From -- ./inp_files/6193.got.cif
#   From: 2010.03.12/outbox.cif.g09.slc.cpg/sg60_4_cif.got.tgz:6193.got - 2010.04.10 18:46:24.
