data_PCOD8248316
_publ_section_title
;
Structure prediction by ZEFSAII (Michael W. Deem and Ramdas Pophale) SiO2 
 PCOD8248316
Probable space group: P B C N
;
_chemical_formula_sum "Si O2"
_cell_formula_units_Z 44
_cell_length_a 13.931482
_cell_length_b 18.649966
_cell_length_c 7.941822
_cell_angle_alpha 90.000000
_cell_angle_beta 90.000000
_cell_angle_gamma 90.000000
_cell_volume 2063.457420
_symmetry_space_group_name_H-M "P B C N"
_symmetry_group_IT_number 60
_symmetry_cell_setting 'orthorhombic'
loop_
_space_group_symop_operation_xyz
x,y,z
1/2-x,1/2-y,1/2+z
1/2+x,1/2-y,-z
-x,y,1/2-z
-x,-y,-z
1/2+x,1/2+y,1/2-z
1/2-x,1/2+y,z
x,-y,1/2+z
loop_
_atom_site_type_symbol
_atom_site_label
_atom_site_fract_x
_atom_site_fract_y
_atom_site_fract_z
Si Si1 0.708636 0.063429 0.368235
Si Si2 0.500000 0.274493 0.250000
Si Si3 0.677623 0.907754 0.491770
Si Si4 0.962137 0.651316 0.502282
Si Si5 0.327471 0.788736 0.241604
Si Si6 0.333865 0.676747 0.971409
O O1 0.725015 0.084586 0.174358
O O2 0.606469 0.091766 0.426038
O O3 0.794913 0.097473 0.480953
O O4 0.701570 0.978511 0.385414
O O5 0.546322 0.223117 0.390133
O O6 0.576941 0.326391 0.157569
O O7 0.565545 0.885693 0.500257
O O8 0.726047 0.843315 0.387978
O O9 0.924004 0.673623 0.687180
O O10 0.250750 0.774674 0.388968
O O11 0.360937 0.717193 0.144843
#
# Coordination Sequence:
#
# PCOD8248316 Si02
#       6
#     8   4   8   8   8   8
#     4  11  23  38  60  90 134 173 215 263 343 402
#     4  12  22  40  62  92 132 166 232 270 322 380
#     4  12  22  39  61  94 130 171 215 274 330 415
#     4  11  21  37  60  96 126 171 208 271 335 406
#     4  11  22  39  62  89 131 170 222 266 345 391
#     4  11  23  39  61  91 127 181 220 278 318 393
#
# _framework density 21.323435
#
# number of rings (size 3 to 8) (size 9 to 14) (size 15 to 20)
#    0.000    0.727    3.636    6.545    0.000    1.455 
#    0.000    0.000    0.000    4.364    0.000    0.000 
#    0.000    0.000    0.000    0.000    0.000    0.000 
#
# Total GULP energy -545354.361783 kJ/mol
# GULP energy per Si atom -12394.417313 kJ/mol
# Density = 2.127490 g / cm^3
# Si number density = 21.323435 Si / 1000 Ang^3
#
#
#
# Elastic Constant Matrix: (Units=GPa)
#
#
# Indices 1 2 3 4 5 6 
#
# 1 62.7497 24.7001 25.5284 0.0000 0.0000 0.0000
# 2 24.7001 84.2397 24.9309 0.0000 0.0000 0.0000
# 3 25.5284 24.9309 97.1412 0.0000 0.0000 0.0000
# 4 0.0000 0.0000 0.0000 52.1491 0.0000 0.0000
# 5 0.0000 0.0000 0.0000 0.0000 29.7960 0.0000
# 6 0.0000 0.0000 0.0000 0.0000 0.0000 36.0077
#
#
#
# Elastic Compliance Matrix: (Units=1/GPa)
#
#
# Indices 1 2 3 4 5 6 
#
# 1 0.019301 -0.004500 -0.003917 0.000000 0.000000 0.000000
# 2 -0.004500 0.013896 -0.002384 0.000000 0.000000 0.000000
# 3 -0.003917 -0.002384 0.011936 0.000000 0.000000 0.000000
# 4 0.000000 0.000000 0.000000 0.019176 0.000000 0.000000
# 5 0.000000 0.000000 0.000000 0.000000 0.033562 0.000000
# 6 0.000000 0.000000 0.000000 0.000000 0.000000 0.027772
#
#
# Mechanical properties :
#
#
# Convention : Reuss Voigt Hill
#
# Bulk Modulus (GPa) = 42.49819 43.82772 43.16295
# Shear Modulus (GPa) = 32.23979 34.85529 33.54754
#
# Velocity S-wave (km/s) = 3.89259 4.04741 3.97075
# Velocity P-wave (km/s) = 6.33850 6.51463 6.42717
#
# Compressibility (1/GPa) = 0.02353041
#
# Stress axis : x y z
#
# Youngs Moduli (GPa) = 51.80967 71.96413 83.78322
#
# Poissons Ratio (x) = 0.32384 0.32822
# Poissons Ratio (y) = 0.23315 0.19972
# Poissons Ratio (z) = 0.20296 0.17154
#
# Static dielectric constant tensor:
#      x y z
#    x 3.738710 0.000000 0.000000 
#    y 0.000000 3.664720 0.000000 
#    z 0.000000 0.000000 5.215400 
# 
# 
# High freq. dielectric constant tensor:
#      x y z
#    x 1.808370 0.000000 0.000000 
#    y 0.000000 1.814450 0.000000 
#    z 0.000000 0.000000 1.868400 
# 
# From -- ./inp_files/5821.got.cif
#   From: 2010.03.12/outbox.cif.g09.slc.cpg/sg60_3_cif.got.tgz:5821.got - 2010.04.10 18:46:24.
