data_PCOD8248653
_publ_section_title
;
Structure prediction by ZEFSAII (Michael W. Deem and Ramdas Pophale) SiO2 
 PCOD8248653
Probable space group: P B C N
;
_chemical_formula_sum "Si O2"
_cell_formula_units_Z 32
_cell_length_a 10.658892
_cell_length_b 8.134839
_cell_length_c 13.571749
_cell_angle_alpha 90.000000
_cell_angle_beta 90.000000
_cell_angle_gamma 90.000000
_cell_volume 1176.784238
_symmetry_space_group_name_H-M "P B C N"
_symmetry_group_IT_number 60
_symmetry_cell_setting 'orthorhombic'
loop_
_space_group_symop_operation_xyz
x,y,z
1/2-x,1/2-y,1/2+z
1/2+x,1/2-y,-z
-x,y,1/2-z
-x,-y,-z
1/2+x,1/2+y,1/2-z
1/2-x,1/2+y,z
x,-y,1/2+z
loop_
_atom_site_type_symbol
_atom_site_label
_atom_site_fract_x
_atom_site_fract_y
_atom_site_fract_z
Si Si1 0.679519 0.164484 0.888750
Si Si2 0.868004 0.026962 0.266140
Si Si3 0.265045 0.271824 0.904516
Si Si4 0.555262 0.982048 0.640604
O O1 0.620076 0.334680 0.851455
O O2 0.760193 0.100644 0.795798
O O3 0.567028 0.039266 0.923717
O O4 0.775118 0.192676 0.978611
O O5 0.843240 0.100514 0.159039
O O6 0.000000 0.935158 0.250000
O O7 0.113623 0.298180 0.877067
O O8 0.321366 0.092896 0.882688
O O9 0.500000 0.005706 0.750000
#
# Coordination Sequence:
#
# PCOD8248653 Si02
#       4
#     8   8   8   8
#     4  12  26  48  74 108 143 191 242 295 359 434
#     4  12  25  51  70 106 149 185 240 301 352 432
#     4  12  24  47  76 102 144 193 230 303 362 414
#     4  12  24  51  71 105 151 183 244 300 353 433
#
# _framework density 27.192748999999999
#
# number of rings (size 3 to 8) (size 9 to 14) (size 15 to 20)
#    0.000    0.000    7.500    2.250    0.000    1.000 
#   18.000    1.250    0.000    0.000    0.000    0.000 
#    0.000    0.000    0.000    0.000    0.000    0.000 
#
# Total GULP energy -396429.519761 kJ/mol
# GULP energy per Si atom -12388.422493 kJ/mol
# Density = 2.713086 g / cm^3
# Si number density = 27.192749 Si / 1000 Ang^3
#
#
#
# Elastic Constant Matrix: (Units=GPa)
#
#
# Indices 1 2 3 4 5 6 
#
# 1 153.8289 49.9942 31.2988 0.0000 0.0000 0.0000
# 2 49.9942 54.3046 15.5315 0.0000 0.0000 0.0000
# 3 31.2988 15.5315 116.7825 0.0000 0.0000 0.0000
# 4 0.0000 0.0000 0.0000 17.2519 0.0000 0.0000
# 5 0.0000 0.0000 0.0000 0.0000 46.9613 0.0000
# 6 0.0000 0.0000 0.0000 0.0000 0.0000 59.5174
#
#
#
# Elastic Compliance Matrix: (Units=1/GPa)
#
#
# Indices 1 2 3 4 5 6 
#
# 1 0.009503 -0.008337 -0.001438 0.000000 0.000000 0.000000
# 2 -0.008337 0.026458 -0.001284 0.000000 0.000000 0.000000
# 3 -0.001438 -0.001284 0.009119 0.000000 0.000000 0.000000
# 4 0.000000 0.000000 0.000000 0.057965 0.000000 0.000000
# 5 0.000000 0.000000 0.000000 0.000000 0.021294 0.000000
# 6 0.000000 0.000000 0.000000 0.000000 0.000000 0.016802
#
#
# Mechanical properties :
#
#
# Convention : Reuss Voigt Hill
#
# Bulk Modulus (GPa) = 43.55340 57.61835 50.58588
# Shear Modulus (GPa) = 29.25467 39.95222 34.60344
#
# Velocity S-wave (km/s) = 3.28354 3.83720 3.57112
# Velocity P-wave (km/s) = 5.51605 6.39273 5.97050
#
# Compressibility (1/GPa) = 0.02296032
#
# Stress axis : x y z
#
# Youngs Moduli (GPa) = 105.23030 37.79637 109.65955
#
# Poissons Ratio (x) = 0.31512 0.15770
# Poissons Ratio (y) = 0.87735 0.14083
# Poissons Ratio (z) = 0.15133 0.04854
#
# Static dielectric constant tensor:
#      x y z
#    x 5.293200 0.000000 0.000000 
#    y 0.000000 5.143910 0.000000 
#    z 0.000000 0.000000 4.948020 
# 
# 
# High freq. dielectric constant tensor:
#      x y z
#    x 2.101010 0.000000 0.000000 
#    y 0.000000 2.073640 0.000000 
#    z 0.000000 0.000000 2.113890 
# 
# From -- ./inp_files/15581.got.cif
#   From: 2010.03.12/outbox.cif.g09.slc.cpg/sg60_8_cif.got.tgz:15581.got - 2010.04.10 18:46:24.
