data_PCOD8248769
_publ_section_title
;
Structure prediction by ZEFSAII (Michael W. Deem and Ramdas Pophale) SiO2 
 PCOD8248769
Probable space group: P B C A
;
_chemical_formula_sum "Si O2"
_cell_formula_units_Z 48
_cell_length_a 17.064188
_cell_length_b 15.532973
_cell_length_c 9.417651
_cell_angle_alpha 90.000000
_cell_angle_beta 90.000000
_cell_angle_gamma 90.000000
_cell_volume 2496.219703
_symmetry_space_group_name_H-M "P B C A"
_symmetry_group_IT_number 61
_symmetry_cell_setting 'orthorhombic'
loop_
_space_group_symop_operation_xyz
x,y,z
1/2-x,-y,1/2+z
1/2+x,1/2-y,-z
-x,1/2+y,1/2-z
-x,-y,-z
1/2+x,y,1/2-z
1/2-x,1/2+y,z
x,1/2-y,1/2+z
loop_
_atom_site_type_symbol
_atom_site_label
_atom_site_fract_x
_atom_site_fract_y
_atom_site_fract_z
Si Si1 0.517042 0.582876 0.092588
Si Si2 0.048865 0.155788 0.838249
Si Si3 0.836852 0.505999 0.688405
Si Si4 0.565673 0.348081 0.648558
Si Si5 0.537493 0.586349 0.565852
Si Si6 0.679009 0.017438 0.021023
O O1 0.603226 0.574253 0.162453
O O2 0.452955 0.592040 0.216684
O O3 0.500000 0.500000 0.000000
O O4 0.504693 0.661441 0.981526
O O5 0.081610 0.250484 0.800102
O O6 0.995550 0.111351 0.718567
O O7 0.124743 0.095809 0.861613
O O8 0.763057 0.487044 0.591024
O O9 0.812000 0.512856 0.851885
O O10 0.488976 0.340755 0.546074
O O11 0.638422 0.391606 0.565316
O O12 0.500000 0.500000 0.500000
O O13 0.630059 0.566775 0.574231
#
# Coordination Sequence:
#
# PCOD8248769 Si02
#       6
#     8   8   8   8   8   8
#     4  10  21  37  63  91 113 152 212 247 286 371
#     4  11  22  38  65  93 121 155 209 259 306 349
#     4  11  23  40  61  90 121 163 206 241 304 376
#     4  11  21  40  64  88 123 159 201 264 306 343
#     4  10  18  40  64  84 114 162 202 245 296 363
#     4  11  23  39  64  86 122 166 202 245 302 373
#
# _framework density 19.229075999999999
#
# number of rings (size 3 to 8) (size 9 to 14) (size 15 to 20)
#    0.000    1.333    5.000    4.000    7.000    0.000 
#    0.000    3.333    0.000    0.000    0.000    0.000 
#    0.000    0.000    0.000    0.000    0.000    0.000 
#
# Total GULP energy -594760.405639 kJ/mol
# GULP energy per Si atom -12390.841784 kJ/mol
# Density = 1.918531 g / cm^3
# Si number density = 19.229076 Si / 1000 Ang^3
#
#
#
# Elastic Constant Matrix: (Units=GPa)
#
#
# Indices 1 2 3 4 5 6 
#
# 1 104.8481 44.7693 56.9769 0.0000 0.0000 0.0000
# 2 44.7693 90.2743 30.5988 0.0000 0.0000 0.0000
# 3 56.9769 30.5988 149.0684 0.0000 0.0000 0.0000
# 4 0.0000 0.0000 0.0000 23.5017 0.0000 0.0000
# 5 0.0000 0.0000 0.0000 0.0000 37.6935 0.0000
# 6 0.0000 0.0000 0.0000 0.0000 0.0000 14.5425
#
#
#
# Elastic Compliance Matrix: (Units=1/GPa)
#
#
# Indices 1 2 3 4 5 6 
#
# 1 0.014276 -0.005621 -0.004303 0.000000 0.000000 0.000000
# 2 -0.005621 0.014119 -0.000750 0.000000 0.000000 0.000000
# 3 -0.004303 -0.000750 0.008507 0.000000 0.000000 0.000000
# 4 0.000000 0.000000 0.000000 0.042550 0.000000 0.000000
# 5 0.000000 0.000000 0.000000 0.000000 0.026530 0.000000
# 6 0.000000 0.000000 0.000000 0.000000 0.000000 0.068764
#
#
# Mechanical properties :
#
#
# Convention : Reuss Voigt Hill
#
# Bulk Modulus (GPa) = 64.28957 67.65343 65.97150
# Shear Modulus (GPa) = 24.84121 29.27060 27.05590
#
# Velocity S-wave (km/s) = 3.59814 3.90578 3.75511
# Velocity P-wave (km/s) = 7.12518 7.45650 7.29272
#
# Compressibility (1/GPa) = 0.01555462
#
# Stress axis : x y z
#
# Youngs Moduli (GPa) = 70.04701 70.82531 117.55337
#
# Poissons Ratio (x) = 0.39814 0.50580
# Poissons Ratio (y) = 0.39377 0.08812
# Poissons Ratio (z) = 0.30139 0.05309
#
# Static dielectric constant tensor:
#      x y z
#    x 3.593850 0.000000 0.000000 
#    y 0.000000 3.762440 0.000000 
#    z 0.000000 0.000000 3.934060 
# 
# 
# High freq. dielectric constant tensor:
#      x y z
#    x 1.720820 0.000000 0.000000 
#    y 0.000000 1.732010 0.000000 
#    z 0.000000 0.000000 1.777020 
# 
# From -- ./inp_files/3450.got.cif
#   From: 2010.03.12/outbox.cif.g09.slc.cpg/sg61_2_cif.got.tgz:3450.got - 2010.04.10 19:05:03.
