data_PCOD8248575
_publ_section_title
;
Structure prediction by ZEFSAII (Michael W. Deem and Ramdas Pophale) SiO2 
 PCOD8248575
Probable space group: P B C N
;
_chemical_formula_sum "Si O2"
_cell_formula_units_Z 32
_cell_length_a 8.712532
_cell_length_b 14.789202
_cell_length_c 10.427316
_cell_angle_alpha 90.000000
_cell_angle_beta 90.000000
_cell_angle_gamma 90.000000
_cell_volume 1343.574220
_symmetry_space_group_name_H-M "P B C N"
_symmetry_group_IT_number 60
_symmetry_cell_setting 'orthorhombic'
loop_
_space_group_symop_operation_xyz
x,y,z
1/2-x,1/2-y,1/2+z
1/2+x,1/2-y,-z
-x,y,1/2-z
-x,-y,-z
1/2+x,1/2+y,1/2-z
1/2-x,1/2+y,z
x,-y,1/2+z
loop_
_atom_site_type_symbol
_atom_site_label
_atom_site_fract_x
_atom_site_fract_y
_atom_site_fract_z
Si Si1 0.923055 0.164733 0.619513
Si Si2 0.335376 0.529081 0.282349
Si Si3 0.268852 0.676316 0.472202
Si Si4 0.908570 0.455411 0.382454
O O1 0.777324 0.225272 0.579232
O O2 0.000000 0.201571 0.750000
O O3 0.053532 0.172669 0.511469
O O4 0.859021 0.063799 0.637646
O O5 0.500000 0.571472 0.250000
O O6 0.239517 0.600698 0.363705
O O7 0.244513 0.513732 0.148962
O O8 0.151086 0.645762 0.584507
O O9 0.000000 0.449144 0.250000
O O10 0.000000 0.500000 0.500000
#
# Coordination Sequence:
#
# PCOD8248575 Si02
#       4
#     8   8   8   8
#     4  11  27  47  71 109 152 195 256 311 383 457
#     4  11  25  52  76 106 154 205 249 310 387 461
#     4  12  27  47  77 107 151 198 252 316 380 452
#     4  12  26  45  77 114 148 194 257 309 374 458
#
# _framework density 23.817069
#
# number of rings (size 3 to 8) (size 9 to 14) (size 15 to 20)
#    0.000    0.500    7.500    0.750    7.000    2.000 
#    0.000    0.000    0.000    0.000    0.000    0.000 
#    0.000    0.000    0.000    0.000    0.000    0.000 
#
# Total GULP energy -396764.046708 kJ/mol
# GULP energy per Si atom -12398.876460 kJ/mol
# Density = 2.376286 g / cm^3
# Si number density = 23.817069 Si / 1000 Ang^3
#
#
#
# Elastic Constant Matrix: (Units=GPa)
#
#
# Indices 1 2 3 4 5 6 
#
# 1 107.1095 28.6985 33.9769 0.0000 0.0000 0.0000
# 2 28.6985 94.8432 34.5051 0.0000 0.0000 0.0000
# 3 33.9769 34.5051 109.9227 0.0000 0.0000 0.0000
# 4 0.0000 0.0000 0.0000 27.3921 0.0000 0.0000
# 5 0.0000 0.0000 0.0000 0.0000 62.3430 0.0000
# 6 0.0000 0.0000 0.0000 0.0000 0.0000 45.1964
#
#
#
# Elastic Compliance Matrix: (Units=1/GPa)
#
#
# Indices 1 2 3 4 5 6 
#
# 1 0.010783 -0.002315 -0.002607 0.000000 0.000000 0.000000
# 2 -0.002315 0.012400 -0.003177 0.000000 0.000000 0.000000
# 3 -0.002607 -0.003177 0.010900 0.000000 0.000000 0.000000
# 4 0.000000 0.000000 0.000000 0.036507 0.000000 0.000000
# 5 0.000000 0.000000 0.000000 0.000000 0.016040 0.000000
# 6 0.000000 0.000000 0.000000 0.000000 0.000000 0.022126
#
#
# Mechanical properties :
#
#
# Convention : Reuss Voigt Hill
#
# Bulk Modulus (GPa) = 55.90574 56.24850 56.07712
# Shear Modulus (GPa) = 38.19279 41.29927 39.74603
#
# Velocity S-wave (km/s) = 4.00883 4.16867 4.08953
# Velocity P-wave (km/s) = 6.70459 6.84387 6.77459
#
# Compressibility (1/GPa) = 0.01788725
#
# Stress axis : x y z
#
# Youngs Moduli (GPa) = 92.73659 80.64583 91.74119
#
# Poissons Ratio (x) = 0.18666 0.23913
# Poissons Ratio (y) = 0.21465 0.29146
# Poissons Ratio (z) = 0.24172 0.25621
#
# Static dielectric constant tensor:
#      x y z
#    x 4.605960 0.000000 0.000000 
#    y 0.000000 4.013300 0.000000 
#    z 0.000000 0.000000 4.626660 
# 
# 
# High freq. dielectric constant tensor:
#      x y z
#    x 1.961790 0.000000 0.000000 
#    y 0.000000 1.921190 0.000000 
#    z 0.000000 0.000000 1.952840 
# 
# From -- ./inp_files/9495.got.cif
#   From: 2010.03.12/outbox.cif.g09.slc.cpg/sg60_5_cif.got.tgz:9495.got - 2010.04.10 18:46:24.
