data_PCOD8248892
_publ_section_title
;
Structure prediction by ZEFSAII (Michael W. Deem and Ramdas Pophale) SiO2 
 PCOD8248892
Probable space group: P B C A
;
_chemical_formula_sum "Si O2"
_cell_formula_units_Z 40
_cell_length_a 8.870609
_cell_length_b 14.738608
_cell_length_c 14.242759
_cell_angle_alpha 90.000000
_cell_angle_beta 90.000000
_cell_angle_gamma 90.000000
_cell_volume 1862.104419
_symmetry_space_group_name_H-M "P B C A"
_symmetry_group_IT_number 61
_symmetry_cell_setting 'orthorhombic'
loop_
_space_group_symop_operation_xyz
x,y,z
1/2-x,-y,1/2+z
1/2+x,1/2-y,-z
-x,1/2+y,1/2-z
-x,-y,-z
1/2+x,y,1/2-z
1/2-x,1/2+y,z
x,1/2-y,1/2+z
loop_
_atom_site_type_symbol
_atom_site_label
_atom_site_fract_x
_atom_site_fract_y
_atom_site_fract_z
Si Si1 0.553699 0.995595 0.236724
Si Si2 0.679213 0.541034 0.118505
Si Si3 0.152819 0.797224 0.021394
Si Si4 0.801440 0.632790 0.807434
Si Si5 0.335275 0.830643 0.400871
O O1 0.448128 0.929340 0.174397
O O2 0.655937 0.932408 0.303033
O O3 0.451540 0.059015 0.303910
O O4 0.657345 0.055763 0.167717
O O5 0.666118 0.438231 0.080699
O O6 0.661905 0.607628 0.032580
O O7 0.273997 0.798655 0.106678
O O8 0.985575 0.782682 0.060792
O O9 0.192861 0.713938 0.953448
O O10 0.819964 0.688619 0.710331
#
# Coordination Sequence:
#
# PCOD8248892 Si02
#       5
#     8   8   8   8   8
#     4   8  18  38  65  92 127 165 209 255 325 372
#     4  10  21  44  65  96 127 174 210 264 322 385
#     4  12  24  43  69  93 129 172 223 264 313 398
#     4  10  19  41  65  87 134 170 198 272 327 368
#     4  10  25  42  63  99 128 171 216 265 329 375
#
# _framework density 21.481071
#
# number of rings (size 3 to 8) (size 9 to 14) (size 15 to 20)
#    0.000    2.400    4.000    0.600    5.600    0.800 
#    7.200    0.000    0.000    0.000    0.000    0.000 
#    0.000    0.000    0.000    0.000    0.000    0.000 
#
# Total GULP energy -495935.594457 kJ/mol
# GULP energy per Si atom -12398.389861 kJ/mol
# Density = 2.143218 g / cm^3
# Si number density = 21.481071 Si / 1000 Ang^3
#
#
#
# Elastic Constant Matrix: (Units=GPa)
#
#
# Indices 1 2 3 4 5 6 
#
# 1 129.9950 18.9061 48.3754 0.0000 0.0000 0.0000
# 2 18.9061 47.1753 37.1779 0.0000 0.0000 0.0000
# 3 48.3754 37.1779 128.4238 0.0000 0.0000 0.0000
# 4 0.0000 0.0000 0.0000 28.8916 0.0000 0.0000
# 5 0.0000 0.0000 0.0000 0.0000 35.5278 0.0000
# 6 0.0000 0.0000 0.0000 0.0000 0.0000 17.2389
#
#
#
# Elastic Compliance Matrix: (Units=1/GPa)
#
#
# Indices 1 2 3 4 5 6 
#
# 1 0.009000 -0.001212 -0.003039 0.000000 0.000000 0.000000
# 2 -0.001212 0.027626 -0.007541 0.000000 0.000000 0.000000
# 3 -0.003039 -0.007541 0.011115 0.000000 0.000000 0.000000
# 4 0.000000 0.000000 0.000000 0.034612 0.000000 0.000000
# 5 0.000000 0.000000 0.000000 0.000000 0.028147 0.000000
# 6 0.000000 0.000000 0.000000 0.000000 0.000000 0.058008
#
#
# Mechanical properties :
#
#
# Convention : Reuss Voigt Hill
#
# Bulk Modulus (GPa) = 41.39679 57.16810 49.28244
# Shear Modulus (GPa) = 24.98192 29.74063 27.36128
#
# Velocity S-wave (km/s) = 3.41394 3.72493 3.57282
# Velocity P-wave (km/s) = 5.90365 6.72095 6.32551
#
# Compressibility (1/GPa) = 0.02415646
#
# Stress axis : x y z
#
# Youngs Moduli (GPa) = 111.11284 36.19757 89.97049
#
# Poissons Ratio (x) = 0.04385 0.27346
# Poissons Ratio (y) = 0.13462 0.67849
# Poissons Ratio (z) = 0.33771 0.27297
#
# Static dielectric constant tensor:
#      x y z
#    x 4.472300 0.000000 0.000000 
#    y 0.000000 3.332770 0.000000 
#    z 0.000000 0.000000 3.868710 
# 
# 
# High freq. dielectric constant tensor:
#      x y z
#    x 1.864540 0.000000 0.000000 
#    y 0.000000 1.800930 0.000000 
#    z 0.000000 0.000000 1.843230 
# 
# From -- ./inp_files/2671.got.cif
#   From: 2010.03.12/outbox.cif.g09.slc.cpg/sg61_2_cif.got.tgz:2671.got - 2010.04.10 19:05:03.
