data_PCOD8248334
_publ_section_title
;
Structure prediction by ZEFSAII (Michael W. Deem and Ramdas Pophale) SiO2 
 PCOD8248334
Probable space group: P B C N
;
_chemical_formula_sum "Si O2"
_cell_formula_units_Z 28
_cell_length_a 12.132834
_cell_length_b 14.191146
_cell_length_c 7.821950
_cell_angle_alpha 90.000000
_cell_angle_beta 90.000000
_cell_angle_gamma 90.000000
_cell_volume 1346.774111
_symmetry_space_group_name_H-M "P B C N"
_symmetry_group_IT_number 60
_symmetry_cell_setting 'orthorhombic'
loop_
_space_group_symop_operation_xyz
x,y,z
1/2-x,1/2-y,1/2+z
1/2+x,1/2-y,-z
-x,y,1/2-z
-x,-y,-z
1/2+x,1/2+y,1/2-z
1/2-x,1/2+y,z
x,-y,1/2+z
loop_
_atom_site_type_symbol
_atom_site_label
_atom_site_fract_x
_atom_site_fract_y
_atom_site_fract_z
Si Si1 0.085048 0.279154 0.902442
Si Si2 0.123522 0.082525 0.774925
Si Si3 0.500000 0.270112 0.750000
Si Si4 0.695006 0.389292 0.599933
O O1 0.125022 0.170070 0.905796
O O2 0.184460 0.349262 0.865657
O O3 0.000000 0.296056 0.750000
O O4 0.028672 0.296750 0.087640
O O5 0.169485 0.122782 0.598677
O O6 0.000000 0.042775 0.750000
O O7 0.197894 0.999453 0.850578
O O8 0.605467 0.334414 0.710855
#
# Coordination Sequence:
#
# PCOD8248334 Si02
#       4
#     8   8   4   8
#     4  11  25  45  68  99 135 172 222 274 332 396
#     4  11  21  42  66 102 130 171 227 275 317 386
#     4  12  22  40  70  98 128 170 220 274 334 376
#     4  12  23  41  71  99 134 171 220 280 328 389
#
# _framework density 20.790419
#
# number of rings (size 3 to 8) (size 9 to 14) (size 15 to 20)
#    0.000    0.571    7.143    4.286    0.000    0.000 
#    5.143    1.429    3.143    0.000    0.000    0.000 
#    0.000    0.000    0.000    0.000    0.000    0.000 
#
# Total GULP energy -347337.125580 kJ/mol
# GULP energy per Si atom -12404.897342 kJ/mol
# Density = 2.074310 g / cm^3
# Si number density = 20.790419 Si / 1000 Ang^3
#
#
#
# Elastic Constant Matrix: (Units=GPa)
#
#
# Indices 1 2 3 4 5 6 
#
# 1 142.9893 76.5395 57.1272 0.0000 0.0000 0.0000
# 2 76.5395 92.2185 25.5516 0.0000 0.0000 0.0000
# 3 57.1272 25.5516 136.5327 0.0000 0.0000 0.0000
# 4 0.0000 0.0000 0.0000 -5.3431 0.0000 0.0000
# 5 0.0000 0.0000 0.0000 0.0000 27.8365 0.0000
# 6 0.0000 0.0000 0.0000 0.0000 0.0000 30.8972
#
#
#
# Elastic Compliance Matrix: (Units=1/GPa)
#
#
# Indices 1 2 3 4 5 6 
#
# 1 0.014389 -0.010837 -0.003993 0.000000 0.000000 0.000000
# 2 -0.010837 0.019598 0.000867 0.000000 0.000000 0.000000
# 3 -0.003993 0.000867 0.008833 0.000000 0.000000 0.000000
# 4 0.000000 0.000000 0.000000 -0.187157 0.000000 0.000000
# 5 0.000000 0.000000 0.000000 0.000000 0.035924 0.000000
# 6 0.000000 0.000000 0.000000 0.000000 0.000000 0.032365
#
#
# Mechanical properties :
#
#
# Convention : Reuss Voigt Hill
#
# Bulk Modulus (GPa) = 67.13935 76.68633 71.91284
# Shear Modulus (GPa) = -115.85593 24.84626 -45.50484
#
# Velocity S-wave (km/s) = -7.47306 3.46075 -4.68347
# Velocity P-wave (km/s) = 6.48835 7.27561 2.32765
#
# Compressibility (1/GPa) = 0.01489439
#
# Stress axis : x y z
#
# Youngs Moduli (GPa) = 69.49614 51.02600 113.21602
#
# Poissons Ratio (x) = 0.55295 0.45203
# Poissons Ratio (y) = 0.75310 -0.09810
# Poissons Ratio (z) = 0.27747 -0.04421
#
# Static dielectric constant tensor:
#      x y z
#    x 4.073660 0.000000 0.000000 
#    y 0.000000 3.516130 0.000000 
#    z 0.000000 0.000000 3.949990 
# 
# 
# High freq. dielectric constant tensor:
#      x y z
#    x 1.803530 0.000000 0.000000 
#    y 0.000000 1.790070 0.000000 
#    z 0.000000 0.000000 1.836270 
# 
# From -- ./inp_files/3441.got.cif
#   From: 2010.03.12/outbox.cif.g09.slc.cpg/sg60_2_cif.got.tgz:3441.got - 2010.04.10 18:46:24.
