data_PCOD8248322
_publ_section_title
;
Structure prediction by ZEFSAII (Michael W. Deem and Ramdas Pophale) SiO2 
 PCOD8248322
Probable space group: P B C N
;
_chemical_formula_sum "Si O2"
_cell_formula_units_Z 40
_cell_length_a 11.693469
_cell_length_b 18.343916
_cell_length_c 8.525138
_cell_angle_alpha 90.000000
_cell_angle_beta 90.000000
_cell_angle_gamma 90.000000
_cell_volume 1828.676313
_symmetry_space_group_name_H-M "P B C N"
_symmetry_group_IT_number 60
_symmetry_cell_setting 'orthorhombic'
loop_
_space_group_symop_operation_xyz
x,y,z
1/2-x,1/2-y,1/2+z
1/2+x,1/2-y,-z
-x,y,1/2-z
-x,-y,-z
1/2+x,1/2+y,1/2-z
1/2-x,1/2+y,z
x,-y,1/2+z
loop_
_atom_site_type_symbol
_atom_site_label
_atom_site_fract_x
_atom_site_fract_y
_atom_site_fract_z
Si Si1 0.217919 0.185785 0.541255
Si Si2 0.806123 0.536316 0.418492
Si Si3 0.875210 0.593943 0.754590
Si Si4 0.864803 0.683766 0.265258
Si Si5 0.577418 0.449162 0.398322
O O1 0.291504 0.156648 0.687066
O O2 0.165341 0.262509 0.592461
O O3 0.298252 0.203278 0.393736
O O4 0.117954 0.125225 0.512249
O O5 0.819663 0.561455 0.596667
O O6 0.895408 0.471544 0.380478
O O7 0.825156 0.603032 0.303697
O O8 0.686677 0.499725 0.363670
O O9 0.000000 0.630895 0.750000
O O10 0.000000 0.686952 0.250000
O O11 0.500000 0.425765 0.250000
O O12 0.500000 0.500000 0.500000
#
# Coordination Sequence:
#
# PCOD8248322 Si02
#       5
#     8   8   8   8   8
#     4  11  25  42  63  94 127 169 220 266 330 404
#     4  11  22  38  63  94 124 165 217 265 323 396
#     4  11  21  39  63  92 126 164 211 268 322 384
#     4  12  25  44  65  92 130 170 212 273 333 392
#     4  11  22  41  65  92 127 168 215 270 323 382
#
# _framework density 21.873743999999999
#
# number of rings (size 3 to 8) (size 9 to 14) (size 15 to 20)
#    0.000    0.800    0.000   10.200    0.000    1.600 
#    0.000    3.000    0.000    0.000    0.000    0.000 
#    0.000    0.000    0.000    0.000    0.000    0.000 
#
# Total GULP energy -495797.273163 kJ/mol
# GULP energy per Si atom -12394.931829 kJ/mol
# Density = 2.182396 g / cm^3
# Si number density = 21.873744 Si / 1000 Ang^3
#
#
#
# Elastic Constant Matrix: (Units=GPa)
#
#
# Indices 1 2 3 4 5 6 
#
# 1 102.9526 36.6704 24.9245 0.0000 0.0000 0.0000
# 2 36.6704 70.2794 -11.0978 0.0000 0.0000 0.0000
# 3 24.9245 -11.0978 79.1012 0.0000 0.0000 0.0000
# 4 0.0000 0.0000 0.0000 33.2343 0.0000 0.0000
# 5 0.0000 0.0000 0.0000 0.0000 32.7216 0.0000
# 6 0.0000 0.0000 0.0000 0.0000 0.0000 4.1675
#
#
#
# Elastic Compliance Matrix: (Units=1/GPa)
#
#
# Indices 1 2 3 4 5 6 
#
# 1 0.013962 -0.008161 -0.005544 0.000000 0.000000 0.000000
# 2 -0.008161 0.019321 0.005282 0.000000 0.000000 0.000000
# 3 -0.005544 0.005282 0.015130 0.000000 0.000000 0.000000
# 4 0.000000 0.000000 0.000000 0.030089 0.000000 0.000000
# 5 0.000000 0.000000 0.000000 0.000000 0.030561 0.000000
# 6 0.000000 0.000000 0.000000 0.000000 0.000000 0.239954
#
#
# Mechanical properties :
#
#
# Convention : Reuss Voigt Hill
#
# Bulk Modulus (GPa) = 31.67811 39.25860 35.46836
# Shear Modulus (GPa) = 13.28422 27.48042 20.38232
#
# Velocity S-wave (km/s) = 2.46705 3.54831 3.05588
# Velocity P-wave (km/s) = 4.75697 5.89696 5.35737
#
# Compressibility (1/GPa) = 0.03156754
#
# Stress axis : x y z
#
# Youngs Moduli (GPa) = 71.62186 51.75684 66.09333
#
# Poissons Ratio (x) = 0.42237 0.36645
# Poissons Ratio (y) = 0.58449 -0.34911
# Poissons Ratio (z) = 0.39710 -0.27339
#
# Static dielectric constant tensor:
#      x y z
#    x 4.123750 0.000000 0.000000 
#    y 0.000000 3.733720 0.000000 
#    z 0.000000 0.000000 12.387090 
# 
# 
# High freq. dielectric constant tensor:
#      x y z
#    x 1.874260 0.000000 0.000000 
#    y 0.000000 1.867260 0.000000 
#    z 0.000000 0.000000 1.859540 
# 
# From -- ./inp_files/4774.got.cif
#   From: 2010.03.12/outbox.cif.g09.slc.cpg/sg60_3_cif.got.tgz:4774.got - 2010.04.10 18:46:24.
