data_PCOD8248998
_publ_section_title
;
Structure prediction by ZEFSAII (Michael W. Deem and Ramdas Pophale) SiO2 
 PCOD8248998
Probable space group: P B C A
;
_chemical_formula_sum "Si O2"
_cell_formula_units_Z 48
_cell_length_a 14.886943
_cell_length_b 18.502870
_cell_length_c 8.942727
_cell_angle_alpha 90.000000
_cell_angle_beta 90.000000
_cell_angle_gamma 90.000000
_cell_volume 2463.284624
_symmetry_space_group_name_H-M "P B C A"
_symmetry_group_IT_number 61
_symmetry_cell_setting 'orthorhombic'
loop_
_space_group_symop_operation_xyz
x,y,z
1/2-x,-y,1/2+z
1/2+x,1/2-y,-z
-x,1/2+y,1/2-z
-x,-y,-z
1/2+x,y,1/2-z
1/2-x,1/2+y,z
x,1/2-y,1/2+z
loop_
_atom_site_type_symbol
_atom_site_label
_atom_site_fract_x
_atom_site_fract_y
_atom_site_fract_z
Si Si1 0.105300 0.840585 0.336042
Si Si2 0.783193 0.910683 0.800001
Si Si3 0.124685 0.807846 0.679881
Si Si4 0.461967 0.930633 0.315912
Si Si5 0.738714 0.050353 0.634144
Si Si6 0.514229 0.409403 0.840176
O O1 0.102495 0.813532 0.505314
O O2 0.124304 0.775391 0.223794
O O3 0.182967 0.898779 0.303859
O O4 0.009362 0.876861 0.300483
O O5 0.723280 0.839089 0.784141
O O6 0.886450 0.887302 0.786671
O O7 0.756730 0.967223 0.672494
O O8 0.764887 0.950290 0.955993
O O9 0.051403 0.849675 0.776025
O O10 0.355192 0.921321 0.298033
O O11 0.495421 0.910311 0.481357
O O12 0.488970 0.012409 0.274287
#
# Coordination Sequence:
#
# PCOD8248998 Si02
#       6
#     8   8   8   8   8   8
#     4  11  24  40  59  86 121 156 196 243 295 349
#     4  10  21  37  60  89 118 153 196 240 290 349
#     4  11  24  40  59  86 121 156 196 243 295 349
#     4  10  20  37  62  89 119 154 194 241 293 348
#     4  10  21  37  60  89 118 153 196 240 290 349
#     4  10  20  37  62  89 119 154 194 241 293 348
#
# _framework density 19.486177000000001
#
# number of rings (size 3 to 8) (size 9 to 14) (size 15 to 20)
#    0.000    1.667    3.333    1.000    0.000    4.667 
#    0.000    3.333    0.000    0.000    0.000    0.000 
#    0.000    0.000    0.000    0.000    0.000    0.000 
#
# Total GULP energy -595467.956736 kJ/mol
# GULP energy per Si atom -12405.582432 kJ/mol
# Density = 1.944183 g / cm^3
# Si number density = 19.486177 Si / 1000 Ang^3
#
#
#
# Elastic Constant Matrix: (Units=GPa)
#
#
# Indices 1 2 3 4 5 6 
#
# 1 95.1510 1.5494 8.1528 0.0000 0.0000 0.0000
# 2 1.5494 50.6765 4.8602 0.0000 0.0000 0.0000
# 3 8.1528 4.8602 30.7441 0.0000 0.0000 0.0000
# 4 0.0000 0.0000 0.0000 31.8199 0.0000 0.0000
# 5 0.0000 0.0000 0.0000 0.0000 29.2202 0.0000
# 6 0.0000 0.0000 0.0000 0.0000 0.0000 19.4395
#
#
#
# Elastic Compliance Matrix: (Units=1/GPa)
#
#
# Indices 1 2 3 4 5 6 
#
# 1 0.010754 -0.000056 -0.002843 0.000000 0.000000 0.000000
# 2 -0.000056 0.020037 -0.003153 0.000000 0.000000 0.000000
# 3 -0.002843 -0.003153 0.033779 0.000000 0.000000 0.000000
# 4 0.000000 0.000000 0.000000 0.031427 0.000000 0.000000
# 5 0.000000 0.000000 0.000000 0.000000 0.034223 0.000000
# 6 0.000000 0.000000 0.000000 0.000000 0.000000 0.051442
#
#
# Mechanical properties :
#
#
# Convention : Reuss Voigt Hill
#
# Bulk Modulus (GPa) = 19.05977 22.85515 20.95746
# Shear Modulus (GPa) = 23.66820 26.89652 25.28236
#
# Velocity S-wave (km/s) = 3.48891 3.71925 3.60592
# Velocity P-wave (km/s) = 5.10220 5.49528 5.30239
#
# Compressibility (1/GPa) = 0.05246653
#
# Stress axis : x y z
#
# Youngs Moduli (GPa) = 92.98765 49.90744 29.60435
#
# Poissons Ratio (x) = 0.00280 0.08416
# Poissons Ratio (y) = 0.00522 0.09333
# Poissons Ratio (z) = 0.26436 0.15734
#
# Static dielectric constant tensor:
#      x y z
#    x 3.803330 0.000000 0.000000 
#    y 0.000000 3.460170 0.000000 
#    z 0.000000 0.000000 3.475070 
# 
# 
# High freq. dielectric constant tensor:
#      x y z
#    x 1.773690 0.000000 0.000000 
#    y 0.000000 1.751600 0.000000 
#    z 0.000000 0.000000 1.755700 
# 
# From -- ./inp_files/2855.got.cif
#   From: 2010.03.12/outbox.cif.g09.slc.cpg/sg61_2_cif.got.tgz:2855.got - 2010.04.10 19:05:03.
