data_PCOD8248077
_publ_section_title
;
Structure prediction by ZEFSAII (Michael W. Deem and Ramdas Pophale) SiO2 
 PCOD8248077
Probable space group: P B C N
;
_chemical_formula_sum "Si O2"
_cell_formula_units_Z 36
_cell_length_a 23.131241
_cell_length_b 4.893437
_cell_length_c 14.106952
_cell_angle_alpha 90.000000
_cell_angle_beta 90.000000
_cell_angle_gamma 90.000000
_cell_volume 1596.783821
_symmetry_space_group_name_H-M "P B C N"
_symmetry_group_IT_number 60
_symmetry_cell_setting 'orthorhombic'
loop_
_space_group_symop_operation_xyz
x,y,z
1/2-x,1/2-y,1/2+z
1/2+x,1/2-y,-z
-x,y,1/2-z
-x,-y,-z
1/2+x,1/2+y,1/2-z
1/2-x,1/2+y,z
x,-y,1/2+z
loop_
_atom_site_type_symbol
_atom_site_label
_atom_site_fract_x
_atom_site_fract_y
_atom_site_fract_z
Si Si1 0.288473 0.113955 0.590459
Si Si2 0.500000 0.709028 0.250000
Si Si3 0.895545 0.417220 0.816100
Si Si4 0.114912 0.397642 0.475719
Si Si5 0.917518 0.103011 0.639416
O O1 0.230824 0.928368 0.595487
O O2 0.332896 0.066533 0.678029
O O3 0.321954 0.036721 0.492370
O O4 0.518303 0.516907 0.160807
O O5 0.555303 0.883759 0.277706
O O6 0.888899 0.167748 0.742261
O O7 0.912836 0.315771 0.922192
O O8 0.075397 0.621207 0.421909
O O9 0.121167 0.123310 0.414125
#
# Coordination Sequence:
#
# PCOD8248077 Si02
#       5
#     8   4   8   8   8
#     4  10  23  47  76 100 141 193 244 304 364 429
#     4  12  26  46  72 110 158 184 248 302 348 460
#     4  10  27  47  73 108 150 191 239 307 363 438
#     4  10  26  43  77  98 146 189 237 295 369 417
#     4  12  24  47  70 110 144 189 240 290 361 446
#
# _framework density 22.545318999999999
#
# number of rings (size 3 to 8) (size 9 to 14) (size 15 to 20)
#    1.333    0.000    2.222    2.000    6.222    1.778 
#    0.000    6.667    0.000    0.000    0.000    0.000 
#    0.000    0.000    0.000    0.000    0.000    0.000 
#
# Total GULP energy -446098.542841 kJ/mol
# GULP energy per Si atom -12391.626190 kJ/mol
# Density = 2.249400 g / cm^3
# Si number density = 22.545319 Si / 1000 Ang^3
#
#
#
# Elastic Constant Matrix: (Units=GPa)
#
#
# Indices 1 2 3 4 5 6 
#
# 1 65.9882 18.5795 43.3739 0.0000 0.0000 0.0000
# 2 18.5795 101.3992 54.1594 0.0000 0.0000 0.0000
# 3 43.3739 54.1594 147.7106 0.0000 0.0000 0.0000
# 4 0.0000 0.0000 0.0000 17.5952 0.0000 0.0000
# 5 0.0000 0.0000 0.0000 0.0000 21.9457 0.0000
# 6 0.0000 0.0000 0.0000 0.0000 0.0000 426.7142
#
#
#
# Elastic Compliance Matrix: (Units=1/GPa)
#
#
# Indices 1 2 3 4 5 6 
#
# 1 0.018810 -0.000617 -0.005297 0.000000 0.000000 0.000000
# 2 -0.000617 0.012284 -0.004323 0.000000 0.000000 0.000000
# 3 -0.005297 -0.004323 0.009910 0.000000 0.000000 0.000000
# 4 0.000000 0.000000 0.000000 0.056834 0.000000 0.000000
# 5 0.000000 0.000000 0.000000 0.000000 0.045567 0.000000
# 6 0.000000 0.000000 0.000000 0.000000 0.000000 0.002343
#
#
# Mechanical properties :
#
#
# Convention : Reuss Voigt Hill
#
# Bulk Modulus (GPa) = 48.70922 60.81377 54.76149
# Shear Modulus (GPa) = 28.89073 106.51668 67.70371
#
# Velocity S-wave (km/s) = 3.58362 6.88100 5.48591
# Velocity P-wave (km/s) = 6.22696 9.49544 8.02927
#
# Compressibility (1/GPa) = 0.02052999
#
# Stress axis : x y z
#
# Youngs Moduli (GPa) = 53.16404 81.40670 100.90421
#
# Poissons Ratio (x) = 0.05025 0.53449
# Poissons Ratio (y) = 0.03282 0.43619
# Poissons Ratio (z) = 0.28161 0.35190
#
# Static dielectric constant tensor:
#      x y z
#    x 3.938270 0.000000 0.000000 
#    y 0.000000 4.060680 0.000000 
#    z 0.000000 0.000000 4.185580 
# 
# 
# High freq. dielectric constant tensor:
#      x y z
#    x 1.864920 0.000000 0.000000 
#    y 0.000000 1.901020 0.000000 
#    z 0.000000 0.000000 1.883080 
# 
# From -- ./inp_files/17588.got.cif
#   From: 2010.03.12/outbox.cif.g09.slc.cpg/sg60_9_cif.got.tgz:17588.got - 2010.04.10 18:46:24.
