data_PCOD8248460
_publ_section_title
;
Structure prediction by ZEFSAII (Michael W. Deem and Ramdas Pophale) SiO2 
 PCOD8248460
Probable space group: P B C N
;
_chemical_formula_sum "Si O2"
_cell_formula_units_Z 40
_cell_length_a 5.047353
_cell_length_b 13.195130
_cell_length_c 25.785194
_cell_angle_alpha 90.000000
_cell_angle_beta 90.000000
_cell_angle_gamma 90.000000
_cell_volume 1717.306271
_symmetry_space_group_name_H-M "P B C N"
_symmetry_group_IT_number 60
_symmetry_cell_setting 'orthorhombic'
loop_
_space_group_symop_operation_xyz
x,y,z
1/2-x,1/2-y,1/2+z
1/2+x,1/2-y,-z
-x,y,1/2-z
-x,-y,-z
1/2+x,1/2+y,1/2-z
1/2-x,1/2+y,z
x,-y,1/2+z
loop_
_atom_site_type_symbol
_atom_site_label
_atom_site_fract_x
_atom_site_fract_y
_atom_site_fract_z
Si Si1 0.243650 0.999481 0.784442
Si Si2 0.178063 0.183885 0.989760
Si Si3 0.149072 0.375575 0.384923
Si Si4 0.141413 0.849481 0.863503
Si Si5 0.646525 0.937721 0.915786
O O1 0.500000 0.017349 0.750000
O O2 0.228628 0.066877 0.836255
O O3 0.000000 0.033045 0.750000
O O4 0.226346 0.883132 0.804970
O O5 0.137938 0.140855 0.931485
O O6 0.407868 0.269214 0.988502
O O7 0.263495 0.090130 0.026209
O O8 0.049693 0.266941 0.364750
O O9 0.911483 0.442293 0.409871
O O10 0.385094 0.871273 0.902522
O O11 0.882379 0.914645 0.876352
#
# Coordination Sequence:
#
# PCOD8248460 Si02
#       5
#     8   8   8   8   8
#     4  11  26  47  68 100 134 175 238 298 346 406
#     4  12  23  42  68 105 148 184 221 273 342 415
#     4  11  25  44  75 101 138 188 230 276 351 415
#     4  11  24  44  70  97 137 178 227 283 342 405
#     4  11  23  43  66 105 144 180 222 275 327 420
#
# _framework density 23.292293999999998
#
# number of rings (size 3 to 8) (size 9 to 14) (size 15 to 20)
#    0.000    0.800    4.000    3.000    0.000   11.200 
#    0.000    7.000    0.000    0.000    0.000    0.000 
#    0.000    0.000    0.000    0.000    0.000    0.000 
#
# Total GULP energy -495955.454298 kJ/mol
# GULP energy per Si atom -12398.886357 kJ/mol
# Density = 2.323928 g / cm^3
# Si number density = 23.292294 Si / 1000 Ang^3
#
#
#
# Elastic Constant Matrix: (Units=GPa)
#
#
# Indices 1 2 3 4 5 6 
#
# 1 121.6191 28.7458 41.8363 0.0000 0.0000 0.0000
# 2 28.7458 117.2923 58.7376 0.0000 0.0000 0.0000
# 3 41.8363 58.7376 166.6233 0.0000 0.0000 0.0000
# 4 0.0000 0.0000 0.0000 44.1889 0.0000 0.0000
# 5 0.0000 0.0000 0.0000 0.0000 30.6651 0.0000
# 6 0.0000 0.0000 0.0000 0.0000 0.0000 18.0046
#
#
#
# Elastic Compliance Matrix: (Units=1/GPa)
#
#
# Indices 1 2 3 4 5 6 
#
# 1 0.009167 -0.001329 -0.001833 0.000000 0.000000 0.000000
# 2 -0.001329 0.010546 -0.003384 0.000000 0.000000 0.000000
# 3 -0.001833 -0.003384 0.007655 0.000000 0.000000 0.000000
# 4 0.000000 0.000000 0.000000 0.022630 0.000000 0.000000
# 5 0.000000 0.000000 0.000000 0.000000 0.032610 0.000000
# 6 0.000000 0.000000 0.000000 0.000000 0.000000 0.055541
#
#
# Mechanical properties :
#
#
# Convention : Reuss Voigt Hill
#
# Bulk Modulus (GPa) = 70.04795 73.79715 71.92255
# Shear Modulus (GPa) = 32.05124 36.98606 34.51865
#
# Velocity S-wave (km/s) = 3.71353 3.98918 3.85382
# Velocity P-wave (km/s) = 6.96605 7.27805 7.12375
#
# Compressibility (1/GPa) = 0.01427594
#
# Stress axis : x y z
#
# Youngs Moduli (GPa) = 109.08607 94.82289 130.63641
#
# Poissons Ratio (x) = 0.12598 0.23950
# Poissons Ratio (y) = 0.14493 0.44208
# Poissons Ratio (z) = 0.19999 0.32089
#
# Static dielectric constant tensor:
#      x y z
#    x 4.091680 0.000000 0.000000 
#    y 0.000000 4.401190 0.000000 
#    z 0.000000 0.000000 4.372490 
# 
# 
# High freq. dielectric constant tensor:
#      x y z
#    x 1.919280 0.000000 0.000000 
#    y 0.000000 1.920980 0.000000 
#    z 0.000000 0.000000 1.928520 
# 
# From -- ./inp_files/24754.got.cif
#   From: 2010.03.12/outbox.cif.g09.slc.cpg/sg60_13_cif.got.tgz:24754.got - 2010.04.10 18:46:24.
