data_PCOD8248602
_publ_section_title
;
Structure prediction by ZEFSAII (Michael W. Deem and Ramdas Pophale) SiO2 
 PCOD8248602
Probable space group: P B C N
;
_chemical_formula_sum "Si O2"
_cell_formula_units_Z 48
_cell_length_a 8.599253
_cell_length_b 12.078633
_cell_length_c 19.634099
_cell_angle_alpha 90.000000
_cell_angle_beta 90.000000
_cell_angle_gamma 90.000000
_cell_volume 2039.339301
_symmetry_space_group_name_H-M "P B C N"
_symmetry_group_IT_number 60
_symmetry_cell_setting 'orthorhombic'
loop_
_space_group_symop_operation_xyz
x,y,z
1/2-x,1/2-y,1/2+z
1/2+x,1/2-y,-z
-x,y,1/2-z
-x,-y,-z
1/2+x,1/2+y,1/2-z
1/2-x,1/2+y,z
x,-y,1/2+z
loop_
_atom_site_type_symbol
_atom_site_label
_atom_site_fract_x
_atom_site_fract_y
_atom_site_fract_z
Si Si1 0.500000 0.595402 0.750000
Si Si2 0.792848 0.198403 0.075200
Si Si3 0.684899 0.811677 0.213147
Si Si4 0.014316 0.017606 0.109949
Si Si5 0.000000 0.517287 0.250000
Si Si6 0.744837 0.166808 0.331966
Si Si7 0.046902 0.219694 0.561461
O O1 0.631575 0.678250 0.723931
O O2 0.463010 0.514336 0.688510
O O3 0.855227 0.262727 0.140549
O O4 0.607727 0.206178 0.068009
O O5 0.849699 0.072721 0.088930
O O6 0.871314 0.252691 0.008910
O O7 0.639747 0.729921 0.277101
O O8 0.610432 0.933252 0.208836
O O9 0.157662 0.104879 0.107611
O O10 0.020813 0.912802 0.059569
O O11 0.115079 0.588897 0.203305
O O12 0.652911 0.261406 0.372631
#
# Coordination Sequence:
#
# PCOD8248602 Si02
#       7
#     4   8   8   8   4   8   8
#     4  12  21  45  76 100 146 178 231 305 352 418
#     4  12  27  46  74 101 148 195 240 294 372 421
#     4  12  24  46  71 107 141 181 239 300 350 434
#     4  12  25  47  73 104 143 191 237 301 361 425
#     4  12  25  41  72 108 140 182 237 301 356 420
#     4  12  24  46  74 106 141 191 237 296 365 423
#     4  12  27  48  69 105 147 191 244 298 354 449
#
# _framework density 23.537034999999999
#
# number of rings (size 3 to 8) (size 9 to 14) (size 15 to 20)
#    0.000    0.000    5.000    5.000    2.333    1.333 
#    0.000    2.500    0.000    0.000    0.000    0.000 
#    0.000    0.000    0.000    0.000    0.000    0.000 
#
# Total GULP energy -594929.112313 kJ/mol
# GULP energy per Si atom -12394.356507 kJ/mol
# Density = 2.348346 g / cm^3
# Si number density = 23.537035 Si / 1000 Ang^3
#
#
#
# Elastic Constant Matrix: (Units=GPa)
#
#
# Indices 1 2 3 4 5 6 
#
# 1 55.7253 13.3237 32.5224 0.0000 0.0000 0.0000
# 2 13.3237 98.4853 39.4061 0.0000 0.0000 0.0000
# 3 32.5224 39.4061 133.9869 0.0000 0.0000 0.0000
# 4 0.0000 0.0000 0.0000 26.8617 0.0000 0.0000
# 5 0.0000 0.0000 0.0000 0.0000 39.7070 0.0000
# 6 0.0000 0.0000 0.0000 0.0000 0.0000 36.9121
#
#
#
# Elastic Compliance Matrix: (Units=1/GPa)
#
#
# Indices 1 2 3 4 5 6 
#
# 1 0.020978 -0.000907 -0.004825 0.000000 0.000000 0.000000
# 2 -0.000907 0.011547 -0.003176 0.000000 0.000000 0.000000
# 3 -0.004825 -0.003176 0.009569 0.000000 0.000000 0.000000
# 4 0.000000 0.000000 0.000000 0.037228 0.000000 0.000000
# 5 0.000000 0.000000 0.000000 0.000000 0.025184 0.000000
# 6 0.000000 0.000000 0.000000 0.000000 0.000000 0.027091
#
#
# Mechanical properties :
#
#
# Convention : Reuss Voigt Hill
#
# Bulk Modulus (GPa) = 41.19071 50.96687 46.07879
# Shear Modulus (GPa) = 31.74464 34.22584 32.98524
#
# Velocity S-wave (km/s) = 3.67646 3.81744 3.74761
# Velocity P-wave (km/s) = 5.96324 6.41337 6.19240
#
# Compressibility (1/GPa) = 0.02427732
#
# Stress axis : x y z
#
# Youngs Moduli (GPa) = 47.66861 86.60043 104.50803
#
# Poissons Ratio (x) = 0.07858 0.50426
# Poissons Ratio (y) = 0.04326 0.33190
# Poissons Ratio (z) = 0.23001 0.27503
#
# Static dielectric constant tensor:
#      x y z
#    x 4.397990 0.000000 0.000000 
#    y 0.000000 4.548040 0.000000 
#    z 0.000000 0.000000 4.288320 
# 
# 
# High freq. dielectric constant tensor:
#      x y z
#    x 1.941280 0.000000 0.000000 
#    y 0.000000 1.940030 0.000000 
#    z 0.000000 0.000000 1.937050 
# 
# From -- ./inp_files/23970.got.cif
#   From: 2010.03.12/outbox.cif.g09.slc.cpg/sg60_12_cif.got.tgz:23970.got - 2010.04.10 18:46:24.
