data_PCOD8248764
_publ_section_title
;
Structure prediction by ZEFSAII (Michael W. Deem and Ramdas Pophale) SiO2 
 PCOD8248764
Probable space group: P B C A
;
_chemical_formula_sum "Si O2"
_cell_formula_units_Z 56
_cell_length_a 18.432761
_cell_length_b 16.119535
_cell_length_c 8.761966
_cell_angle_alpha 90.000000
_cell_angle_beta 90.000000
_cell_angle_gamma 90.000000
_cell_volume 2603.421369
_symmetry_space_group_name_H-M "P B C A"
_symmetry_group_IT_number 61
_symmetry_cell_setting 'orthorhombic'
loop_
_space_group_symop_operation_xyz
x,y,z
1/2-x,-y,1/2+z
1/2+x,1/2-y,-z
-x,1/2+y,1/2-z
-x,-y,-z
1/2+x,y,1/2-z
1/2-x,1/2+y,z
x,1/2-y,1/2+z
loop_
_atom_site_type_symbol
_atom_site_label
_atom_site_fract_x
_atom_site_fract_y
_atom_site_fract_z
Si Si1 0.421549 0.553279 0.732892
Si Si2 0.240334 0.606100 0.157658
Si Si3 0.405657 0.397005 0.518651
Si Si4 0.948438 0.803743 0.488294
Si Si5 0.921113 0.035167 0.809215
Si Si6 0.393257 0.841043 0.691308
Si Si7 0.688122 0.522435 0.050999
O O1 0.430978 0.472979 0.624977
O O2 0.410133 0.634192 0.630614
O O3 0.495537 0.562083 0.831065
O O4 0.353958 0.546287 0.846578
O O5 0.166988 0.645466 0.087555
O O6 0.308086 0.668387 0.145363
O O7 0.229704 0.584982 0.337024
O O8 0.254612 0.521715 0.061058
O O9 0.467864 0.327432 0.517880
O O10 0.389814 0.430209 0.349482
O O11 0.943488 0.710379 0.424930
O O12 0.902971 0.804189 0.641844
O O13 0.915427 0.936242 0.813623
O O14 0.871838 0.071110 0.947617
#
# Coordination Sequence:
#
# PCOD8248764 Si02
#       7
#     8   8   8   8   8   8   8
#     4  10  19  37  67  92 122 163 217 271 313 367
#     4  10  22  38  59  91 128 163 202 268 318 380
#     4  10  19  42  68  91 124 169 215 272 320 364
#     4  11  23  40  64  89 125 174 206 259 320 387
#     4  10  18  37  63  99 124 156 216 272 309 378
#     4  11  23  39  60  89 131 165 213 256 323 391
#     4  10  21  32  61  93 124 152 207 263 325 375
#
# _framework density 21.510157
#
# number of rings (size 3 to 8) (size 9 to 14) (size 15 to 20)
#    0.000    1.714    2.857    3.000    6.000    0.000 
#    0.000    1.429    0.000    0.000    0.000    0.000 
#    0.000    0.000    0.000    0.000    0.000    0.000 
#
# Total GULP energy -694391.884805 kJ/mol
# GULP energy per Si atom -12399.855086 kJ/mol
# Density = 2.146120 g / cm^3
# Si number density = 21.510157 Si / 1000 Ang^3
#
#
#
# Elastic Constant Matrix: (Units=GPa)
#
#
# Indices 1 2 3 4 5 6 
#
# 1 103.9720 37.2975 38.8577 0.0000 0.0000 0.0000
# 2 37.2975 62.1101 30.5814 0.0000 0.0000 0.0000
# 3 38.8577 30.5814 107.2825 0.0000 0.0000 0.0000
# 4 0.0000 0.0000 0.0000 20.9826 0.0000 0.0000
# 5 0.0000 0.0000 0.0000 0.0000 49.8672 0.0000
# 6 0.0000 0.0000 0.0000 0.0000 0.0000 25.2733
#
#
#
# Elastic Compliance Matrix: (Units=1/GPa)
#
#
# Indices 1 2 3 4 5 6 
#
# 1 0.012984 -0.006376 -0.002885 0.000000 0.000000 0.000000
# 2 -0.006376 0.021860 -0.003922 0.000000 0.000000 0.000000
# 3 -0.002885 -0.003922 0.011484 0.000000 0.000000 0.000000
# 4 0.000000 0.000000 0.000000 0.047659 0.000000 0.000000
# 5 0.000000 0.000000 0.000000 0.000000 0.020053 0.000000
# 6 0.000000 0.000000 0.000000 0.000000 0.000000 0.039567
#
#
# Mechanical properties :
#
#
# Convention : Reuss Voigt Hill
#
# Bulk Modulus (GPa) = 50.09596 54.09309 52.09453
# Shear Modulus (GPa) = 26.79131 30.33315 28.56223
#
# Velocity S-wave (km/s) = 3.53302 3.75931 3.64792
# Velocity P-wave (km/s) = 6.32321 6.63668 6.48184
#
# Compressibility (1/GPa) = 0.01996169
#
# Stress axis : x y z
#
# Youngs Moduli (GPa) = 77.02081 45.74472 87.07658
#
# Poissons Ratio (x) = 0.29167 0.25122
# Poissons Ratio (y) = 0.49109 0.34151
# Poissons Ratio (z) = 0.22221 0.17941
#
# Static dielectric constant tensor:
#      x y z
#    x 4.117380 0.000000 0.000000 
#    y 0.000000 3.355090 0.000000 
#    z 0.000000 0.000000 4.279210 
# 
# 
# High freq. dielectric constant tensor:
#      x y z
#    x 1.853190 0.000000 0.000000 
#    y 0.000000 1.790110 0.000000 
#    z 0.000000 0.000000 1.867800 
# 
# From -- ./inp_files/3991.got.cif
#   From: 2010.03.12/outbox.cif.g09.slc.cpg/sg61_2_cif.got.tgz:3991.got - 2010.04.10 19:05:03.
