data_PCOD8248344
_publ_section_title
;
Structure prediction by ZEFSAII (Michael W. Deem and Ramdas Pophale) SiO2 
 PCOD8248344
Probable space group: P B C N
;
_chemical_formula_sum "Si O2"
_cell_formula_units_Z 36
_cell_length_a 7.834898
_cell_length_b 13.389255
_cell_length_c 14.898751
_cell_angle_alpha 90.000000
_cell_angle_beta 90.000000
_cell_angle_gamma 90.000000
_cell_volume 1562.930339
_symmetry_space_group_name_H-M "P B C N"
_symmetry_group_IT_number 60
_symmetry_cell_setting 'orthorhombic'
loop_
_space_group_symop_operation_xyz
x,y,z
1/2-x,1/2-y,1/2+z
1/2+x,1/2-y,-z
-x,y,1/2-z
-x,-y,-z
1/2+x,1/2+y,1/2-z
1/2-x,1/2+y,z
x,-y,1/2+z
loop_
_atom_site_type_symbol
_atom_site_label
_atom_site_fract_x
_atom_site_fract_y
_atom_site_fract_z
Si Si1 0.815533 0.400041 0.033887
Si Si2 0.500000 0.493390 0.750000
Si Si3 0.641834 0.204390 0.023964
Si Si4 0.134529 0.946529 0.065046
Si Si5 0.655303 0.061628 0.182386
O O1 0.651786 0.324727 0.032735
O O2 0.823452 0.459942 0.126297
O O3 0.800914 0.478436 0.949567
O O4 0.976835 0.327743 0.031477
O O5 0.439213 0.561445 0.665462
O O6 0.661711 0.422550 0.730380
O O7 0.626364 0.159149 0.123071
O O8 0.807907 0.162525 0.969500
O O9 0.000000 0.000000 0.000000
O O10 0.500000 0.048297 0.250000
#
# Coordination Sequence:
#
# PCOD8248344 Si02
#       5
#     8   4   8   8   8
#     4  11  23  42  69  96 137 183 230 282 347 409
#     4  12  22  40  78  92 136 174 230 272 354 396
#     4  11  23  42  69  96 137 183 230 282 347 409
#     4  11  21  43  68  96 135 179 222 277 344 408
#     4  11  24  46  65 105 137 182 230 287 344 417
#
# _framework density 23.033657999999999
#
# number of rings (size 3 to 8) (size 9 to 14) (size 15 to 20)
#    0.000    0.889    4.444    6.667    0.000    0.000 
#    4.000    2.222    0.000    0.000    0.000    0.000 
#    0.000    0.000    0.000    0.000    0.000    0.000 
#
# Total GULP energy -446271.649683 kJ/mol
# GULP energy per Si atom -12396.434713 kJ/mol
# Density = 2.298123 g / cm^3
# Si number density = 23.033658 Si / 1000 Ang^3
#
#
#
# Elastic Constant Matrix: (Units=GPa)
#
#
# Indices 1 2 3 4 5 6 
#
# 1 94.4029 -4.7095 31.6292 0.0000 0.0000 0.0000
# 2 -4.7095 112.9624 31.9939 0.0000 0.0000 0.0000
# 3 31.6292 31.9939 142.3507 0.0000 0.0000 0.0000
# 4 0.0000 0.0000 0.0000 17.1086 0.0000 0.0000
# 5 0.0000 0.0000 0.0000 0.0000 51.1496 0.0000
# 6 0.0000 0.0000 0.0000 0.0000 0.0000 29.4397
#
#
#
# Elastic Compliance Matrix: (Units=1/GPa)
#
#
# Indices 1 2 3 4 5 6 
#
# 1 0.011621 0.001298 -0.002874 0.000000 0.000000 0.000000
# 2 0.001298 0.009599 -0.002446 0.000000 0.000000 0.000000
# 3 -0.002874 -0.002446 0.008213 0.000000 0.000000 0.000000
# 4 0.000000 0.000000 0.000000 0.058450 0.000000 0.000000
# 5 0.000000 0.000000 0.000000 0.000000 0.019550 0.000000
# 6 0.000000 0.000000 0.000000 0.000000 0.000000 0.033968
#
#
# Mechanical properties :
#
#
# Convention : Reuss Voigt Hill
#
# Bulk Modulus (GPa) = 46.75014 51.94926 49.34970
# Shear Modulus (GPa) = 31.93368 38.92640 35.43004
#
# Velocity S-wave (km/s) = 3.72747 4.11540 3.92623
# Velocity P-wave (km/s) = 6.23425 6.72195 6.48269
#
# Compressibility (1/GPa) = 0.02139031
#
# Stress axis : x y z
#
# Youngs Moduli (GPa) = 86.05464 104.17307 121.75536
#
# Poissons Ratio (x) = -0.13526 0.34990
# Poissons Ratio (y) = -0.11173 0.29781
# Poissons Ratio (z) = 0.24731 0.25481
#
# Static dielectric constant tensor:
#      x y z
#    x 5.141640 0.000000 0.000000 
#    y 0.000000 4.120050 0.000000 
#    z 0.000000 0.000000 4.119310 
# 
# 
# High freq. dielectric constant tensor:
#      x y z
#    x 1.952750 0.000000 0.000000 
#    y 0.000000 1.896890 0.000000 
#    z 0.000000 0.000000 1.889980 
# 
# From -- ./inp_files/14541.got.cif
#   From: 2010.03.12/outbox.cif.g09.slc.cpg/sg60_8_cif.got.tgz:14541.got - 2010.04.10 18:46:24.
