data_PCOD8248055
_publ_section_title
;
Structure prediction by ZEFSAII (Michael W. Deem and Ramdas Pophale) SiO2 
 PCOD8248055
Probable space group: P B C N
;
_chemical_formula_sum "Si O2"
_cell_formula_units_Z 64
_cell_length_a 12.666766
_cell_length_b 9.454420
_cell_length_c 24.234951
_cell_angle_alpha 90.000000
_cell_angle_beta 90.000000
_cell_angle_gamma 90.000000
_cell_volume 2902.303229
_symmetry_space_group_name_H-M "P B C N"
_symmetry_group_IT_number 60
_symmetry_cell_setting 'orthorhombic'
loop_
_space_group_symop_operation_xyz
x,y,z
1/2-x,1/2-y,1/2+z
1/2+x,1/2-y,-z
-x,y,1/2-z
-x,-y,-z
1/2+x,1/2+y,1/2-z
1/2-x,1/2+y,z
x,-y,1/2+z
loop_
_atom_site_type_symbol
_atom_site_label
_atom_site_fract_x
_atom_site_fract_y
_atom_site_fract_z
Si Si1 0.345616 0.632902 0.569212
Si Si2 0.970440 0.251589 0.114411
Si Si3 0.428168 0.502988 0.173345
Si Si4 0.963235 0.211518 0.507312
Si Si5 0.763269 0.607000 0.488423
Si Si6 0.086377 0.527497 0.428469
Si Si7 0.240762 0.337336 0.845802
Si Si8 0.351088 0.419890 0.291577
O O1 0.351827 0.581573 0.631918
O O2 0.461461 0.608269 0.542761
O O3 0.309283 0.794276 0.560518
O O4 0.256106 0.544883 0.538037
O O5 0.985986 0.424379 0.111018
O O6 0.849133 0.223308 0.129636
O O7 0.001665 0.189178 0.055351
O O8 0.049819 0.169469 0.157316
O O9 0.369736 0.485179 0.231288
O O10 0.540655 0.425126 0.173990
O O11 0.842400 0.169305 0.515378
O O12 0.980161 0.374459 0.529008
O O13 0.843983 0.588785 0.538693
O O14 0.155668 0.639071 0.393906
O O15 0.192289 0.239226 0.797000
O O16 0.259731 0.488430 0.818922
#
# Coordination Sequence:
#
# PCOD8248055 Si02
#       8
#     8   8   8   8   8   8   8   8
#     4  12  25  42  65  95 136 191 221 281 346 419
#     4  11  22  39  65 101 134 182 223 273 345 413
#     4  10  24  44  69  91 133 175 230 280 355 405
#     4  12  24  40  64  97 150 183 221 277 339 416
#     4  12  25  40  62 100 143 183 232 265 341 428
#     4  12  23  38  65 107 141 181 230 280 333 426
#     4  11  22  42  72  98 129 172 231 287 339 401
#     4  10  23  45  71  96 123 169 232 295 343 396
#
# _framework density 22.051452000000001
#
# number of rings (size 3 to 8) (size 9 to 14) (size 15 to 20)
#    0.000    0.750    5.000    3.000    3.500    1.000 
#    0.000    0.000    8.250    0.000    0.000    0.000 
#    0.000    0.000    0.000    0.000    0.000    0.000 
#
# Total GULP energy -793331.082333 kJ/mol
# GULP energy per Si atom -12395.798161 kJ/mol
# Density = 2.200126 g / cm^3
# Si number density = 22.051452 Si / 1000 Ang^3
#
#
#
# Elastic Constant Matrix: (Units=GPa)
#
#
# Indices 1 2 3 4 5 6 
#
# 1 60.1451 18.8598 24.6282 0.0000 0.0000 0.0000
# 2 18.8598 91.7854 41.8999 0.0000 0.0000 0.0000
# 3 24.6282 41.8999 88.7077 0.0000 0.0000 0.0000
# 4 0.0000 0.0000 0.0000 33.8373 0.0000 0.0000
# 5 0.0000 0.0000 0.0000 0.0000 26.5566 0.0000
# 6 0.0000 0.0000 0.0000 0.0000 0.0000 29.6318
#
#
#
# Elastic Compliance Matrix: (Units=1/GPa)
#
#
# Indices 1 2 3 4 5 6 
#
# 1 0.019018 -0.001909 -0.004378 0.000000 0.000000 0.000000
# 2 -0.001909 0.014082 -0.006121 0.000000 0.000000 0.000000
# 3 -0.004378 -0.006121 0.015380 0.000000 0.000000 0.000000
# 4 0.000000 0.000000 0.000000 0.029553 0.000000 0.000000
# 5 0.000000 0.000000 0.000000 0.000000 0.037655 0.000000
# 6 0.000000 0.000000 0.000000 0.000000 0.000000 0.033748
#
#
# Mechanical properties :
#
#
# Convention : Reuss Voigt Hill
#
# Bulk Modulus (GPa) = 42.26158 45.71268 43.98713
# Shear Modulus (GPa) = 27.45139 28.35514 27.90327
#
# Velocity S-wave (km/s) = 3.53211 3.58978 3.56106
# Velocity P-wave (km/s) = 5.98674 6.16093 6.07446
#
# Compressibility (1/GPa) = 0.02366215
#
# Stress axis : x y z
#
# Youngs Moduli (GPa) = 52.58197 71.01472 65.02025
#
# Poissons Ratio (x) = 0.13557 0.28468
# Poissons Ratio (y) = 0.10038 0.39800
# Poissons Ratio (z) = 0.23022 0.43470
#
# Static dielectric constant tensor:
#      x y z
#    x 3.997290 0.000000 0.000000 
#    y 0.000000 4.062710 0.000000 
#    z 0.000000 0.000000 3.741230 
# 
# 
# High freq. dielectric constant tensor:
#      x y z
#    x 1.865450 0.000000 0.000000 
#    y 0.000000 1.879180 0.000000 
#    z 0.000000 0.000000 1.846690 
# 
# From -- ./inp_files/24466.got.cif
#   From: 2010.03.12/outbox.cif.g09.slc.cpg/sg60_13_cif.got.tgz:24466.got - 2010.04.10 18:46:24.
