data_PCOD8248389
_publ_section_title
;
Structure prediction by ZEFSAII (Michael W. Deem and Ramdas Pophale) SiO2 
 PCOD8248389
Probable space group: P B C N
;
_chemical_formula_sum "Si O2"
_cell_formula_units_Z 64
_cell_length_a 17.399547
_cell_length_b 8.905246
_cell_length_c 19.057639
_cell_angle_alpha 90.000000
_cell_angle_beta 90.000000
_cell_angle_gamma 90.000000
_cell_volume 2952.928684
_symmetry_space_group_name_H-M "P B C N"
_symmetry_group_IT_number 60
_symmetry_cell_setting 'orthorhombic'
loop_
_space_group_symop_operation_xyz
x,y,z
1/2-x,1/2-y,1/2+z
1/2+x,1/2-y,-z
-x,y,1/2-z
-x,-y,-z
1/2+x,1/2+y,1/2-z
1/2-x,1/2+y,z
x,-y,1/2+z
loop_
_atom_site_type_symbol
_atom_site_label
_atom_site_fract_x
_atom_site_fract_y
_atom_site_fract_z
Si Si1 0.920323 0.512314 0.112855
Si Si2 0.704832 0.763239 0.771385
Si Si3 0.351557 0.902980 0.250469
Si Si4 0.316562 0.986481 0.018697
Si Si5 0.065655 0.331830 0.114980
Si Si6 0.177436 0.182308 0.572198
Si Si7 0.439826 0.681849 0.812415
Si Si8 0.025526 0.002570 0.579449
O O1 0.886249 0.406754 0.172577
O O2 0.952087 0.665226 0.145199
O O3 0.993102 0.421277 0.082081
O O4 0.854237 0.549177 0.056549
O O5 0.789947 0.730803 0.743412
O O6 0.709620 0.703178 0.850206
O O7 0.644728 0.672782 0.721984
O O8 0.688156 0.939836 0.770752
O O9 0.420978 0.865236 0.197227
O O10 0.358473 0.886585 0.076346
O O11 0.227614 0.934792 0.025513
O O12 0.324232 0.162586 0.030454
O O13 0.057375 0.156146 0.103737
O O14 0.091536 0.126013 0.583371
O O15 0.500000 0.674766 0.750000
O O16 0.455719 0.548223 0.868049
O O17 0.000000 0.000000 0.500000
#
# Coordination Sequence:
#
# PCOD8248389 Si02
#       8
#     8   8   8   8   8   8   8   8
#     4  11  25  44  65 100 136 172 225 280 342 407
#     4  11  22  42  67  94 131 173 228 275 328 408
#     4  11  25  41  68  98 130 176 221 277 333 399
#     4  12  25  42  72  96 134 180 217 279 345 405
#     4  12  23  43  67  97 134 178 223 276 335 410
#     4  12  23  44  67  94 133 173 228 268 338 410
#     4  11  23  44  71  95 134 185 224 280 345 404
#     4  12  27  43  68 105 138 177 231 285 341 407
#
# _framework density 21.673399
#
# number of rings (size 3 to 8) (size 9 to 14) (size 15 to 20)
#    0.000    0.500    3.750    5.250    1.750    5.000 
#    0.000    0.000    0.000    0.000    0.000    0.000 
#    0.000    0.000    0.000    0.000    0.000    0.000 
#
# Total GULP energy -793832.220890 kJ/mol
# GULP energy per Si atom -12403.628451 kJ/mol
# Density = 2.162407 g / cm^3
# Si number density = 21.673399 Si / 1000 Ang^3
#
#
#
# Elastic Constant Matrix: (Units=GPa)
#
#
# Indices 1 2 3 4 5 6 
#
# 1 65.9419 18.6341 18.1959 0.0000 0.0000 0.0000
# 2 18.6341 93.9992 15.9018 0.0000 0.0000 0.0000
# 3 18.1959 15.9018 104.3412 0.0000 0.0000 0.0000
# 4 0.0000 0.0000 0.0000 9.8544 0.0000 0.0000
# 5 0.0000 0.0000 0.0000 0.0000 7.6263 0.0000
# 6 0.0000 0.0000 0.0000 0.0000 0.0000 41.1251
#
#
#
# Elastic Compliance Matrix: (Units=1/GPa)
#
#
# Indices 1 2 3 4 5 6 
#
# 1 0.016661 -0.002886 -0.002466 0.000000 0.000000 0.000000
# 2 -0.002886 0.011420 -0.001237 0.000000 0.000000 0.000000
# 3 -0.002466 -0.001237 0.010202 0.000000 0.000000 0.000000
# 4 0.000000 0.000000 0.000000 0.101478 0.000000 0.000000
# 5 0.000000 0.000000 0.000000 0.000000 0.131125 0.000000
# 6 0.000000 0.000000 0.000000 0.000000 0.000000 0.024316
#
#
# Mechanical properties :
#
#
# Convention : Reuss Voigt Hill
#
# Bulk Modulus (GPa) = 39.83120 41.08286 40.45703
# Shear Modulus (GPa) = 15.78544 25.82452 20.80498
#
# Velocity S-wave (km/s) = 2.70169 3.45560 3.10164
# Velocity P-wave (km/s) = 5.30566 5.90916 5.61552
#
# Compressibility (1/GPa) = 0.02510595
#
# Stress axis : x y z
#
# Youngs Moduli (GPa) = 60.02156 87.56783 98.01550
#
# Poissons Ratio (x) = 0.25269 0.24167
# Poissons Ratio (y) = 0.17320 0.12126
# Poissons Ratio (z) = 0.14799 0.10834
#
# Static dielectric constant tensor:
#      x y z
#    x 3.943110 0.000000 0.000000 
#    y 0.000000 3.819180 0.000000 
#    z 0.000000 0.000000 3.825970 
# 
# 
# High freq. dielectric constant tensor:
#      x y z
#    x 1.857760 0.000000 0.000000 
#    y 0.000000 1.853380 0.000000 
#    z 0.000000 0.000000 1.858880 
# 
# From -- ./inp_files/23089.got.cif
#   From: 2010.03.12/outbox.cif.g09.slc.cpg/sg60_12_cif.got.tgz:23089.got - 2010.04.10 18:46:24.
