data_PCOD8248072
_publ_section_title
;
Structure prediction by ZEFSAII (Michael W. Deem and Ramdas Pophale) SiO2 
 PCOD8248072
Probable space group: P B C N
;
_chemical_formula_sum "Si O2"
_cell_formula_units_Z 28
_cell_length_a 10.418184
_cell_length_b 9.158542
_cell_length_c 13.546147
_cell_angle_alpha 90.000000
_cell_angle_beta 90.000000
_cell_angle_gamma 90.000000
_cell_volume 1292.510706
_symmetry_space_group_name_H-M "P B C N"
_symmetry_group_IT_number 60
_symmetry_cell_setting 'orthorhombic'
loop_
_space_group_symop_operation_xyz
x,y,z
1/2-x,1/2-y,1/2+z
1/2+x,1/2-y,-z
-x,y,1/2-z
-x,-y,-z
1/2+x,1/2+y,1/2-z
1/2-x,1/2+y,z
x,-y,1/2+z
loop_
_atom_site_type_symbol
_atom_site_label
_atom_site_fract_x
_atom_site_fract_y
_atom_site_fract_z
Si Si1 0.173436 0.866663 0.116121
Si Si2 0.366709 0.815189 0.288248
Si Si3 0.639207 0.927721 0.997995
Si Si4 0.500000 0.463708 0.750000
O O1 0.255302 0.852489 0.214133
O O2 0.043675 0.944682 0.153781
O O3 0.135259 0.709984 0.074530
O O4 0.251076 0.959466 0.035202
O O5 0.500000 0.889497 0.250000
O O6 0.323758 0.874836 0.393482
O O7 0.384899 0.639429 0.290935
O O8 0.500000 0.000000 0.000000
#
# Coordination Sequence:
#
# PCOD8248072 Si02
#       4
#     8   8   8   4
#     4  12  26  47  75 110 146 196 250 307 374 444
#     4  10  23  47  69 105 154 184 247 309 364 445
#     4  12  26  46  77 109 148 200 248 304 379 446
#     4  10  24  48  72 104 152 190 242 308 368 434
#
# _framework density 21.663262
#
# number of rings (size 3 to 8) (size 9 to 14) (size 15 to 20)
#    0.857    0.000    5.714    0.000    4.000    5.714 
#    0.000    0.000    0.000    0.000    0.000    0.000 
#    0.000    0.000    0.000    0.000    0.000    0.000 
#
# Total GULP energy -347174.971626 kJ/mol
# GULP energy per Si atom -12399.106129 kJ/mol
# Density = 2.161396 g / cm^3
# Si number density = 21.663262 Si / 1000 Ang^3
#
#
#
# Elastic Constant Matrix: (Units=GPa)
#
#
# Indices 1 2 3 4 5 6 
#
# 1 52.7642 28.1858 33.6189 0.0000 0.0000 0.0000
# 2 28.1858 120.7586 42.6973 0.0000 0.0000 0.0000
# 3 33.6189 42.6973 142.9890 0.0000 0.0000 0.0000
# 4 0.0000 0.0000 0.0000 -32.9081 0.0000 0.0000
# 5 0.0000 0.0000 0.0000 0.0000 47.9771 0.0000
# 6 0.0000 0.0000 0.0000 0.0000 0.0000 -47.2275
#
#
#
# Elastic Compliance Matrix: (Units=1/GPa)
#
#
# Indices 1 2 3 4 5 6 
#
# 1 0.023917 -0.004018 -0.004423 0.000000 0.000000 0.000000
# 2 -0.004018 0.009934 -0.002021 0.000000 0.000000 0.000000
# 3 -0.004423 -0.002021 0.008637 0.000000 0.000000 0.000000
# 4 0.000000 0.000000 0.000000 -0.030388 0.000000 0.000000
# 5 0.000000 0.000000 0.000000 0.000000 0.020843 0.000000
# 6 0.000000 0.000000 0.000000 0.000000 0.000000 -0.021174
#
#
# Mechanical properties :
#
#
# Convention : Reuss Voigt Hill
#
# Bulk Modulus (GPa) = 46.37892 58.39063 52.38477
# Shear Modulus (GPa) = 125.36634 7.70230 66.53432
#
# Velocity S-wave (km/s) = 7.61552 1.88764 5.54794
# Velocity P-wave (km/s) = 9.93900 5.63588 8.07920
#
# Compressibility (1/GPa) = 0.02156152
#
# Stress axis : x y z
#
# Youngs Moduli (GPa) = 41.81096 100.66808 115.77879
#
# Poissons Ratio (x) = 0.40453 0.51213
# Poissons Ratio (y) = 0.16801 0.23404
# Poissons Ratio (z) = 0.18495 0.20350
#
# Static dielectric constant tensor:
#      x y z
#    x 3.687120 0.000000 0.000000 
#    y 0.000000 4.037900 0.000000 
#    z 0.000000 0.000000 4.635390 
# 
# 
# High freq. dielectric constant tensor:
#      x y z
#    x 1.846010 0.000000 0.000000 
#    y 0.000000 1.858170 0.000000 
#    z 0.000000 0.000000 1.861770 
# 
# From -- ./inp_files/15513.got.cif
#   From: 2010.03.12/outbox.cif.g09.slc.cpg/sg60_8_cif.got.tgz:15513.got - 2010.04.10 18:46:24.
