data_PCOD8248533
_publ_section_title
;
Structure prediction by ZEFSAII (Michael W. Deem and Ramdas Pophale) SiO2 
 PCOD8248533
Probable space group: P B C N
;
_chemical_formula_sum "Si O2"
_cell_formula_units_Z 64
_cell_length_a 11.672528
_cell_length_b 14.224569
_cell_length_c 16.347130
_cell_angle_alpha 90.000000
_cell_angle_beta 90.000000
_cell_angle_gamma 90.000000
_cell_volume 2714.223192
_symmetry_space_group_name_H-M "P B C N"
_symmetry_group_IT_number 60
_symmetry_cell_setting 'orthorhombic'
loop_
_space_group_symop_operation_xyz
x,y,z
1/2-x,1/2-y,1/2+z
1/2+x,1/2-y,-z
-x,y,1/2-z
-x,-y,-z
1/2+x,1/2+y,1/2-z
1/2-x,1/2+y,z
x,-y,1/2+z
loop_
_atom_site_type_symbol
_atom_site_label
_atom_site_fract_x
_atom_site_fract_y
_atom_site_fract_z
Si Si1 0.465176 0.342571 0.335633
Si Si2 0.414817 0.080579 0.526688
Si Si3 0.382146 0.040487 0.713656
Si Si4 0.195639 0.857563 0.929627
Si Si5 0.732779 0.787997 0.212735
Si Si6 0.985805 0.947646 0.844753
Si Si7 0.419095 0.784749 0.540458
Si Si8 0.245325 0.629667 0.161401
O O1 0.500000 0.296880 0.250000
O O2 0.329017 0.354321 0.327938
O O3 0.531590 0.440254 0.350780
O O4 0.490790 0.264561 0.401051
O O5 0.372074 0.066818 0.618328
O O6 0.310693 0.088128 0.459388
O O7 0.497004 0.172044 0.527667
O O8 0.500000 0.000000 0.500000
O O9 0.500000 0.999533 0.750000
O O10 0.362600 0.134462 0.766805
O O11 0.290763 0.954971 0.723923
O O12 0.200236 0.792038 0.850550
O O13 0.091706 0.927255 0.905786
O O14 0.166490 0.792470 0.006135
O O15 0.762710 0.731801 0.295976
O O16 0.871460 0.893763 0.874922
O O17 0.000000 0.916243 0.750000
O O18 0.343930 0.865449 0.585738
#
# Coordination Sequence:
#
# PCOD8248533 Si02
#       8
#     8   8   8   8   8   8   8   8
#     4  11  24  46  73 106 142 196 255 312 385 464
#     4  12  28  51  74 114 162 200 256 325 403 475
#     4  12  29  49  81 113 154 207 267 323 399 483
#     4  12  29  47  76 112 156 204 256 327 401 465
#     4  12  26  47  78 107 148 196 262 316 385 466
#     4  11  26  47  76 109 152 199 265 320 382 470
#     4  12  27  47  75 107 154 200 248 320 394 464
#     4  12  27  47  79 111 150 204 260 327 385 474
#
# _framework density 23.57949
#
# number of rings (size 3 to 8) (size 9 to 14) (size 15 to 20)
#    0.000    0.250    5.000    3.000   10.500    1.500 
#    0.000    0.000    0.000    0.000    0.000    0.000 
#    0.000    0.000    0.000    0.000    0.000    0.000 
#
# Total GULP energy -793294.446228 kJ/mol
# GULP energy per Si atom -12395.225722 kJ/mol
# Density = 2.352582 g / cm^3
# Si number density = 23.579490 Si / 1000 Ang^3
#
#
#
# Elastic Constant Matrix: (Units=GPa)
#
#
# Indices 1 2 3 4 5 6 
#
# 1 137.7222 41.3258 24.1188 0.0000 0.0000 0.0000
# 2 41.3258 93.0866 18.7742 0.0000 0.0000 0.0000
# 3 24.1188 18.7742 67.3747 0.0000 0.0000 0.0000
# 4 0.0000 0.0000 0.0000 29.7676 0.0000 0.0000
# 5 0.0000 0.0000 0.0000 0.0000 33.9759 0.0000
# 6 0.0000 0.0000 0.0000 0.0000 0.0000 35.1152
#
#
#
# Elastic Compliance Matrix: (Units=1/GPa)
#
#
# Indices 1 2 3 4 5 6 
#
# 1 0.008661 -0.003412 -0.002150 0.000000 0.000000 0.000000
# 2 -0.003412 0.012726 -0.002325 0.000000 0.000000 0.000000
# 3 -0.002150 -0.002325 0.016260 0.000000 0.000000 0.000000
# 4 0.000000 0.000000 0.000000 0.033594 0.000000 0.000000
# 5 0.000000 0.000000 0.000000 0.000000 0.029433 0.000000
# 6 0.000000 0.000000 0.000000 0.000000 0.000000 0.028478
#
#
# Mechanical properties :
#
#
# Convention : Reuss Voigt Hill
#
# Bulk Modulus (GPa) = 45.71541 51.84678 48.78110
# Shear Modulus (GPa) = 32.84821 34.03604 33.44212
#
# Velocity S-wave (km/s) = 3.73645 3.80341 3.77008
# Velocity P-wave (km/s) = 6.16803 6.42835 6.29954
#
# Compressibility (1/GPa) = 0.02187446
#
# Stress axis : x y z
#
# Youngs Moduli (GPa) = 115.45765 78.57846 61.50122
#
# Poissons Ratio (x) = 0.26807 0.13222
# Poissons Ratio (y) = 0.39389 0.14299
# Poissons Ratio (z) = 0.24822 0.18269
#
# Static dielectric constant tensor:
#      x y z
#    x 5.092520 0.000000 0.000000 
#    y 0.000000 4.244750 0.000000 
#    z 0.000000 0.000000 4.388210 
# 
# 
# High freq. dielectric constant tensor:
#      x y z
#    x 1.942950 0.000000 0.000000 
#    y 0.000000 1.943500 0.000000 
#    z 0.000000 0.000000 1.926430 
# 
# From -- ./inp_files/20193.got.cif
#   From: 2010.03.12/outbox.cif.g09.slc.cpg/sg60_11_cif.got.tgz:20193.got - 2010.04.10 18:46:24.
