data_PCOD8248359
_publ_section_title
;
Structure prediction by ZEFSAII (Michael W. Deem and Ramdas Pophale) SiO2 
 PCOD8248359
Probable space group: P B C N
;
_chemical_formula_sum "Si O2"
_cell_formula_units_Z 48
_cell_length_a 17.175866
_cell_length_b 13.539696
_cell_length_c 9.865161
_cell_angle_alpha 90.000000
_cell_angle_beta 90.000000
_cell_angle_gamma 90.000000
_cell_volume 2294.202423
_symmetry_space_group_name_H-M "P B C N"
_symmetry_group_IT_number 60
_symmetry_cell_setting 'orthorhombic'
loop_
_space_group_symop_operation_xyz
x,y,z
1/2-x,1/2-y,1/2+z
1/2+x,1/2-y,-z
-x,y,1/2-z
-x,-y,-z
1/2+x,1/2+y,1/2-z
1/2-x,1/2+y,z
x,-y,1/2+z
loop_
_atom_site_type_symbol
_atom_site_label
_atom_site_fract_x
_atom_site_fract_y
_atom_site_fract_z
Si Si1 0.906600 0.284119 0.241334
Si Si2 0.697527 0.622197 0.134005
Si Si3 0.217988 0.948338 0.564441
Si Si4 0.971619 0.627461 0.107916
Si Si5 0.113599 0.435183 0.462281
Si Si6 0.657988 0.249416 0.033758
O O1 0.877312 0.193224 0.146721
O O2 0.875071 0.389574 0.186464
O O3 0.861247 0.285060 0.382260
O O4 0.000000 0.277917 0.250000
O O5 0.702724 0.558581 0.274079
O O6 0.773160 0.689598 0.107316
O O7 0.688506 0.550404 0.003556
O O8 0.309790 0.932590 0.551493
O O9 0.175659 0.864954 0.473974
O O10 0.915318 0.547113 0.039059
O O11 0.921755 0.728675 0.119012
O O12 0.000000 0.586065 0.250000
O O13 0.049108 0.641189 0.020318
#
# Coordination Sequence:
#
# PCOD8248359 Si02
#       6
#     8   8   8   8   8   8
#     4  11  23  44  67  95 130 179 219 269 332 395
#     4  11  25  43  67  95 135 171 225 271 326 386
#     4  11  25  42  64  98 127 175 220 273 323 392
#     4  11  23  36  60  98 131 162 209 269 334 402
#     4  11  22  37  65  94 130 167 207 267 343 388
#     4  11  23  41  65  94 129 169 221 268 324 400
#
# _framework density 20.922304
#
# number of rings (size 3 to 8) (size 9 to 14) (size 15 to 20)
#    0.000    1.000    5.000    1.500    4.667    0.000 
#    3.000    4.167    0.000    0.000    0.000    0.000 
#    0.000    0.000    0.000    0.000    0.000    0.000 
#
# Total GULP energy -594824.351724 kJ/mol
# GULP energy per Si atom -12392.173994 kJ/mol
# Density = 2.087468 g / cm^3
# Si number density = 20.922304 Si / 1000 Ang^3
#
#
#
# Elastic Constant Matrix: (Units=GPa)
#
#
# Indices 1 2 3 4 5 6 
#
# 1 73.3632 14.9292 7.6863 0.0000 0.0000 0.0000
# 2 14.9292 58.4922 15.0056 0.0000 0.0000 0.0000
# 3 7.6863 15.0056 73.3475 0.0000 0.0000 0.0000
# 4 0.0000 0.0000 0.0000 37.4128 0.0000 0.0000
# 5 0.0000 0.0000 0.0000 0.0000 27.7497 0.0000
# 6 0.0000 0.0000 0.0000 0.0000 0.0000 26.8010
#
#
#
# Elastic Compliance Matrix: (Units=1/GPa)
#
#
# Indices 1 2 3 4 5 6 
#
# 1 0.014422 -0.003476 -0.000800 0.000000 0.000000 0.000000
# 2 -0.003476 0.018881 -0.003498 0.000000 0.000000 0.000000
# 3 -0.000800 -0.003498 0.014433 0.000000 0.000000 0.000000
# 4 0.000000 0.000000 0.000000 0.026729 0.000000 0.000000
# 5 0.000000 0.000000 0.000000 0.000000 0.036036 0.000000
# 6 0.000000 0.000000 0.000000 0.000000 0.000000 0.037312
#
#
# Mechanical properties :
#
#
# Convention : Reuss Voigt Hill
#
# Bulk Modulus (GPa) = 31.06811 31.16058 31.11435
# Shear Modulus (GPa) = 28.72053 29.56480 29.14267
#
# Velocity S-wave (km/s) = 3.70905 3.76317 3.73621
# Velocity P-wave (km/s) = 5.76405 5.81444 5.78930
#
# Compressibility (1/GPa) = 0.03218735
#
# Stress axis : x y z
#
# Youngs Moduli (GPa) = 69.33880 52.96352 69.28410
#
# Poissons Ratio (x) = 0.18408 0.05544
# Poissons Ratio (y) = 0.24100 0.24239
# Poissons Ratio (z) = 0.05549 0.18529
#
# Static dielectric constant tensor:
#      x y z
#    x 4.107410 0.000000 0.000000 
#    y 0.000000 3.882310 0.000000 
#    z 0.000000 0.000000 3.939030 
# 
# 
# High freq. dielectric constant tensor:
#      x y z
#    x 1.820300 0.000000 0.000000 
#    y 0.000000 1.808950 0.000000 
#    z 0.000000 0.000000 1.827300 
# 
# From -- ./inp_files/6694.got.cif
#   From: 2010.03.12/outbox.cif.g09.slc.cpg/sg60_4_cif.got.tgz:6694.got - 2010.04.10 18:46:24.
