data_PCOD8248372
_publ_section_title
;
Structure prediction by ZEFSAII (Michael W. Deem and Ramdas Pophale) SiO2 
 PCOD8248372
Probable space group: P B C N
;
_chemical_formula_sum "Si O2"
_cell_formula_units_Z 32
_cell_length_a 5.137986
_cell_length_b 12.419165
_cell_length_c 21.129797
_cell_angle_alpha 90.000000
_cell_angle_beta 90.000000
_cell_angle_gamma 90.000000
_cell_volume 1348.281695
_symmetry_space_group_name_H-M "P B C N"
_symmetry_group_IT_number 60
_symmetry_cell_setting 'orthorhombic'
loop_
_space_group_symop_operation_xyz
x,y,z
1/2-x,1/2-y,1/2+z
1/2+x,1/2-y,-z
-x,y,1/2-z
-x,-y,-z
1/2+x,1/2+y,1/2-z
1/2-x,1/2+y,z
x,-y,1/2+z
loop_
_atom_site_type_symbol
_atom_site_label
_atom_site_fract_x
_atom_site_fract_y
_atom_site_fract_z
Si Si1 0.613437 0.992982 0.873508
Si Si2 0.119772 0.904999 0.319186
Si Si3 0.706175 0.406793 0.489118
Si Si4 0.463801 0.777798 0.905842
O O1 0.390249 0.028815 0.823245
O O2 0.559191 0.043162 0.944789
O O3 0.897614 0.038528 0.859536
O O4 0.655519 0.863717 0.871632
O O5 0.181063 0.788634 0.350477
O O6 0.000000 0.891722 0.250000
O O7 0.500000 0.500000 0.500000
O O8 0.780104 0.363515 0.558198
O O9 0.600695 0.299392 0.455290
#
# Coordination Sequence:
#
# PCOD8248372 Si02
#       4
#     8   8   8   8
#     4  11  24  43  66  96 133 174 222 280 340 406
#     4  11  26  45  66  95 131 177 235 286 333 399
#     4  11  22  40  67 105 142 175 221 281 348 429
#     4  11  22  40  68  98 133 178 217 271 345 410
#
# _framework density 23.733913999999999
#
# number of rings (size 3 to 8) (size 9 to 14) (size 15 to 20)
#    0.000    1.000    0.000    7.500    0.000    8.000 
#    0.000    0.000    0.000    0.000    0.000    0.000 
#    0.000    0.000    0.000    0.000    0.000    0.000 
#
# Total GULP energy -396502.901994 kJ/mol
# GULP energy per Si atom -12390.715687 kJ/mol
# Density = 2.367989 g / cm^3
# Si number density = 23.733914 Si / 1000 Ang^3
#
#
#
# Elastic Constant Matrix: (Units=GPa)
#
#
# Indices 1 2 3 4 5 6 
#
# 1 90.1540 44.3556 12.2872 0.0000 0.0000 0.0000
# 2 44.3556 192.6151 41.7240 0.0000 0.0000 0.0000
# 3 12.2872 41.7240 99.9110 0.0000 0.0000 0.0000
# 4 0.0000 0.0000 0.0000 25.1176 0.0000 0.0000
# 5 0.0000 0.0000 0.0000 0.0000 34.9447 0.0000
# 6 0.0000 0.0000 0.0000 0.0000 0.0000 26.2983
#
#
#
# Elastic Compliance Matrix: (Units=1/GPa)
#
#
# Indices 1 2 3 4 5 6 
#
# 1 0.012522 -0.002804 -0.000369 0.000000 0.000000 0.000000
# 2 -0.002804 0.006336 -0.002301 0.000000 0.000000 0.000000
# 3 -0.000369 -0.002301 0.011015 0.000000 0.000000 0.000000
# 4 0.000000 0.000000 0.000000 0.039813 0.000000 0.000000
# 5 0.000000 0.000000 0.000000 0.000000 0.028617 0.000000
# 6 0.000000 0.000000 0.000000 0.000000 0.000000 0.038025
#
#
# Mechanical properties :
#
#
# Convention : Reuss Voigt Hill
#
# Bulk Modulus (GPa) = 52.83957 64.37928 58.60942
# Shear Modulus (GPa) = 32.55558 36.22634 34.39096
#
# Velocity S-wave (km/s) = 3.70765 3.91110 3.81073
# Velocity P-wave (km/s) = 6.37499 6.89782 6.64155
#
# Compressibility (1/GPa) = 0.01892521
#
# Stress axis : x y z
#
# Youngs Moduli (GPa) = 79.86075 157.83394 90.78301
#
# Poissons Ratio (x) = 0.44250 0.03351
# Poissons Ratio (y) = 0.22390 0.20890
# Poissons Ratio (z) = 0.02948 0.36319
#
# Static dielectric constant tensor:
#      x y z
#    x 4.047690 0.000000 0.000000 
#    y 0.000000 4.740760 0.000000 
#    z 0.000000 0.000000 4.676750 
# 
# 
# High freq. dielectric constant tensor:
#      x y z
#    x 1.920440 0.000000 0.000000 
#    y 0.000000 1.968800 0.000000 
#    z 0.000000 0.000000 1.939130 
# 
# From -- ./inp_files/21402.got.cif
#   From: 2010.03.12/outbox.cif.g09.slc.cpg/sg60_11_cif.got.tgz:21402.got - 2010.04.10 18:46:24.
