data_PCOD8248773
_publ_section_title
;
Structure prediction by ZEFSAII (Michael W. Deem and Ramdas Pophale) SiO2 
 PCOD8248773
Probable space group: P B C A
;
_chemical_formula_sum "Si O2"
_cell_formula_units_Z 48
_cell_length_a 14.665376
_cell_length_b 12.007131
_cell_length_c 13.255182
_cell_angle_alpha 90.000000
_cell_angle_beta 90.000000
_cell_angle_gamma 90.000000
_cell_volume 2334.092947
_symmetry_space_group_name_H-M "P B C A"
_symmetry_group_IT_number 61
_symmetry_cell_setting 'orthorhombic'
loop_
_space_group_symop_operation_xyz
x,y,z
1/2-x,-y,1/2+z
1/2+x,1/2-y,-z
-x,1/2+y,1/2-z
-x,-y,-z
1/2+x,y,1/2-z
1/2-x,1/2+y,z
x,1/2-y,1/2+z
loop_
_atom_site_type_symbol
_atom_site_label
_atom_site_fract_x
_atom_site_fract_y
_atom_site_fract_z
Si Si1 0.791385 0.698745 0.685273
Si Si2 0.893014 0.114484 0.745197
Si Si3 0.118281 0.372174 0.692041
Si Si4 0.604413 0.231151 0.992879
Si Si5 0.460832 0.321293 0.651384
Si Si6 0.590677 0.438190 0.327954
O O1 0.689490 0.651612 0.672529
O O2 0.795511 0.802328 0.764419
O O3 0.819256 0.742353 0.575436
O O4 0.858838 0.599997 0.725049
O O5 0.903156 0.210533 0.828470
O O6 0.983220 0.092195 0.679650
O O7 0.862668 0.003142 0.804108
O O8 0.094223 0.340379 0.577064
O O9 0.033063 0.334897 0.759265
O O10 0.509311 0.196742 0.044267
O O11 0.634429 0.127230 0.922619
O O12 0.396591 0.430621 0.650839
#
# Coordination Sequence:
#
# PCOD8248773 Si02
#       6
#     8   8   8   8   8   8
#     4  10  22  40  62  88 130 169 211 265 315 380
#     4  11  21  40  63  91 124 175 204 252 340 375
#     4   9  21  40  60  90 132 157 213 267 308 384
#     4  10  18  42  63  91 121 166 212 270 302 372
#     4  10  20  38  66  88 124 170 203 262 329 376
#     4  10  21  42  61  90 130 163 210 271 315 380
#
# _framework density 20.564733
#
# number of rings (size 3 to 8) (size 9 to 14) (size 15 to 20)
#    0.000    2.000    5.000    0.500    2.333    0.667 
#    6.000   10.000    0.000    0.000    0.000    0.000 
#    0.000    0.000    0.000    0.000    0.000    0.000 
#
# Total GULP energy -595057.387454 kJ/mol
# GULP energy per Si atom -12397.028905 kJ/mol
# Density = 2.051793 g / cm^3
# Si number density = 20.564733 Si / 1000 Ang^3
#
#
#
# Elastic Constant Matrix: (Units=GPa)
#
#
# Indices 1 2 3 4 5 6 
#
# 1 58.9375 16.2736 14.3018 0.0000 0.0000 0.0000
# 2 16.2736 171.4924 39.5830 0.0000 0.0000 0.0000
# 3 14.3018 39.5830 109.4719 0.0000 0.0000 0.0000
# 4 0.0000 0.0000 0.0000 28.2518 0.0000 0.0000
# 5 0.0000 0.0000 0.0000 0.0000 11.8643 0.0000
# 6 0.0000 0.0000 0.0000 0.0000 0.0000 24.1058
#
#
#
# Elastic Compliance Matrix: (Units=1/GPa)
#
#
# Indices 1 2 3 4 5 6 
#
# 1 0.017767 -0.001255 -0.001867 0.000000 0.000000 0.000000
# 2 -0.001255 0.006451 -0.002169 0.000000 0.000000 0.000000
# 3 -0.001867 -0.002169 0.010163 0.000000 0.000000 0.000000
# 4 0.000000 0.000000 0.000000 0.035396 0.000000 0.000000
# 5 0.000000 0.000000 0.000000 0.000000 0.084286 0.000000
# 6 0.000000 0.000000 0.000000 0.000000 0.000000 0.041484
#
#
# Mechanical properties :
#
#
# Convention : Reuss Voigt Hill
#
# Bulk Modulus (GPa) = 42.01908 53.35764 47.68836
# Shear Modulus (GPa) = 23.35782 30.82728 27.09255
#
# Velocity S-wave (km/s) = 3.37385 3.87594 3.63358
# Velocity P-wave (km/s) = 5.97110 6.78477 6.39090
#
# Compressibility (1/GPa) = 0.02379871
#
# Stress axis : x y z
#
# Youngs Moduli (GPa) = 56.28484 155.02003 98.39786
#
# Poissons Ratio (x) = 0.19454 0.18374
# Poissons Ratio (y) = 0.07063 0.21338
# Poissons Ratio (z) = 0.10510 0.33617
#
# Static dielectric constant tensor:
#      x y z
#    x 3.490460 0.000000 0.000000 
#    y 0.000000 4.161260 0.000000 
#    z 0.000000 0.000000 3.526530 
# 
# 
# High freq. dielectric constant tensor:
#      x y z
#    x 1.781720 0.000000 0.000000 
#    y 0.000000 1.819330 0.000000 
#    z 0.000000 0.000000 1.789350 
# 
# From -- ./inp_files/7479.got.cif
#   From: 2010.03.12/outbox.cif.g09.slc.cpg/sg61_4_cif.got.tgz:7479.got - 2010.04.10 19:05:03.
