data_PCOD8248111
_publ_section_title
;
Structure prediction by ZEFSAII (Michael W. Deem and Ramdas Pophale) SiO2 
 PCOD8248111
Probable space group: P B C N
;
_chemical_formula_sum "Si O2"
_cell_formula_units_Z 64
_cell_length_a 28.997543
_cell_length_b 11.909491
_cell_length_c 8.512544
_cell_angle_alpha 90.000000
_cell_angle_beta 90.000000
_cell_angle_gamma 90.000000
_cell_volume 2939.772828
_symmetry_space_group_name_H-M "P B C N"
_symmetry_group_IT_number 60
_symmetry_cell_setting 'orthorhombic'
loop_
_space_group_symop_operation_xyz
x,y,z
1/2-x,1/2-y,1/2+z
1/2+x,1/2-y,-z
-x,y,1/2-z
-x,-y,-z
1/2+x,1/2+y,1/2-z
1/2-x,1/2+y,z
x,-y,1/2+z
loop_
_atom_site_type_symbol
_atom_site_label
_atom_site_fract_x
_atom_site_fract_y
_atom_site_fract_z
Si Si1 0.692231 0.117059 0.834257
Si Si2 0.597035 0.390853 0.698492
Si Si3 0.693585 0.380227 0.842138
Si Si4 0.749990 0.502794 0.589037
Si Si5 0.089138 0.545773 0.597773
Si Si6 0.024755 0.302508 0.908666
Si Si7 0.547041 0.433996 0.004910
Si Si8 0.063756 0.341925 0.407802
O O1 0.689900 0.248456 0.849060
O O2 0.709770 0.082366 0.660234
O O3 0.642797 0.066358 0.874500
O O4 0.729719 0.075260 0.955840
O O5 0.644495 0.424705 0.782471
O O6 0.557375 0.392407 0.829497
O O7 0.587354 0.485209 0.568051
O O8 0.596817 0.266314 0.620678
O O9 0.732593 0.418495 0.721764
O O10 0.707545 0.425681 0.015147
O O11 0.068020 0.618572 0.453407
O O12 0.083426 0.414406 0.554650
O O13 0.061764 0.578682 0.755088
O O14 0.000000 0.345160 0.750000
O O15 0.043044 0.175558 0.884098
O O16 0.987819 0.302735 0.050951
O O17 0.500000 0.500000 0.000000
#
# Coordination Sequence:
#
# PCOD8248111 Si02
#       8
#     8   8   8   8   8   8   8   8
#     4  11  22  43  69 101 136 178 226 280 350 416
#     4  12  25  44  70 100 138 184 230 299 341 424
#     4  11  22  44  67 100 137 176 227 277 354 415
#     4  10  24  41  70 100 137 177 221 284 352 421
#     4  12  25  44  70  99 139 184 234 292 342 425
#     4  12  25  44  66  99 138 191 236 291 348 405
#     4  12  24  42  68  96 138 182 240 285 350 401
#     4  12  25  45  68  99 140 184 236 291 353 402
#
# _framework density 21.770388000000001
#
# number of rings (size 3 to 8) (size 9 to 14) (size 15 to 20)
#    0.000    0.500    3.750    4.875    0.000    0.000 
#    0.000    0.000    5.500    0.000    0.000    0.000 
#    0.000    0.000    0.000    0.000    0.000    0.000 
#
# Total GULP energy -793788.060632 kJ/mol
# GULP energy per Si atom -12402.938447 kJ/mol
# Density = 2.172084 g / cm^3
# Si number density = 21.770388 Si / 1000 Ang^3
#
#
#
# Elastic Constant Matrix: (Units=GPa)
#
#
# Indices 1 2 3 4 5 6 
#
# 1 108.1806 38.3195 25.1841 0.0000 0.0000 0.0000
# 2 38.3195 111.9674 27.6910 0.0000 0.0000 0.0000
# 3 25.1841 27.6910 89.2276 0.0000 0.0000 0.0000
# 4 0.0000 0.0000 0.0000 38.4874 0.0000 0.0000
# 5 0.0000 0.0000 0.0000 0.0000 47.8092 0.0000
# 6 0.0000 0.0000 0.0000 0.0000 0.0000 29.5158
#
#
#
# Elastic Compliance Matrix: (Units=1/GPa)
#
#
# Indices 1 2 3 4 5 6 
#
# 1 0.010861 -0.003205 -0.002071 0.000000 0.000000 0.000000
# 2 -0.003205 0.010619 -0.002391 0.000000 0.000000 0.000000
# 3 -0.002071 -0.002391 0.012534 0.000000 0.000000 0.000000
# 4 0.000000 0.000000 0.000000 0.025983 0.000000 0.000000
# 5 0.000000 0.000000 0.000000 0.000000 0.020916 0.000000
# 6 0.000000 0.000000 0.000000 0.000000 0.000000 0.033880
#
#
# Mechanical properties :
#
#
# Convention : Reuss Voigt Hill
#
# Bulk Modulus (GPa) = 53.53148 54.64053 54.08601
# Shear Modulus (GPa) = 36.66922 37.70788 37.18855
#
# Velocity S-wave (km/s) = 4.10855 4.16633 4.13754
# Velocity P-wave (km/s) = 6.86654 6.94964 6.90822
#
# Compressibility (1/GPa) = 0.01868060
#
# Stress axis : x y z
#
# Youngs Moduli (GPa) = 92.07134 94.16765 79.78410
#
# Poissons Ratio (x) = 0.30180 0.16522
# Poissons Ratio (y) = 0.29508 0.19077
# Poissons Ratio (z) = 0.19067 0.22516
#
# Static dielectric constant tensor:
#      x y z
#    x 3.988100 0.000000 0.000000 
#    y 0.000000 4.045680 0.000000 
#    z 0.000000 0.000000 4.194360 
# 
# 
# High freq. dielectric constant tensor:
#      x y z
#    x 1.854410 0.000000 0.000000 
#    y 0.000000 1.864500 0.000000 
#    z 0.000000 0.000000 1.861370 
# 
# From -- ./inp_files/8491.got.cif
#   From: 2010.03.12/outbox.cif.g09.slc.cpg/sg60_5_cif.got.tgz:8491.got - 2010.04.10 18:46:24.
