data_PCOD8248176
_publ_section_title
;
Structure prediction by ZEFSAII (Michael W. Deem and Ramdas Pophale) SiO2 
 PCOD8248176
Probable space group: P B C N
;
_chemical_formula_sum "Si O2"
_cell_formula_units_Z 40
_cell_length_a 10.080977
_cell_length_b 10.071992
_cell_length_c 17.366117
_cell_angle_alpha 90.000000
_cell_angle_beta 90.000000
_cell_angle_gamma 90.000000
_cell_volume 1763.277715
_symmetry_space_group_name_H-M "P B C N"
_symmetry_group_IT_number 60
_symmetry_cell_setting 'orthorhombic'
loop_
_space_group_symop_operation_xyz
x,y,z
1/2-x,1/2-y,1/2+z
1/2+x,1/2-y,-z
-x,y,1/2-z
-x,-y,-z
1/2+x,1/2+y,1/2-z
1/2-x,1/2+y,z
x,-y,1/2+z
loop_
_atom_site_type_symbol
_atom_site_label
_atom_site_fract_x
_atom_site_fract_y
_atom_site_fract_z
Si Si1 0.332248 0.957596 0.607577
Si Si2 0.482328 0.827933 0.338238
Si Si3 0.715603 0.179934 0.540655
Si Si4 0.444437 0.471087 0.669653
Si Si5 0.009627 0.780846 0.068001
O O1 0.274572 0.942543 0.520367
O O2 0.214934 0.954725 0.670473
O O3 0.434877 0.835777 0.624959
O O4 0.404088 0.099583 0.612036
O O5 0.500000 0.874905 0.250000
O O6 0.339123 0.867872 0.375307
O O7 0.492455 0.670892 0.346994
O O8 0.603470 0.282336 0.507799
O O9 0.857331 0.251289 0.547265
O O10 0.500000 0.526694 0.750000
O O11 0.487053 0.574318 0.604781
#
# Coordination Sequence:
#
# PCOD8248176 Si02
#       5
#     8   8   8   8   8
#     4  10  24  45  74 100 146 191 245 300 360 434
#     4  11  25  44  70 105 148 189 241 307 365 436
#     4  10  24  46  74 107 141 192 250 301 358 434
#     4  11  25  45  71 106 149 192 240 304 372 434
#     4  10  25  45  76 102 144 192 251 293 367 430
#
# _framework density 22.685025
#
# number of rings (size 3 to 8) (size 9 to 14) (size 15 to 20)
#    1.200    0.400    0.000    3.000    5.600    5.600 
#    3.600    0.000    0.000    0.000    0.000    0.000 
#    0.000    0.000    0.000    0.000    0.000    0.000 
#
# Total GULP energy -495712.621361 kJ/mol
# GULP energy per Si atom -12392.815534 kJ/mol
# Density = 2.263339 g / cm^3
# Si number density = 22.685025 Si / 1000 Ang^3
#
#
#
# Elastic Constant Matrix: (Units=GPa)
#
#
# Indices 1 2 3 4 5 6 
#
# 1 192.9991 15.3159 75.6225 0.0000 0.0000 0.0000
# 2 15.3159 53.5703 41.5884 0.0000 0.0000 0.0000
# 3 75.6225 41.5884 121.0709 0.0000 0.0000 0.0000
# 4 0.0000 0.0000 0.0000 26.1822 0.0000 0.0000
# 5 0.0000 0.0000 0.0000 0.0000 46.3935 0.0000
# 6 0.0000 0.0000 0.0000 0.0000 0.0000 27.0638
#
#
#
# Elastic Compliance Matrix: (Units=1/GPa)
#
#
# Indices 1 2 3 4 5 6 
#
# 1 0.006999 0.001899 -0.005024 0.000000 0.000000 0.000000
# 2 0.001899 0.025971 -0.010107 0.000000 0.000000 0.000000
# 3 -0.005024 -0.010107 0.014870 0.000000 0.000000 0.000000
# 4 0.000000 0.000000 0.000000 0.038194 0.000000 0.000000
# 5 0.000000 0.000000 0.000000 0.000000 0.021555 0.000000
# 6 0.000000 0.000000 0.000000 0.000000 0.000000 0.036950
#
#
# Mechanical properties :
#
#
# Convention : Reuss Voigt Hill
#
# Bulk Modulus (GPa) = 46.78328 70.29931 58.54130
# Shear Modulus (GPa) = 28.06970 35.60215 31.83592
#
# Velocity S-wave (km/s) = 3.52144 3.96588 3.75025
# Velocity P-wave (km/s) = 6.09933 7.21301 6.67942
#
# Compressibility (1/GPa) = 0.02137516
#
# Stress axis : x y z
#
# Youngs Moduli (GPa) = 142.87134 38.50488 67.25026
#
# Poissons Ratio (x) = -0.07314 0.33789
# Poissons Ratio (y) = -0.27137 0.67973
# Poissons Ratio (z) = 0.71783 0.38919
#
# Static dielectric constant tensor:
#      x y z
#    x 4.106550 0.000000 0.000000 
#    y 0.000000 3.765340 0.000000 
#    z 0.000000 0.000000 4.231740 
# 
# 
# High freq. dielectric constant tensor:
#      x y z
#    x 1.899550 0.000000 0.000000 
#    y 0.000000 1.884980 0.000000 
#    z 0.000000 0.000000 1.881270 
# 
# From -- ./inp_files/19830.got.cif
#   From: 2010.03.12/outbox.cif.g09.slc.cpg/sg60_10_cif.got.tgz:19830.got - 2010.04.10 18:46:24.
