data_PCOD8248438
_publ_section_title
;
Structure prediction by ZEFSAII (Michael W. Deem and Ramdas Pophale) SiO2 
 PCOD8248438
Probable space group: P B C N
;
_chemical_formula_sum "Si O2"
_cell_formula_units_Z 40
_cell_length_a 26.724188
_cell_length_b 7.630644
_cell_length_c 9.298651
_cell_angle_alpha 90.000000
_cell_angle_beta 90.000000
_cell_angle_gamma 90.000000
_cell_volume 1896.206621
_symmetry_space_group_name_H-M "P B C N"
_symmetry_group_IT_number 60
_symmetry_cell_setting 'orthorhombic'
loop_
_space_group_symop_operation_xyz
x,y,z
1/2-x,1/2-y,1/2+z
1/2+x,1/2-y,-z
-x,y,1/2-z
-x,-y,-z
1/2+x,1/2+y,1/2-z
1/2-x,1/2+y,z
x,-y,1/2+z
loop_
_atom_site_type_symbol
_atom_site_label
_atom_site_fract_x
_atom_site_fract_y
_atom_site_fract_z
Si Si1 0.036400 0.542961 0.872930
Si Si2 0.702837 0.856342 0.708131
Si Si3 0.402728 0.304289 0.301477
Si Si4 0.600302 0.360726 0.520563
Si Si5 0.204714 0.698830 0.960516
O O1 0.066882 0.369974 0.833252
O O2 0.075399 0.695578 0.903172
O O3 0.000000 0.610789 0.750000
O O4 0.000000 0.500000 0.000000
O O5 0.656459 0.727133 0.687753
O O6 0.747837 0.790476 0.609742
O O7 0.687417 0.044598 0.645988
O O8 0.717400 0.869920 0.877545
O O9 0.417663 0.457392 0.410887
O O10 0.417372 0.369105 0.143414
O O11 0.660142 0.339765 0.533039
#
# Coordination Sequence:
#
# PCOD8248438 Si02
#       5
#     8   8   8   8   8
#     4  12  26  48  72 101 137 180 234 288 346 403
#     4  11  23  41  66  99 139 181 228 280 341 412
#     4  11  26  45  70 103 138 181 232 282 346 409
#     4  11  26  45  70 102 139 182 228 286 343 411
#     4  11  23  41  66  99 138 182 227 280 343 407
#
# _framework density 21.094747000000002
#
# number of rings (size 3 to 8) (size 9 to 14) (size 15 to 20)
#    0.000    0.800    4.000    2.400    2.800    8.000 
#    0.000    0.000    0.000    0.000    0.000    0.000 
#    0.000    0.000    0.000    0.000    0.000    0.000 
#
# Total GULP energy -496103.471737 kJ/mol
# GULP energy per Si atom -12402.586793 kJ/mol
# Density = 2.104673 g / cm^3
# Si number density = 21.094747 Si / 1000 Ang^3
#
#
#
# Elastic Constant Matrix: (Units=GPa)
#
#
# Indices 1 2 3 4 5 6 
#
# 1 87.5738 9.9784 33.2456 0.0000 0.0000 0.0000
# 2 9.9784 71.4914 1.3918 0.0000 0.0000 0.0000
# 3 33.2456 1.3918 102.5192 0.0000 0.0000 0.0000
# 4 0.0000 0.0000 0.0000 42.5627 0.0000 0.0000
# 5 0.0000 0.0000 0.0000 0.0000 34.1703 0.0000
# 6 0.0000 0.0000 0.0000 0.0000 0.0000 26.2166
#
#
#
# Elastic Compliance Matrix: (Units=1/GPa)
#
#
# Indices 1 2 3 4 5 6 
#
# 1 0.013241 -0.001765 -0.004270 0.000000 0.000000 0.000000
# 2 -0.001765 0.014227 0.000379 0.000000 0.000000 0.000000
# 3 -0.004270 0.000379 0.011134 0.000000 0.000000 0.000000
# 4 0.000000 0.000000 0.000000 0.023495 0.000000 0.000000
# 5 0.000000 0.000000 0.000000 0.000000 0.029265 0.000000
# 6 0.000000 0.000000 0.000000 0.000000 0.000000 0.038144
#
#
# Mechanical properties :
#
#
# Convention : Reuss Voigt Hill
#
# Bulk Modulus (GPa) = 36.64333 38.97958 37.81145
# Shear Modulus (GPa) = 33.35261 35.05450 34.20356
#
# Velocity S-wave (km/s) = 3.98060 4.08090 4.03106
# Velocity P-wave (km/s) = 6.20769 6.38149 6.29519
#
# Compressibility (1/GPa) = 0.02729010
#
# Stress axis : x y z
#
# Youngs Moduli (GPa) = 75.52279 70.29060 89.81659
#
# Poissons Ratio (x) = 0.12406 0.38351
# Poissons Ratio (y) = 0.13330 -0.03406
# Poissons Ratio (z) = 0.32248 -0.02666
#
# Static dielectric constant tensor:
#      x y z
#    x 3.806470 0.000000 0.000000 
#    y 0.000000 3.823700 0.000000 
#    z 0.000000 0.000000 3.994780 
# 
# 
# High freq. dielectric constant tensor:
#      x y z
#    x 1.835720 0.000000 0.000000 
#    y 0.000000 1.829410 0.000000 
#    z 0.000000 0.000000 1.844440 
# 
# From -- ./inp_files/8091.got.cif
#   From: 2010.03.12/outbox.cif.g09.slc.cpg/sg60_5_cif.got.tgz:8091.got - 2010.04.10 18:46:24.
