data_PCOD8248646
_publ_section_title
;
Structure prediction by ZEFSAII (Michael W. Deem and Ramdas Pophale) SiO2 
 PCOD8248646
Probable space group: P B C N
;
_chemical_formula_sum "Si O2"
_cell_formula_units_Z 40
_cell_length_a 10.851172
_cell_length_b 18.757226
_cell_length_c 8.612934
_cell_angle_alpha 90.000000
_cell_angle_beta 90.000000
_cell_angle_gamma 90.000000
_cell_volume 1753.058375
_symmetry_space_group_name_H-M "P B C N"
_symmetry_group_IT_number 60
_symmetry_cell_setting 'orthorhombic'
loop_
_space_group_symop_operation_xyz
x,y,z
1/2-x,1/2-y,1/2+z
1/2+x,1/2-y,-z
-x,y,1/2-z
-x,-y,-z
1/2+x,1/2+y,1/2-z
1/2-x,1/2+y,z
x,-y,1/2+z
loop_
_atom_site_type_symbol
_atom_site_label
_atom_site_fract_x
_atom_site_fract_y
_atom_site_fract_z
Si Si1 0.641998 0.776697 0.260038
Si Si2 0.358490 0.965889 0.734835
Si Si3 0.755673 0.844601 0.954937
Si Si4 0.731286 0.095018 0.944136
Si Si5 0.500584 0.421746 0.068345
O O1 0.500000 0.754840 0.250000
O O2 0.693095 0.803669 0.096545
O O3 0.721537 0.708361 0.311037
O O4 0.654186 0.836403 0.393411
O O5 0.500000 0.988257 0.750000
O O6 0.336856 0.905959 0.603353
O O7 0.278504 0.035782 0.693082
O O8 0.321458 0.938219 0.901409
O O9 0.886453 0.876051 0.006581
O O10 0.872734 0.117327 0.976818
O O11 0.500000 0.428398 0.250000
O O12 0.500000 0.500000 0.000000
#
# Coordination Sequence:
#
# PCOD8248646 Si02
#       5
#     8   8   8   8   8
#     4  12  28  48  71 102 148 192 244 296 368 436
#     4  12  25  45  75 105 146 187 241 294 359 429
#     4  12  28  47  72 109 142 196 242 305 368 433
#     4  12  24  46  73 106 144 188 238 295 359 430
#     4  12  25  46  76 109 148 182 245 309 362 432
#
# _framework density 22.817264999999999
#
# number of rings (size 3 to 8) (size 9 to 14) (size 15 to 20)
#    0.000    0.000    4.000    6.000    5.600    0.000 
#    0.000    0.000    0.000    0.000    0.000    0.000 
#    0.000    0.000    0.000    0.000    0.000    0.000 
#
# Total GULP energy -496259.142082 kJ/mol
# GULP energy per Si atom -12406.478552 kJ/mol
# Density = 2.276533 g / cm^3
# Si number density = 22.817265 Si / 1000 Ang^3
#
#
#
# Elastic Constant Matrix: (Units=GPa)
#
#
# Indices 1 2 3 4 5 6 
#
# 1 127.3450 8.8781 7.3274 0.0000 0.0000 0.0000
# 2 8.8781 78.8237 -6.4673 0.0000 0.0000 0.0000
# 3 7.3274 -6.4673 39.5362 0.0000 0.0000 0.0000
# 4 0.0000 0.0000 0.0000 52.3476 0.0000 0.0000
# 5 0.0000 0.0000 0.0000 0.0000 38.7539 0.0000
# 6 0.0000 0.0000 0.0000 0.0000 0.0000 39.2284
#
#
#
# Elastic Compliance Matrix: (Units=1/GPa)
#
#
# Indices 1 2 3 4 5 6 
#
# 1 0.008020 -0.001039 -0.001656 0.000000 0.000000 0.000000
# 2 -0.001039 0.012994 0.002318 0.000000 0.000000 0.000000
# 3 -0.001656 0.002318 0.025980 0.000000 0.000000 0.000000
# 4 0.000000 0.000000 0.000000 0.019103 0.000000 0.000000
# 5 0.000000 0.000000 0.000000 0.000000 0.025804 0.000000
# 6 0.000000 0.000000 0.000000 0.000000 0.000000 0.025492
#
#
# Mechanical properties :
#
#
# Convention : Reuss Voigt Hill
#
# Bulk Modulus (GPa) = 21.62699 29.46460 25.54580
# Shear Modulus (GPa) = 37.43624 41.79711 39.61667
#
# Velocity S-wave (km/s) = 4.05495 4.28462 4.17136
# Velocity P-wave (km/s) = 5.60557 6.11707 5.86690
#
# Compressibility (1/GPa) = 0.04623851
#
# Stress axis : x y z
#
# Youngs Moduli (GPa) = 124.68123 76.95984 38.49188
#
# Poissons Ratio (x) = 0.07998 0.06376
# Poissons Ratio (y) = 0.12958 -0.08923
# Poissons Ratio (z) = 0.20653 -0.17840
#
# Static dielectric constant tensor:
#      x y z
#    x 3.060610 0.000000 0.000000 
#    y 0.000000 4.317480 0.000000 
#    z 0.000000 0.000000 3.589890 
# 
# 
# High freq. dielectric constant tensor:
#      x y z
#    x 1.912570 0.000000 0.000000 
#    y 0.000000 1.905660 0.000000 
#    z 0.000000 0.000000 1.920270 
# 
# From -- ./inp_files/4784.got.cif
#   From: 2010.03.12/outbox.cif.g09.slc.cpg/sg60_3_cif.got.tgz:4784.got - 2010.04.10 18:46:24.
