data_PCOD8248835
_publ_section_title
;
Structure prediction by ZEFSAII (Michael W. Deem and Ramdas Pophale) SiO2 
 PCOD8248835
Probable space group: P B C A
;
_chemical_formula_sum "Si O2"
_cell_formula_units_Z 48
_cell_length_a 12.176328
_cell_length_b 26.458091
_cell_length_c 5.765269
_cell_angle_alpha 90.000000
_cell_angle_beta 90.000000
_cell_angle_gamma 90.000000
_cell_volume 1857.352865
_symmetry_space_group_name_H-M "P B C A"
_symmetry_group_IT_number 61
_symmetry_cell_setting 'orthorhombic'
loop_
_space_group_symop_operation_xyz
x,y,z
1/2-x,-y,1/2+z
1/2+x,1/2-y,-z
-x,1/2+y,1/2-z
-x,-y,-z
1/2+x,y,1/2-z
1/2-x,1/2+y,z
x,1/2-y,1/2+z
loop_
_atom_site_type_symbol
_atom_site_label
_atom_site_fract_x
_atom_site_fract_y
_atom_site_fract_z
Si Si1 0.515214 0.269610 0.362468
Si Si2 0.473473 0.878233 0.005284
Si Si3 0.384951 0.553870 0.867504
Si Si4 0.221255 0.376284 0.711949
Si Si5 0.232548 0.766418 0.620086
Si Si6 0.897004 0.439188 0.658772
O O1 0.464317 0.253011 0.618480
O O2 0.492103 0.329927 0.341650
O O3 0.645086 0.257167 0.373891
O O4 0.397783 0.856926 0.796185
O O5 0.570707 0.913249 0.906594
O O6 0.388887 0.915048 0.133035
O O7 0.354824 0.496306 0.807960
O O8 0.292182 0.577871 0.029137
O O9 0.506622 0.560434 0.974139
O O10 0.275521 0.326859 0.601037
O O11 0.297041 0.401874 0.915362
O O12 0.175951 0.749538 0.370921
#
# Coordination Sequence:
#
# PCOD8248835 Si02
#       6
#     8   8   8   8   8   8
#     4  10  19  35  65  95 128 177 226 274 343 418
#     4  11  22  40  69  91 133 180 221 282 351 412
#     4  10  23  44  66  90 138 175 222 297 351 416
#     4  11  23  39  68  98 127 180 232 280 353 418
#     4  10  19  37  63  96 134 173 228 284 340 417
#     4  10  25  43  61 102 133 170 235 289 345 424
#
# _framework density 25.843230999999999
#
# number of rings (size 3 to 8) (size 9 to 14) (size 15 to 20)
#    0.000    1.667    3.333    2.500    4.667    1.333 
#    0.000    1.667    0.000    0.000    0.000    0.000 
#    0.000    0.000    0.000    0.000    0.000    0.000 
#
# Total GULP energy -594838.052452 kJ/mol
# GULP energy per Si atom -12392.459426 kJ/mol
# Density = 2.578441 g / cm^3
# Si number density = 25.843231 Si / 1000 Ang^3
#
#
#
# Elastic Constant Matrix: (Units=GPa)
#
#
# Indices 1 2 3 4 5 6 
#
# 1 61.8824 40.6458 50.5701 0.0000 0.0000 0.0000
# 2 40.6458 189.2253 43.0307 0.0000 0.0000 0.0000
# 3 50.5701 43.0307 134.1240 0.0000 0.0000 0.0000
# 4 0.0000 0.0000 0.0000 36.6038 0.0000 0.0000
# 5 0.0000 0.0000 0.0000 0.0000 39.1170 0.0000
# 6 0.0000 0.0000 0.0000 0.0000 0.0000 29.9845
#
#
#
# Elastic Compliance Matrix: (Units=1/GPa)
#
#
# Indices 1 2 3 4 5 6 
#
# 1 0.025371 -0.003532 -0.008433 0.000000 0.000000 0.000000
# 2 -0.003532 0.006192 -0.000655 0.000000 0.000000 0.000000
# 3 -0.008433 -0.000655 0.010845 0.000000 0.000000 0.000000
# 4 0.000000 0.000000 0.000000 0.027320 0.000000 0.000000
# 5 0.000000 0.000000 0.000000 0.000000 0.025564 0.000000
# 6 0.000000 0.000000 0.000000 0.000000 0.000000 0.033351
#
#
# Mechanical properties :
#
#
# Convention : Reuss Voigt Hill
#
# Bulk Modulus (GPa) = 58.24384 72.63611 65.43998
# Shear Modulus (GPa) = 31.32735 37.87342 34.60038
#
# Velocity S-wave (km/s) = 3.48545 3.83235 3.66301
# Velocity P-wave (km/s) = 6.22769 6.91013 6.57777
#
# Compressibility (1/GPa) = 0.01716920
#
# Stress axis : x y z
#
# Youngs Moduli (GPa) = 39.41557 161.49009 92.20559
#
# Poissons Ratio (x) = 0.57039 0.77753
# Poissons Ratio (y) = 0.13922 0.06039
# Poissons Ratio (z) = 0.33238 0.10577
#
# Static dielectric constant tensor:
#      x y z
#    x 4.755930 0.000000 0.000000 
#    y 0.000000 4.573950 0.000000 
#    z 0.000000 0.000000 4.862860 
# 
# 
# High freq. dielectric constant tensor:
#      x y z
#    x 2.064590 0.000000 0.000000 
#    y 0.000000 2.038050 0.000000 
#    z 0.000000 0.000000 2.030460 
# 
# From -- ./inp_files/535.got.cif
#   From: 2010.03.12/outbox.cif.g09.slc.cpg/sg61_1_cif.got.tgz:535.got - 2010.04.10 19:05:03.
