data_PCOD8248400
_publ_section_title
;
Structure prediction by ZEFSAII (Michael W. Deem and Ramdas Pophale) SiO2 
 PCOD8248400
Probable space group: P B C N
;
_chemical_formula_sum "Si O2"
_cell_formula_units_Z 32
_cell_length_a 8.451903
_cell_length_b 10.249005
_cell_length_c 16.076980
_cell_angle_alpha 90.000000
_cell_angle_beta 90.000000
_cell_angle_gamma 90.000000
_cell_volume 1392.645822
_symmetry_space_group_name_H-M "P B C N"
_symmetry_group_IT_number 60
_symmetry_cell_setting 'orthorhombic'
loop_
_space_group_symop_operation_xyz
x,y,z
1/2-x,1/2-y,1/2+z
1/2+x,1/2-y,-z
-x,y,1/2-z
-x,-y,-z
1/2+x,1/2+y,1/2-z
1/2-x,1/2+y,z
x,-y,1/2+z
loop_
_atom_site_type_symbol
_atom_site_label
_atom_site_fract_x
_atom_site_fract_y
_atom_site_fract_z
Si Si1 0.313911 0.090412 0.741124
Si Si2 0.304357 0.601941 0.927394
Si Si3 0.590693 0.664464 0.021625
Si Si4 0.127857 0.859320 0.679361
O O1 0.500000 0.070415 0.750000
O O2 0.250538 0.978030 0.680771
O O3 0.230211 0.090463 0.830389
O O4 0.275417 0.226946 0.696636
O O5 0.182045 0.699077 0.973311
O O6 0.288358 0.457578 0.968749
O O7 0.486096 0.654021 0.937239
O O8 0.456459 0.651686 0.091705
O O9 0.000000 0.883960 0.750000
#
# Coordination Sequence:
#
# PCOD8248400 Si02
#       4
#     8   8   8   8
#     4  11  22  44  70  97 134 180 229 278 333 405
#     4  11  23  46  68  99 137 178 220 282 340 402
#     4  11  25  46  68  99 141 176 225 283 338 409
#     4  11  22  43  67  99 134 177 231 277 333 399
#
# _framework density 22.977844000000001
#
# number of rings (size 3 to 8) (size 9 to 14) (size 15 to 20)
#    0.000    1.000    7.500    0.000    0.000    6.000 
#   13.500    0.000    0.000    0.000    0.000    0.000 
#    0.000    0.000    0.000    0.000    0.000    0.000 
#
# Total GULP energy -396789.881907 kJ/mol
# GULP energy per Si atom -12399.683810 kJ/mol
# Density = 2.292555 g / cm^3
# Si number density = 22.977844 Si / 1000 Ang^3
#
#
#
# Elastic Constant Matrix: (Units=GPa)
#
#
# Indices 1 2 3 4 5 6 
#
# 1 94.3601 87.7044 51.7337 0.0000 0.0000 0.0000
# 2 87.7044 175.7082 49.5105 0.0000 0.0000 0.0000
# 3 51.7337 49.5105 62.5837 0.0000 0.0000 0.0000
# 4 0.0000 0.0000 0.0000 14.7076 0.0000 0.0000
# 5 0.0000 0.0000 0.0000 0.0000 54.0894 0.0000
# 6 0.0000 0.0000 0.0000 0.0000 0.0000 59.2900
#
#
#
# Elastic Compliance Matrix: (Units=1/GPa)
#
#
# Indices 1 2 3 4 5 6 
#
# 1 0.028114 -0.009631 -0.015620 0.000000 0.000000 0.000000
# 2 -0.009631 0.010624 -0.000443 0.000000 0.000000 0.000000
# 3 -0.015620 -0.000443 0.029241 0.000000 0.000000 0.000000
# 4 0.000000 0.000000 0.000000 0.067992 0.000000 0.000000
# 5 0.000000 0.000000 0.000000 0.000000 0.018488 0.000000
# 6 0.000000 0.000000 0.000000 0.000000 0.000000 0.016866
#
#
# Mechanical properties :
#
#
# Convention : Reuss Voigt Hill
#
# Bulk Modulus (GPa) = 60.27892 78.94991 69.61442
# Shear Modulus (GPa) = 21.90653 35.19763 28.55208
#
# Velocity S-wave (km/s) = 3.09103 3.91808 3.52887
# Velocity P-wave (km/s) = 6.24738 7.40960 6.85317
#
# Compressibility (1/GPa) = 0.01658955
#
# Stress axis : x y z
#
# Youngs Moduli (GPa) = 35.56990 94.13071 34.19876
#
# Poissons Ratio (x) = 0.90662 0.53419
# Poissons Ratio (y) = 0.34259 0.01514
# Poissons Ratio (z) = 0.55560 0.04167
#
# Static dielectric constant tensor:
#      x y z
#    x 4.306640 0.000000 0.000000 
#    y 0.000000 4.649570 0.000000 
#    z 0.000000 0.000000 15.677380 
# 
# 
# High freq. dielectric constant tensor:
#      x y z
#    x 1.898910 0.000000 0.000000 
#    y 0.000000 1.926010 0.000000 
#    z 0.000000 0.000000 1.908280 
# 
# From -- ./inp_files/14416.got.cif
#   From: 2010.03.12/outbox.cif.g09.slc.cpg/sg60_8_cif.got.tgz:14416.got - 2010.04.10 18:46:24.
