data_PCOD8248706
_publ_section_title
;
Structure prediction by ZEFSAII (Michael W. Deem and Ramdas Pophale) SiO2 
 PCOD8248706
Probable space group: P B C A
;
_chemical_formula_sum "Si O2"
_cell_formula_units_Z 64
_cell_length_a 19.074409
_cell_length_b 8.705065
_cell_length_c 19.499757
_cell_angle_alpha 90.000000
_cell_angle_beta 90.000000
_cell_angle_gamma 90.000000
_cell_volume 3237.817070
_symmetry_space_group_name_H-M "P B C A"
_symmetry_group_IT_number 61
_symmetry_cell_setting 'orthorhombic'
loop_
_space_group_symop_operation_xyz
x,y,z
1/2-x,-y,1/2+z
1/2+x,1/2-y,-z
-x,1/2+y,1/2-z
-x,-y,-z
1/2+x,y,1/2-z
1/2-x,1/2+y,z
x,1/2-y,1/2+z
loop_
_atom_site_type_symbol
_atom_site_label
_atom_site_fract_x
_atom_site_fract_y
_atom_site_fract_z
Si Si1 0.404028 0.985545 0.941804
Si Si2 0.690308 0.904255 0.472585
Si Si3 0.920328 0.176394 0.066655
Si Si4 0.159364 0.111943 0.687055
Si Si5 0.544229 0.118779 0.919955
Si Si6 0.247280 0.848243 0.618101
Si Si7 0.171589 0.498178 0.337478
Si Si8 0.279877 0.693570 0.396105
O O1 0.376629 0.161520 0.936125
O O2 0.485941 0.981930 0.917971
O O3 0.356794 0.883628 0.892191
O O4 0.400057 0.918148 0.019756
O O5 0.609452 0.912566 0.499466
O O6 0.695922 0.780972 0.411831
O O7 0.742751 0.854964 0.533322
O O8 0.709387 0.071707 0.443295
O O9 0.003344 0.217339 0.066263
O O10 0.899675 0.075492 0.133167
O O11 0.082800 0.123644 0.652742
O O12 0.199278 0.270507 0.671763
O O13 0.151233 0.086792 0.767803
O O14 0.199973 0.967310 0.657835
O O15 0.231341 0.631338 0.332958
O O16 0.205953 0.374755 0.389946
#
# Coordination Sequence:
#
# PCOD8248706 Si02
#       8
#     8   8   8   8   8   8   8   8
#     4   9  18  36  60  87 112 152 191 241 312 359
#     4  10  17  31  55  87 111 137 188 251 300 344
#     4   9  18  35  56  85 111 151 194 234 294 354
#     4  11  22  41  54  82 118 160 196 241 295 352
#     4   9  20  36  63  82 122 154 188 242 308 372
#     4  10  21  32  59  83 112 147 190 246 304 350
#     4  11  23  36  58  82 119 159 204 245 277 353
#     4  11  20  35  58  89 115 148 198 254 296 346
#
# _framework density 19.766403
#
# number of rings (size 3 to 8) (size 9 to 14) (size 15 to 20)
#    0.750    1.250    0.000    6.750    0.000    0.000 
#    2.250    2.500    0.000    0.000    0.000    0.000 
#    0.000    0.000    0.000    0.000    0.000    0.000 
#
# Total GULP energy -793082.549859 kJ/mol
# GULP energy per Si atom -12391.914842 kJ/mol
# Density = 1.972141 g / cm^3
# Si number density = 19.766403 Si / 1000 Ang^3
#
#
#
# Elastic Constant Matrix: (Units=GPa)
#
#
# Indices 1 2 3 4 5 6 
#
# 1 47.9218 26.3848 21.0076 0.0000 0.0000 0.0000
# 2 26.3848 78.3485 31.7930 0.0000 0.0000 0.0000
# 3 21.0076 31.7930 91.6472 0.0000 0.0000 0.0000
# 4 0.0000 0.0000 0.0000 30.8856 0.0000 0.0000
# 5 0.0000 0.0000 0.0000 0.0000 29.3908 0.0000
# 6 0.0000 0.0000 0.0000 0.0000 0.0000 33.7980
#
#
#
# Elastic Compliance Matrix: (Units=1/GPa)
#
#
# Indices 1 2 3 4 5 6 
#
# 1 0.026533 -0.007527 -0.003471 0.000000 0.000000 0.000000
# 2 -0.007527 0.016990 -0.004169 0.000000 0.000000 0.000000
# 3 -0.003471 -0.004169 0.013153 0.000000 0.000000 0.000000
# 4 0.000000 0.000000 0.000000 0.032378 0.000000 0.000000
# 5 0.000000 0.000000 0.000000 0.000000 0.034024 0.000000
# 6 0.000000 0.000000 0.000000 0.000000 0.000000 0.029588
#
#
# Mechanical properties :
#
#
# Convention : Reuss Voigt Hill
#
# Bulk Modulus (GPa) = 37.96020 41.80981 39.88501
# Shear Modulus (GPa) = 26.07169 28.06368 27.06769
#
# Velocity S-wave (km/s) = 3.63573 3.77207 3.70453
# Velocity P-wave (km/s) = 6.07213 6.33792 6.20645
#
# Compressibility (1/GPa) = 0.02634338
#
# Stress axis : x y z
#
# Youngs Moduli (GPa) = 37.68897 58.85885 76.02774
#
# Poissons Ratio (x) = 0.44302 0.26388
# Poissons Ratio (y) = 0.28368 0.31693
# Poissons Ratio (z) = 0.13081 0.24536
#
# Static dielectric constant tensor:
#      x y z
#    x 3.454830 0.000000 0.000000 
#    y 0.000000 3.651790 0.000000 
#    z 0.000000 0.000000 3.378620 
# 
# 
# High freq. dielectric constant tensor:
#      x y z
#    x 1.757970 0.000000 0.000000 
#    y 0.000000 1.776590 0.000000 
#    z 0.000000 0.000000 1.744150 
# 
# From -- ./inp_files/10617.got.cif
#   From: 2010.03.12/outbox.cif.g09.slc.cpg/sg61_6_cif.got.tgz:10617.got - 2010.04.10 19:05:03.
