data_PCOD8248248
_publ_section_title
;
Structure prediction by ZEFSAII (Michael W. Deem and Ramdas Pophale) SiO2 
 PCOD8248248
Probable space group: P B C N
;
_chemical_formula_sum "Si O2"
_cell_formula_units_Z 36
_cell_length_a 18.365490
_cell_length_b 9.553796
_cell_length_c 8.306571
_cell_angle_alpha 90.000000
_cell_angle_beta 90.000000
_cell_angle_gamma 90.000000
_cell_volume 1457.472151
_symmetry_space_group_name_H-M "P B C N"
_symmetry_group_IT_number 60
_symmetry_cell_setting 'orthorhombic'
loop_
_space_group_symop_operation_xyz
x,y,z
1/2-x,1/2-y,1/2+z
1/2+x,1/2-y,-z
-x,y,1/2-z
-x,-y,-z
1/2+x,1/2+y,1/2-z
1/2-x,1/2+y,z
x,-y,1/2+z
loop_
_atom_site_type_symbol
_atom_site_label
_atom_site_fract_x
_atom_site_fract_y
_atom_site_fract_z
Si Si1 0.375098 0.415911 0.964129
Si Si2 0.372473 0.849896 0.667131
Si Si3 0.101531 0.359086 0.040820
Si Si4 0.000000 0.834090 0.750000
Si Si5 0.796513 0.151981 0.337757
O O1 0.445138 0.436698 0.847067
O O2 0.307602 0.370649 0.852092
O O3 0.396340 0.295209 0.089049
O O4 0.351008 0.555032 0.056380
O O5 0.287406 0.873398 0.630605
O O6 0.413546 0.978837 0.582432
O O7 0.396505 0.840842 0.850465
O O8 0.039512 0.264906 0.121094
O O9 0.179748 0.310291 0.115715
#
# Coordination Sequence:
#
# PCOD8248248 Si02
#       5
#     8   8   8   4   8
#     4  11  25  41  68  94 134 174 214 274 323 399
#     4  12  23  41  67 100 127 168 217 275 339 385
#     4  11  25  41  68  94 134 174 214 273 322 399
#     4  10  26  48  62  96 130 176 228 256 328 396
#     4  11  22  42  66  99 130 167 217 274 338 390
#
# _framework density 24.700299000000001
#
# number of rings (size 3 to 8) (size 9 to 14) (size 15 to 20)
#    0.000    0.889    0.000    8.000    0.000    8.000 
#    0.000    0.000    0.000    0.000    0.000    0.000 
#    0.000    0.000    0.000    0.000    0.000    0.000 
#
# Total GULP energy -446408.315262 kJ/mol
# GULP energy per Si atom -12400.230980 kJ/mol
# Density = 2.464408 g / cm^3
# Si number density = 24.700299 Si / 1000 Ang^3
#
#
#
# Elastic Constant Matrix: (Units=GPa)
#
#
# Indices 1 2 3 4 5 6 
#
# 1 91.7535 5.7855 31.9989 0.0000 0.0000 0.0000
# 2 5.7855 70.7514 23.7833 0.0000 0.0000 0.0000
# 3 31.9989 23.7833 152.6248 0.0000 0.0000 0.0000
# 4 0.0000 0.0000 0.0000 48.0754 0.0000 0.0000
# 5 0.0000 0.0000 0.0000 0.0000 33.8496 0.0000
# 6 0.0000 0.0000 0.0000 0.0000 0.0000 25.2139
#
#
#
# Elastic Compliance Matrix: (Units=1/GPa)
#
#
# Indices 1 2 3 4 5 6 
#
# 1 0.011760 -0.000140 -0.002444 0.000000 0.000000 0.000000
# 2 -0.000140 0.014917 -0.002295 0.000000 0.000000 0.000000
# 3 -0.002444 -0.002295 0.007422 0.000000 0.000000 0.000000
# 4 0.000000 0.000000 0.000000 0.020801 0.000000 0.000000
# 5 0.000000 0.000000 0.000000 0.000000 0.029542 0.000000
# 6 0.000000 0.000000 0.000000 0.000000 0.000000 0.039661
#
#
# Mechanical properties :
#
#
# Convention : Reuss Voigt Hill
#
# Bulk Modulus (GPa) = 41.08320 48.69614 44.88967
# Shear Modulus (GPa) = 35.21770 38.33193 36.77481
#
# Velocity S-wave (km/s) = 3.78007 3.94367 3.86274
# Velocity P-wave (km/s) = 5.97668 6.36351 6.17313
#
# Compressibility (1/GPa) = 0.02434085
#
# Stress axis : x y z
#
# Youngs Moduli (GPa) = 85.03521 67.03778 134.73466
#
# Poissons Ratio (x) = 0.00940 0.32925
# Poissons Ratio (y) = 0.01192 0.30923
# Poissons Ratio (z) = 0.20780 0.15386
#
# Static dielectric constant tensor:
#      x y z
#    x 4.444500 0.000000 0.000000 
#    y 0.000000 4.477330 0.000000 
#    z 0.000000 0.000000 4.665310 
# 
# 
# High freq. dielectric constant tensor:
#      x y z
#    x 1.982740 0.000000 0.000000 
#    y 0.000000 1.980980 0.000000 
#    z 0.000000 0.000000 2.003330 
# 
# From -- ./inp_files/7175.got.cif
#   From: 2010.03.12/outbox.cif.g09.slc.cpg/sg60_4_cif.got.tgz:7175.got - 2010.04.10 18:46:24.
