data_PCOD8248349
_publ_section_title
;
Structure prediction by ZEFSAII (Michael W. Deem and Ramdas Pophale) SiO2 
 PCOD8248349
Probable space group: P B C N
;
_chemical_formula_sum "Si O2"
_cell_formula_units_Z 48
_cell_length_a 9.568068
_cell_length_b 14.977356
_cell_length_c 15.315630
_cell_angle_alpha 90.000000
_cell_angle_beta 90.000000
_cell_angle_gamma 90.000000
_cell_volume 2194.796565
_symmetry_space_group_name_H-M "P B C N"
_symmetry_group_IT_number 60
_symmetry_cell_setting 'orthorhombic'
loop_
_space_group_symop_operation_xyz
x,y,z
1/2-x,1/2-y,1/2+z
1/2+x,1/2-y,-z
-x,y,1/2-z
-x,-y,-z
1/2+x,1/2+y,1/2-z
1/2-x,1/2+y,z
x,-y,1/2+z
loop_
_atom_site_type_symbol
_atom_site_label
_atom_site_fract_x
_atom_site_fract_y
_atom_site_fract_z
Si Si1 0.792049 0.660733 0.840492
Si Si2 0.629410 0.018928 0.435405
Si Si3 0.554048 0.802298 0.879955
Si Si4 0.908346 0.086032 0.506259
Si Si5 0.532218 0.752134 0.071746
Si Si6 0.311114 0.696592 0.843501
O O1 0.796173 0.565766 0.889837
O O2 0.682389 0.732142 0.879139
O O3 0.755537 0.646472 0.738946
O O4 0.946562 0.700769 0.850433
O O5 0.589911 0.093447 0.361114
O O6 0.746039 0.067009 0.492830
O O7 0.500000 0.000000 0.500000
O O8 0.423456 0.774007 0.816853
O O9 0.500636 0.802141 0.980770
O O10 0.910021 0.127902 0.603342
O O11 0.977254 0.151042 0.434714
O O12 0.000000 0.000000 0.500000
O O13 0.694765 0.756384 0.096657
#
# Coordination Sequence:
#
# PCOD8248349 Si02
#       6
#     8   8   8   8   8   8
#     4  12  24  44  67  99 145 174 228 298 342 401
#     4  12  23  41  73 101 133 183 234 281 338 423
#     4  11  22  43  69  99 129 186 231 270 348 423
#     4  11  24  42  69 102 129 180 235 275 340 422
#     4  11  21  44  69  88 134 179 227 278 336 417
#     4  11  24  43  66  99 136 179 222 291 351 391
#
# _framework density 21.869907999999999
#
# number of rings (size 3 to 8) (size 9 to 14) (size 15 to 20)
#    0.000    0.667    5.000    4.000    2.333    0.000 
#    3.000    3.333    0.000    0.000    0.000    0.000 
#    0.000    0.000    0.000    0.000    0.000    0.000 
#
# Total GULP energy -594917.661334 kJ/mol
# GULP energy per Si atom -12394.117944 kJ/mol
# Density = 2.182013 g / cm^3
# Si number density = 21.869908 Si / 1000 Ang^3
#
#
#
# Elastic Constant Matrix: (Units=GPa)
#
#
# Indices 1 2 3 4 5 6 
#
# 1 107.7550 40.5383 16.5806 0.0000 0.0000 0.0000
# 2 40.5383 150.4028 25.6298 0.0000 0.0000 0.0000
# 3 16.5806 25.6298 71.1781 0.0000 0.0000 0.0000
# 4 0.0000 0.0000 0.0000 24.7603 0.0000 0.0000
# 5 0.0000 0.0000 0.0000 0.0000 40.6483 0.0000
# 6 0.0000 0.0000 0.0000 0.0000 0.0000 46.3948
#
#
#
# Elastic Compliance Matrix: (Units=1/GPa)
#
#
# Indices 1 2 3 4 5 6 
#
# 1 0.010479 -0.002566 -0.001517 0.000000 0.000000 0.000000
# 2 -0.002566 0.007712 -0.002179 0.000000 0.000000 0.000000
# 3 -0.001517 -0.002179 0.015187 0.000000 0.000000 0.000000
# 4 0.000000 0.000000 0.000000 0.040387 0.000000 0.000000
# 5 0.000000 0.000000 0.000000 0.000000 0.024601 0.000000
# 6 0.000000 0.000000 0.000000 0.000000 0.000000 0.021554
#
#
# Mechanical properties :
#
#
# Convention : Reuss Voigt Hill
#
# Bulk Modulus (GPa) = 47.95281 54.98148 51.46715
# Shear Modulus (GPa) = 35.86892 38.79982 37.33437
#
# Velocity S-wave (km/s) = 4.05421 4.21660 4.13620
# Velocity P-wave (km/s) = 6.62492 6.99293 6.81141
#
# Compressibility (1/GPa) = 0.02085383
#
# Stress axis : x y z
#
# Youngs Moduli (GPa) = 95.42826 129.67226 65.84440
#
# Poissons Ratio (x) = 0.33273 0.09989
# Poissons Ratio (y) = 0.24486 0.14348
# Poissons Ratio (z) = 0.14478 0.28257
#
# Static dielectric constant tensor:
#      x y z
#    x 3.930230 0.000000 0.000000 
#    y 0.000000 4.372290 0.000000 
#    z 0.000000 0.000000 3.731830 
# 
# 
# High freq. dielectric constant tensor:
#      x y z
#    x 1.884640 0.000000 0.000000 
#    y 0.000000 1.862590 0.000000 
#    z 0.000000 0.000000 1.836820 
# 
# From -- ./inp_files/19303.got.cif
#   From: 2010.03.12/outbox.cif.g09.slc.cpg/sg60_10_cif.got.tgz:19303.got - 2010.04.10 18:46:24.
