data_PCOD8248930
_publ_section_title
;
Structure prediction by ZEFSAII (Michael W. Deem and Ramdas Pophale) SiO2 
 PCOD8248930
Probable space group: P B C A
;
_chemical_formula_sum "Si O2"
_cell_formula_units_Z 64
_cell_length_a 9.187795
_cell_length_b 18.095165
_cell_length_c 20.043493
_cell_angle_alpha 90.000000
_cell_angle_beta 90.000000
_cell_angle_gamma 90.000000
_cell_volume 3332.324244
_symmetry_space_group_name_H-M "P B C A"
_symmetry_group_IT_number 61
_symmetry_cell_setting 'orthorhombic'
loop_
_space_group_symop_operation_xyz
x,y,z
1/2-x,-y,1/2+z
1/2+x,1/2-y,-z
-x,1/2+y,1/2-z
-x,-y,-z
1/2+x,y,1/2-z
1/2-x,1/2+y,z
x,1/2-y,1/2+z
loop_
_atom_site_type_symbol
_atom_site_label
_atom_site_fract_x
_atom_site_fract_y
_atom_site_fract_z
Si Si1 0.366575 0.789875 0.200768
Si Si2 0.176612 0.970604 0.317292
Si Si3 0.662074 0.040710 0.815735
Si Si4 0.340319 0.454666 0.933019
Si Si5 0.855478 0.214804 0.042310
Si Si6 0.811123 0.708522 0.428423
Si Si7 0.303500 0.300621 0.328448
Si Si8 0.675097 0.038672 0.432527
O O1 0.316448 0.871575 0.179824
O O2 0.295981 0.733183 0.148381
O O3 0.539522 0.782418 0.201887
O O4 0.312910 0.770535 0.275074
O O5 0.251466 0.991131 0.247432
O O6 0.216954 0.887857 0.340561
O O7 0.005321 0.981956 0.308849
O O8 0.235459 0.027398 0.371806
O O9 0.726408 0.007438 0.882734
O O10 0.312800 0.370593 0.953777
O O11 0.506861 0.467747 0.910789
O O12 0.298950 0.507445 0.993914
O O13 0.776773 0.259150 0.102009
O O14 0.028020 0.226394 0.044922
O O15 0.803375 0.245938 0.971877
O O16 0.771806 0.622772 0.432837
#
# Coordination Sequence:
#
# PCOD8248930 Si02
#       8
#     8   8   8   8   8   8   8   8
#     4   9  19  35  54  77 104 135 173 215 258 308
#     4  10  20  35  56  79 105 138 175 216 262 314
#     4  10  20  35  56  79 105 138 175 216 262 314
#     4  10  21  36  54  78 109 142 176 218 266 315
#     4  10  21  36  54  78 107 138 176 219 261 310
#     4  10  21  36  54  78 107 138 176 219 261 310
#     4   9  19  35  54  77 104 135 173 215 258 308
#     4  10  21  36  54  78 109 142 176 218 266 315
#
# _framework density 19.205812999999999
#
# number of rings (size 3 to 8) (size 9 to 14) (size 15 to 20)
#    0.000    2.250    0.000    2.250    0.000    4.500 
#    0.000    2.500    0.000    0.000    0.000    0.000 
#    0.000    0.000    0.000    0.000    0.000    0.000 
#
# Total GULP energy -793951.298334 kJ/mol
# GULP energy per Si atom -12405.489036 kJ/mol
# Density = 1.916210 g / cm^3
# Si number density = 19.205813 Si / 1000 Ang^3
#
#
#
# Elastic Constant Matrix: (Units=GPa)
#
#
# Indices 1 2 3 4 5 6 
#
# 1 55.9412 18.5206 20.5995 0.0000 0.0000 0.0000
# 2 18.5206 62.8431 12.8981 0.0000 0.0000 0.0000
# 3 20.5995 12.8981 46.5585 0.0000 0.0000 0.0000
# 4 0.0000 0.0000 0.0000 35.5262 0.0000 0.0000
# 5 0.0000 0.0000 0.0000 0.0000 38.2359 0.0000
# 6 0.0000 0.0000 0.0000 0.0000 0.0000 21.4955
#
#
#
# Elastic Compliance Matrix: (Units=1/GPa)
#
#
# Indices 1 2 3 4 5 6 
#
# 1 0.022698 -0.004907 -0.008683 0.000000 0.000000 0.000000
# 2 -0.004907 0.017933 -0.002797 0.000000 0.000000 0.000000
# 3 -0.008683 -0.002797 0.026095 0.000000 0.000000 0.000000
# 4 0.000000 0.000000 0.000000 0.028148 0.000000 0.000000
# 5 0.000000 0.000000 0.000000 0.000000 0.026153 0.000000
# 6 0.000000 0.000000 0.000000 0.000000 0.000000 0.046521
#
#
# Mechanical properties :
#
#
# Convention : Reuss Voigt Hill
#
# Bulk Modulus (GPa) = 29.45371 29.93101 29.69236
# Shear Modulus (GPa) = 23.62499 26.60650 25.11574
#
# Velocity S-wave (km/s) = 3.51108 3.72605 3.62016
# Velocity P-wave (km/s) = 5.63968 5.84204 5.74175
#
# Compressibility (1/GPa) = 0.03395158
#
# Stress axis : x y z
#
# Youngs Moduli (GPa) = 44.05673 55.76347 38.32156
#
# Poissons Ratio (x) = 0.27364 0.33275
# Poissons Ratio (y) = 0.21620 0.10718
# Poissons Ratio (z) = 0.38255 0.15596
#
# Static dielectric constant tensor:
#      x y z
#    x 3.467160 0.000000 0.000000 
#    y 0.000000 3.498630 0.000000 
#    z 0.000000 0.000000 3.468150 
# 
# 
# High freq. dielectric constant tensor:
#      x y z
#    x 1.743710 0.000000 0.000000 
#    y 0.000000 1.746720 0.000000 
#    z 0.000000 0.000000 1.752900 
# 
# From -- ./inp_files/10170.got.cif
#   From: 2010.03.12/outbox.cif.g09.slc.cpg/sg61_6_cif.got.tgz:10170.got - 2010.04.10 19:05:03.
