data_PCOD8248415
_publ_section_title
;
Structure prediction by ZEFSAII (Michael W. Deem and Ramdas Pophale) SiO2 
 PCOD8248415
Probable space group: P B C N
;
_chemical_formula_sum "Si O2"
_cell_formula_units_Z 40
_cell_length_a 15.623031
_cell_length_b 7.812137
_cell_length_c 14.311841
_cell_angle_alpha 90.000000
_cell_angle_beta 90.000000
_cell_angle_gamma 90.000000
_cell_volume 1746.749582
_symmetry_space_group_name_H-M "P B C N"
_symmetry_group_IT_number 60
_symmetry_cell_setting 'orthorhombic'
loop_
_space_group_symop_operation_xyz
x,y,z
1/2-x,1/2-y,1/2+z
1/2+x,1/2-y,-z
-x,y,1/2-z
-x,-y,-z
1/2+x,1/2+y,1/2-z
1/2-x,1/2+y,z
x,-y,1/2+z
loop_
_atom_site_type_symbol
_atom_site_label
_atom_site_fract_x
_atom_site_fract_y
_atom_site_fract_z
Si Si1 0.421955 0.967810 0.815177
Si Si2 0.233761 0.613195 0.726218
Si Si3 0.156604 0.894977 0.603207
Si Si4 0.971284 0.152481 0.145670
Si Si5 0.151457 0.848149 0.399554
O O1 0.500000 0.912976 0.750000
O O2 0.336226 0.967292 0.750508
O O3 0.439992 0.150491 0.865508
O O4 0.411111 0.817239 0.891874
O O5 0.176197 0.764103 0.685985
O O6 0.303163 0.568427 0.645743
O O7 0.274835 0.671532 0.823232
O O8 0.196489 0.851818 0.501733
O O9 0.054631 0.893690 0.583587
O O10 0.000000 0.110813 0.250000
O O11 0.895451 0.028642 0.115252
#
# Coordination Sequence:
#
# PCOD8248415 Si02
#       5
#     8   8   8   8   8
#     4  11  24  45  75 100 141 189 232 292 355 413
#     4  12  24  47  68 103 148 176 236 302 343 420
#     4  12  27  45  73 107 140 187 240 292 358 423
#     4  11  22  49  72 103 148 182 235 301 344 423
#     4  12  27  45  76 104 139 196 233 285 369 424
#
# _framework density 22.899678000000002
#
# number of rings (size 3 to 8) (size 9 to 14) (size 15 to 20)
#    0.000    0.400    8.000    1.200    2.800    0.800 
#    0.000    0.000    0.000    0.000    0.000    0.000 
#    0.000    0.000    0.000    0.000    0.000    0.000 
#
# Total GULP energy -495930.985584 kJ/mol
# GULP energy per Si atom -12398.274640 kJ/mol
# Density = 2.284756 g / cm^3
# Si number density = 22.899678 Si / 1000 Ang^3
#
#
#
# Elastic Constant Matrix: (Units=GPa)
#
#
# Indices 1 2 3 4 5 6 
#
# 1 97.3385 15.3743 26.9996 0.0000 0.0000 0.0000
# 2 15.3743 73.2097 9.9142 0.0000 0.0000 0.0000
# 3 26.9996 9.9142 115.3762 0.0000 0.0000 0.0000
# 4 0.0000 0.0000 0.0000 16.2943 0.0000 0.0000
# 5 0.0000 0.0000 0.0000 0.0000 29.5779 0.0000
# 6 0.0000 0.0000 0.0000 0.0000 0.0000 9.7124
#
#
#
# Elastic Compliance Matrix: (Units=1/GPa)
#
#
# Indices 1 2 3 4 5 6 
#
# 1 0.011278 -0.002035 -0.002464 0.000000 0.000000 0.000000
# 2 -0.002035 0.014187 -0.000743 0.000000 0.000000 0.000000
# 3 -0.002464 -0.000743 0.009308 0.000000 0.000000 0.000000
# 4 0.000000 0.000000 0.000000 0.061371 0.000000 0.000000
# 5 0.000000 0.000000 0.000000 0.000000 0.033809 0.000000
# 6 0.000000 0.000000 0.000000 0.000000 0.000000 0.102962
#
#
# Mechanical properties :
#
#
# Convention : Reuss Voigt Hill
#
# Bulk Modulus (GPa) = 41.17048 43.38895 42.27972
# Shear Modulus (GPa) = 19.88102 26.69266 23.28684
#
# Velocity S-wave (km/s) = 2.94968 3.41784 3.19236
# Velocity P-wave (km/s) = 5.44229 5.87912 5.66492
#
# Compressibility (1/GPa) = 0.02428925
#
# Stress axis : x y z
#
# Youngs Moduli (GPa) = 88.66508 70.48554 107.43610
#
# Poissons Ratio (x) = 0.14342 0.26477
# Poissons Ratio (y) = 0.18041 0.07982
# Poissons Ratio (z) = 0.21851 0.05237
#
# Static dielectric constant tensor:
#      x y z
#    x 4.385720 0.000000 0.000000 
#    y 0.000000 4.135580 0.000000 
#    z 0.000000 0.000000 4.072660 
# 
# 
# High freq. dielectric constant tensor:
#      x y z
#    x 1.910970 0.000000 0.000000 
#    y 0.000000 1.907240 0.000000 
#    z 0.000000 0.000000 1.893700 
# 
# From -- ./inp_files/16602.got.cif
#   From: 2010.03.12/outbox.cif.g09.slc.cpg/sg60_9_cif.got.tgz:16602.got - 2010.04.10 18:46:24.
