data_PCOD8248619
_publ_section_title
;
Structure prediction by ZEFSAII (Michael W. Deem and Ramdas Pophale) SiO2 
 PCOD8248619
Probable space group: P B C N
;
_chemical_formula_sum "Si O2"
_cell_formula_units_Z 48
_cell_length_a 8.740927
_cell_length_b 29.116908
_cell_length_c 9.686110
_cell_angle_alpha 90.000000
_cell_angle_beta 90.000000
_cell_angle_gamma 90.000000
_cell_volume 2465.199916
_symmetry_space_group_name_H-M "P B C N"
_symmetry_group_IT_number 60
_symmetry_cell_setting 'orthorhombic'
loop_
_space_group_symop_operation_xyz
x,y,z
1/2-x,1/2-y,1/2+z
1/2+x,1/2-y,-z
-x,y,1/2-z
-x,-y,-z
1/2+x,1/2+y,1/2-z
1/2-x,1/2+y,z
x,-y,1/2+z
loop_
_atom_site_type_symbol
_atom_site_label
_atom_site_fract_x
_atom_site_fract_y
_atom_site_fract_z
Si Si1 0.597551 0.026809 0.886245
Si Si2 0.775783 0.716905 0.350326
Si Si3 0.730335 0.112987 0.354400
Si Si4 0.886248 0.612276 0.055179
Si Si5 0.097285 0.973696 0.614716
Si Si6 0.618730 0.783976 0.550522
O O1 0.500000 0.034620 0.750000
O O2 0.745823 0.998362 0.846981
O O3 0.660166 0.075845 0.939201
O O4 0.500000 0.000000 0.000000
O O5 0.713108 0.665276 0.373081
O O6 0.659711 0.751498 0.423109
O O7 0.783418 0.728274 0.187360
O O8 0.941428 0.722476 0.417205
O O9 0.566956 0.106425 0.424630
O O10 0.709781 0.101134 0.192698
O O11 0.855456 0.078979 0.424446
O O12 0.847918 0.663692 0.005250
O O13 0.000000 0.972468 0.750000
O O14 0.000000 0.000000 0.500000
#
# Coordination Sequence:
#
# PCOD8248619 Si02
#       6
#     8   8   8   8   8   8
#     4  12  23  40  66  88 115 163 210 248 300 363
#     4   9  19  38  61  86 117 154 196 240 295 353
#     4   9  18  38  64  83 115 161 200 240 293 361
#     4   9  18  37  65  88 109 155 215 246 276 353
#     4  12  25  40  58  89 127 154 194 256 311 354
#     4   9  19  38  60  87 119 151 194 247 292 351
#
# _framework density 19.471038
#
# number of rings (size 3 to 8) (size 9 to 14) (size 15 to 20)
#    0.000    2.000    1.667    5.000    0.000    0.667 
#   15.000    0.000    0.000    0.000    0.000    0.000 
#    0.000    0.000    0.000    0.000    0.000    0.000 
#
# Total GULP energy -595118.060826 kJ/mol
# GULP energy per Si atom -12398.292934 kJ/mol
# Density = 1.942672 g / cm^3
# Si number density = 19.471038 Si / 1000 Ang^3
#
#
#
# Elastic Constant Matrix: (Units=GPa)
#
#
# Indices 1 2 3 4 5 6 
#
# 1 67.9585 52.0542 26.9311 0.0000 0.0000 0.0000
# 2 52.0542 149.8789 71.1461 0.0000 0.0000 0.0000
# 3 26.9311 71.1461 76.0694 0.0000 0.0000 0.0000
# 4 0.0000 0.0000 0.0000 36.8104 0.0000 0.0000
# 5 0.0000 0.0000 0.0000 0.0000 31.9242 0.0000
# 6 0.0000 0.0000 0.0000 0.0000 0.0000 39.4634
#
#
#
# Elastic Compliance Matrix: (Units=1/GPa)
#
#
# Indices 1 2 3 4 5 6 
#
# 1 0.020095 -0.006478 -0.001055 0.000000 0.000000 0.000000
# 2 -0.006478 0.014088 -0.010883 0.000000 0.000000 0.000000
# 3 -0.001055 -0.010883 0.023698 0.000000 0.000000 0.000000
# 4 0.000000 0.000000 0.000000 0.027166 0.000000 0.000000
# 5 0.000000 0.000000 0.000000 0.000000 0.031324 0.000000
# 6 0.000000 0.000000 0.000000 0.000000 0.000000 0.025340
#
#
# Mechanical properties :
#
#
# Convention : Reuss Voigt Hill
#
# Bulk Modulus (GPa) = 47.50945 66.01885 56.76415
# Shear Modulus (GPa) = 26.94549 31.22464 29.08506
#
# Velocity S-wave (km/s) = 3.72408 4.00890 3.86911
# Velocity P-wave (km/s) = 6.55322 7.44366 7.01259
#
# Compressibility (1/GPa) = 0.02104845
#
# Stress axis : x y z
#
# Youngs Moduli (GPa) = 49.76292 70.98312 42.19810
#
# Poissons Ratio (x) = 0.45985 0.04454
# Poissons Ratio (y) = 0.32238 0.45922
# Poissons Ratio (z) = 0.05252 0.77248
#
# Static dielectric constant tensor:
#      x y z
#    x 3.427560 0.000000 0.000000 
#    y 0.000000 3.875080 0.000000 
#    z 0.000000 0.000000 3.188960 
# 
# 
# High freq. dielectric constant tensor:
#      x y z
#    x 1.750170 0.000000 0.000000 
#    y 0.000000 1.772260 0.000000 
#    z 0.000000 0.000000 1.741150 
# 
# From -- ./inp_files/4249.got.cif
#   From: 2010.03.12/outbox.cif.g09.slc.cpg/sg60_3_cif.got.tgz:4249.got - 2010.04.10 18:46:24.
