data_PCOD8248530
_publ_section_title
;
Structure prediction by ZEFSAII (Michael W. Deem and Ramdas Pophale) SiO2 
 PCOD8248530
Probable space group: P B C N
;
_chemical_formula_sum "Si O2"
_cell_formula_units_Z 40
_cell_length_a 6.942516
_cell_length_b 23.443572
_cell_length_c 11.344777
_cell_angle_alpha 90.000000
_cell_angle_beta 90.000000
_cell_angle_gamma 90.000000
_cell_volume 1846.446110
_symmetry_space_group_name_H-M "P B C N"
_symmetry_group_IT_number 60
_symmetry_cell_setting 'orthorhombic'
loop_
_space_group_symop_operation_xyz
x,y,z
1/2-x,1/2-y,1/2+z
1/2+x,1/2-y,-z
-x,y,1/2-z
-x,-y,-z
1/2+x,1/2+y,1/2-z
1/2-x,1/2+y,z
x,-y,1/2+z
loop_
_atom_site_type_symbol
_atom_site_label
_atom_site_fract_x
_atom_site_fract_y
_atom_site_fract_z
Si Si1 0.593709 0.672053 0.461987
Si Si2 0.644379 0.969177 0.654295
Si Si3 0.337645 0.270972 0.159918
Si Si4 0.000000 0.096382 0.250000
Si Si5 0.900141 0.583782 0.537950
Si Si6 0.500000 0.845651 0.250000
O O1 0.721434 0.721637 0.405158
O O2 0.436928 0.693352 0.555516
O O3 0.487268 0.637779 0.360598
O O4 0.726120 0.626371 0.523763
O O5 0.500000 0.994540 0.750000
O O6 0.538967 0.920658 0.575881
O O7 0.818353 0.944799 0.732284
O O8 0.696325 0.022517 0.570071
O O9 0.500000 0.246665 0.250000
O O10 0.191768 0.306777 0.242844
O O11 0.024258 0.612670 0.639562
#
# Coordination Sequence:
#
# PCOD8248530 Si02
#       6
#     8   8   8   4   8   4
#     4  12  27  46  72 104 139 190 230 296 350 419
#     4  11  24  46  69 106 139 181 236 289 348 432
#     4  12  28  46  72 105 141 184 243 290 350 427
#     4  12  27  44  76 102 142 186 231 288 360 418
#     4  11  24  45  74  99 143 185 228 293 360 412
#     4  12  23  48  72 102 140 184 231 294 354 424
#
# _framework density 21.663238
#
# number of rings (size 3 to 8) (size 9 to 14) (size 15 to 20)
#    0.000    0.400    5.000    3.000    5.600    2.400 
#    0.000    0.000    0.000    0.000    0.000    0.000 
#    0.000    0.000    0.000    0.000    0.000    0.000 
#
# Total GULP energy -495822.024793 kJ/mol
# GULP energy per Si atom -12395.550620 kJ/mol
# Density = 2.161393 g / cm^3
# Si number density = 21.663238 Si / 1000 Ang^3
#
#
#
# Elastic Constant Matrix: (Units=GPa)
#
#
# Indices 1 2 3 4 5 6 
#
# 1 100.3049 41.4368 27.7192 0.0000 0.0000 0.0000
# 2 41.4368 98.3728 20.3771 0.0000 0.0000 0.0000
# 3 27.7192 20.3771 87.8062 0.0000 0.0000 0.0000
# 4 0.0000 0.0000 0.0000 62.9545 0.0000 0.0000
# 5 0.0000 0.0000 0.0000 0.0000 51.6026 0.0000
# 6 0.0000 0.0000 0.0000 0.0000 0.0000 -30.9792
#
#
#
# Elastic Compliance Matrix: (Units=1/GPa)
#
#
# Indices 1 2 3 4 5 6 
#
# 1 0.012744 -0.004764 -0.002918 0.000000 0.000000 0.000000
# 2 -0.004764 0.012459 -0.001388 0.000000 0.000000 0.000000
# 3 -0.002918 -0.001388 0.012632 0.000000 0.000000 0.000000
# 4 0.000000 0.000000 0.000000 0.015884 0.000000 0.000000
# 5 0.000000 0.000000 0.000000 0.000000 0.019379 0.000000
# 6 0.000000 0.000000 0.000000 0.000000 0.000000 -0.032280
#
#
# Mechanical properties :
#
#
# Convention : Reuss Voigt Hill
#
# Bulk Modulus (GPa) = 50.76826 51.72780 51.24803
# Shear Modulus (GPa) = 76.31041 29.84565 53.07803
#
# Velocity S-wave (km/s) = 5.94157 3.71578 4.95526
# Velocity P-wave (km/s) = 8.39975 6.50687 7.51316
#
# Compressibility (1/GPa) = 0.01969735
#
# Stress axis : x y z
#
# Youngs Moduli (GPa) = 78.46985 80.26077 79.16544
#
# Poissons Ratio (x) = 0.38233 0.23097
# Poissons Ratio (y) = 0.37380 0.10985
# Poissons Ratio (z) = 0.22894 0.11137
#
# Static dielectric constant tensor:
#      x y z
#    x 3.832810 0.000000 0.000000 
#    y 0.000000 4.125600 0.000000 
#    z 0.000000 0.000000 4.101050 
# 
# 
# High freq. dielectric constant tensor:
#      x y z
#    x 1.847370 0.000000 0.000000 
#    y 0.000000 1.859010 0.000000 
#    z 0.000000 0.000000 1.874980 
# 
# From -- ./inp_files/9140.got.cif
#   From: 2010.03.12/outbox.cif.g09.slc.cpg/sg60_5_cif.got.tgz:9140.got - 2010.04.10 18:46:24.
