data_PCOD8248598
_publ_section_title
;
Structure prediction by ZEFSAII (Michael W. Deem and Ramdas Pophale) SiO2 
 PCOD8248598
Probable space group: P B C N
;
_chemical_formula_sum "Si O2"
_cell_formula_units_Z 56
_cell_length_a 4.909875
_cell_length_b 34.570326
_cell_length_c 14.091502
_cell_angle_alpha 90.000000
_cell_angle_beta 90.000000
_cell_angle_gamma 90.000000
_cell_volume 2391.834893
_symmetry_space_group_name_H-M "P B C N"
_symmetry_group_IT_number 60
_symmetry_cell_setting 'orthorhombic'
loop_
_space_group_symop_operation_xyz
x,y,z
1/2-x,1/2-y,1/2+z
1/2+x,1/2-y,-z
-x,y,1/2-z
-x,-y,-z
1/2+x,1/2+y,1/2-z
1/2-x,1/2+y,z
x,-y,1/2+z
loop_
_atom_site_type_symbol
_atom_site_label
_atom_site_fract_x
_atom_site_fract_y
_atom_site_fract_z
Si Si1 0.102197 0.488925 0.395772
Si Si2 0.032307 0.112032 0.427492
Si Si3 0.045236 0.642916 0.982553
Si Si4 0.000000 0.293185 0.750000
Si Si5 0.769545 0.594204 0.684347
Si Si6 0.000000 0.155357 0.250000
Si Si7 0.000775 0.728676 0.038376
Si Si8 0.395078 0.534070 0.151104
O O1 0.103922 0.444337 0.364684
O O2 0.415804 0.499519 0.384397
O O3 0.000000 0.500000 0.500000
O O4 0.902703 0.515547 0.331480
O O5 0.761259 0.138013 0.433774
O O6 0.272049 0.116574 0.505725
O O7 0.145384 0.127792 0.328011
O O8 0.923665 0.067807 0.427328
O O9 0.240634 0.627604 0.895799
O O10 0.951356 0.687290 0.986282
O O11 0.742800 0.317564 0.785314
O O12 0.933373 0.269624 0.652150
O O13 0.500000 0.588375 0.750000
O O14 0.000000 0.611654 0.750000
O O15 0.807688 0.758518 0.983054
O O16 0.500000 0.551516 0.250000
#
# Coordination Sequence:
#
# PCOD8248598 Si02
#       8
#     8   8   8   4   8   4   8   8
#     4  12  25  43  64  94 131 183 238 297 360 409
#     4  12  22  41  68 107 141 180 227 294 365 424
#     4  12  26  47  73 101 141 182 244 295 355 441
#     4  12  24  46  76 108 144 195 230 287 382 438
#     4  12  26  48  72  96 139 199 251 299 366 440
#     4  12  20  40  70 104 144 181 226 287 356 454
#     4  12  26  48  75 110 149 187 235 300 363 444
#     4  12  24  38  62  98 135 170 223 286 350 415
#
# _framework density 23.412984999999999
#
# number of rings (size 3 to 8) (size 9 to 14) (size 15 to 20)
#    0.000    0.000    3.571    8.143    0.000    0.000 
#    3.857    0.000    0.000    0.000    0.000    0.000 
#    0.000    0.000    0.000    0.000    0.000    0.000 
#
# Total GULP energy -693734.176587 kJ/mol
# GULP energy per Si atom -12388.110296 kJ/mol
# Density = 2.335970 g / cm^3
# Si number density = 23.412985 Si / 1000 Ang^3
#
#
#
# Elastic Constant Matrix: (Units=GPa)
#
#
# Indices 1 2 3 4 5 6 
#
# 1 112.1507 22.7754 27.1426 0.0000 0.0000 0.0000
# 2 22.7754 106.7173 45.9425 0.0000 0.0000 0.0000
# 3 27.1426 45.9425 104.1751 0.0000 0.0000 0.0000
# 4 0.0000 0.0000 0.0000 34.7654 0.0000 0.0000
# 5 0.0000 0.0000 0.0000 0.0000 41.0481 0.0000
# 6 0.0000 0.0000 0.0000 0.0000 0.0000 32.4531
#
#
#
# Elastic Compliance Matrix: (Units=1/GPa)
#
#
# Indices 1 2 3 4 5 6 
#
# 1 0.009641 -0.001205 -0.001980 0.000000 0.000000 0.000000
# 2 -0.001205 0.011717 -0.004853 0.000000 0.000000 0.000000
# 3 -0.001980 -0.004853 0.012256 0.000000 0.000000 0.000000
# 4 0.000000 0.000000 0.000000 0.028764 0.000000 0.000000
# 5 0.000000 0.000000 0.000000 0.000000 0.024362 0.000000
# 6 0.000000 0.000000 0.000000 0.000000 0.000000 0.030814
#
#
# Mechanical properties :
#
#
# Convention : Reuss Voigt Hill
#
# Bulk Modulus (GPa) = 57.02634 57.19602 57.11118
# Shear Modulus (GPa) = 35.84851 36.79884 36.32368
#
# Velocity S-wave (km/s) = 3.91722 3.96880 3.94310
# Velocity P-wave (km/s) = 6.69844 6.74419 6.72135
#
# Compressibility (1/GPa) = 0.01753576
#
# Stress axis : x y z
#
# Youngs Moduli (GPa) = 103.72837 85.34500 81.59489
#
# Poissons Ratio (x) = 0.10283 0.16160
# Poissons Ratio (y) = 0.12498 0.39602
# Poissons Ratio (z) = 0.20543 0.41422
#
# Static dielectric constant tensor:
#      x y z
#    x 4.446670 0.000000 0.000000 
#    y 0.000000 3.933800 0.000000 
#    z 0.000000 0.000000 4.601890 
# 
# 
# High freq. dielectric constant tensor:
#      x y z
#    x 1.942570 0.000000 0.000000 
#    y 0.000000 1.909040 0.000000 
#    z 0.000000 0.000000 1.936370 
# 
# From -- ./inp_files/14150.got.cif
#   From: 2010.03.12/outbox.cif.g09.slc.cpg/sg60_8_cif.got.tgz:14150.got - 2010.04.10 18:46:24.
