data_PCOD8248485
_publ_section_title
;
Structure prediction by ZEFSAII (Michael W. Deem and Ramdas Pophale) SiO2 
 PCOD8248485
Probable space group: P B C N
;
_chemical_formula_sum "Si O2"
_cell_formula_units_Z 48
_cell_length_a 9.294717
_cell_length_b 8.939619
_cell_length_c 25.133988
_cell_angle_alpha 90.000000
_cell_angle_beta 90.000000
_cell_angle_gamma 90.000000
_cell_volume 2088.413945
_symmetry_space_group_name_H-M "P B C N"
_symmetry_group_IT_number 60
_symmetry_cell_setting 'orthorhombic'
loop_
_space_group_symop_operation_xyz
x,y,z
1/2-x,1/2-y,1/2+z
1/2+x,1/2-y,-z
-x,y,1/2-z
-x,-y,-z
1/2+x,1/2+y,1/2-z
1/2-x,1/2+y,z
x,-y,1/2+z
loop_
_atom_site_type_symbol
_atom_site_label
_atom_site_fract_x
_atom_site_fract_y
_atom_site_fract_z
Si Si1 0.349395 0.453348 0.159781
Si Si2 0.863126 0.895187 0.002738
Si Si3 0.077966 0.527600 0.872310
Si Si4 0.341013 0.092897 0.555211
Si Si5 0.610266 0.216968 0.798188
Si Si6 0.633728 0.307800 0.122519
O O1 0.272770 0.424950 0.103218
O O2 0.269427 0.360871 0.208362
O O3 0.359915 0.628138 0.172456
O O4 0.512596 0.399266 0.153345
O O5 0.870204 0.816272 0.059213
O O6 0.859833 0.767877 0.957814
O O7 0.721570 0.998933 0.994873
O O8 0.000000 0.000000 0.000000
O O9 0.124840 0.361575 0.857984
O O10 0.211077 0.634231 0.861165
O O11 0.001089 0.531977 0.930474
O O12 0.955616 0.587133 0.833985
O O13 0.500000 0.242250 0.750000
#
# Coordination Sequence:
#
# PCOD8248485 Si02
#       6
#     8   8   8   8   8   8
#     4  11  23  46  76 103 150 193 240 310 389 447
#     4  12  26  40  68 102 143 195 264 297 350 444
#     4  11  26  44  69 100 146 190 244 306 385 434
#     4  11  24  44  67  98 146 201 244 310 369 427
#     4  11  26  49  78 109 138 189 245 306 384 471
#     4  12  25  42  67 104 144 196 244 305 361 436
#
# _framework density 22.983948000000002
#
# number of rings (size 3 to 8) (size 9 to 14) (size 15 to 20)
#    0.000    0.667    1.667    7.000    4.667    4.000 
#    0.000    1.667    0.000    0.000    0.000    0.000 
#    0.000    0.000    0.000    0.000    0.000    0.000 
#
# Total GULP energy -594845.289682 kJ/mol
# GULP energy per Si atom -12392.610202 kJ/mol
# Density = 2.293164 g / cm^3
# Si number density = 22.983948 Si / 1000 Ang^3
#
#
#
# Elastic Constant Matrix: (Units=GPa)
#
#
# Indices 1 2 3 4 5 6 
#
# 1 141.8100 48.4329 21.4855 0.0000 0.0000 0.0000
# 2 48.4329 179.2471 24.6331 0.0000 0.0000 0.0000
# 3 21.4855 24.6331 56.5116 0.0000 0.0000 0.0000
# 4 0.0000 0.0000 0.0000 25.5833 0.0000 0.0000
# 5 0.0000 0.0000 0.0000 0.0000 55.1163 0.0000
# 6 0.0000 0.0000 0.0000 0.0000 0.0000 -2.6886
#
#
#
# Elastic Compliance Matrix: (Units=1/GPa)
#
#
# Indices 1 2 3 4 5 6 
#
# 1 0.008027 -0.001861 -0.002241 0.000000 0.000000 0.000000
# 2 -0.001861 0.006366 -0.002067 0.000000 0.000000 0.000000
# 3 -0.002241 -0.002067 0.019448 0.000000 0.000000 0.000000
# 4 0.000000 0.000000 0.000000 0.039088 0.000000 0.000000
# 5 0.000000 0.000000 0.000000 0.000000 0.018143 0.000000
# 6 0.000000 0.000000 0.000000 0.000000 0.000000 -0.371940
#
#
# Mechanical properties :
#
#
# Convention : Reuss Voigt Hill
#
# Bulk Modulus (GPa) = 46.50422 62.96351 54.73387
# Shear Modulus (GPa) = -19.13055 34.47001 7.66973
#
# Velocity S-wave (km/s) = -2.88817 3.87685 1.82873
# Velocity P-wave (km/s) = 3.02577 6.89159 5.32209
#
# Compressibility (1/GPa) = 0.02150342
#
# Stress axis : x y z
#
# Youngs Moduli (GPa) = 124.58387 157.08905 51.41792
#
# Poissons Ratio (x) = 0.29233 0.11520
# Poissons Ratio (y) = 0.23184 0.10630
# Poissons Ratio (z) = 0.27914 0.32475
#
# Static dielectric constant tensor:
#      x y z
#    x 6.269970 0.000000 0.000000 
#    y 0.000000 4.085550 0.000000 
#    z 0.000000 0.000000 3.992970 
# 
# 
# High freq. dielectric constant tensor:
#      x y z
#    x 1.933790 0.000000 0.000000 
#    y 0.000000 1.924900 0.000000 
#    z 0.000000 0.000000 1.879840 
# 
# From -- ./inp_files/25954.got.cif
#   From: 2010.03.12/outbox.cif.g09.slc.cpg/sg60_13_cif.got.tgz:25954.got - 2010.04.10 18:46:24.
