data_PCOD8248820
_publ_section_title
;
Structure prediction by ZEFSAII (Michael W. Deem and Ramdas Pophale) SiO2 
 PCOD8248820
Probable space group: P B C A
;
_chemical_formula_sum "Si O2"
_cell_formula_units_Z 64
_cell_length_a 10.309605
_cell_length_b 20.660020
_cell_length_c 15.386518
_cell_angle_alpha 90.000000
_cell_angle_beta 90.000000
_cell_angle_gamma 90.000000
_cell_volume 3277.276720
_symmetry_space_group_name_H-M "P B C A"
_symmetry_group_IT_number 61
_symmetry_cell_setting 'orthorhombic'
loop_
_space_group_symop_operation_xyz
x,y,z
1/2-x,-y,1/2+z
1/2+x,1/2-y,-z
-x,1/2+y,1/2-z
-x,-y,-z
1/2+x,y,1/2-z
1/2-x,1/2+y,z
x,1/2-y,1/2+z
loop_
_atom_site_type_symbol
_atom_site_label
_atom_site_fract_x
_atom_site_fract_y
_atom_site_fract_z
Si Si1 0.602699 0.833398 0.140072
Si Si2 0.128502 0.317654 0.432333
Si Si3 0.606520 0.777373 0.323026
Si Si4 0.131308 0.251996 0.610721
Si Si5 0.602297 0.557514 0.503893
Si Si6 0.623358 0.116304 0.303761
Si Si7 0.091972 0.626163 0.175533
Si Si8 0.608140 0.052150 0.482798
O O1 0.748130 0.806223 0.129762
O O2 0.574103 0.826557 0.243370
O O3 0.496829 0.789217 0.092069
O O4 0.591779 0.905055 0.097005
O O5 0.173352 0.287886 0.523346
O O6 0.096179 0.392945 0.443976
O O7 0.001672 0.284723 0.395863
O O8 0.749403 0.794406 0.360301
O O9 0.601842 0.701636 0.301407
O O10 0.107115 0.306302 0.684094
O O11 0.500000 0.500000 0.500000
O O12 0.579424 0.610282 0.427100
O O13 0.744249 0.525335 0.490105
O O14 0.773435 0.096475 0.286509
O O15 0.532193 0.094833 0.223545
O O16 0.573467 0.079519 0.388497
O O17 0.500000 0.000000 0.500000
#
# Coordination Sequence:
#
# PCOD8248820 Si02
#       8
#     8   8   8   8   8   8   8   8
#     4  11  21  37  57  85 119 155 197 249 298 358
#     4  10  21  36  57  86 119 154 194 246 299 361
#     4  11  21  35  59  91 122 152 191 246 305 362
#     4  10  19  35  56  89 121 151 190 238 309 368
#     4  10  23  42  60  84 118 164 207 251 297 367
#     4   9  19  34  57  87 115 149 192 250 292 363
#     4  10  20  37  59  86 118 151 200 242 305 363
#     4   9  20  40  60  80 114 152 203 248 294 354
#
# _framework density 19.528409
#
# number of rings (size 3 to 8) (size 9 to 14) (size 15 to 20)
#    0.000    2.000    1.250    4.500    1.750    2.000 
#    2.250    1.250    0.000    0.000    0.000    0.000 
#    0.000    0.000    0.000    0.000    0.000    0.000 
#
# Total GULP energy -793231.328151 kJ/mol
# GULP energy per Si atom -12394.239502 kJ/mol
# Density = 1.948396 g / cm^3
# Si number density = 19.528409 Si / 1000 Ang^3
#
#
#
# Elastic Constant Matrix: (Units=GPa)
#
#
# Indices 1 2 3 4 5 6 
#
# 1 140.4258 52.3406 39.0337 0.0000 0.0000 0.0000
# 2 52.3406 66.2507 24.6818 0.0000 0.0000 0.0000
# 3 39.0337 24.6818 80.4987 0.0000 0.0000 0.0000
# 4 0.0000 0.0000 0.0000 20.3467 0.0000 0.0000
# 5 0.0000 0.0000 0.0000 0.0000 35.0391 0.0000
# 6 0.0000 0.0000 0.0000 0.0000 0.0000 38.5124
#
#
#
# Elastic Compliance Matrix: (Units=1/GPa)
#
#
# Indices 1 2 3 4 5 6 
#
# 1 0.010670 -0.007341 -0.002923 0.000000 0.000000 0.000000
# 2 -0.007341 0.022091 -0.003214 0.000000 0.000000 0.000000
# 3 -0.002923 -0.003214 0.014825 0.000000 0.000000 0.000000
# 4 0.000000 0.000000 0.000000 0.049148 0.000000 0.000000
# 5 0.000000 0.000000 0.000000 0.000000 0.028540 0.000000
# 6 0.000000 0.000000 0.000000 0.000000 0.000000 0.025966
#
#
# Mechanical properties :
#
#
# Convention : Reuss Voigt Hill
#
# Bulk Modulus (GPa) = 48.47077 57.69861 53.08469
# Shear Modulus (GPa) = 27.01664 30.18756 28.60210
#
# Velocity S-wave (km/s) = 3.72352 3.93597 3.83121
# Velocity P-wave (km/s) = 6.58488 7.08985 6.84202
#
# Compressibility (1/GPa) = 0.02063099
#
# Stress axis : x y z
#
# Youngs Moduli (GPa) = 93.72311 45.26768 67.45198
#
# Poissons Ratio (x) = 0.33229 0.19717
# Poissons Ratio (y) = 0.68798 0.21678
# Poissons Ratio (z) = 0.27396 0.14549
#
# Static dielectric constant tensor:
#      x y z
#    x 3.814750 0.000000 0.000000 
#    y 0.000000 3.208130 0.000000 
#    z 0.000000 0.000000 3.478960 
# 
# 
# High freq. dielectric constant tensor:
#      x y z
#    x 1.782080 0.000000 0.000000 
#    y 0.000000 1.723330 0.000000 
#    z 0.000000 0.000000 1.756790 
# 
# From -- ./inp_files/9049.got.cif
#   From: 2010.03.12/outbox.cif.g09.slc.cpg/sg61_5_cif.got.tgz:9049.got - 2010.04.10 19:05:03.
