data_PCOD8248378
_publ_section_title
;
Structure prediction by ZEFSAII (Michael W. Deem and Ramdas Pophale) SiO2 
 PCOD8248378
Probable space group: P B C N
;
_chemical_formula_sum "Si O2"
_cell_formula_units_Z 32
_cell_length_a 8.968020
_cell_length_b 9.924185
_cell_length_c 16.122925
_cell_angle_alpha 90.000000
_cell_angle_beta 90.000000
_cell_angle_gamma 90.000000
_cell_volume 1434.944994
_symmetry_space_group_name_H-M "P B C N"
_symmetry_group_IT_number 60
_symmetry_cell_setting 'orthorhombic'
loop_
_space_group_symop_operation_xyz
x,y,z
1/2-x,1/2-y,1/2+z
1/2+x,1/2-y,-z
-x,y,1/2-z
-x,-y,-z
1/2+x,1/2+y,1/2-z
1/2-x,1/2+y,z
x,-y,1/2+z
loop_
_atom_site_type_symbol
_atom_site_label
_atom_site_fract_x
_atom_site_fract_y
_atom_site_fract_z
Si Si1 0.169956 0.400844 0.242686
Si Si2 0.189776 0.604462 0.931253
Si Si3 0.116732 0.691372 0.181625
Si Si4 0.585061 0.177069 0.021698
O O1 0.238690 0.393479 0.335336
O O2 0.189133 0.549647 0.206709
O O3 0.252671 0.301611 0.179034
O O4 0.000000 0.356549 0.250000
O O5 0.192869 0.452124 0.966506
O O6 0.311981 0.690738 0.982527
O O7 0.019828 0.662839 0.940226
O O8 0.000000 0.739613 0.250000
O O9 0.036841 0.680470 0.094352
#
# Coordination Sequence:
#
# PCOD8248378 Si02
#       4
#     8   8   8   8
#     4  11  22  41  65  93 126 164 210 257 310 369
#     4  11  23  43  64  92 128 166 205 263 310 375
#     4  11  22  42  64  92 125 165 209 259 308 365
#     4  11  25  43  65  91 132 164 210 258 317 372
#
# _framework density 22.300507
#
# number of rings (size 3 to 8) (size 9 to 14) (size 15 to 20)
#    0.000    1.000    7.500    0.000    3.500    2.000 
#    4.500    0.000    0.000    0.000    0.000    0.000 
#    0.000    0.000    0.000    0.000    0.000    0.000 
#
# Total GULP energy -396859.206837 kJ/mol
# GULP energy per Si atom -12401.850214 kJ/mol
# Density = 2.224975 g / cm^3
# Si number density = 22.300507 Si / 1000 Ang^3
#
#
#
# Elastic Constant Matrix: (Units=GPa)
#
#
# Indices 1 2 3 4 5 6 
#
# 1 65.8895 72.0883 5.1304 0.0000 0.0000 0.0000
# 2 72.0883 127.9435 29.0840 0.0000 0.0000 0.0000
# 3 5.1304 29.0840 40.6802 0.0000 0.0000 0.0000
# 4 0.0000 0.0000 0.0000 19.2583 0.0000 0.0000
# 5 0.0000 0.0000 0.0000 0.0000 38.4739 0.0000
# 6 0.0000 0.0000 0.0000 0.0000 0.0000 50.4932
#
#
#
# Elastic Compliance Matrix: (Units=1/GPa)
#
#
# Indices 1 2 3 4 5 6 
#
# 1 0.046398 -0.029627 0.015330 0.000000 0.000000 0.000000
# 2 -0.029627 0.028251 -0.016461 0.000000 0.000000 0.000000
# 3 0.015330 -0.016461 0.034417 0.000000 0.000000 0.000000
# 4 0.000000 0.000000 0.000000 0.051926 0.000000 0.000000
# 5 0.000000 0.000000 0.000000 0.000000 0.025992 0.000000
# 6 0.000000 0.000000 0.000000 0.000000 0.000000 0.019805
#
#
# Mechanical properties :
#
#
# Convention : Reuss Voigt Hill
#
# Bulk Modulus (GPa) = 21.03072 49.67986 35.35529
# Shear Modulus (GPa) = 17.59609 30.19246 23.89428
#
# Velocity S-wave (km/s) = 2.81204 3.68352 3.27688
# Velocity P-wave (km/s) = 4.47152 6.35743 5.49597
#
# Compressibility (1/GPa) = 0.04754950
#
# Stress axis : x y z
#
# Youngs Moduli (GPa) = 21.55288 35.39710 29.05499
#
# Poissons Ratio (x) = 1.04871 -0.44542
# Poissons Ratio (y) = 0.63855 0.47828
# Poissons Ratio (z) = -0.33041 0.58268
#
# Static dielectric constant tensor:
#      x y z
#    x 3.896230 0.000000 0.000000 
#    y 0.000000 3.955420 0.000000 
#    z 0.000000 0.000000 4.295300 
# 
# 
# High freq. dielectric constant tensor:
#      x y z
#    x 1.868610 0.000000 0.000000 
#    y 0.000000 1.874760 0.000000 
#    z 0.000000 0.000000 1.887130 
# 
# From -- ./inp_files/18958.got.cif
#   From: 2010.03.12/outbox.cif.g09.slc.cpg/sg60_10_cif.got.tgz:18958.got - 2010.04.10 18:46:24.
