data_PCOD8248451
_publ_section_title
;
Structure prediction by ZEFSAII (Michael W. Deem and Ramdas Pophale) SiO2 
 PCOD8248451
Probable space group: P B C N
;
_chemical_formula_sum "Si O2"
_cell_formula_units_Z 60
_cell_length_a 26.583904
_cell_length_b 9.123622
_cell_length_c 11.166347
_cell_angle_alpha 90.000000
_cell_angle_beta 90.000000
_cell_angle_gamma 90.000000
_cell_volume 2708.302455
_symmetry_space_group_name_H-M "P B C N"
_symmetry_group_IT_number 60
_symmetry_cell_setting 'orthorhombic'
loop_
_space_group_symop_operation_xyz
x,y,z
1/2-x,1/2-y,1/2+z
1/2+x,1/2-y,-z
-x,y,1/2-z
-x,-y,-z
1/2+x,1/2+y,1/2-z
1/2-x,1/2+y,z
x,-y,1/2+z
loop_
_atom_site_type_symbol
_atom_site_label
_atom_site_fract_x
_atom_site_fract_y
_atom_site_fract_z
Si Si1 0.773193 0.404769 0.863481
Si Si2 0.976527 0.804690 0.442503
Si Si3 0.000000 0.430198 0.750000
Si Si4 0.170956 0.710364 0.935858
Si Si5 0.429093 0.186216 0.818391
Si Si6 0.260971 0.642977 0.792519
Si Si7 0.327212 0.533248 0.994686
Si Si8 0.932129 0.109330 0.412098
O O1 0.777485 0.515115 0.752241
O O2 0.778467 0.237688 0.819992
O O3 0.818088 0.415227 0.962099
O O4 0.718224 0.439132 0.915303
O O5 0.947596 0.769255 0.564103
O O6 0.974560 0.668591 0.352215
O O7 0.034384 0.836204 0.476279
O O8 0.950102 0.944416 0.378763
O O9 0.956170 0.530771 0.695549
O O10 0.129987 0.654006 0.840422
O O11 0.225539 0.741965 0.876868
O O12 0.154511 0.865327 0.991253
O O13 0.439516 0.287780 0.703576
O O14 0.310451 0.585363 0.861723
O O15 0.374771 0.623192 0.043853
#
# Coordination Sequence:
#
# PCOD8248451 Si02
#       8
#     8   8   4   8   8   8   8   8
#     4  11  23  43  66  96 136 183 226 287 355 413
#     4  11  26  48  75 106 140 187 243 295 362 429
#     4  12  28  48  72 104 154 186 220 310 380 424
#     4  11  24  42  67 103 133 183 239 284 345 431
#     4  12  25  49  72 103 149 188 239 298 363 434
#     4  11  23  43  68  95 140 181 223 293 354 416
#     4  11  23  42  70 101 136 177 239 290 344 414
#     4  11  25  45  78 103 135 189 250 295 345 431
#
# _framework density 22.154098999999999
#
# number of rings (size 3 to 8) (size 9 to 14) (size 15 to 20)
#    0.000    0.800    5.333    1.200    3.733    1.067 
#    7.200    0.000    0.000    0.000    0.000    0.000 
#    0.000    0.000    0.000    0.000    0.000    0.000 
#
# Total GULP energy -743936.090361 kJ/mol
# GULP energy per Si atom -12398.934839 kJ/mol
# Density = 2.210367 g / cm^3
# Si number density = 22.154099 Si / 1000 Ang^3
#
#
#
# Elastic Constant Matrix: (Units=GPa)
#
#
# Indices 1 2 3 4 5 6 
#
# 1 89.3001 23.1752 19.4999 0.0000 0.0000 0.0000
# 2 23.1752 103.1521 37.5628 0.0000 0.0000 0.0000
# 3 19.4999 37.5628 91.4878 0.0000 0.0000 0.0000
# 4 0.0000 0.0000 0.0000 42.7882 0.0000 0.0000
# 5 0.0000 0.0000 0.0000 0.0000 42.1916 0.0000
# 6 0.0000 0.0000 0.0000 0.0000 0.0000 21.3685
#
#
#
# Elastic Compliance Matrix: (Units=1/GPa)
#
#
# Indices 1 2 3 4 5 6 
#
# 1 0.012118 -0.002095 -0.001723 0.000000 0.000000 0.000000
# 2 -0.002095 0.011761 -0.004382 0.000000 0.000000 0.000000
# 3 -0.001723 -0.004382 0.013097 0.000000 0.000000 0.000000
# 4 0.000000 0.000000 0.000000 0.023371 0.000000 0.000000
# 5 0.000000 0.000000 0.000000 0.000000 0.023701 0.000000
# 6 0.000000 0.000000 0.000000 0.000000 0.000000 0.046798
#
#
# Mechanical properties :
#
#
# Convention : Reuss Voigt Hill
#
# Bulk Modulus (GPa) = 48.60101 49.37955 48.99028
# Shear Modulus (GPa) = 32.44545 34.84978 33.64762
#
# Velocity S-wave (km/s) = 3.83108 3.97049 3.90140
# Velocity P-wave (km/s) = 6.44631 6.58462 6.51583
#
# Compressibility (1/GPa) = 0.02057571
#
# Stress axis : x y z
#
# Youngs Moduli (GPa) = 82.52104 85.02720 76.35449
#
# Poissons Ratio (x) = 0.17816 0.13153
# Poissons Ratio (y) = 0.17291 0.33460
# Poissons Ratio (z) = 0.14215 0.37260
#
# Static dielectric constant tensor:
#      x y z
#    x 3.977460 0.000000 0.000000 
#    y 0.000000 3.974350 0.000000 
#    z 0.000000 0.000000 4.103250 
# 
# 
# High freq. dielectric constant tensor:
#      x y z
#    x 1.870000 0.000000 0.000000 
#    y 0.000000 1.868830 0.000000 
#    z 0.000000 0.000000 1.880410 
# 
# From -- ./inp_files/13284.got.cif
#   From: 2010.03.12/outbox.cif.g09.slc.cpg/sg60_7_cif.got.tgz:13284.got - 2010.04.10 18:46:24.
