data_PCOD8248321
_publ_section_title
;
Structure prediction by ZEFSAII (Michael W. Deem and Ramdas Pophale) SiO2 
 PCOD8248321
Probable space group: P B C N
;
_chemical_formula_sum "Si O2"
_cell_formula_units_Z 48
_cell_length_a 8.618151
_cell_length_b 29.142770
_cell_length_c 9.817755
_cell_angle_alpha 90.000000
_cell_angle_beta 90.000000
_cell_angle_gamma 90.000000
_cell_volume 2465.795855
_symmetry_space_group_name_H-M "P B C N"
_symmetry_group_IT_number 60
_symmetry_cell_setting 'orthorhombic'
loop_
_space_group_symop_operation_xyz
x,y,z
1/2-x,1/2-y,1/2+z
1/2+x,1/2-y,-z
-x,y,1/2-z
-x,-y,-z
1/2+x,1/2+y,1/2-z
1/2-x,1/2+y,z
x,-y,1/2+z
loop_
_atom_site_type_symbol
_atom_site_label
_atom_site_fract_x
_atom_site_fract_y
_atom_site_fract_z
Si Si1 0.669097 0.979881 0.026907
Si Si2 0.119662 0.727713 0.626039
Si Si3 0.666229 0.464381 0.305316
Si Si4 0.104918 0.381130 0.464118
Si Si5 0.907156 0.709772 0.385123
Si Si6 0.708956 0.129896 0.825349
O O1 0.797528 0.007781 0.942875
O O2 0.707345 0.977469 0.188838
O O3 0.674915 0.927486 0.972806
O O4 0.500000 0.000000 0.000000
O O5 0.234356 0.770492 0.633986
O O6 0.226367 0.681228 0.611480
O O7 0.000000 0.723341 0.750000
O O8 0.006994 0.735653 0.498872
O O9 0.500000 0.479481 0.250000
O O10 0.660693 0.409622 0.344196
O O11 0.106627 0.344127 0.584028
O O12 0.200124 0.361214 0.336479
O O13 0.937110 0.392999 0.401292
O O14 0.000000 0.717876 0.250000
#
# Coordination Sequence:
#
# PCOD8248321 Si02
#       6
#     8   8   8   8   8   8
#     4  11  21  38  66  87 116 164 208 237 295 370
#     4  11  21  41  62  86 123 155 204 249 295 365
#     4  11  23  38  59  93 126 151 197 257 307 344
#     4   9  18  37  58  85 114 150 208 244 279 358
#     4  11  23  36  61  90 120 157 197 250 306 347
#     4   9  17  37  62  78 110 161 201 240 282 361
#
# _framework density 19.466332000000001
#
# number of rings (size 3 to 8) (size 9 to 14) (size 15 to 20)
#    0.000    1.667    5.000    2.000    0.000    2.000 
#    3.000    0.833    0.000    0.000    0.000    0.000 
#    0.000    0.000    0.000    0.000    0.000    0.000 
#
# Total GULP energy -594743.094861 kJ/mol
# GULP energy per Si atom -12390.481143 kJ/mol
# Density = 1.942203 g / cm^3
# Si number density = 19.466332 Si / 1000 Ang^3
#
#
#
# Elastic Constant Matrix: (Units=GPa)
#
#
# Indices 1 2 3 4 5 6 
#
# 1 64.2682 43.0698 18.3469 0.0000 0.0000 0.0000
# 2 43.0698 86.6750 37.7851 0.0000 0.0000 0.0000
# 3 18.3469 37.7851 82.7127 0.0000 0.0000 0.0000
# 4 0.0000 0.0000 0.0000 37.7830 0.0000 0.0000
# 5 0.0000 0.0000 0.0000 0.0000 23.6938 0.0000
# 6 0.0000 0.0000 0.0000 0.0000 0.0000 26.9290
#
#
#
# Elastic Compliance Matrix: (Units=1/GPa)
#
#
# Indices 1 2 3 4 5 6 
#
# 1 0.023330 -0.011659 0.000151 0.000000 0.000000 0.000000
# 2 -0.011659 0.020233 -0.006657 0.000000 0.000000 0.000000
# 3 0.000151 -0.006657 0.015097 0.000000 0.000000 0.000000
# 4 0.000000 0.000000 0.000000 0.026467 0.000000 0.000000
# 5 0.000000 0.000000 0.000000 0.000000 0.042205 0.000000
# 6 0.000000 0.000000 0.000000 0.000000 0.000000 0.037135
#
#
# Mechanical properties :
#
#
# Convention : Reuss Voigt Hill
#
# Bulk Modulus (GPa) = 44.78023 48.00663 46.39343
# Shear Modulus (GPa) = 24.01085 26.64475 25.32780
#
# Velocity S-wave (km/s) = 3.51587 3.70369 3.61100
# Velocity P-wave (km/s) = 6.28774 6.55779 6.42419
#
# Compressibility (1/GPa) = 0.02233128
#
# Stress axis : x y z
#
# Youngs Moduli (GPa) = 42.86352 49.42509 66.23632
#
# Poissons Ratio (x) = 0.57623 -0.01001
# Poissons Ratio (y) = 0.49974 0.44091
# Poissons Ratio (z) = -0.00648 0.32901
#
# Static dielectric constant tensor:
#      x y z
#    x 3.317030 0.000000 0.000000 
#    y 0.000000 3.650930 0.000000 
#    z 0.000000 0.000000 3.460980 
# 
# 
# High freq. dielectric constant tensor:
#      x y z
#    x 1.735840 0.000000 0.000000 
#    y 0.000000 1.763750 0.000000 
#    z 0.000000 0.000000 1.751710 
# 
# From -- ./inp_files/4195.got.cif
#   From: 2010.03.12/outbox.cif.g09.slc.cpg/sg60_3_cif.got.tgz:4195.got - 2010.04.10 18:46:24.
