data_PCOD8248149
_publ_section_title
;
Structure prediction by ZEFSAII (Michael W. Deem and Ramdas Pophale) SiO2 
 PCOD8248149
Probable space group: P B C N
;
_chemical_formula_sum "Si O2"
_cell_formula_units_Z 32
_cell_length_a 13.624925
_cell_length_b 17.952490
_cell_length_c 5.429971
_cell_angle_alpha 90.000000
_cell_angle_beta 90.000000
_cell_angle_gamma 90.000000
_cell_volume 1328.178127
_symmetry_space_group_name_H-M "P B C N"
_symmetry_group_IT_number 60
_symmetry_cell_setting 'orthorhombic'
loop_
_space_group_symop_operation_xyz
x,y,z
1/2-x,1/2-y,1/2+z
1/2+x,1/2-y,-z
-x,y,1/2-z
-x,-y,-z
1/2+x,1/2+y,1/2-z
1/2-x,1/2+y,z
x,-y,1/2+z
loop_
_atom_site_type_symbol
_atom_site_label
_atom_site_fract_x
_atom_site_fract_y
_atom_site_fract_z
Si Si1 0.611816 0.967544 0.771326
Si Si2 0.000000 0.738243 0.750000
Si Si3 0.500000 0.452420 0.250000
Si Si4 0.160008 0.681700 0.418659
Si Si5 0.632805 0.674823 0.878826
O O1 0.500000 0.994452 0.750000
O O2 0.619490 0.877536 0.780586
O O3 0.662400 0.997987 0.516719
O O4 0.085977 0.683632 0.651268
O O5 0.956365 0.792061 0.540218
O O6 0.500000 0.500000 0.500000
O O7 0.403373 0.400478 0.251661
O O8 0.165136 0.765322 0.322298
O O9 0.269917 0.654553 0.471723
#
# Coordination Sequence:
#
# PCOD8248149 Si02
#       5
#     8   4   4   8   8
#     4  10  24  43  68 103 150 194 237 301 389 462
#     4  12  23  46  74 109 152 194 248 336 397 450
#     4  12  29  52  80 111 164 216 262 328 403 484
#     4  12  26  44  78 110 149 201 261 329 385 470
#     4  12  26  46  77 112 149 203 271 326 395 470
#
# _framework density 24.093154999999999
#
# number of rings (size 3 to 8) (size 9 to 14) (size 15 to 20)
#    0.000    0.500    5.000    2.250    8.750    2.000 
#    0.000    0.000    0.000    0.000    0.000    0.000 
#    0.000    0.000    0.000    0.000    0.000    0.000 
#
# Total GULP energy -396839.605066 kJ/mol
# GULP energy per Si atom -12401.237658 kJ/mol
# Density = 2.403832 g / cm^3
# Si number density = 24.093155 Si / 1000 Ang^3
#
#
#
# Elastic Constant Matrix: (Units=GPa)
#
#
# Indices 1 2 3 4 5 6 
#
# 1 115.5732 28.0885 28.6296 0.0000 0.0000 0.0000
# 2 28.0885 141.8745 58.2665 0.0000 0.0000 0.0000
# 3 28.6296 58.2665 136.3360 0.0000 0.0000 0.0000
# 4 0.0000 0.0000 0.0000 50.3579 0.0000 0.0000
# 5 0.0000 0.0000 0.0000 0.0000 30.3649 0.0000
# 6 0.0000 0.0000 0.0000 0.0000 0.0000 11.9005
#
#
#
# Elastic Compliance Matrix: (Units=1/GPa)
#
#
# Indices 1 2 3 4 5 6 
#
# 1 0.009310 -0.001262 -0.001416 0.000000 0.000000 0.000000
# 2 -0.001262 0.008720 -0.003462 0.000000 0.000000 0.000000
# 3 -0.001416 -0.003462 0.009112 0.000000 0.000000 0.000000
# 4 0.000000 0.000000 0.000000 0.019858 0.000000 0.000000
# 5 0.000000 0.000000 0.000000 0.000000 0.032933 0.000000
# 6 0.000000 0.000000 0.000000 0.000000 0.000000 0.084030
#
#
# Mechanical properties :
#
#
# Convention : Reuss Voigt Hill
#
# Bulk Modulus (GPa) = 67.28141 69.30587 68.29364
# Shear Modulus (GPa) = 27.59455 37.11127 32.35291
#
# Velocity S-wave (km/s) = 3.38794 3.92895 3.66843
# Velocity P-wave (km/s) = 6.57954 7.02926 6.80811
#
# Compressibility (1/GPa) = 0.01486295
#
# Stress axis : x y z
#
# Youngs Moduli (GPa) = 107.41273 114.67915 109.75045
#
# Poissons Ratio (x) = 0.14469 0.15538
# Poissons Ratio (y) = 0.13553 0.37993
# Poissons Ratio (z) = 0.15207 0.39699
#
# Static dielectric constant tensor:
#      x y z
#    x 4.415420 0.000000 0.000000 
#    y 0.000000 4.300910 0.000000 
#    z 0.000000 0.000000 4.507120 
# 
# 
# High freq. dielectric constant tensor:
#      x y z
#    x 1.947840 0.000000 0.000000 
#    y 0.000000 1.959090 0.000000 
#    z 0.000000 0.000000 1.956920 
# 
# From -- ./inp_files/1054.got.cif
#   From: 2010.03.12/outbox.cif.g09.slc.cpg/sg60_1_cif.got.tgz:1054.got - 2010.04.10 18:46:24.
