data_PCOD8248777
_publ_section_title
;
Structure prediction by ZEFSAII (Michael W. Deem and Ramdas Pophale) SiO2 
 PCOD8248777
Probable space group: P B C A
;
_chemical_formula_sum "Si O2"
_cell_formula_units_Z 48
_cell_length_a 17.411715
_cell_length_b 7.529718
_cell_length_c 21.495355
_cell_angle_alpha 90.000000
_cell_angle_beta 90.000000
_cell_angle_gamma 90.000000
_cell_volume 2818.155049
_symmetry_space_group_name_H-M "P B C A"
_symmetry_group_IT_number 61
_symmetry_cell_setting 'orthorhombic'
loop_
_space_group_symop_operation_xyz
x,y,z
1/2-x,-y,1/2+z
1/2+x,1/2-y,-z
-x,1/2+y,1/2-z
-x,-y,-z
1/2+x,y,1/2-z
1/2-x,1/2+y,z
x,1/2-y,1/2+z
loop_
_atom_site_type_symbol
_atom_site_label
_atom_site_fract_x
_atom_site_fract_y
_atom_site_fract_z
Si Si1 0.010919 0.695076 0.677541
Si Si2 0.542105 0.002860 0.095490
Si Si3 0.830932 0.791819 0.887660
Si Si4 0.382518 0.001209 0.027327
Si Si5 0.486090 0.712459 0.180597
Si Si6 0.666753 0.698365 0.887154
O O1 0.991633 0.489758 0.665227
O O2 0.100485 0.737416 0.663480
O O3 0.957078 0.810331 0.632058
O O4 0.993147 0.751585 0.747021
O O5 0.466802 0.980775 0.054694
O O6 0.545447 0.839106 0.143994
O O7 0.614341 0.996634 0.048090
O O8 0.834973 0.670056 0.949432
O O9 0.898126 0.744706 0.838772
O O10 0.748485 0.749350 0.855661
O O11 0.836360 0.995074 0.909077
O O12 0.343987 0.182891 0.051118
#
# Coordination Sequence:
#
# PCOD8248777 Si02
#       6
#     8   8   8   8   8   8
#     4  10  19  31  51  78 104 132 172 212 251 305
#     4   9  18  32  49  72 102 131 159 208 257 291
#     4  10  19  31  51  78  99 131 172 214 257 300
#     4   9  18  32  49  72 102 127 163 208 253 302
#     4  10  19  31  51  78 104 132 172 212 251 305
#     4  10  19  31  51  78  99 131 172 214 257 300
#
# _framework density 17.032419999999998
#
# number of rings (size 3 to 8) (size 9 to 14) (size 15 to 20)
#    0.000    2.333    3.333    0.000    0.000    1.333 
#    0.000    6.667    0.000    2.000    0.000    0.000 
#    0.000    0.000    0.000    0.000    0.000    0.000 
#
# Total GULP energy -595025.467852 kJ/mol
# GULP energy per Si atom -12396.363914 kJ/mol
# Density = 1.699365 g / cm^3
# Si number density = 17.032420 Si / 1000 Ang^3
#
#
#
# Elastic Constant Matrix: (Units=GPa)
#
#
# Indices 1 2 3 4 5 6 
#
# 1 64.7852 33.6272 41.0085 0.0000 0.0000 0.0000
# 2 33.6272 119.8709 31.3290 0.0000 0.0000 0.0000
# 3 41.0085 31.3290 85.6119 0.0000 0.0000 0.0000
# 4 0.0000 0.0000 0.0000 23.6262 0.0000 0.0000
# 5 0.0000 0.0000 0.0000 0.0000 17.8789 0.0000
# 6 0.0000 0.0000 0.0000 0.0000 0.0000 21.4963
#
#
#
# Elastic Compliance Matrix: (Units=1/GPa)
#
#
# Indices 1 2 3 4 5 6 
#
# 1 0.023842 -0.004095 -0.009922 0.000000 0.000000 0.000000
# 2 -0.004095 0.009928 -0.001671 0.000000 0.000000 0.000000
# 3 -0.009922 -0.001671 0.017045 0.000000 0.000000 0.000000
# 4 0.000000 0.000000 0.000000 0.042326 0.000000 0.000000
# 5 0.000000 0.000000 0.000000 0.000000 0.055932 0.000000
# 6 0.000000 0.000000 0.000000 0.000000 0.000000 0.046520
#
#
# Mechanical properties :
#
#
# Convention : Reuss Voigt Hill
#
# Bulk Modulus (GPa) = 51.44611 53.57748 52.51179
# Shear Modulus (GPa) = 21.41808 23.55381 22.48595
#
# Velocity S-wave (km/s) = 3.54996 3.72275 3.63738
# Velocity P-wave (km/s) = 6.86100 7.07127 6.96693
#
# Compressibility (1/GPa) = 0.01943782
#
# Stress axis : x y z
#
# Youngs Moduli (GPa) = 41.94353 100.72555 58.66894
#
# Poissons Ratio (x) = 0.41249 0.58209
# Poissons Ratio (y) = 0.17177 0.09806
# Poissons Ratio (z) = 0.41615 0.16836
#
# Static dielectric constant tensor:
#      x y z
#    x 3.208350 0.000000 0.000000 
#    y 0.000000 3.485440 0.000000 
#    z 0.000000 0.000000 3.179170 
# 
# 
# High freq. dielectric constant tensor:
#      x y z
#    x 1.631310 0.000000 0.000000 
#    y 0.000000 1.680160 0.000000 
#    z 0.000000 0.000000 1.634840 
# 
# From -- ./inp_files/9005.got.cif
#   From: 2010.03.12/outbox.cif.g09.slc.cpg/sg61_5_cif.got.tgz:9005.got - 2010.04.10 19:05:03.
