data_PCOD8248526
_publ_section_title
;
Structure prediction by ZEFSAII (Michael W. Deem and Ramdas Pophale) SiO2 
 PCOD8248526
Probable space group: P B C N
;
_chemical_formula_sum "Si O2"
_cell_formula_units_Z 56
_cell_length_a 14.914560
_cell_length_b 11.908294
_cell_length_c 13.801693
_cell_angle_alpha 90.000000
_cell_angle_beta 90.000000
_cell_angle_gamma 90.000000
_cell_volume 2451.276811
_symmetry_space_group_name_H-M "P B C N"
_symmetry_group_IT_number 60
_symmetry_cell_setting 'orthorhombic'
loop_
_space_group_symop_operation_xyz
x,y,z
1/2-x,1/2-y,1/2+z
1/2+x,1/2-y,-z
-x,y,1/2-z
-x,-y,-z
1/2+x,1/2+y,1/2-z
1/2-x,1/2+y,z
x,-y,1/2+z
loop_
_atom_site_type_symbol
_atom_site_label
_atom_site_fract_x
_atom_site_fract_y
_atom_site_fract_z
Si Si1 0.161646 0.194624 0.335258
Si Si2 0.590623 0.914405 0.574454
Si Si3 0.519775 0.198753 0.901180
Si Si4 0.109909 0.077432 0.141237
Si Si5 0.277056 0.489569 0.974889
Si Si6 0.000000 0.917273 0.250000
Si Si7 0.836934 0.809013 0.154638
Si Si8 0.500000 0.038167 0.750000
O O1 0.141291 0.106896 0.249741
O O2 0.187980 0.128701 0.433325
O O3 0.243139 0.272126 0.295848
O O4 0.079764 0.273528 0.365594
O O5 0.513558 0.885572 0.494310
O O6 0.668563 0.993101 0.528637
O O7 0.631092 0.792467 0.589278
O O8 0.557174 0.961884 0.676791
O O9 0.578482 0.310705 0.916058
O O10 0.562675 0.120854 0.815716
O O11 0.024278 0.994752 0.156094
O O12 0.188480 0.011738 0.084581
O O13 0.320635 0.585099 0.911450
O O14 0.086456 0.839179 0.267654
#
# Coordination Sequence:
#
# PCOD8248526 Si02
#       8
#     8   8   8   8   8   4   8   4
#     4  11  24  46  72 106 150 200 239 311 379 449
#     4  11  27  44  71 110 145 200 244 309 381 455
#     4  12  23  45  73 105 144 194 257 300 380 460
#     4  12  23  44  78 109 140 201 249 305 384 439
#     4  11  25  45  70 109 150 183 251 314 367 449
#     4  12  24  44  74 112 138 202 254 304 372 458
#     4  11  24  45  68 102 150 181 246 307 361 442
#     4  12  24  46  70  98 150 194 244 302 378 460
#
# _framework density 22.845237000000001
#
# number of rings (size 3 to 8) (size 9 to 14) (size 15 to 20)
#    0.000    0.571    5.714    1.714    2.000    4.571 
#    0.000    1.429    0.000    0.000    0.000    0.000 
#    0.000    0.000    0.000    0.000    0.000    0.000 
#
# Total GULP energy -694005.899289 kJ/mol
# GULP energy per Si atom -12392.962487 kJ/mol
# Density = 2.279324 g / cm^3
# Si number density = 22.845237 Si / 1000 Ang^3
#
#
#
# Elastic Constant Matrix: (Units=GPa)
#
#
# Indices 1 2 3 4 5 6 
#
# 1 148.3708 54.5716 76.7911 0.0000 0.0000 0.0000
# 2 54.5716 96.5506 51.1164 0.0000 0.0000 0.0000
# 3 76.7911 51.1164 115.2624 0.0000 0.0000 0.0000
# 4 0.0000 0.0000 0.0000 37.6556 0.0000 0.0000
# 5 0.0000 0.0000 0.0000 0.0000 44.3551 0.0000
# 6 0.0000 0.0000 0.0000 0.0000 0.0000 29.1324
#
#
#
# Elastic Compliance Matrix: (Units=1/GPa)
#
#
# Indices 1 2 3 4 5 6 
#
# 1 0.010927 -0.003034 -0.005934 0.000000 0.000000 0.000000
# 2 -0.003034 0.014378 -0.004355 0.000000 0.000000 0.000000
# 3 -0.005934 -0.004355 0.014561 0.000000 0.000000 0.000000
# 4 0.000000 0.000000 0.000000 0.026556 0.000000 0.000000
# 5 0.000000 0.000000 0.000000 0.000000 0.022545 0.000000
# 6 0.000000 0.000000 0.000000 0.000000 0.000000 0.034326
#
#
# Mechanical properties :
#
#
# Convention : Reuss Voigt Hill
#
# Bulk Modulus (GPa) = 75.64904 80.57135 78.11020
# Shear Modulus (GPa) = 32.39451 34.07560 33.23506
#
# Velocity S-wave (km/s) = 3.76972 3.86629 3.81831
# Velocity P-wave (km/s) = 7.22034 7.43477 7.32834
#
# Compressibility (1/GPa) = 0.01321894
#
# Stress axis : x y z
#
# Youngs Moduli (GPa) = 91.51305 69.55152 68.67788
#
# Poissons Ratio (x) = 0.21105 0.40756
# Poissons Ratio (y) = 0.27769 0.29907
# Poissons Ratio (z) = 0.54308 0.30287
#
# Static dielectric constant tensor:
#      x y z
#    x 4.219220 0.000000 0.000000 
#    y 0.000000 4.436370 0.000000 
#    z 0.000000 0.000000 4.030690 
# 
# 
# High freq. dielectric constant tensor:
#      x y z
#    x 1.895010 0.000000 0.000000 
#    y 0.000000 1.925670 0.000000 
#    z 0.000000 0.000000 1.889330 
# 
# From -- ./inp_files/16890.got.cif
#   From: 2010.03.12/outbox.cif.g09.slc.cpg/sg60_9_cif.got.tgz:16890.got - 2010.04.10 18:46:24.
