data_PCOD8248644
_publ_section_title
;
Structure prediction by ZEFSAII (Michael W. Deem and Ramdas Pophale) SiO2 
 PCOD8248644
Probable space group: P B C N
;
_chemical_formula_sum "Si O2"
_cell_formula_units_Z 32
_cell_length_a 10.748352
_cell_length_b 7.601327
_cell_length_c 14.272931
_cell_angle_alpha 90.000000
_cell_angle_beta 90.000000
_cell_angle_gamma 90.000000
_cell_volume 1166.123273
_symmetry_space_group_name_H-M "P B C N"
_symmetry_group_IT_number 60
_symmetry_cell_setting 'orthorhombic'
loop_
_space_group_symop_operation_xyz
x,y,z
1/2-x,1/2-y,1/2+z
1/2+x,1/2-y,-z
-x,y,1/2-z
-x,-y,-z
1/2+x,1/2+y,1/2-z
1/2-x,1/2+y,z
x,-y,1/2+z
loop_
_atom_site_type_symbol
_atom_site_label
_atom_site_fract_x
_atom_site_fract_y
_atom_site_fract_z
Si Si1 0.873190 0.310849 0.788489
Si Si2 0.725194 0.005418 0.612320
Si Si3 0.331400 0.868205 0.091458
Si Si4 0.048610 0.165936 0.354317
O O1 0.799802 0.373746 0.698060
O O2 0.906077 0.474153 0.857397
O O3 0.792534 0.170064 0.847255
O O4 0.000000 0.222482 0.750000
O O5 0.700136 0.915981 0.513237
O O6 0.878699 0.017209 0.621777
O O7 0.652386 0.185336 0.621269
O O8 0.423667 0.699144 0.084469
O O9 0.000000 0.181915 0.250000
#
# Coordination Sequence:
#
# PCOD8248644 Si02
#       4
#     8   8   8   8
#     4  12  25  48  72 107 148 195 241 304 364 434
#     4  12  24  45  77 103 147 195 240 303 367 428
#     4  12  26  47  75 109 147 194 246 301 367 436
#     4  12  24  49  72 106 150 193 242 304 365 434
#
# _framework density 27.441351999999998
#
# number of rings (size 3 to 8) (size 9 to 14) (size 15 to 20)
#    0.000    0.000    7.500    2.250    3.500    0.000 
#    9.000    3.750    0.000    0.000    0.000    0.000 
#    0.000    0.000    0.000    0.000    0.000    0.000 
#
# Total GULP energy -396474.674887 kJ/mol
# GULP energy per Si atom -12389.833590 kJ/mol
# Density = 2.737889 g / cm^3
# Si number density = 27.441352 Si / 1000 Ang^3
#
#
#
# Elastic Constant Matrix: (Units=GPa)
#
#
# Indices 1 2 3 4 5 6 
#
# 1 122.1290 17.5912 29.3649 0.0000 0.0000 0.0000
# 2 17.5912 39.5137 15.7717 0.0000 0.0000 0.0000
# 3 29.3649 15.7717 187.6291 0.0000 0.0000 0.0000
# 4 0.0000 0.0000 0.0000 31.0072 0.0000 0.0000
# 5 0.0000 0.0000 0.0000 0.0000 294.5631 0.0000
# 6 0.0000 0.0000 0.0000 0.0000 0.0000 44.2372
#
#
#
# Elastic Compliance Matrix: (Units=1/GPa)
#
#
# Indices 1 2 3 4 5 6 
#
# 1 0.008965 -0.003550 -0.001105 0.000000 0.000000 0.000000
# 2 -0.003550 0.027592 -0.001764 0.000000 0.000000 0.000000
# 3 -0.001105 -0.001764 0.005651 0.000000 0.000000 0.000000
# 4 0.000000 0.000000 0.000000 0.032251 0.000000 0.000000
# 5 0.000000 0.000000 0.000000 0.000000 0.003395 0.000000
# 6 0.000000 0.000000 0.000000 0.000000 0.000000 0.022605
#
#
# Mechanical properties :
#
#
# Convention : Reuss Voigt Hill
#
# Bulk Modulus (GPa) = 34.04740 52.74749 43.39745
# Shear Modulus (GPa) = 40.62189 93.06446 66.84317
#
# Velocity S-wave (km/s) = 3.85166 5.82989 4.94079
# Velocity P-wave (km/s) = 5.67580 8.03619 6.95683
#
# Compressibility (1/GPa) = 0.02937082
#
# Stress axis : x y z
#
# Youngs Moduli (GPa) = 111.54443 36.24210 176.96608
#
# Poissons Ratio (x) = 0.12867 0.19548
# Poissons Ratio (y) = 0.39601 0.31212
# Poissons Ratio (z) = 0.12322 0.06392
#
# Static dielectric constant tensor:
#      x y z
#    x 5.831280 0.000000 0.000000 
#    y 0.000000 5.174610 0.000000 
#    z 0.000000 0.000000 5.012300 
# 
# 
# High freq. dielectric constant tensor:
#      x y z
#    x 2.128360 0.000000 0.000000 
#    y 0.000000 2.092230 0.000000 
#    z 0.000000 0.000000 2.122490 
# 
# From -- ./inp_files/15599.got.cif
#   From: 2010.03.12/outbox.cif.g09.slc.cpg/sg60_8_cif.got.tgz:15599.got - 2010.04.10 18:46:24.
