data_PCOD8248348
_publ_section_title
;
Structure prediction by ZEFSAII (Michael W. Deem and Ramdas Pophale) SiO2 
 PCOD8248348
Probable space group: P B C N
;
_chemical_formula_sum "Si O2"
_cell_formula_units_Z 40
_cell_length_a 6.440206
_cell_length_b 14.823255
_cell_length_c 18.005732
_cell_angle_alpha 90.000000
_cell_angle_beta 90.000000
_cell_angle_gamma 90.000000
_cell_volume 1718.913889
_symmetry_space_group_name_H-M "P B C N"
_symmetry_group_IT_number 60
_symmetry_cell_setting 'orthorhombic'
loop_
_space_group_symop_operation_xyz
x,y,z
1/2-x,1/2-y,1/2+z
1/2+x,1/2-y,-z
-x,y,1/2-z
-x,-y,-z
1/2+x,1/2+y,1/2-z
1/2-x,1/2+y,z
x,-y,1/2+z
loop_
_atom_site_type_symbol
_atom_site_label
_atom_site_fract_x
_atom_site_fract_y
_atom_site_fract_z
Si Si1 0.279804 0.184179 0.929519
Si Si2 0.677538 0.903576 0.393566
Si Si3 0.432712 0.755996 0.669795
Si Si4 0.567742 0.365650 0.526547
Si Si5 0.870290 0.077269 0.326509
O O1 0.429843 0.112256 0.887938
O O2 0.411727 0.256423 0.976600
O O3 0.145442 0.250629 0.876848
O O4 0.144728 0.118162 0.981090
O O5 0.768535 0.810928 0.364295
O O6 0.748759 0.916053 0.480337
O O7 0.756542 0.982463 0.340145
O O8 0.500000 0.723211 0.750000
O O9 0.320723 0.852849 0.672722
O O10 0.540635 0.404629 0.609180
O O11 0.000000 0.077721 0.250000
#
# Coordination Sequence:
#
# PCOD8248348 Si02
#       5
#     8   8   8   8   8
#     4  11  21  43  74 103 141 191 245 294 371 427
#     4  11  25  45  75 102 146 186 245 307 364 436
#     4  11  25  46  69 101 146 196 239 300 367 437
#     4  11  21  43  73 105 139 187 244 300 360 435
#     4  12  26  48  71 109 148 192 246 303 374 443
#
# _framework density 23.270506000000001
#
# number of rings (size 3 to 8) (size 9 to 14) (size 15 to 20)
#    0.000    0.800    4.000    3.600    0.000    0.800 
#   18.000    0.000    0.000    0.000    0.000    0.000 
#    0.000    0.000    0.000    0.000    0.000    0.000 
#
# Total GULP energy -495819.690977 kJ/mol
# GULP energy per Si atom -12395.492274 kJ/mol
# Density = 2.321754 g / cm^3
# Si number density = 23.270506 Si / 1000 Ang^3
#
#
#
# Elastic Constant Matrix: (Units=GPa)
#
#
# Indices 1 2 3 4 5 6 
#
# 1 146.7052 52.8999 60.3708 0.0000 0.0000 0.0000
# 2 52.8999 100.3929 35.4826 0.0000 0.0000 0.0000
# 3 60.3708 35.4826 145.6443 0.0000 0.0000 0.0000
# 4 0.0000 0.0000 0.0000 26.6161 0.0000 0.0000
# 5 0.0000 0.0000 0.0000 0.0000 19.9463 0.0000
# 6 0.0000 0.0000 0.0000 0.0000 0.0000 21.8838
#
#
#
# Elastic Compliance Matrix: (Units=1/GPa)
#
#
# Indices 1 2 3 4 5 6 
#
# 1 0.009453 -0.003935 -0.002960 0.000000 0.000000 0.000000
# 2 -0.003935 0.012537 -0.001423 0.000000 0.000000 0.000000
# 3 -0.002960 -0.001423 0.008440 0.000000 0.000000 0.000000
# 4 0.000000 0.000000 0.000000 0.037571 0.000000 0.000000
# 5 0.000000 0.000000 0.000000 0.000000 0.050135 0.000000
# 6 0.000000 0.000000 0.000000 0.000000 0.000000 0.045696
#
#
# Mechanical properties :
#
#
# Convention : Reuss Voigt Hill
#
# Bulk Modulus (GPa) = 72.49528 76.69434 74.59481
# Shear Modulus (GPa) = 27.01728 29.95517 28.48623
#
# Velocity S-wave (km/s) = 3.41106 3.59173 3.50256
# Velocity P-wave (km/s) = 6.83628 7.08731 6.96293
#
# Compressibility (1/GPa) = 0.01379400
#
# Stress axis : x y z
#
# Youngs Moduli (GPa) = 105.78279 79.76111 118.48835
#
# Poissons Ratio (x) = 0.31387 0.35070
# Poissons Ratio (y) = 0.41627 0.16864
# Poissons Ratio (z) = 0.31310 0.11352
#
# Static dielectric constant tensor:
#      x y z
#    x 4.384540 0.000000 0.000000 
#    y 0.000000 3.925870 0.000000 
#    z 0.000000 0.000000 4.500800 
# 
# 
# High freq. dielectric constant tensor:
#      x y z
#    x 1.930440 0.000000 0.000000 
#    y 0.000000 1.911420 0.000000 
#    z 0.000000 0.000000 1.922370 
# 
# From -- ./inp_files/18537.got.cif
#   From: 2010.03.12/outbox.cif.g09.slc.cpg/sg60_10_cif.got.tgz:18537.got - 2010.04.10 18:46:24.
