data_PCOD8248924
_publ_section_title
;
Structure prediction by ZEFSAII (Michael W. Deem and Ramdas Pophale) SiO2 
 PCOD8248924
Probable space group: P B C A
;
_chemical_formula_sum "Si O2"
_cell_formula_units_Z 56
_cell_length_a 22.771449
_cell_length_b 24.887335
_cell_length_c 5.098858
_cell_angle_alpha 90.000000
_cell_angle_beta 90.000000
_cell_angle_gamma 90.000000
_cell_volume 2889.628271
_symmetry_space_group_name_H-M "P B C A"
_symmetry_group_IT_number 61
_symmetry_cell_setting 'orthorhombic'
loop_
_space_group_symop_operation_xyz
x,y,z
1/2-x,-y,1/2+z
1/2+x,1/2-y,-z
-x,1/2+y,1/2-z
-x,-y,-z
1/2+x,y,1/2-z
1/2-x,1/2+y,z
x,1/2-y,1/2+z
loop_
_atom_site_type_symbol
_atom_site_label
_atom_site_fract_x
_atom_site_fract_y
_atom_site_fract_z
Si Si1 0.617542 0.215165 0.043364
Si Si2 0.534388 0.784245 0.610941
Si Si3 0.359653 0.353245 0.892889
Si Si4 0.247282 0.715660 0.458794
Si Si5 0.970591 0.626468 0.124846
Si Si6 0.908469 0.406769 0.102673
Si Si7 0.539195 0.489709 0.747086
O O1 0.601955 0.240694 0.324696
O O2 0.579904 0.161586 0.986646
O O3 0.685232 0.197305 0.046051
O O4 0.517371 0.758134 0.335893
O O5 0.602829 0.798847 0.654297
O O6 0.497715 0.839390 0.634829
O O7 0.373908 0.398688 0.673122
O O8 0.291310 0.337089 0.893887
O O9 0.375830 0.372090 0.182443
O O10 0.232999 0.761585 0.246089
O O11 0.940537 0.572539 0.243304
O O12 0.023770 0.612664 0.924251
O O13 0.906699 0.468528 0.210262
O O14 0.500000 0.500000 0.500000
O O15 0.500000 0.500000 0.000000
#
# Coordination Sequence:
#
# PCOD8248924 Si02
#       7
#     8   8   8   8   8   8   8
#     4  10  22  37  54  78 108 142 179 213 252 314
#     4  11  20  29  44  72 103 127 158 201 250 304
#     4  11  20  34  53  75 104 136 171 215 268 308
#     4  10  20  36  55  76 104 141 180 213 253 315
#     4  10  21  35  54  76 107 141 171 211 266 315
#     4  10  21  34  53  80 103 133 174 221 266 312
#     4  10  20  35  53  75 105 138 175 212 256 316
#
# _framework density 19.379655
#
# number of rings (size 3 to 8) (size 9 to 14) (size 15 to 20)
#    0.000    1.714    0.000    6.857    0.000    5.714 
#    0.000    0.000    0.000    1.714    0.000    0.000 
#    0.000    0.000    0.000    0.000    0.000    0.000 
#
# Total GULP energy -694212.520727 kJ/mol
# GULP energy per Si atom -12396.652156 kJ/mol
# Density = 1.933555 g / cm^3
# Si number density = 19.379655 Si / 1000 Ang^3
#
#
#
# Elastic Constant Matrix: (Units=GPa)
#
#
# Indices 1 2 3 4 5 6 
#
# 1 81.7713 49.3260 22.3906 0.0000 0.0000 0.0000
# 2 49.3260 116.6036 11.8082 0.0000 0.0000 0.0000
# 3 22.3906 11.8082 82.5443 0.0000 0.0000 0.0000
# 4 0.0000 0.0000 0.0000 22.3458 0.0000 0.0000
# 5 0.0000 0.0000 0.0000 0.0000 19.9754 0.0000
# 6 0.0000 0.0000 0.0000 0.0000 0.0000 21.2948
#
#
#
# Elastic Compliance Matrix: (Units=1/GPa)
#
#
# Indices 1 2 3 4 5 6 
#
# 1 0.017487 -0.007019 -0.003739 0.000000 0.000000 0.000000
# 2 -0.007019 0.011519 0.000256 0.000000 0.000000 0.000000
# 3 -0.003739 0.000256 0.013092 0.000000 0.000000 0.000000
# 4 0.000000 0.000000 0.000000 0.044751 0.000000 0.000000
# 5 0.000000 0.000000 0.000000 0.000000 0.050062 0.000000
# 6 0.000000 0.000000 0.000000 0.000000 0.000000 0.046960
#
#
# Mechanical properties :
#
#
# Convention : Reuss Voigt Hill
#
# Bulk Modulus (GPa) = 47.40591 49.77431 48.59011
# Shear Modulus (GPa) = 23.59527 25.88282 24.73905
#
# Velocity S-wave (km/s) = 3.49309 3.65851 3.57676
# Velocity P-wave (km/s) = 6.38621 6.60195 6.49498
#
# Compressibility (1/GPa) = 0.02109441
#
# Stress axis : x y z
#
# Youngs Moduli (GPa) = 57.18543 86.81148 76.38012
#
# Poissons Ratio (x) = 0.60930 0.28561
# Poissons Ratio (y) = 0.40137 -0.01955
# Poissons Ratio (z) = 0.21384 -0.02222
#
# Static dielectric constant tensor:
#      x y z
#    x 3.485440 0.000000 0.000000 
#    y 0.000000 4.378520 0.000000 
#    z 0.000000 0.000000 3.562000 
# 
# 
# High freq. dielectric constant tensor:
#      x y z
#    x 1.727330 0.000000 0.000000 
#    y 0.000000 1.743220 0.000000 
#    z 0.000000 0.000000 1.769730 
# 
# From -- ./inp_files/1036.got.cif
#   From: 2010.03.12/outbox.cif.g09.slc.cpg/sg61_1_cif.got.tgz:1036.got - 2010.04.10 19:05:03.
