data_PCOD8248761
_publ_section_title
;
Structure prediction by ZEFSAII (Michael W. Deem and Ramdas Pophale) SiO2 
 PCOD8248761
Probable space group: P B C A
;
_chemical_formula_sum "Si O2"
_cell_formula_units_Z 56
_cell_length_a 12.298361
_cell_length_b 14.093333
_cell_length_c 14.216501
_cell_angle_alpha 90.000000
_cell_angle_beta 90.000000
_cell_angle_gamma 90.000000
_cell_volume 2464.073570
_symmetry_space_group_name_H-M "P B C A"
_symmetry_group_IT_number 61
_symmetry_cell_setting 'orthorhombic'
loop_
_space_group_symop_operation_xyz
x,y,z
1/2-x,-y,1/2+z
1/2+x,1/2-y,-z
-x,1/2+y,1/2-z
-x,-y,-z
1/2+x,y,1/2-z
1/2-x,1/2+y,z
x,1/2-y,1/2+z
loop_
_atom_site_type_symbol
_atom_site_label
_atom_site_fract_x
_atom_site_fract_y
_atom_site_fract_z
Si Si1 0.109720 0.089482 0.764949
Si Si2 0.227888 0.250000 0.183379
Si Si3 0.986254 0.750000 0.942147
Si Si4 0.528122 0.545737 0.099390
Si Si5 0.471878 0.454263 0.400610
Si Si6 0.890280 0.589482 0.235050
Si Si7 0.473319 0.250000 0.152149
O O1 0.215921 0.155020 0.748209
O O2 0.076964 0.035354 0.668346
O O3 0.007644 0.157541 0.789903
O O4 0.126480 0.012818 0.849528
O O5 0.132560 0.250000 0.105494
O O6 0.215921 0.155020 0.248209
O O7 0.344148 0.250000 0.134380
O O8 0.056231 0.842942 0.913667
O O9 0.056231 0.657058 0.913667
O O10 0.964463 0.750000 0.053066
O O11 0.423035 0.535354 0.168346
O O12 0.500000 0.500000 0.000000
O O13 0.500000 0.500000 0.500000
O O14 0.373520 0.512818 0.349528
O O15 0.992356 0.657541 0.210097
#
# Coordination Sequence:
#
# PCOD8248761 Si02
#       7
#     8   8   8   8   8   8   8
#     4   9  20  37  64  89 125 164 201 260 322 364
#     4   9  21  39  63  94 130 163 211 262 316 382
#     4  10  20  36  62  96 124 168 208 264 322 364
#     4  10  18  36  65  87 122 166 203 260 320 370
#     4  10  18  36  65  87 122 166 203 260 320 370
#     4   9  20  37  64  89 125 164 201 260 322 364
#     4  11  19  39  67  90 132 167 209 266 314 382
#
# _framework density 22.726596000000001
#
# number of rings (size 3 to 8) (size 9 to 14) (size 15 to 20)
#    0.000    2.286    2.857    0.857    0.000    0.000 
#    0.000   24.286   12.571    0.000    0.000    0.000 
#    0.000    0.000    0.000    0.000    0.000    0.000 
#
# Total GULP energy -693861.260891 kJ/mol
# GULP energy per Si atom -12390.379659 kJ/mol
# Density = 2.267487 g / cm^3
# Si number density = 22.726596 Si / 1000 Ang^3
#
#
#
# Elastic Constant Matrix: (Units=GPa)
#
#
# Indices 1 2 3 4 5 6 
#
# 1 70.8350 27.5583 17.9954 0.0000 0.0000 0.0000
# 2 27.5583 161.0244 54.1056 0.0000 0.0000 0.0000
# 3 17.9954 54.1056 154.3215 0.0000 0.0000 0.0000
# 4 0.0000 0.0000 0.0000 44.5531 0.0000 0.0000
# 5 0.0000 0.0000 0.0000 0.0000 12.7327 0.0000
# 6 0.0000 0.0000 0.0000 0.0000 0.0000 6.3056
#
#
#
# Elastic Compliance Matrix: (Units=1/GPa)
#
#
# Indices 1 2 3 4 5 6 
#
# 1 0.015254 -0.002282 -0.000979 0.000000 0.000000 0.000000
# 2 -0.002282 0.007381 -0.002322 0.000000 0.000000 0.000000
# 3 -0.000979 -0.002322 0.007408 0.000000 0.000000 0.000000
# 4 0.000000 0.000000 0.000000 0.022445 0.000000 0.000000
# 5 0.000000 0.000000 0.000000 0.000000 0.078538 0.000000
# 6 0.000000 0.000000 0.000000 0.000000 0.000000 0.158589
#
#
# Mechanical properties :
#
#
# Convention : Reuss Voigt Hill
#
# Bulk Modulus (GPa) = 52.97076 65.05550 59.01313
# Shear Modulus (GPa) = 16.28283 31.81971 24.05127
#
# Velocity S-wave (km/s) = 2.67959 3.74586 3.25666
# Velocity P-wave (km/s) = 5.73865 6.88448 6.33751
#
# Compressibility (1/GPa) = 0.01887834
#
# Stress axis : x y z
#
# Youngs Moduli (GPa) = 65.55803 135.48600 134.98743
#
# Poissons Ratio (x) = 0.30914 0.13212
# Poissons Ratio (y) = 0.14958 0.31340
# Poissons Ratio (z) = 0.06417 0.31455
#
# Static dielectric constant tensor:
#      x y z
#    x 3.279080 0.000000 0.000000 
#    y 0.000000 4.759470 0.000000 
#    z 0.000000 0.000000 4.336300 
# 
# 
# High freq. dielectric constant tensor:
#      x y z
#    x 1.820430 0.000000 0.000000 
#    y 0.000000 1.927840 0.000000 
#    z 0.000000 0.000000 1.913290 
# 
# From -- ./inp_files/7918.got.cif
#   From: 2010.03.12/outbox.cif.g09.slc.cpg/sg61_4_cif.got.tgz:7918.got - 2010.04.10 19:05:03.
