data_PCOD8248861
_publ_section_title
;
Structure prediction by ZEFSAII (Michael W. Deem and Ramdas Pophale) SiO2 
 PCOD8248861
Probable space group: P B C A
;
_chemical_formula_sum "Si O2"
_cell_formula_units_Z 64
_cell_length_a 22.154979
_cell_length_b 15.293583
_cell_length_c 8.871148
_cell_angle_alpha 90.000000
_cell_angle_beta 90.000000
_cell_angle_gamma 90.000000
_cell_volume 3005.802296
_symmetry_space_group_name_H-M "P B C A"
_symmetry_group_IT_number 61
_symmetry_cell_setting 'orthorhombic'
loop_
_space_group_symop_operation_xyz
x,y,z
1/2-x,-y,1/2+z
1/2+x,1/2-y,-z
-x,1/2+y,1/2-z
-x,-y,-z
1/2+x,y,1/2-z
1/2-x,1/2+y,z
x,1/2-y,1/2+z
loop_
_atom_site_type_symbol
_atom_site_label
_atom_site_fract_x
_atom_site_fract_y
_atom_site_fract_z
Si Si1 0.069426 0.157688 0.943331
Si Si2 0.356461 0.077297 0.607917
Si Si3 0.053738 0.717884 0.488207
Si Si4 0.545809 0.627840 0.326554
Si Si5 0.273510 0.639668 0.665444
Si Si6 0.081169 0.075010 0.249667
Si Si7 0.133541 0.485873 0.294024
Si Si8 0.170389 0.283832 0.880220
O O1 0.122046 0.227836 0.975349
O O2 0.006650 0.204620 0.910343
O O3 0.087546 0.096061 0.804153
O O4 0.057075 0.095551 0.083997
O O5 0.393982 0.160733 0.559303
O O6 0.295945 0.114153 0.682470
O O7 0.344578 0.017423 0.459521
O O8 0.390887 0.022390 0.739235
O O9 0.066078 0.820587 0.521591
O O10 0.044403 0.697031 0.312757
O O11 0.479789 0.581900 0.351233
O O12 0.598994 0.558665 0.300983
O O13 0.309286 0.550221 0.702498
O O14 0.284638 0.668078 0.493679
O O15 0.290025 0.720863 0.773756
O O16 0.133845 0.142613 0.290188
#
# Coordination Sequence:
#
# PCOD8248861 Si02
#       8
#     8   8   8   8   8   8   8   8
#     4   9  17  36  63  88 117 154 202 255 308 370
#     4  10  23  41  59  91 121 171 206 254 312 369
#     4  10  20  36  61  88 125 155 206 256 315 369
#     4  10  20  38  63  93 122 162 200 262 319 375
#     4  11  25  41  63  90 126 166 212 257 301 375
#     4  10  19  37  64  88 119 158 205 251 313 375
#     4   9  21  40  61  87 123 162 207 252 313 366
#     4  11  21  39  63  93 117 162 209 254 305 368
#
# _framework density 21.292152999999999
#
# number of rings (size 3 to 8) (size 9 to 14) (size 15 to 20)
#    0.000    2.000    2.500    0.750    1.750    5.000 
#    2.250    0.625    0.000    0.000    0.000    0.000 
#    0.000    0.000    0.000    0.000    0.000    0.000 
#
# Total GULP energy -793310.860868 kJ/mol
# GULP energy per Si atom -12395.482201 kJ/mol
# Density = 2.124369 g / cm^3
# Si number density = 21.292153 Si / 1000 Ang^3
#
#
#
# Elastic Constant Matrix: (Units=GPa)
#
#
# Indices 1 2 3 4 5 6 
#
# 1 90.5018 37.8926 24.6208 0.0000 0.0000 0.0000
# 2 37.8926 78.1627 25.8634 0.0000 0.0000 0.0000
# 3 24.6208 25.8634 43.6385 0.0000 0.0000 0.0000
# 4 0.0000 0.0000 0.0000 30.3336 0.0000 0.0000
# 5 0.0000 0.0000 0.0000 0.0000 18.0315 0.0000
# 6 0.0000 0.0000 0.0000 0.0000 0.0000 37.0067
#
#
#
# Elastic Compliance Matrix: (Units=1/GPa)
#
#
# Indices 1 2 3 4 5 6 
#
# 1 0.014712 -0.005456 -0.005067 0.000000 0.000000 0.000000
# 2 -0.005456 0.017938 -0.007553 0.000000 0.000000 0.000000
# 3 -0.005067 -0.007553 0.030251 0.000000 0.000000 0.000000
# 4 0.000000 0.000000 0.000000 0.032967 0.000000 0.000000
# 5 0.000000 0.000000 0.000000 0.000000 0.055458 0.000000
# 6 0.000000 0.000000 0.000000 0.000000 0.000000 0.027022
#
#
# Mechanical properties :
#
#
# Convention : Reuss Voigt Hill
#
# Bulk Modulus (GPa) = 37.38455 43.22850 40.30653
# Shear Modulus (GPa) = 22.37961 25.33609 23.85785
#
# Velocity S-wave (km/s) = 3.24554 3.45327 3.35102
# Velocity P-wave (km/s) = 5.62501 6.02053 5.82613
#
# Compressibility (1/GPa) = 0.02674902
#
# Stress axis : x y z
#
# Youngs Moduli (GPa) = 67.97037 55.74744 33.05664
#
# Poissons Ratio (x) = 0.30414 0.16750
# Poissons Ratio (y) = 0.37083 0.24969
# Poissons Ratio (z) = 0.34442 0.42108
#
# Static dielectric constant tensor:
#      x y z
#    x 3.777130 0.000000 0.000000 
#    y 0.000000 3.942230 0.000000 
#    z 0.000000 0.000000 3.562280 
# 
# 
# High freq. dielectric constant tensor:
#      x y z
#    x 1.830390 0.000000 0.000000 
#    y 0.000000 1.842470 0.000000 
#    z 0.000000 0.000000 1.812910 
# 
# From -- ./inp_files/4379.got.cif
#   From: 2010.03.12/outbox.cif.g09.slc.cpg/sg61_3_cif.got.tgz:4379.got - 2010.04.10 19:05:03.
