data_PCOD8248325
_publ_section_title
;
Structure prediction by ZEFSAII (Michael W. Deem and Ramdas Pophale) SiO2 
 PCOD8248325
Probable space group: P B C N
;
_chemical_formula_sum "Si O2"
_cell_formula_units_Z 32
_cell_length_a 6.228010
_cell_length_b 14.110330
_cell_length_c 17.742183
_cell_angle_alpha 90.000000
_cell_angle_beta 90.000000
_cell_angle_gamma 90.000000
_cell_volume 1559.170203
_symmetry_space_group_name_H-M "P B C N"
_symmetry_group_IT_number 60
_symmetry_cell_setting 'orthorhombic'
loop_
_space_group_symop_operation_xyz
x,y,z
1/2-x,1/2-y,1/2+z
1/2+x,1/2-y,-z
-x,y,1/2-z
-x,-y,-z
1/2+x,1/2+y,1/2-z
1/2-x,1/2+y,z
x,-y,1/2+z
loop_
_atom_site_type_symbol
_atom_site_label
_atom_site_fract_x
_atom_site_fract_y
_atom_site_fract_z
Si Si1 0.528884 0.335965 0.422646
Si Si2 0.673016 0.017966 0.567330
Si Si3 0.809902 0.186778 0.082607
Si Si4 0.934489 0.333477 0.335842
O O1 0.386570 0.423169 0.456270
O O2 0.674519 0.303055 0.492488
O O3 0.388864 0.250381 0.390930
O O4 0.686136 0.360699 0.352533
O O5 0.569551 0.078973 0.632943
O O6 0.500000 0.000000 0.500000
O O7 0.757530 0.920981 0.604585
O O8 0.017322 0.231564 0.124097
O O9 0.000000 0.322654 0.250000
#
# Coordination Sequence:
#
# PCOD8248325 Si02
#       4
#     8   8   8   8
#     4  11  21  40  70  92 137 168 228 282 328 410
#     4  11  23  39  67 101 128 173 231 281 340 413
#     4  11  21  39  66  98 120 178 226 270 335 415
#     4  11  26  44  61  97 139 173 220 293 345 399
#
# _framework density 20.52374
#
# number of rings (size 3 to 8) (size 9 to 14) (size 15 to 20)
#    0.000    1.000    5.000    2.250    0.000    4.000 
#    9.000    0.000    0.000    0.000    0.000    0.000 
#    0.000    0.000    0.000    0.000    0.000    0.000 
#
# Total GULP energy -396580.609713 kJ/mol
# GULP energy per Si atom -12393.144054 kJ/mol
# Density = 2.047703 g / cm^3
# Si number density = 20.523740 Si / 1000 Ang^3
#
#
#
# Elastic Constant Matrix: (Units=GPa)
#
#
# Indices 1 2 3 4 5 6 
#
# 1 116.0375 45.0516 45.5447 0.0000 0.0000 0.0000
# 2 45.0516 160.6564 31.2030 0.0000 0.0000 0.0000
# 3 45.5447 31.2030 107.9035 0.0000 0.0000 0.0000
# 4 0.0000 0.0000 0.0000 17.9027 0.0000 0.0000
# 5 0.0000 0.0000 0.0000 0.0000 25.6681 0.0000
# 6 0.0000 0.0000 0.0000 0.0000 0.0000 37.0308
#
#
#
# Elastic Compliance Matrix: (Units=1/GPa)
#
#
# Indices 1 2 3 4 5 6 
#
# 1 0.011097 -0.002333 -0.004009 0.000000 0.000000 0.000000
# 2 -0.002333 0.007085 -0.001064 0.000000 0.000000 0.000000
# 3 -0.004009 -0.001064 0.011268 0.000000 0.000000 0.000000
# 4 0.000000 0.000000 0.000000 0.055857 0.000000 0.000000
# 5 0.000000 0.000000 0.000000 0.000000 0.038959 0.000000
# 6 0.000000 0.000000 0.000000 0.000000 0.000000 0.027005
#
#
# Mechanical properties :
#
#
# Convention : Reuss Voigt Hill
#
# Bulk Modulus (GPa) = 68.32006 69.79957 69.05981
# Shear Modulus (GPa) = 29.24595 33.64020 31.44308
#
# Velocity S-wave (km/s) = 3.77899 4.05296 3.91837
# Velocity P-wave (km/s) = 7.23889 7.48231 7.36161
#
# Compressibility (1/GPa) = 0.01463699
#
# Stress axis : x y z
#
# Youngs Moduli (GPa) = 90.11063 141.13465 88.75042
#
# Poissons Ratio (x) = 0.32930 0.35583
# Poissons Ratio (y) = 0.21025 0.09444
# Poissons Ratio (z) = 0.36129 0.15018
#
# Static dielectric constant tensor:
#      x y z
#    x 4.124040 0.000000 0.000000 
#    y 0.000000 3.960680 0.000000 
#    z 0.000000 0.000000 3.318910 
# 
# 
# High freq. dielectric constant tensor:
#      x y z
#    x 1.821880 0.000000 0.000000 
#    y 0.000000 1.811190 0.000000 
#    z 0.000000 0.000000 1.763180 
# 
# From -- ./inp_files/18374.got.cif
#   From: 2010.03.12/outbox.cif.g09.slc.cpg/sg60_10_cif.got.tgz:18374.got - 2010.04.10 18:46:24.
