data_PCOD8248495
_publ_section_title
;
Structure prediction by ZEFSAII (Michael W. Deem and Ramdas Pophale) SiO2 
 PCOD8248495
Probable space group: P B C N
;
_chemical_formula_sum "Si O2"
_cell_formula_units_Z 48
_cell_length_a 26.926992
_cell_length_b 5.719852
_cell_length_c 13.794613
_cell_angle_alpha 90.000000
_cell_angle_beta 90.000000
_cell_angle_gamma 90.000000
_cell_volume 2124.624348
_symmetry_space_group_name_H-M "P B C N"
_symmetry_group_IT_number 60
_symmetry_cell_setting 'orthorhombic'
loop_
_space_group_symop_operation_xyz
x,y,z
1/2-x,1/2-y,1/2+z
1/2+x,1/2-y,-z
-x,y,1/2-z
-x,-y,-z
1/2+x,1/2+y,1/2-z
1/2-x,1/2+y,z
x,-y,1/2+z
loop_
_atom_site_type_symbol
_atom_site_label
_atom_site_fract_x
_atom_site_fract_y
_atom_site_fract_z
Si Si1 0.053463 0.176514 0.719927
Si Si2 0.399400 0.030223 0.868033
Si Si3 0.353863 0.681240 0.008334
Si Si4 0.550843 0.357788 0.492256
Si Si5 0.278416 0.558303 0.855606
Si Si6 0.645154 0.361995 0.774953
O O1 0.070792 0.360505 0.798451
O O2 0.051957 0.281312 0.610459
O O3 0.000000 0.078718 0.750000
O O4 0.089408 0.956072 0.718706
O O5 0.357375 0.157634 0.804261
O O6 0.365735 0.920051 0.952530
O O7 0.443010 0.181749 0.918072
O O8 0.402849 0.528744 0.000637
O O9 0.338202 0.731534 0.119520
O O10 0.308097 0.549259 0.957063
O O11 0.500000 0.500000 0.500000
O O12 0.248954 0.310315 0.848306
O O13 0.316712 0.558273 0.764404
#
# Coordination Sequence:
#
# PCOD8248495 Si02
#       6
#     8   8   8   8   8   8
#     4  11  24  40  67 105 141 195 246 301 384 461
#     4  12  21  43  69 102 153 197 250 310 381 462
#     4  11  25  45  71 107 147 196 251 321 389 465
#     4  11  24  42  68 103 149 194 247 306 383 470
#     4  12  27  50  79 110 147 200 261 322 390 452
#     4  11  25  46  71 104 150 194 249 321 384 465
#
# _framework density 22.592227999999999
#
# number of rings (size 3 to 8) (size 9 to 14) (size 15 to 20)
#    0.000    0.667    3.333    4.000    0.000    7.333 
#    0.000    0.000    0.000    0.000    0.000    0.000 
#    0.000    0.000    0.000    0.000    0.000    0.000 
#
# Total GULP energy -594989.850016 kJ/mol
# GULP energy per Si atom -12395.621875 kJ/mol
# Density = 2.254081 g / cm^3
# Si number density = 22.592228 Si / 1000 Ang^3
#
#
#
# Elastic Constant Matrix: (Units=GPa)
#
#
# Indices 1 2 3 4 5 6 
#
# 1 102.3349 35.0988 37.1339 0.0000 0.0000 0.0000
# 2 35.0988 101.4923 55.6904 0.0000 0.0000 0.0000
# 3 37.1339 55.6904 202.4414 0.0000 0.0000 0.0000
# 4 0.0000 0.0000 0.0000 37.1484 0.0000 0.0000
# 5 0.0000 0.0000 0.0000 0.0000 33.8476 0.0000
# 6 0.0000 0.0000 0.0000 0.0000 0.0000 32.6321
#
#
#
# Elastic Compliance Matrix: (Units=1/GPa)
#
#
# Indices 1 2 3 4 5 6 
#
# 1 0.011320 -0.003269 -0.001177 0.000000 0.000000 0.000000
# 2 -0.003269 0.012549 -0.002852 0.000000 0.000000 0.000000
# 3 -0.001177 -0.002852 0.005940 0.000000 0.000000 0.000000
# 4 0.000000 0.000000 0.000000 0.026919 0.000000 0.000000
# 5 0.000000 0.000000 0.000000 0.000000 0.029544 0.000000
# 6 0.000000 0.000000 0.000000 0.000000 0.000000 0.030645
#
#
# Mechanical properties :
#
#
# Convention : Reuss Voigt Hill
#
# Bulk Modulus (GPa) = 65.73734 73.56832 69.65283
# Shear Modulus (GPa) = 36.60733 39.28200 37.94467
#
# Velocity S-wave (km/s) = 4.02972 4.17434 4.10267
# Velocity P-wave (km/s) = 7.12826 7.47447 7.30342
#
# Compressibility (1/GPa) = 0.01521205
#
# Stress axis : x y z
#
# Youngs Moduli (GPa) = 88.33795 79.69013 168.34096
#
# Poissons Ratio (x) = 0.26050 0.19817
# Poissons Ratio (y) = 0.28877 0.48018
# Poissons Ratio (z) = 0.10399 0.22731
#
# Static dielectric constant tensor:
#      x y z
#    x 4.221830 0.000000 0.000000 
#    y 0.000000 4.025590 0.000000 
#    z 0.000000 0.000000 4.718260 
# 
# 
# High freq. dielectric constant tensor:
#      x y z
#    x 1.894710 0.000000 0.000000 
#    y 0.000000 1.877940 0.000000 
#    z 0.000000 0.000000 1.915770 
# 
# From -- ./inp_files/18049.got.cif
#   From: 2010.03.12/outbox.cif.g09.slc.cpg/sg60_10_cif.got.tgz:18049.got - 2010.04.10 18:46:24.
