data_PCOD8248471
_publ_section_title
;
Structure prediction by ZEFSAII (Michael W. Deem and Ramdas Pophale) SiO2 
 PCOD8248471
Probable space group: P B C N
;
_chemical_formula_sum "Si O2"
_cell_formula_units_Z 32
_cell_length_a 6.451194
_cell_length_b 13.137401
_cell_length_c 17.318443
_cell_angle_alpha 90.000000
_cell_angle_beta 90.000000
_cell_angle_gamma 90.000000
_cell_volume 1467.771339
_symmetry_space_group_name_H-M "P B C N"
_symmetry_group_IT_number 60
_symmetry_cell_setting 'orthorhombic'
loop_
_space_group_symop_operation_xyz
x,y,z
1/2-x,1/2-y,1/2+z
1/2+x,1/2-y,-z
-x,y,1/2-z
-x,-y,-z
1/2+x,1/2+y,1/2-z
1/2-x,1/2+y,z
x,-y,1/2+z
loop_
_atom_site_type_symbol
_atom_site_label
_atom_site_fract_x
_atom_site_fract_y
_atom_site_fract_z
Si Si1 0.102747 0.651862 0.081342
Si Si2 0.497020 0.672901 0.329600
Si Si3 0.731946 0.681293 0.582474
Si Si4 0.341635 0.991350 0.822370
O O1 0.271007 0.644406 0.148567
O O2 0.992104 0.763217 0.082489
O O3 0.949012 0.560107 0.102428
O O4 0.213268 0.631246 0.999616
O O5 0.500000 0.739383 0.250000
O O6 0.404590 0.733501 0.401521
O O7 0.358274 0.576266 0.303099
O O8 0.747375 0.598997 0.650552
O O9 0.500000 0.002345 0.750000
#
# Coordination Sequence:
#
# PCOD8248471 Si02
#       4
#     8   8   8   8
#     4  11  23  44  67  95 138 172 222 284 329 394
#     4  11  23  44  65  94 140 173 217 283 334 396
#     4  11  24  42  68  99 129 177 228 270 342 399
#     4  11  24  43  67 100 131 175 226 277 336 399
#
# _framework density 21.801760999999999
#
# number of rings (size 3 to 8) (size 9 to 14) (size 15 to 20)
#    0.000    1.000    5.000    1.500    0.000    3.000 
#    4.500    0.000    0.000    0.000    0.000    0.000 
#    0.000    0.000    0.000    0.000    0.000    0.000 
#
# Total GULP energy -396582.492111 kJ/mol
# GULP energy per Si atom -12393.202878 kJ/mol
# Density = 2.175214 g / cm^3
# Si number density = 21.801761 Si / 1000 Ang^3
#
#
#
# Elastic Constant Matrix: (Units=GPa)
#
#
# Indices 1 2 3 4 5 6 
#
# 1 108.2223 22.4211 38.7253 0.0000 0.0000 0.0000
# 2 22.4211 77.0530 28.8590 0.0000 0.0000 0.0000
# 3 38.7253 28.8590 119.0033 0.0000 0.0000 0.0000
# 4 0.0000 0.0000 0.0000 31.9107 0.0000 0.0000
# 5 0.0000 0.0000 0.0000 0.0000 40.8769 0.0000
# 6 0.0000 0.0000 0.0000 0.0000 0.0000 13.1256
#
#
#
# Elastic Compliance Matrix: (Units=1/GPa)
#
#
# Indices 1 2 3 4 5 6 
#
# 1 0.010730 -0.001996 -0.003008 0.000000 0.000000 0.000000
# 2 -0.001996 0.014646 -0.002902 0.000000 0.000000 0.000000
# 3 -0.003008 -0.002902 0.010086 0.000000 0.000000 0.000000
# 4 0.000000 0.000000 0.000000 0.031337 0.000000 0.000000
# 5 0.000000 0.000000 0.000000 0.000000 0.024464 0.000000
# 6 0.000000 0.000000 0.000000 0.000000 0.000000 0.076187
#
#
# Mechanical properties :
#
#
# Convention : Reuss Voigt Hill
#
# Bulk Modulus (GPa) = 50.89042 53.80994 52.35018
# Shear Modulus (GPa) = 26.34200 31.46751 28.90476
#
# Velocity S-wave (km/s) = 3.47976 3.80326 3.64510
# Velocity P-wave (km/s) = 6.28793 6.63487 6.46372
#
# Compressibility (1/GPa) = 0.01965006
#
# Stress axis : x y z
#
# Youngs Moduli (GPa) = 93.19700 68.27890 99.15035
#
# Poissons Ratio (x) = 0.13627 0.29821
# Poissons Ratio (y) = 0.18600 0.28776
# Poissons Ratio (z) = 0.28031 0.19816
#
# Static dielectric constant tensor:
#      x y z
#    x 3.914980 0.000000 0.000000 
#    y 0.000000 3.655030 0.000000 
#    z 0.000000 0.000000 3.852200 
# 
# 
# High freq. dielectric constant tensor:
#      x y z
#    x 1.864860 0.000000 0.000000 
#    y 0.000000 1.834610 0.000000 
#    z 0.000000 0.000000 1.875050 
# 
# From -- ./inp_files/18373.got.cif
#   From: 2010.03.12/outbox.cif.g09.slc.cpg/sg60_10_cif.got.tgz:18373.got - 2010.04.10 18:46:24.
