data_PCOD8248155
_publ_section_title
;
Structure prediction by ZEFSAII (Michael W. Deem and Ramdas Pophale) SiO2 
 PCOD8248155
Probable space group: P B C N
;
_chemical_formula_sum "Si O2"
_cell_formula_units_Z 24
_cell_length_a 8.661763
_cell_length_b 22.556477
_cell_length_c 5.197781
_cell_angle_alpha 90.000000
_cell_angle_beta 90.000000
_cell_angle_gamma 90.000000
_cell_volume 1015.536515
_symmetry_space_group_name_H-M "P B C N"
_symmetry_group_IT_number 60
_symmetry_cell_setting 'orthorhombic'
loop_
_space_group_symop_operation_xyz
x,y,z
1/2-x,1/2-y,1/2+z
1/2+x,1/2-y,-z
-x,y,1/2-z
-x,-y,-z
1/2+x,1/2+y,1/2-z
1/2-x,1/2+y,z
x,-y,1/2+z
loop_
_atom_site_type_symbol
_atom_site_label
_atom_site_fract_x
_atom_site_fract_y
_atom_site_fract_z
Si Si1 0.102509 0.774724 0.001001
Si Si2 0.681858 0.468427 0.787173
Si Si3 0.825379 0.345778 0.786170
O O1 0.174318 0.708352 0.008306
O O2 0.000000 0.789291 0.250000
O O3 0.248052 0.819734 0.976936
O O4 0.000000 0.783862 0.750000
O O5 0.500000 0.472556 0.750000
O O6 0.749325 0.488381 0.510396
O O7 0.727505 0.402300 0.874235
O O8 0.000000 0.367467 0.750000
#
# Coordination Sequence:
#
# PCOD8248155 Si02
#       3
#     8   8   8
#     4  11  25  44  67  99 140 181 217 268 344 414
#     4  10  24  44  65  90 126 175 221 265 327 399
#     4  11  24  42  69 101 134 170 222 279 330 390
#
# _framework density 23.632829000000001
#
# number of rings (size 3 to 8) (size 9 to 14) (size 15 to 20)
#    0.000    1.333    0.000    5.000    0.000   16.000 
#    0.000    1.667    0.000    0.000    0.000    0.000 
#    0.000    0.000    0.000    0.000    0.000    0.000 
#
# Total GULP energy -297420.904549 kJ/mol
# GULP energy per Si atom -12392.537690 kJ/mol
# Density = 2.357904 g / cm^3
# Si number density = 23.632829 Si / 1000 Ang^3
#
#
#
# Elastic Constant Matrix: (Units=GPa)
#
#
# Indices 1 2 3 4 5 6 
#
# 1 62.5412 19.4180 63.7348 0.0000 0.0000 0.0000
# 2 19.4180 122.5117 41.5446 0.0000 0.0000 0.0000
# 3 63.7348 41.5446 155.5345 0.0000 0.0000 0.0000
# 4 0.0000 0.0000 0.0000 39.3024 0.0000 0.0000
# 5 0.0000 0.0000 0.0000 0.0000 23.9695 0.0000
# 6 0.0000 0.0000 0.0000 0.0000 0.0000 19.4002
#
#
#
# Elastic Compliance Matrix: (Units=1/GPa)
#
#
# Indices 1 2 3 4 5 6 
#
# 1 0.027493 -0.000591 -0.011108 0.000000 0.000000 0.000000
# 2 -0.000591 0.008988 -0.002159 0.000000 0.000000 0.000000
# 3 -0.011108 -0.002159 0.011558 0.000000 0.000000 0.000000
# 4 0.000000 0.000000 0.000000 0.025444 0.000000 0.000000
# 5 0.000000 0.000000 0.000000 0.000000 0.041720 0.000000
# 6 0.000000 0.000000 0.000000 0.000000 0.000000 0.051546
#
#
# Mechanical properties :
#
#
# Convention : Reuss Voigt Hill
#
# Bulk Modulus (GPa) = 49.20347 65.55357 57.37852
# Shear Modulus (GPa) = 24.84607 30.92709 27.88658
#
# Velocity S-wave (km/s) = 3.24595 3.62145 3.43883
# Velocity P-wave (km/s) = 5.90876 6.72942 6.33240
#
# Compressibility (1/GPa) = 0.02032377
#
# Stress axis : x y z
#
# Youngs Moduli (GPa) = 36.37253 111.25741 86.51975
#
# Poissons Ratio (x) = 0.06572 0.96110
# Poissons Ratio (y) = 0.02149 0.18677
# Poissons Ratio (z) = 0.40404 0.24018
#
# Static dielectric constant tensor:
#      x y z
#    x 4.639470 0.000000 0.000000 
#    y 0.000000 4.049610 0.000000 
#    z 0.000000 0.000000 4.674440 
# 
# 
# High freq. dielectric constant tensor:
#      x y z
#    x 1.945040 0.000000 0.000000 
#    y 0.000000 1.927110 0.000000 
#    z 0.000000 0.000000 1.930100 
# 
# From -- ./inp_files/232.got.cif
#   From: 2010.03.12/outbox.cif.g09.slc.cpg/sg60_1_cif.got.tgz:232.got - 2010.04.10 18:46:24.
