data_PCOD8248540
_publ_section_title
;
Structure prediction by ZEFSAII (Michael W. Deem and Ramdas Pophale) SiO2 
 PCOD8248540
Probable space group: P B C N
;
_chemical_formula_sum "Si O2"
_cell_formula_units_Z 32
_cell_length_a 7.391300
_cell_length_b 14.864578
_cell_length_c 11.666130
_cell_angle_alpha 90.000000
_cell_angle_beta 90.000000
_cell_angle_gamma 90.000000
_cell_volume 1281.740850
_symmetry_space_group_name_H-M "P B C N"
_symmetry_group_IT_number 60
_symmetry_cell_setting 'orthorhombic'
loop_
_space_group_symop_operation_xyz
x,y,z
1/2-x,1/2-y,1/2+z
1/2+x,1/2-y,-z
-x,y,1/2-z
-x,-y,-z
1/2+x,1/2+y,1/2-z
1/2-x,1/2+y,z
x,-y,1/2+z
loop_
_atom_site_type_symbol
_atom_site_label
_atom_site_fract_x
_atom_site_fract_y
_atom_site_fract_z
Si Si1 0.291785 0.648800 0.015503
Si Si2 0.811989 0.605332 0.722697
Si Si3 0.684703 0.343549 0.458923
Si Si4 0.531825 0.082482 0.131193
O O1 0.287580 0.658653 0.877373
O O2 0.206232 0.738258 0.071976
O O3 0.505945 0.633778 0.035095
O O4 0.166719 0.567943 0.068434
O O5 0.867895 0.508247 0.670901
O O6 0.000000 0.657280 0.750000
O O7 0.690912 0.601058 0.838605
O O8 0.853233 0.364332 0.539377
O O9 0.500000 0.137942 0.250000
#
# Coordination Sequence:
#
# PCOD8248540 Si02
#       4
#     8   8   8   8
#     4  12  25  47  77 107 149 196 253 310 381 439
#     4  11  24  48  75 105 155 194 242 316 377 446
#     4  12  26  47  76 112 146 198 256 312 374 451
#     4  11  27  48  72 106 156 195 246 309 377 446
#
# _framework density 24.966045000000001
#
# number of rings (size 3 to 8) (size 9 to 14) (size 15 to 20)
#    0.000    0.500    5.000    1.500    7.000    2.000 
#    9.000    0.000    0.000    0.000    0.000    0.000 
#    0.000    0.000    0.000    0.000    0.000    0.000 
#
# Total GULP energy -396441.468747 kJ/mol
# GULP energy per Si atom -12388.795898 kJ/mol
# Density = 2.490922 g / cm^3
# Si number density = 24.966045 Si / 1000 Ang^3
#
#
#
# Elastic Constant Matrix: (Units=GPa)
#
#
# Indices 1 2 3 4 5 6 
#
# 1 146.0243 15.2857 40.7031 0.0000 0.0000 0.0000
# 2 15.2857 72.1675 30.8124 0.0000 0.0000 0.0000
# 3 40.7031 30.8124 168.6724 0.0000 0.0000 0.0000
# 4 0.0000 0.0000 0.0000 31.2354 0.0000 0.0000
# 5 0.0000 0.0000 0.0000 0.0000 38.3276 0.0000
# 6 0.0000 0.0000 0.0000 0.0000 0.0000 21.7138
#
#
#
# Elastic Compliance Matrix: (Units=1/GPa)
#
#
# Indices 1 2 3 4 5 6 
#
# 1 0.007392 -0.000872 -0.001625 0.000000 0.000000 0.000000
# 2 -0.000872 0.015132 -0.002554 0.000000 0.000000 0.000000
# 3 -0.001625 -0.002554 0.006787 0.000000 0.000000 0.000000
# 4 0.000000 0.000000 0.000000 0.032015 0.000000 0.000000
# 5 0.000000 0.000000 0.000000 0.000000 0.026091 0.000000
# 6 0.000000 0.000000 0.000000 0.000000 0.000000 0.046054
#
#
# Mechanical properties :
#
#
# Convention : Reuss Voigt Hill
#
# Bulk Modulus (GPa) = 52.05532 62.27408 57.16470
# Shear Modulus (GPa) = 33.33887 38.25955 35.79921
#
# Velocity S-wave (km/s) = 3.65823 3.91892 3.79082
# Velocity P-wave (km/s) = 6.22409 6.74351 6.48900
#
# Compressibility (1/GPa) = 0.01921033
#
# Stress axis : x y z
#
# Youngs Moduli (GPa) = 135.27586 66.08640 147.33649
#
# Poissons Ratio (x) = 0.05764 0.23936
# Poissons Ratio (y) = 0.11798 0.37626
# Poissons Ratio (z) = 0.21976 0.16877
#
# Static dielectric constant tensor:
#      x y z
#    x 4.669590 0.000000 0.000000 
#    y 0.000000 4.105140 0.000000 
#    z 0.000000 0.000000 5.425870 
# 
# 
# High freq. dielectric constant tensor:
#      x y z
#    x 2.003040 0.000000 0.000000 
#    y 0.000000 1.963530 0.000000 
#    z 0.000000 0.000000 2.011910 
# 
# From -- ./inp_files/9532.got.cif
#   From: 2010.03.12/outbox.cif.g09.slc.cpg/sg60_5_cif.got.tgz:9532.got - 2010.04.10 18:46:24.
