data_PCOD8248215
_publ_section_title
;
Structure prediction by ZEFSAII (Michael W. Deem and Ramdas Pophale) SiO2 
 PCOD8248215
Probable space group: P B C N
;
_chemical_formula_sum "Si O2"
_cell_formula_units_Z 56
_cell_length_a 14.360067
_cell_length_b 15.198898
_cell_length_c 11.537559
_cell_angle_alpha 90.000000
_cell_angle_beta 90.000000
_cell_angle_gamma 90.000000
_cell_volume 2518.155248
_symmetry_space_group_name_H-M "P B C N"
_symmetry_group_IT_number 60
_symmetry_cell_setting 'orthorhombic'
loop_
_space_group_symop_operation_xyz
x,y,z
1/2-x,1/2-y,1/2+z
1/2+x,1/2-y,-z
-x,y,1/2-z
-x,-y,-z
1/2+x,1/2+y,1/2-z
1/2-x,1/2+y,z
x,-y,1/2+z
loop_
_atom_site_type_symbol
_atom_site_label
_atom_site_fract_x
_atom_site_fract_y
_atom_site_fract_z
Si Si1 0.773658 0.354427 0.882480
Si Si2 0.863218 0.974368 0.999935
Si Si3 0.342359 0.817035 0.053621
Si Si4 0.978942 0.881725 0.385556
Si Si5 0.398142 0.901869 0.285788
Si Si6 0.445404 0.793937 0.501815
Si Si7 0.770094 0.436079 0.643514
O O1 0.730906 0.441215 0.939994
O O2 0.716425 0.272085 0.932950
O O3 0.764334 0.364470 0.744966
O O4 0.884184 0.354126 0.911015
O O5 0.917788 0.030675 0.902760
O O6 0.925340 0.893203 0.043682
O O7 0.833037 0.025518 0.117441
O O8 0.343884 0.861787 0.178438
O O9 0.443832 0.805839 0.994650
O O10 0.290448 0.884286 0.972874
O O11 0.923553 0.803880 0.450972
O O12 0.000000 0.862120 0.250000
O O13 0.500000 0.936438 0.250000
O O14 0.407241 0.819288 0.374692
O O15 0.343555 0.985525 0.335324
#
# Coordination Sequence:
#
# PCOD8248215 Si02
#       7
#     8   8   8   8   8   8   8
#     4  12  26  43  73 108 147 189 243 300 369 441
#     4  11  24  48  69 107 144 190 241 302 370 447
#     4  11  27  46  69 107 144 191 240 305 367 433
#     4  11  25  45  74 104 144 189 248 305 369 441
#     4  10  25  46  71 102 145 190 242 296 364 444
#     4  11  25  47  72 102 145 188 242 304 366 432
#     4  12  26  44  77 105 148 191 242 299 368 442
#
# _framework density 22.238503000000001
#
# number of rings (size 3 to 8) (size 9 to 14) (size 15 to 20)
#    0.000    0.857    2.857    2.571    8.000    2.286 
#    0.000    0.000    0.000    0.000    0.000    0.000 
#    0.000    0.000    0.000    0.000    0.000    0.000 
#
# Total GULP energy -694121.495983 kJ/mol
# GULP energy per Si atom -12395.026714 kJ/mol
# Density = 2.218789 g / cm^3
# Si number density = 22.238503 Si / 1000 Ang^3
#
#
#
# Elastic Constant Matrix: (Units=GPa)
#
#
# Indices 1 2 3 4 5 6 
#
# 1 95.9290 37.9921 39.5416 0.0000 0.0000 0.0000
# 2 37.9921 101.9443 59.4501 0.0000 0.0000 0.0000
# 3 39.5416 59.4501 134.1511 0.0000 0.0000 0.0000
# 4 0.0000 0.0000 0.0000 37.7514 0.0000 0.0000
# 5 0.0000 0.0000 0.0000 0.0000 33.4410 0.0000
# 6 0.0000 0.0000 0.0000 0.0000 0.0000 38.1940
#
#
#
# Elastic Compliance Matrix: (Units=1/GPa)
#
#
# Indices 1 2 3 4 5 6 
#
# 1 0.012701 -0.003439 -0.002220 0.000000 0.000000 0.000000
# 2 -0.003439 0.014159 -0.005261 0.000000 0.000000 0.000000
# 3 -0.002220 -0.005261 0.010440 0.000000 0.000000 0.000000
# 4 0.000000 0.000000 0.000000 0.026489 0.000000 0.000000
# 5 0.000000 0.000000 0.000000 0.000000 0.029903 0.000000
# 6 0.000000 0.000000 0.000000 0.000000 0.000000 0.026182
#
#
# Mechanical properties :
#
#
# Convention : Reuss Voigt Hill
#
# Bulk Modulus (GPa) = 64.67964 67.33242 66.00603
# Shear Modulus (GPa) = 34.04420 34.88000 34.46210
#
# Velocity S-wave (km/s) = 3.91687 3.96466 3.94084
# Velocity P-wave (km/s) = 7.04298 7.16249 7.10298
#
# Compressibility (1/GPa) = 0.01546082
#
# Stress axis : x y z
#
# Youngs Moduli (GPa) = 78.73180 70.62688 95.78538
#
# Poissons Ratio (x) = 0.24289 0.21262
# Poissons Ratio (y) = 0.27076 0.50392
# Poissons Ratio (z) = 0.17477 0.37157
#
# Static dielectric constant tensor:
#      x y z
#    x 4.145990 0.000000 0.000000 
#    y 0.000000 3.974340 0.000000 
#    z 0.000000 0.000000 4.067940 
# 
# 
# High freq. dielectric constant tensor:
#      x y z
#    x 1.887770 0.000000 0.000000 
#    y 0.000000 1.877920 0.000000 
#    z 0.000000 0.000000 1.880310 
# 
# From -- ./inp_files/11964.got.cif
#   From: 2010.03.12/outbox.cif.g09.slc.cpg/sg60_6_cif.got.tgz:11964.got - 2010.04.10 18:46:24.
