data_PCOD8248519
_publ_section_title
;
Structure prediction by ZEFSAII (Michael W. Deem and Ramdas Pophale) SiO2 
 PCOD8248519
Probable space group: P B C N
;
_chemical_formula_sum "Si O2"
_cell_formula_units_Z 36
_cell_length_a 20.196949
_cell_length_b 6.863142
_cell_length_c 9.862232
_cell_angle_alpha 90.000000
_cell_angle_beta 90.000000
_cell_angle_gamma 90.000000
_cell_volume 1367.048643
_symmetry_space_group_name_H-M "P B C N"
_symmetry_group_IT_number 60
_symmetry_cell_setting 'orthorhombic'
loop_
_space_group_symop_operation_xyz
x,y,z
1/2-x,1/2-y,1/2+z
1/2+x,1/2-y,-z
-x,y,1/2-z
-x,-y,-z
1/2+x,1/2+y,1/2-z
1/2-x,1/2+y,z
x,-y,1/2+z
loop_
_atom_site_type_symbol
_atom_site_label
_atom_site_fract_x
_atom_site_fract_y
_atom_site_fract_z
Si Si1 0.000000 0.730852 0.250000
Si Si2 0.688020 0.993044 0.562641
Si Si3 0.335647 0.562057 0.865116
Si Si4 0.889366 0.430951 0.297935
Si Si5 0.082442 0.974420 0.610915
O O1 0.063238 0.594435 0.269068
O O2 0.018359 0.884213 0.129166
O O3 0.662754 0.792105 0.622211
O O4 0.659932 0.026360 0.411045
O O5 0.766903 0.985152 0.572599
O O6 0.656488 0.147913 0.671757
O O7 0.354730 0.515069 0.710804
O O8 0.394216 0.480045 0.959840
O O9 0.932924 0.256143 0.362955
#
# Coordination Sequence:
#
# PCOD8248519 Si02
#       5
#     4   8   8   8   8
#     4  12  26  48  68  96 144 184 230 276 332 402
#     4  11  24  44  72 105 136 173 226 283 345 405
#     4  11  24  44  72 105 136 173 226 283 345 405
#     4  11  26  46  69 104 136 181 226 280 340 401
#     4  11  26  46  69 104 136 181 226 280 340 401
#
# _framework density 26.334102999999999
#
# number of rings (size 3 to 8) (size 9 to 14) (size 15 to 20)
#    0.000    0.889    2.222    3.333    6.222    5.333 
#    0.000    0.000    0.000    0.000    0.000    0.000 
#    0.000    0.000    0.000    0.000    0.000    0.000 
#
# Total GULP energy -446007.684915 kJ/mol
# GULP energy per Si atom -12389.102359 kJ/mol
# Density = 2.627417 g / cm^3
# Si number density = 26.334103 Si / 1000 Ang^3
#
#
#
# Elastic Constant Matrix: (Units=GPa)
#
#
# Indices 1 2 3 4 5 6 
#
# 1 117.8307 12.9193 30.7368 0.0000 0.0000 0.0000
# 2 12.9193 50.5386 8.4494 0.0000 0.0000 0.0000
# 3 30.7368 8.4494 82.9434 0.0000 0.0000 0.0000
# 4 0.0000 0.0000 0.0000 28.5781 0.0000 0.0000
# 5 0.0000 0.0000 0.0000 0.0000 30.1006 0.0000
# 6 0.0000 0.0000 0.0000 0.0000 0.0000 42.6670
#
#
#
# Elastic Compliance Matrix: (Units=1/GPa)
#
#
# Indices 1 2 3 4 5 6 
#
# 1 0.009568 -0.001885 -0.003354 0.000000 0.000000 0.000000
# 2 -0.001885 0.020501 -0.001390 0.000000 0.000000 0.000000
# 3 -0.003354 -0.001390 0.013441 0.000000 0.000000 0.000000
# 4 0.000000 0.000000 0.000000 0.034992 0.000000 0.000000
# 5 0.000000 0.000000 0.000000 0.000000 0.033222 0.000000
# 6 0.000000 0.000000 0.000000 0.000000 0.000000 0.023437
#
#
# Mechanical properties :
#
#
# Convention : Reuss Voigt Hill
#
# Bulk Modulus (GPa) = 33.05494 39.50262 36.27878
# Shear Modulus (GPa) = 31.54510 33.54961 32.54736
#
# Velocity S-wave (km/s) = 3.46480 3.57318 3.51941
# Velocity P-wave (km/s) = 5.34657 5.66186 5.50647
#
# Compressibility (1/GPa) = 0.03025266
#
# Stress axis : x y z
#
# Youngs Moduli (GPa) = 104.51180 48.77775 74.40035
#
# Poissons Ratio (x) = 0.09196 0.24952
# Poissons Ratio (y) = 0.19703 0.10340
# Poissons Ratio (z) = 0.35050 0.06779
#
# Static dielectric constant tensor:
#      x y z
#    x 4.944980 0.000000 0.000000 
#    y 0.000000 5.117620 0.000000 
#    z 0.000000 0.000000 4.914290 
# 
# 
# High freq. dielectric constant tensor:
#      x y z
#    x 2.054700 0.000000 0.000000 
#    y 0.000000 2.074090 0.000000 
#    z 0.000000 0.000000 2.052940 
# 
# From -- ./inp_files/7197.got.cif
#   From: 2010.03.12/outbox.cif.g09.slc.cpg/sg60_4_cif.got.tgz:7197.got - 2010.04.10 18:46:24.
