data_PCOD8248259
_publ_section_title
;
Structure prediction by ZEFSAII (Michael W. Deem and Ramdas Pophale) SiO2 
 PCOD8248259
Probable space group: P B C N
;
_chemical_formula_sum "Si O2"
_cell_formula_units_Z 28
_cell_length_a 9.026766
_cell_length_b 15.272808
_cell_length_c 7.574653
_cell_angle_alpha 90.000000
_cell_angle_beta 90.000000
_cell_angle_gamma 90.000000
_cell_volume 1044.272446
_symmetry_space_group_name_H-M "P B C N"
_symmetry_group_IT_number 60
_symmetry_cell_setting 'orthorhombic'
loop_
_space_group_symop_operation_xyz
x,y,z
1/2-x,1/2-y,1/2+z
1/2+x,1/2-y,-z
-x,y,1/2-z
-x,-y,-z
1/2+x,1/2+y,1/2-z
1/2-x,1/2+y,z
x,-y,1/2+z
loop_
_atom_site_type_symbol
_atom_site_label
_atom_site_fract_x
_atom_site_fract_y
_atom_site_fract_z
Si Si1 0.819669 0.402979 0.793571
Si Si2 0.615939 0.092446 0.903816
Si Si3 0.500000 0.354645 0.750000
Si Si4 0.890373 0.782216 0.404978
O O1 0.925545 0.390515 0.614458
O O2 0.858433 0.488172 0.906942
O O3 0.646258 0.415665 0.743715
O O4 0.823281 0.315250 0.910118
O O5 0.500000 0.118331 0.750000
O O6 0.762339 0.147507 0.873300
O O7 0.513644 0.290823 0.582254
O O8 0.000000 0.801367 0.250000
#
# Coordination Sequence:
#
# PCOD8248259 Si02
#       4
#     8   8   4   8
#     4  11  27  49  80 118 159 212 265 331 404 473
#     4  11  27  49  81 117 162 205 268 330 396 488
#     4  10  28  48  78 114 158 206 272 324 402 476
#     4  11  28  50  78 113 156 214 265 328 405 466
#
# _framework density 26.812926000000001
#
# number of rings (size 3 to 8) (size 9 to 14) (size 15 to 20)
#    0.000    1.143    0.000    1.714   16.000    4.571 
#    0.000    0.000    0.000    0.000    0.000    0.000 
#    0.000    0.000    0.000    0.000    0.000    0.000 
#
# Total GULP energy -347189.987330 kJ/mol
# GULP energy per Si atom -12399.642405 kJ/mol
# Density = 2.675190 g / cm^3
# Si number density = 26.812926 Si / 1000 Ang^3
#
#
#
# Elastic Constant Matrix: (Units=GPa)
#
#
# Indices 1 2 3 4 5 6 
#
# 1 97.6426 49.0003 43.0794 0.0000 0.0000 0.0000
# 2 49.0003 136.1701 34.3900 0.0000 0.0000 0.0000
# 3 43.0794 34.3900 195.4624 0.0000 0.0000 0.0000
# 4 0.0000 0.0000 0.0000 41.3686 0.0000 0.0000
# 5 0.0000 0.0000 0.0000 0.0000 58.1573 0.0000
# 6 0.0000 0.0000 0.0000 0.0000 0.0000 65.8260
#
#
#
# Elastic Compliance Matrix: (Units=1/GPa)
#
#
# Indices 1 2 3 4 5 6 
#
# 1 0.013340 -0.004247 -0.002193 0.000000 0.000000 0.000000
# 2 -0.004247 0.009037 -0.000654 0.000000 0.000000 0.000000
# 3 -0.002193 -0.000654 0.005714 0.000000 0.000000 0.000000
# 4 0.000000 0.000000 0.000000 0.024173 0.000000 0.000000
# 5 0.000000 0.000000 0.000000 0.000000 0.017195 0.000000
# 6 0.000000 0.000000 0.000000 0.000000 0.000000 0.015192
#
#
# Mechanical properties :
#
#
# Convention : Reuss Voigt Hill
#
# Bulk Modulus (GPa) = 71.91960 75.80161 73.86061
# Shear Modulus (GPa) = 48.32197 53.25742 50.78969
#
# Velocity S-wave (km/s) = 4.24983 4.46158 4.35699
# Velocity P-wave (km/s) = 7.13879 7.40762 7.27445
#
# Compressibility (1/GPa) = 0.01390442
#
# Stress axis : x y z
#
# Youngs Moduli (GPa) = 74.96254 110.65582 174.99418
#
# Poissons Ratio (x) = 0.46990 0.38376
# Poissons Ratio (y) = 0.31833 0.11446
# Poissons Ratio (z) = 0.16439 0.07238
#
# Static dielectric constant tensor:
#      x y z
#    x 5.721040 0.000000 0.000000 
#    y 0.000000 4.884310 0.000000 
#    z 0.000000 0.000000 5.739800 
# 
# 
# High freq. dielectric constant tensor:
#      x y z
#    x 2.117520 0.000000 0.000000 
#    y 0.000000 2.082620 0.000000 
#    z 0.000000 0.000000 2.093790 
# 
# From -- ./inp_files/3453.got.cif
#   From: 2010.03.12/outbox.cif.g09.slc.cpg/sg60_2_cif.got.tgz:3453.got - 2010.04.10 18:46:24.
