data_PCOD8248877
_publ_section_title
;
Structure prediction by ZEFSAII (Michael W. Deem and Ramdas Pophale) SiO2 
 PCOD8248877
Probable space group: P B C A
;
_chemical_formula_sum "Si O2"
_cell_formula_units_Z 48
_cell_length_a 20.076421
_cell_length_b 10.596941
_cell_length_c 9.344900
_cell_angle_alpha 90.000000
_cell_angle_beta 90.000000
_cell_angle_gamma 90.000000
_cell_volume 1988.114848
_symmetry_space_group_name_H-M "P B C A"
_symmetry_group_IT_number 61
_symmetry_cell_setting 'orthorhombic'
loop_
_space_group_symop_operation_xyz
x,y,z
1/2-x,-y,1/2+z
1/2+x,1/2-y,-z
-x,1/2+y,1/2-z
-x,-y,-z
1/2+x,y,1/2-z
1/2-x,1/2+y,z
x,1/2-y,1/2+z
loop_
_atom_site_type_symbol
_atom_site_label
_atom_site_fract_x
_atom_site_fract_y
_atom_site_fract_z
Si Si1 0.088339 0.548842 0.124920
Si Si2 0.418583 0.451100 0.159089
Si Si3 0.051180 0.367911 0.900262
Si Si4 0.429479 0.596590 0.889895
Si Si5 0.721628 0.634332 0.814060
Si Si6 0.771549 0.116166 0.475819
O O1 0.105522 0.505113 0.286178
O O2 0.149113 0.609385 0.041588
O O3 0.028090 0.649905 0.127381
O O4 0.062569 0.414139 0.062075
O O5 0.419235 0.517284 0.311311
O O6 0.490106 0.395645 0.116659
O O7 0.358879 0.349466 0.171031
O O8 0.401673 0.559511 0.044159
O O9 0.092243 0.241241 0.865249
O O10 0.753557 0.757676 0.891412
O O11 0.744871 0.625452 0.646606
O O12 0.741552 0.508340 0.900944
#
# Coordination Sequence:
#
# PCOD8248877 Si02
#       6
#     8   8   8   8   8   8
#     4  10  22  39  66  95 139 176 231 278 354 418
#     4  10  22  41  62  99 139 178 231 283 348 424
#     4  10  19  39  61  99 136 183 221 289 343 420
#     4  10  21  35  65 101 138 183 226 280 351 418
#     4  12  28  51  76 103 142 186 245 298 361 423
#     4  12  28  51  75 105 138 191 240 301 358 426
#
# _framework density 24.143476
#
# number of rings (size 3 to 8) (size 9 to 14) (size 15 to 20)
#    0.000    1.333    1.667    3.000    4.667    2.667 
#    6.000    0.000    0.000    0.000    0.000    0.000 
#    0.000    0.000    0.000    0.000    0.000    0.000 
#
# Total GULP energy -594840.054398 kJ/mol
# GULP energy per Si atom -12392.501133 kJ/mol
# Density = 2.408852 g / cm^3
# Si number density = 24.143476 Si / 1000 Ang^3
#
#
#
# Elastic Constant Matrix: (Units=GPa)
#
#
# Indices 1 2 3 4 5 6 
#
# 1 32.9310 5.2551 26.2785 0.0000 0.0000 0.0000
# 2 5.2551 117.7398 42.5869 0.0000 0.0000 0.0000
# 3 26.2785 42.5869 130.3202 0.0000 0.0000 0.0000
# 4 0.0000 0.0000 0.0000 14.4825 0.0000 0.0000
# 5 0.0000 0.0000 0.0000 0.0000 32.5635 0.0000
# 6 0.0000 0.0000 0.0000 0.0000 0.0000 19.6336
#
#
#
# Elastic Compliance Matrix: (Units=1/GPa)
#
#
# Indices 1 2 3 4 5 6 
#
# 1 0.036330 0.001166 -0.007707 0.000000 0.000000 0.000000
# 2 0.001166 0.009669 -0.003395 0.000000 0.000000 0.000000
# 3 -0.007707 -0.003395 0.010337 0.000000 0.000000 0.000000
# 4 0.000000 0.000000 0.000000 0.069049 0.000000 0.000000
# 5 0.000000 0.000000 0.000000 0.000000 0.030709 0.000000
# 6 0.000000 0.000000 0.000000 0.000000 0.000000 0.050933
#
#
# Mechanical properties :
#
#
# Convention : Reuss Voigt Hill
#
# Bulk Modulus (GPa) = 27.42352 47.69245 37.55799
# Shear Modulus (GPa) = 20.91577 27.12731 24.02154
#
# Velocity S-wave (km/s) = 2.94651 3.35563 3.15770
# Velocity P-wave (km/s) = 4.79157 5.90003 5.37445
#
# Compressibility (1/GPa) = 0.03646505
#
# Stress axis : x y z
#
# Youngs Moduli (GPa) = 27.52509 103.42111 96.74087
#
# Poissons Ratio (x) = -0.12060 0.74558
# Poissons Ratio (y) = -0.03210 0.32843
# Poissons Ratio (z) = 0.21213 0.35110
#
# Static dielectric constant tensor:
#      x y z
#    x 4.287130 0.000000 0.000000 
#    y 0.000000 4.075960 0.000000 
#    z 0.000000 0.000000 4.408820 
# 
# 
# High freq. dielectric constant tensor:
#      x y z
#    x 1.945250 0.000000 0.000000 
#    y 0.000000 1.953920 0.000000 
#    z 0.000000 0.000000 1.969280 
# 
# From -- ./inp_files/4219.got.cif
#   From: 2010.03.12/outbox.cif.g09.slc.cpg/sg61_3_cif.got.tgz:4219.got - 2010.04.10 19:05:03.
