data_PCOD8248803
_publ_section_title
;
Structure prediction by ZEFSAII (Michael W. Deem and Ramdas Pophale) SiO2 
 PCOD8248803
Probable space group: P B C A
;
_chemical_formula_sum "Si O2"
_cell_formula_units_Z 64
_cell_length_a 14.482313
_cell_length_b 11.059718
_cell_length_c 17.090585
_cell_angle_alpha 90.000000
_cell_angle_beta 90.000000
_cell_angle_gamma 90.000000
_cell_volume 2737.404088
_symmetry_space_group_name_H-M "P B C A"
_symmetry_group_IT_number 61
_symmetry_cell_setting 'orthorhombic'
loop_
_space_group_symop_operation_xyz
x,y,z
1/2-x,-y,1/2+z
1/2+x,1/2-y,-z
-x,1/2+y,1/2-z
-x,-y,-z
1/2+x,y,1/2-z
1/2-x,1/2+y,z
x,1/2-y,1/2+z
loop_
_atom_site_type_symbol
_atom_site_label
_atom_site_fract_x
_atom_site_fract_y
_atom_site_fract_z
Si Si1 0.748107 0.066055 0.727808
Si Si2 0.534134 0.842949 0.383763
Si Si3 0.508438 0.742353 0.710245
Si Si4 0.595570 0.543070 0.131913
Si Si5 0.188625 0.184728 0.249473
Si Si6 0.129578 0.323823 0.926194
Si Si7 0.599428 0.588135 0.597915
Si Si8 0.181610 0.801848 0.995923
O O1 0.741297 0.191355 0.777502
O O2 0.832401 0.078135 0.670356
O O3 0.652413 0.058611 0.679329
O O4 0.762402 0.941263 0.778290
O O5 0.538931 0.810901 0.292885
O O6 0.457045 0.766017 0.431474
O O7 0.636884 0.825466 0.418685
O O8 0.502020 0.982687 0.391800
O O9 0.585116 0.840948 0.687375
O O10 0.412137 0.811892 0.712254
O O11 0.506932 0.641188 0.640461
O O12 0.651597 0.583208 0.055749
O O13 0.184938 0.183825 0.344285
O O14 0.084168 0.456331 0.939351
O O15 0.206066 0.295903 0.994176
O O16 0.638914 0.675495 0.531936
#
# Coordination Sequence:
#
# PCOD8248803 Si02
#       8
#     8   8   8   8   8   8   8   8
#     4  11  18  35  63  93 115 170 227 263 316 421
#     4  11  24  37  65  99 133 168 223 282 343 396
#     4  10  23  37  63  97 129 166 214 291 332 403
#     4  11  20  39  64  93 124 170 223 270 334 410
#     4  10  19  33  59  94 121 160 224 275 325 392
#     4  10  20  37  65  93 121 177 225 268 330 425
#     4  10  20  38  68  88 123 168 231 259 334 407
#     4  11  21  40  65  93 126 174 223 274 331 410
#
# _framework density 23.379814
#
# number of rings (size 3 to 8) (size 9 to 14) (size 15 to 20)
#    0.000    1.500    6.250    1.125    5.250    0.500 
#    0.000    0.000   13.750    0.000    0.000    0.000 
#    0.000    0.000    0.000    0.000    0.000    0.000 
#
# Total GULP energy -793228.179467 kJ/mol
# GULP energy per Si atom -12394.190304 kJ/mol
# Density = 2.332660 g / cm^3
# Si number density = 23.379814 Si / 1000 Ang^3
#
#
#
# Elastic Constant Matrix: (Units=GPa)
#
#
# Indices 1 2 3 4 5 6 
#
# 1 55.1607 8.4352 14.3284 0.0000 0.0000 0.0000
# 2 8.4352 135.2650 21.5608 0.0000 0.0000 0.0000
# 3 14.3284 21.5608 26.0796 0.0000 0.0000 0.0000
# 4 0.0000 0.0000 0.0000 5.5061 0.0000 0.0000
# 5 0.0000 0.0000 0.0000 0.0000 26.5066 0.0000
# 6 0.0000 0.0000 0.0000 0.0000 0.0000 33.3172
#
#
#
# Elastic Compliance Matrix: (Units=1/GPa)
#
#
# Indices 1 2 3 4 5 6 
#
# 1 0.021191 0.000615 -0.012151 0.000000 0.000000 0.000000
# 2 0.000615 0.008533 -0.007392 0.000000 0.000000 0.000000
# 3 -0.012151 -0.007392 0.051132 0.000000 0.000000 0.000000
# 4 0.000000 0.000000 0.000000 0.181618 0.000000 0.000000
# 5 0.000000 0.000000 0.000000 0.000000 0.037726 0.000000
# 6 0.000000 0.000000 0.000000 0.000000 0.000000 0.030015
#
#
# Mechanical properties :
#
#
# Convention : Reuss Voigt Hill
#
# Bulk Modulus (GPa) = 23.25640 33.90602 28.58121
# Shear Modulus (GPa) = 13.07516 24.54470 18.80993
#
# Velocity S-wave (km/s) = 2.36741 3.24361 2.83951
# Velocity P-wave (km/s) = 4.17632 5.34432 4.79601
#
# Compressibility (1/GPa) = 0.04299892
#
# Stress axis : x y z
#
# Youngs Moduli (GPa) = 47.18953 117.19400 19.55728
#
# Poissons Ratio (x) = -0.07212 0.23765
# Poissons Ratio (y) = -0.02904 0.14458
# Poissons Ratio (z) = 0.57342 0.86636
#
# Static dielectric constant tensor:
#      x y z
#    x 4.180760 0.000000 0.000000 
#    y 0.000000 4.900830 0.000000 
#    z 0.000000 0.000000 3.666160 
# 
# 
# High freq. dielectric constant tensor:
#      x y z
#    x 1.919170 0.000000 0.000000 
#    y 0.000000 1.948290 0.000000 
#    z 0.000000 0.000000 1.868070 
# 
# From -- ./inp_files/9523.got.cif
#   From: 2010.03.12/outbox.cif.g09.slc.cpg/sg61_5_cif.got.tgz:9523.got - 2010.04.10 19:05:03.
