data_PCOD8248034
_publ_section_title
;
Structure prediction by ZEFSAII (Michael W. Deem and Ramdas Pophale) SiO2 
 PCOD8248034
Probable space group: P B C N
;
_chemical_formula_sum "Si O2"
_cell_formula_units_Z 64
_cell_length_a 14.168572
_cell_length_b 22.171588
_cell_length_c 9.168037
_cell_angle_alpha 90.000000
_cell_angle_beta 90.000000
_cell_angle_gamma 90.000000
_cell_volume 2880.044768
_symmetry_space_group_name_H-M "P B C N"
_symmetry_group_IT_number 60
_symmetry_cell_setting 'orthorhombic'
loop_
_space_group_symop_operation_xyz
x,y,z
1/2-x,1/2-y,1/2+z
1/2+x,1/2-y,-z
-x,y,1/2-z
-x,-y,-z
1/2+x,1/2+y,1/2-z
1/2-x,1/2+y,z
x,-y,1/2+z
loop_
_atom_site_type_symbol
_atom_site_label
_atom_site_fract_x
_atom_site_fract_y
_atom_site_fract_z
Si Si1 0.345583 0.246102 0.031854
Si Si2 0.465923 0.298135 0.593216
Si Si3 0.147043 0.979131 0.990914
Si Si4 0.530169 0.590771 0.589657
Si Si5 0.594800 0.087780 0.679682
Si Si6 0.588863 0.874765 0.857997
Si Si7 0.315467 0.792858 0.212755
Si Si8 0.723586 0.021238 0.249725
O O1 0.353380 0.187826 0.138109
O O2 0.282552 0.294210 0.122266
O O3 0.449577 0.271205 0.003142
O O4 0.297163 0.231441 0.876283
O O5 0.500000 0.322167 0.750000
O O6 0.424786 0.353914 0.500988
O O7 0.386510 0.248115 0.618410
O O8 0.219260 0.946976 0.880707
O O9 0.108626 0.039021 0.909568
O O10 0.063903 0.931930 0.010823
O O11 0.200631 0.996116 0.137231
O O12 0.500000 0.611658 0.750000
O O13 0.500000 0.062147 0.750000
O O14 0.559553 0.112073 0.523865
O O15 0.640274 0.140752 0.777451
O O16 0.667587 0.033218 0.672805
O O17 0.500000 0.870456 0.750000
O O18 0.655518 0.929237 0.813731
#
# Coordination Sequence:
#
# PCOD8248034 Si02
#       8
#     8   8   8   8   8   8   8   8
#     4  10  24  44  67  99 132 174 224 275 337 399
#     4  10  24  44  69  99 133 177 223 277 337 401
#     4  11  26  44  65 104 137 177 224 279 332 398
#     4  11  25  43  68  96 143 178 219 277 342 393
#     4  11  25  45  68  96 137 175 219 282 338 396
#     4  11  26  45  68  98 136 175 222 280 336 400
#     4  10  23  44  68  96 134 174 221 278 338 397
#     4  12  25  44  70  98 135 175 232 271 332 399
#
# _framework density 22.221876999999999
#
# number of rings (size 3 to 8) (size 9 to 14) (size 15 to 20)
#    0.000    1.250    2.500    2.250    7.000    5.500 
#    0.000    0.000    0.000    0.000    0.000    0.000 
#    0.000    0.000    0.000    0.000    0.000    0.000 
#
# Total GULP energy -793657.411819 kJ/mol
# GULP energy per Si atom -12400.897060 kJ/mol
# Density = 2.217130 g / cm^3
# Si number density = 22.221877 Si / 1000 Ang^3
#
#
#
# Elastic Constant Matrix: (Units=GPa)
#
#
# Indices 1 2 3 4 5 6 
#
# 1 95.7250 21.0585 39.6534 0.0000 0.0000 0.0000
# 2 21.0585 81.5975 29.6215 0.0000 0.0000 0.0000
# 3 39.6534 29.6215 88.3531 0.0000 0.0000 0.0000
# 4 0.0000 0.0000 0.0000 23.2958 0.0000 0.0000
# 5 0.0000 0.0000 0.0000 0.0000 47.6547 0.0000
# 6 0.0000 0.0000 0.0000 0.0000 0.0000 18.2820
#
#
#
# Elastic Compliance Matrix: (Units=1/GPa)
#
#
# Indices 1 2 3 4 5 6 
#
# 1 0.012972 -0.001405 -0.005351 0.000000 0.000000 0.000000
# 2 -0.001405 0.014106 -0.004098 0.000000 0.000000 0.000000
# 3 -0.005351 -0.004098 0.015094 0.000000 0.000000 0.000000
# 4 0.000000 0.000000 0.000000 0.042926 0.000000 0.000000
# 5 0.000000 0.000000 0.000000 0.000000 0.020984 0.000000
# 6 0.000000 0.000000 0.000000 0.000000 0.000000 0.054699
#
#
# Mechanical properties :
#
#
# Convention : Reuss Voigt Hill
#
# Bulk Modulus (GPa) = 48.86979 49.59359 49.23169
# Shear Modulus (GPa) = 26.41154 29.53598 27.97376
#
# Velocity S-wave (km/s) = 3.45126 3.64969 3.55186
# Velocity P-wave (km/s) = 6.15801 6.33453 6.24689
#
# Compressibility (1/GPa) = 0.02046254
#
# Stress axis : x y z
#
# Youngs Moduli (GPa) = 77.08717 70.89298 66.25253
#
# Poissons Ratio (x) = 0.09963 0.35451
# Poissons Ratio (y) = 0.10834 0.27153
# Poissons Ratio (z) = 0.41248 0.29055
#
# Static dielectric constant tensor:
#      x y z
#    x 4.020420 0.000000 0.000000 
#    y 0.000000 3.939730 0.000000 
#    z 0.000000 0.000000 4.621290 
# 
# 
# High freq. dielectric constant tensor:
#      x y z
#    x 1.880110 0.000000 0.000000 
#    y 0.000000 1.869310 0.000000 
#    z 0.000000 0.000000 1.887850 
# 
# From -- ./inp_files/6298.got.cif
#   From: 2010.03.12/outbox.cif.g09.slc.cpg/sg60_4_cif.got.tgz:6298.got - 2010.04.10 18:46:24.
