data_PCOD8248006
_publ_section_title
;
Structure prediction by ZEFSAII (Michael W. Deem and Ramdas Pophale) SiO2 
 PCOD8248006
Probable space group: P B C N
;
_chemical_formula_sum "Si O2"
_cell_formula_units_Z 64
_cell_length_a 14.181238
_cell_length_b 22.772204
_cell_length_c 8.991271
_cell_angle_alpha 90.000000
_cell_angle_beta 90.000000
_cell_angle_gamma 90.000000
_cell_volume 2903.623476
_symmetry_space_group_name_H-M "P B C N"
_symmetry_group_IT_number 60
_symmetry_cell_setting 'orthorhombic'
loop_
_space_group_symop_operation_xyz
x,y,z
1/2-x,1/2-y,1/2+z
1/2+x,1/2-y,-z
-x,y,1/2-z
-x,-y,-z
1/2+x,1/2+y,1/2-z
1/2-x,1/2+y,z
x,-y,1/2+z
loop_
_atom_site_type_symbol
_atom_site_label
_atom_site_fract_x
_atom_site_fract_y
_atom_site_fract_z
Si Si1 0.119192 0.632374 0.867896
Si Si2 0.417953 0.853905 0.038292
Si Si3 0.932323 0.123439 0.617476
Si Si4 0.434509 0.651924 0.388755
Si Si5 0.771170 0.956429 0.221953
Si Si6 0.243548 0.075987 0.435940
Si Si7 0.835101 0.254188 0.962717
Si Si8 0.146474 0.248607 0.886939
O O1 0.119356 0.661365 0.703633
O O2 0.183501 0.575016 0.857930
O O3 0.017633 0.613218 0.934674
O O4 0.161941 0.679762 0.978662
O O5 0.347147 0.894909 0.943361
O O6 0.435075 0.793329 0.945341
O O7 0.867610 0.067888 0.651696
O O8 0.872225 0.180993 0.573550
O O9 0.000000 0.142469 0.750000
O O10 0.001016 0.106536 0.482388
O O11 0.500000 0.667728 0.250000
O O12 0.333246 0.621192 0.367788
O O13 0.419370 0.713358 0.475790
O O14 0.780008 0.946943 0.398568
O O15 0.757320 0.024315 0.184733
O O16 0.836032 0.255083 0.786530
O O17 0.736440 0.227616 0.020522
#
# Coordination Sequence:
#
# PCOD8248006 Si02
#       8
#     8   8   8   8   8   8   8   8
#     4  10  23  43  67 101 131 179 217 279 344 400
#     4  10  23  43  70  96 137 172 225 277 337 406
#     4  12  24  45  66  97 140 180 214 276 341 401
#     4  12  28  43  68 103 139 175 227 275 338 412
#     4  11  25  45  69  93 133 175 231 279 339 394
#     4  11  25  47  66  97 130 177 228 286 332 398
#     4  12  24  41  67 102 139 177 220 272 345 406
#     4  12  24  40  68  99 140 179 218 277 337 414
#
# _framework density 22.041425
#
# number of rings (size 3 to 8) (size 9 to 14) (size 15 to 20)
#    0.000    0.750    5.000    1.500    7.000    2.500 
#    0.000    0.000    0.000    0.000    0.000    0.000 
#    0.000    0.000    0.000    0.000    0.000    0.000 
#
# Total GULP energy -793430.740506 kJ/mol
# GULP energy per Si atom -12397.355320 kJ/mol
# Density = 2.199126 g / cm^3
# Si number density = 22.041425 Si / 1000 Ang^3
#
#
#
# Elastic Constant Matrix: (Units=GPa)
#
#
# Indices 1 2 3 4 5 6 
#
# 1 104.9427 21.1162 34.8948 0.0000 0.0000 0.0000
# 2 21.1162 85.8811 19.2538 0.0000 0.0000 0.0000
# 3 34.8948 19.2538 77.9701 0.0000 0.0000 0.0000
# 4 0.0000 0.0000 0.0000 34.8746 0.0000 0.0000
# 5 0.0000 0.0000 0.0000 0.0000 34.6936 0.0000
# 6 0.0000 0.0000 0.0000 0.0000 0.0000 0.4471
#
#
#
# Elastic Compliance Matrix: (Units=1/GPa)
#
#
# Indices 1 2 3 4 5 6 
#
# 1 0.011442 -0.001763 -0.004685 0.000000 0.000000 0.000000
# 2 -0.001763 0.012598 -0.002322 0.000000 0.000000 0.000000
# 3 -0.004685 -0.002322 0.015496 0.000000 0.000000 0.000000
# 4 0.000000 0.000000 0.000000 0.028674 0.000000 0.000000
# 5 0.000000 0.000000 0.000000 0.000000 0.028824 0.000000
# 6 0.000000 0.000000 0.000000 0.000000 0.000000 2.236698
#
#
# Mechanical properties :
#
#
# Convention : Reuss Voigt Hill
#
# Bulk Modulus (GPa) = 45.46468 46.59150 46.02809
# Shear Modulus (GPa) = 2.11990 26.90499 14.51244
#
# Velocity S-wave (km/s) = 0.98177 3.49758 2.56875
# Velocity P-wave (km/s) = 4.68581 6.12330 5.45214
#
# Compressibility (1/GPa) = 0.02199510
#
# Stress axis : x y z
#
# Youngs Moduli (GPa) = 87.40003 79.37757 64.53416
#
# Poissons Ratio (x) = 0.13993 0.30236
# Poissons Ratio (y) = 0.15407 0.14985
# Poissons Ratio (z) = 0.40949 0.18431
#
# Static dielectric constant tensor:
#      x y z
#    x 4.356640 0.000000 0.000000 
#    y 0.000000 3.646690 0.000000 
#    z 0.000000 0.000000 4.982050 
# 
# 
# High freq. dielectric constant tensor:
#      x y z
#    x 1.885280 0.000000 0.000000 
#    y 0.000000 1.847100 0.000000 
#    z 0.000000 0.000000 1.867130 
# 
# From -- ./inp_files/6305.got.cif
#   From: 2010.03.12/outbox.cif.g09.slc.cpg/sg60_4_cif.got.tgz:6305.got - 2010.04.10 18:46:24.
