data_PCOD8248708
_publ_section_title
;
Structure prediction by ZEFSAII (Michael W. Deem and Ramdas Pophale) SiO2 
 PCOD8248708
Probable space group: P B C A
;
_chemical_formula_sum "Si O2"
_cell_formula_units_Z 64
_cell_length_a 21.553352
_cell_length_b 17.300261
_cell_length_c 9.727826
_cell_angle_alpha 90.000000
_cell_angle_beta 90.000000
_cell_angle_gamma 90.000000
_cell_volume 3627.298286
_symmetry_space_group_name_H-M "P B C A"
_symmetry_group_IT_number 61
_symmetry_cell_setting 'orthorhombic'
loop_
_space_group_symop_operation_xyz
x,y,z
1/2-x,-y,1/2+z
1/2+x,1/2-y,-z
-x,1/2+y,1/2-z
-x,-y,-z
1/2+x,y,1/2-z
1/2-x,1/2+y,z
x,1/2-y,1/2+z
loop_
_atom_site_type_symbol
_atom_site_label
_atom_site_fract_x
_atom_site_fract_y
_atom_site_fract_z
Si Si1 0.874412 0.253150 0.574817
Si Si2 0.115773 0.522443 0.747840
Si Si3 0.306794 0.399463 0.476955
Si Si4 0.006457 0.549833 0.302717
Si Si5 0.360738 0.408856 0.773612
Si Si6 0.937954 0.315557 0.315253
Si Si7 0.831358 0.547644 0.523294
Si Si8 0.044638 0.109775 0.935758
O O1 0.820693 0.188263 0.569949
O O2 0.846837 0.330415 0.642071
O O3 0.901227 0.262576 0.422846
O O4 0.931477 0.221334 0.665923
O O5 0.054163 0.471846 0.789654
O O6 0.092495 0.600060 0.673991
O O7 0.157737 0.479168 0.634303
O O8 0.154586 0.539074 0.885265
O O9 0.321227 0.412574 0.635924
O O10 0.234730 0.413983 0.454872
O O11 0.985676 0.614335 0.412984
O O12 0.066420 0.585754 0.225894
O O13 0.031240 0.474481 0.377671
O O14 0.338462 0.477120 0.871915
O O15 0.011810 0.322658 0.346931
O O16 0.880798 0.616228 0.558760
#
# Coordination Sequence:
#
# PCOD8248708 Si02
#       8
#     8   8   8   8   8   8   8   8
#     4  11  20  32  52  78 102 135 177 221 262 310
#     4   9  18  33  53  78 102 135 174 218 262 308
#     4  11  23  32  49  82 110 141 177 216 263 315
#     4   8  14  27  52  79  96 123 165 217 264 301
#     4  11  19  33  55  79 102 139 177 224 267 303
#     4  10  17  32  53  76  99 127 173 223 261 304
#     4  10  19  35  56  74 105 143 181 211 255 327
#     4   8  14  28  53  74  94 127 171 207 256 309
#
# _framework density 17.643986000000002
#
# number of rings (size 3 to 8) (size 9 to 14) (size 15 to 20)
#    0.000    2.250    3.750    2.250    0.000    0.500 
#    0.000    0.000    2.750    0.000    0.000    0.000 
#    0.000    0.000    0.000    0.000    0.000    0.000 
#
# Total GULP energy -793075.506355 kJ/mol
# GULP energy per Si atom -12391.804787 kJ/mol
# Density = 1.760383 g / cm^3
# Si number density = 17.643986 Si / 1000 Ang^3
#
#
#
# Elastic Constant Matrix: (Units=GPa)
#
#
# Indices 1 2 3 4 5 6 
#
# 1 124.7564 36.0840 27.1019 0.0000 0.0000 0.0000
# 2 36.0840 56.6868 15.9746 0.0000 0.0000 0.0000
# 3 27.1019 15.9746 62.1384 0.0000 0.0000 0.0000
# 4 0.0000 0.0000 0.0000 11.0086 0.0000 0.0000
# 5 0.0000 0.0000 0.0000 0.0000 25.4127 0.0000
# 6 0.0000 0.0000 0.0000 0.0000 0.0000 21.4261
#
#
#
# Elastic Compliance Matrix: (Units=1/GPa)
#
#
# Indices 1 2 3 4 5 6 
#
# 1 0.010329 -0.005720 -0.003035 0.000000 0.000000 0.000000
# 2 -0.005720 0.022186 -0.003209 0.000000 0.000000 0.000000
# 3 -0.003035 -0.003209 0.018242 0.000000 0.000000 0.000000
# 4 0.000000 0.000000 0.000000 0.090838 0.000000 0.000000
# 5 0.000000 0.000000 0.000000 0.000000 0.039350 0.000000
# 6 0.000000 0.000000 0.000000 0.000000 0.000000 0.046672
#
#
# Mechanical properties :
#
#
# Convention : Reuss Voigt Hill
#
# Bulk Modulus (GPa) = 37.27161 44.65586 40.96374
# Shear Modulus (GPa) = 19.19476 22.53089 20.86283
#
# Velocity S-wave (km/s) = 3.30190 3.57735 3.44238
# Velocity P-wave (km/s) = 5.97552 6.51365 6.25038
#
# Compressibility (1/GPa) = 0.02683007
#
# Stress axis : x y z
#
# Youngs Moduli (GPa) = 96.81218 45.07330 54.81969
#
# Poissons Ratio (x) = 0.25782 0.16636
# Poissons Ratio (y) = 0.55376 0.17591
# Poissons Ratio (z) = 0.29379 0.14463
#
# Static dielectric constant tensor:
#      x y z
#    x 3.388910 0.000000 0.000000 
#    y 0.000000 3.178690 0.000000 
#    z 0.000000 0.000000 3.158250 
# 
# 
# High freq. dielectric constant tensor:
#      x y z
#    x 1.674460 0.000000 0.000000 
#    y 0.000000 1.662870 0.000000 
#    z 0.000000 0.000000 1.674760 
# 
# From -- ./inp_files/4121.got.cif
#   From: 2010.03.12/outbox.cif.g09.slc.cpg/sg61_3_cif.got.tgz:4121.got - 2010.04.10 19:05:03.
