data_PCOD8248264
_publ_section_title
;
Structure prediction by ZEFSAII (Michael W. Deem and Ramdas Pophale) SiO2 
 PCOD8248264
Probable space group: P B C N
;
_chemical_formula_sum "Si O2"
_cell_formula_units_Z 40
_cell_length_a 7.140750
_cell_length_b 24.298934
_cell_length_c 10.640430
_cell_angle_alpha 90.000000
_cell_angle_beta 90.000000
_cell_angle_gamma 90.000000
_cell_volume 1846.248812
_symmetry_space_group_name_H-M "P B C N"
_symmetry_group_IT_number 60
_symmetry_cell_setting 'orthorhombic'
loop_
_space_group_symop_operation_xyz
x,y,z
1/2-x,1/2-y,1/2+z
1/2+x,1/2-y,-z
-x,y,1/2-z
-x,-y,-z
1/2+x,1/2+y,1/2-z
1/2-x,1/2+y,z
x,-y,1/2+z
loop_
_atom_site_type_symbol
_atom_site_label
_atom_site_fract_x
_atom_site_fract_y
_atom_site_fract_z
Si Si1 0.621935 0.514678 0.123887
Si Si2 0.746174 0.882185 0.494929
Si Si3 0.281878 0.406531 0.278186
Si Si4 0.376772 0.318673 0.459246
Si Si5 0.527013 0.797729 0.888896
O O1 0.500000 0.527066 0.250000
O O2 0.752883 0.566992 0.092136
O O3 0.764909 0.463635 0.150044
O O4 0.500000 0.500000 0.000000
O O5 0.679490 0.902133 0.356019
O O6 0.596241 0.836067 0.523778
O O7 0.954620 0.857206 0.503913
O O8 0.500000 0.409889 0.250000
O O9 0.245041 0.352172 0.361453
O O10 0.246043 0.301404 0.575674
O O11 0.458935 0.264899 0.393766
O O12 0.500000 0.820394 0.750000
#
# Coordination Sequence:
#
# PCOD8248264 Si02
#       5
#     8   8   8   8   8
#     4  11  19  36  69  99 129 179 225 267 333 389
#     4  11  23  43  68  98 135 175 218 278 328 391
#     4   9  19  39  68  96 128 174 223 263 329 406
#     4  11  23  44  67  93 132 172 215 271 338 395
#     4  12  27  43  65 101 129 169 226 273 326 406
#
# _framework density 21.66555
#
# number of rings (size 3 to 8) (size 9 to 14) (size 15 to 20)
#    0.000    1.200    8.000    1.800    2.800    0.800 
#    0.000    1.000    0.000    0.000    0.000    0.000 
#    0.000    0.000    0.000    0.000    0.000    0.000 
#
# Total GULP energy -495858.629598 kJ/mol
# GULP energy per Si atom -12396.465740 kJ/mol
# Density = 2.161624 g / cm^3
# Si number density = 21.665550 Si / 1000 Ang^3
#
#
#
# Elastic Constant Matrix: (Units=GPa)
#
#
# Indices 1 2 3 4 5 6 
#
# 1 48.3512 20.5426 23.8800 0.0000 0.0000 0.0000
# 2 20.5426 160.2839 44.7419 0.0000 0.0000 0.0000
# 3 23.8800 44.7419 127.1672 0.0000 0.0000 0.0000
# 4 0.0000 0.0000 0.0000 16.9396 0.0000 0.0000
# 5 0.0000 0.0000 0.0000 0.0000 23.4086 0.0000
# 6 0.0000 0.0000 0.0000 0.0000 0.0000 19.1468
#
#
#
# Elastic Compliance Matrix: (Units=1/GPa)
#
#
# Indices 1 2 3 4 5 6 
#
# 1 0.023339 -0.001960 -0.003693 0.000000 0.000000 0.000000
# 2 -0.001960 0.007083 -0.002124 0.000000 0.000000 0.000000
# 3 -0.003693 -0.002124 0.009304 0.000000 0.000000 0.000000
# 4 0.000000 0.000000 0.000000 0.059033 0.000000 0.000000
# 5 0.000000 0.000000 0.000000 0.000000 0.042719 0.000000
# 6 0.000000 0.000000 0.000000 0.000000 0.000000 0.052228
#
#
# Mechanical properties :
#
#
# Convention : Reuss Voigt Hill
#
# Bulk Modulus (GPa) = 41.37051 57.12570 49.24811
# Shear Modulus (GPa) = 23.00769 28.34152 25.67460
#
# Velocity S-wave (km/s) = 3.26229 3.62074 3.44618
# Velocity P-wave (km/s) = 5.77292 6.62601 6.21412
#
# Compressibility (1/GPa) = 0.02417180
#
# Stress axis : x y z
#
# Youngs Moduli (GPa) = 42.84712 141.18204 107.47579
#
# Poissons Ratio (x) = 0.27676 0.39690
# Poissons Ratio (y) = 0.08399 0.22827
# Poissons Ratio (z) = 0.15823 0.29986
#
# Static dielectric constant tensor:
#      x y z
#    x 3.557130 0.000000 0.000000 
#    y 0.000000 4.480890 0.000000 
#    z 0.000000 0.000000 4.316950 
# 
# 
# High freq. dielectric constant tensor:
#      x y z
#    x 1.819210 0.000000 0.000000 
#    y 0.000000 1.872280 0.000000 
#    z 0.000000 0.000000 1.856300 
# 
# From -- ./inp_files/3981.got.cif
#   From: 2010.03.12/outbox.cif.g09.slc.cpg/sg60_2_cif.got.tgz:3981.got - 2010.04.10 18:46:24.
