data_PCOD8248831
_publ_section_title
;
Structure prediction by ZEFSAII (Michael W. Deem and Ramdas Pophale) SiO2 
 PCOD8248831
Probable space group: P B C A
;
_chemical_formula_sum "Si O2"
_cell_formula_units_Z 32
_cell_length_a 5.272809
_cell_length_b 17.855040
_cell_length_c 15.532357
_cell_angle_alpha 90.000000
_cell_angle_beta 90.000000
_cell_angle_gamma 90.000000
_cell_volume 1462.312631
_symmetry_space_group_name_H-M "P B C A"
_symmetry_group_IT_number 61
_symmetry_cell_setting 'orthorhombic'
loop_
_space_group_symop_operation_xyz
x,y,z
1/2-x,-y,1/2+z
1/2+x,1/2-y,-z
-x,1/2+y,1/2-z
-x,-y,-z
1/2+x,y,1/2-z
1/2-x,1/2+y,z
x,1/2-y,1/2+z
loop_
_atom_site_type_symbol
_atom_site_label
_atom_site_fract_x
_atom_site_fract_y
_atom_site_fract_z
Si Si1 0.005979 0.053362 0.417296
Si Si2 0.005824 0.508284 0.602518
Si Si3 0.024849 0.725888 0.048161
Si Si4 0.009769 0.162173 0.805333
O O1 0.024855 0.138195 0.446937
O O2 0.752568 0.036241 0.361618
O O3 0.000000 0.000000 0.500000
O O4 0.251902 0.031094 0.359951
O O5 0.021094 0.594841 0.627387
O O6 0.000000 0.500000 0.500000
O O7 0.018502 0.760386 0.143485
O O8 0.302441 0.738144 0.008568
O O9 0.289616 0.157873 0.765305
#
# Coordination Sequence:
#
# PCOD8248831 Si02
#       4
#     8   8   8   8
#     4  10  19  35  62  94 120 154 216 274 309 373
#     4  10  20  39  64  91 124 169 223 266 322 406
#     4  12  23  41  69  98 132 181 232 277 332 420
#     4  12  26  45  66  99 141 178 219 289 363 407
#
# _framework density 21.883144000000001
#
# number of rings (size 3 to 8) (size 9 to 14) (size 15 to 20)
#    0.000    1.000    0.000   10.500    0.000    0.000 
#    0.000    7.500    0.000    0.000    0.000    0.000 
#    0.000    0.000    0.000    0.000    0.000    0.000 
#
# Total GULP energy -396775.185456 kJ/mol
# GULP energy per Si atom -12399.224545 kJ/mol
# Density = 2.183334 g / cm^3
# Si number density = 21.883144 Si / 1000 Ang^3
#
#
#
# Elastic Constant Matrix: (Units=GPa)
#
#
# Indices 1 2 3 4 5 6 
#
# 1 184.0732 20.3050 7.0822 0.0000 0.0000 0.0000
# 2 20.3050 146.1087 32.5423 0.0000 0.0000 0.0000
# 3 7.0822 32.5423 62.1209 0.0000 0.0000 0.0000
# 4 0.0000 0.0000 0.0000 36.4453 0.0000 0.0000
# 5 0.0000 0.0000 0.0000 0.0000 29.4137 0.0000
# 6 0.0000 0.0000 0.0000 0.0000 0.0000 36.5367
#
#
#
# Elastic Compliance Matrix: (Units=1/GPa)
#
#
# Indices 1 2 3 4 5 6 
#
# 1 0.005521 -0.000710 -0.000258 0.000000 0.000000 0.000000
# 2 -0.000710 0.007840 -0.004026 0.000000 0.000000 0.000000
# 3 -0.000258 -0.004026 0.018236 0.000000 0.000000 0.000000
# 4 0.000000 0.000000 0.000000 0.027438 0.000000 0.000000
# 5 0.000000 0.000000 0.000000 0.000000 0.033998 0.000000
# 6 0.000000 0.000000 0.000000 0.000000 0.000000 0.027370
#
#
# Mechanical properties :
#
#
# Convention : Reuss Voigt Hill
#
# Bulk Modulus (GPa) = 46.27529 56.90686 51.59107
# Shear Modulus (GPa) = 36.33934 42.63737 39.48836
#
# Velocity S-wave (km/s) = 4.07948 4.41887 4.25256
# Velocity P-wave (km/s) = 6.58650 7.21779 6.90936
#
# Compressibility (1/GPa) = 0.02160981
#
# Stress axis : x y z
#
# Youngs Moduli (GPa) = 181.13192 127.55865 54.83674
#
# Poissons Ratio (x) = 0.09055 0.01412
# Poissons Ratio (y) = 0.12858 0.22076
# Poissons Ratio (z) = 0.04665 0.51353
#
# Static dielectric constant tensor:
#      x y z
#    x 34.396720 0.000000 0.000000 
#    y 0.000000 3.971710 0.000000 
#    z 0.000000 0.000000 3.476590 
# 
# 
# High freq. dielectric constant tensor:
#      x y z
#    x 1.904500 0.000000 0.000000 
#    y 0.000000 1.867370 0.000000 
#    z 0.000000 0.000000 1.821360 
# 
# From -- ./inp_files/6806.got.cif
#   From: 2010.03.12/outbox.cif.g09.slc.cpg/sg61_4_cif.got.tgz:6806.got - 2010.04.10 19:05:03.
