data_PCOD8248751
_publ_section_title
;
Structure prediction by ZEFSAII (Michael W. Deem and Ramdas Pophale) SiO2 
 PCOD8248751
Probable space group: P B C A
;
_chemical_formula_sum "Si O2"
_cell_formula_units_Z 64
_cell_length_a 17.443876
_cell_length_b 29.282205
_cell_length_c 5.674485
_cell_angle_alpha 90.000000
_cell_angle_beta 90.000000
_cell_angle_gamma 90.000000
_cell_volume 2898.499434
_symmetry_space_group_name_H-M "P B C A"
_symmetry_group_IT_number 61
_symmetry_cell_setting 'orthorhombic'
loop_
_space_group_symop_operation_xyz
x,y,z
1/2-x,-y,1/2+z
1/2+x,1/2-y,-z
-x,1/2+y,1/2-z
-x,-y,-z
1/2+x,y,1/2-z
1/2-x,1/2+y,z
x,1/2-y,1/2+z
loop_
_atom_site_type_symbol
_atom_site_label
_atom_site_fract_x
_atom_site_fract_y
_atom_site_fract_z
Si Si1 0.322917 0.263202 0.203080
Si Si2 0.003229 0.633665 0.311544
Si Si3 0.547488 0.932751 0.062243
Si Si4 0.994085 0.229941 0.346000
Si Si5 0.647595 0.492162 0.743181
Si Si6 0.140324 0.637294 0.638610
Si Si7 0.763441 0.568241 0.910556
Si Si8 0.904838 0.574186 0.607023
O O1 0.281190 0.243453 0.442852
O O2 0.403331 0.237689 0.158136
O O3 0.329768 0.316812 0.258878
O O4 0.984244 0.675772 0.137324
O O5 0.073918 0.652616 0.462249
O O6 0.929436 0.619857 0.465349
O O7 0.029383 0.585517 0.197298
O O8 0.606535 0.896362 0.167688
O O9 0.467248 0.935717 0.194282
O O10 0.589650 0.981919 0.062949
O O11 0.028176 0.250722 0.593599
O O12 0.714422 0.525198 0.827370
O O13 0.684925 0.447476 0.628133
O O14 0.598216 0.472837 0.959064
O O15 0.209951 0.610431 0.510420
O O16 0.820641 0.585154 0.706425
#
# Coordination Sequence:
#
# PCOD8248751 Si02
#       8
#     8   8   8   8   8   8   8   8
#     4  10  18  34  60  95 128 163 211 267 325 386
#     4  11  22  37  63  96 129 161 212 271 336 385
#     4  10  23  38  63  91 128 157 212 267 326 385
#     4  10  19  34  62  96 132 168 209 265 326 398
#     4  11  23  42  63  87 118 175 214 265 319 393
#     4  10  22  36  60  97 123 164 209 269 322 392
#     4  11  24  40  62  85 127 167 222 260 324 388
#     4  11  24  41  59  91 123 167 213 272 325 388
#
# _framework density 22.080392
#
# number of rings (size 3 to 8) (size 9 to 14) (size 15 to 20)
#    0.000    1.500    3.750    2.625    3.500    3.000 
#    0.000    0.000    0.000    1.500    0.000    0.000 
#    0.000    0.000    0.000    0.000    0.000    0.000 
#
# Total GULP energy -793129.426534 kJ/mol
# GULP energy per Si atom -12392.647290 kJ/mol
# Density = 2.203014 g / cm^3
# Si number density = 22.080392 Si / 1000 Ang^3
#
#
#
# Elastic Constant Matrix: (Units=GPa)
#
#
# Indices 1 2 3 4 5 6 
#
# 1 43.7914 23.4835 -4.9629 0.0000 0.0000 0.0000
# 2 23.4835 73.8401 5.1480 0.0000 0.0000 0.0000
# 3 -4.9629 5.1480 87.6756 0.0000 0.0000 0.0000
# 4 0.0000 0.0000 0.0000 30.9258 0.0000 0.0000
# 5 0.0000 0.0000 0.0000 0.0000 10.9811 0.0000
# 6 0.0000 0.0000 0.0000 0.0000 0.0000 17.9897
#
#
#
# Elastic Compliance Matrix: (Units=1/GPa)
#
#
# Indices 1 2 3 4 5 6 
#
# 1 0.027914 -0.009025 0.002110 0.000000 0.000000 0.000000
# 2 -0.009025 0.016516 -0.001481 0.000000 0.000000 0.000000
# 3 0.002110 -0.001481 0.011612 0.000000 0.000000 0.000000
# 4 0.000000 0.000000 0.000000 0.032335 0.000000 0.000000
# 5 0.000000 0.000000 0.000000 0.000000 0.091065 0.000000
# 6 0.000000 0.000000 0.000000 0.000000 0.000000 0.055588
#
#
# Mechanical properties :
#
#
# Convention : Reuss Voigt Hill
#
# Bulk Modulus (GPa) = 25.47658 28.07159 26.77408
# Shear Modulus (GPa) = 18.87467 24.08855 21.48161
#
# Velocity S-wave (km/s) = 2.92690 3.30653 3.12249
# Velocity P-wave (km/s) = 4.79431 5.22671 5.01517
#
# Compressibility (1/GPa) = 0.03925174
#
# Stress axis : x y z
#
# Youngs Moduli (GPa) = 35.82407 60.54687 86.11737
#
# Poissons Ratio (x) = 0.54642 -0.18171
# Poissons Ratio (y) = 0.32330 0.12751
# Poissons Ratio (z) = -0.07559 0.08965
#
# Static dielectric constant tensor:
#      x y z
#    x 3.791640 0.000000 0.000000 
#    y 0.000000 3.942080 0.000000 
#    z 0.000000 0.000000 4.291730 
# 
# 
# High freq. dielectric constant tensor:
#      x y z
#    x 1.830720 0.000000 0.000000 
#    y 0.000000 1.873560 0.000000 
#    z 0.000000 0.000000 1.871090 
# 
# From -- ./inp_files/856.got.cif
#   From: 2010.03.12/outbox.cif.g09.slc.cpg/sg61_1_cif.got.tgz:856.got - 2010.04.10 19:05:03.
