data_PCOD8248229
_publ_section_title
;
Structure prediction by ZEFSAII (Michael W. Deem and Ramdas Pophale) SiO2 
 PCOD8248229
Probable space group: P B C N
;
_chemical_formula_sum "Si O2"
_cell_formula_units_Z 56
_cell_length_a 12.637593
_cell_length_b 10.190757
_cell_length_c 19.963903
_cell_angle_alpha 90.000000
_cell_angle_beta 90.000000
_cell_angle_gamma 90.000000
_cell_volume 2571.083975
_symmetry_space_group_name_H-M "P B C N"
_symmetry_group_IT_number 60
_symmetry_cell_setting 'orthorhombic'
loop_
_space_group_symop_operation_xyz
x,y,z
1/2-x,1/2-y,1/2+z
1/2+x,1/2-y,-z
-x,y,1/2-z
-x,-y,-z
1/2+x,1/2+y,1/2-z
1/2-x,1/2+y,z
x,-y,1/2+z
loop_
_atom_site_type_symbol
_atom_site_label
_atom_site_fract_x
_atom_site_fract_y
_atom_site_fract_z
Si Si1 0.500000 0.058449 0.250000
Si Si2 0.700785 0.154506 0.457962
Si Si3 0.873195 0.960540 0.142593
Si Si4 0.302223 0.301288 0.679536
Si Si5 0.000000 0.124972 0.250000
Si Si6 0.228627 0.399494 0.957668
Si Si7 0.781806 0.447893 0.249927
Si Si8 0.478775 0.803549 0.888768
O O1 0.405946 0.956797 0.262120
O O2 0.485893 0.151203 0.185134
O O3 0.784217 0.162213 0.397170
O O4 0.740162 0.258526 0.512553
O O5 0.580122 0.181702 0.436698
O O6 0.707789 0.007074 0.485282
O O7 0.946355 0.848978 0.110464
O O8 0.936100 0.034187 0.199812
O O9 0.829836 0.058409 0.086110
O O10 0.771189 0.898973 0.180564
O O11 0.425074 0.289212 0.701335
O O12 0.251823 0.407922 0.728148
O O13 0.251011 0.158710 0.693356
O O14 0.120840 0.388191 0.914691
#
# Coordination Sequence:
#
# PCOD8248229 Si02
#       8
#     4   8   8   8   4   8   8   8
#     4  12  22  42  76 110 135 187 232 310 367 415
#     4  12  28  46  78 100 148 199 249 289 353 443
#     4  11  25  45  74 107 146 186 236 302 368 429
#     4  11  24  45  67 107 141 182 234 299 352 427
#     4  10  26  42  72 108 145 179 238 308 365 421
#     4  12  27  51  70 106 148 195 240 301 348 442
#     4  11  23  42  72 106 142 175 235 300 367 412
#     4  12  26  48  75 107 144 189 247 298 372 428
#
# _framework density 21.780697
#
# number of rings (size 3 to 8) (size 9 to 14) (size 15 to 20)
#    0.000    0.571    4.286    3.000    8.000    1.714 
#    2.571    0.000    0.000    0.000    0.000    0.000 
#    0.000    0.000    0.000    0.000    0.000    0.000 
#
# Total GULP energy -694393.831700 kJ/mol
# GULP energy per Si atom -12399.889852 kJ/mol
# Density = 2.173112 g / cm^3
# Si number density = 21.780697 Si / 1000 Ang^3
#
#
#
# Elastic Constant Matrix: (Units=GPa)
#
#
# Indices 1 2 3 4 5 6 
#
# 1 102.6801 13.1932 28.1537 0.0000 0.0000 0.0000
# 2 13.1932 78.8359 6.6796 0.0000 0.0000 0.0000
# 3 28.1537 6.6796 79.2685 0.0000 0.0000 0.0000
# 4 0.0000 0.0000 0.0000 40.0004 0.0000 0.0000
# 5 0.0000 0.0000 0.0000 0.0000 43.9060 0.0000
# 6 0.0000 0.0000 0.0000 0.0000 0.0000 -127.2611
#
#
#
# Elastic Compliance Matrix: (Units=1/GPa)
#
#
# Indices 1 2 3 4 5 6 
#
# 1 0.010967 -0.001516 -0.003767 0.000000 0.000000 0.000000
# 2 -0.001516 0.012985 -0.000556 0.000000 0.000000 0.000000
# 3 -0.003767 -0.000556 0.014000 0.000000 0.000000 0.000000
# 4 0.000000 0.000000 0.000000 0.025000 0.000000 0.000000
# 5 0.000000 0.000000 0.000000 0.000000 0.022776 0.000000
# 6 0.000000 0.000000 0.000000 0.000000 0.000000 -0.007858
#
#
# Mechanical properties :
#
#
# Convention : Reuss Voigt Hill
#
# Bulk Modulus (GPa) = 38.06035 39.64861 38.85448
# Shear Modulus (GPa) = 50.86136 5.51291 28.18713
#
# Velocity S-wave (km/s) = 4.83759 1.59267 3.60131
# Velocity P-wave (km/s) = 6.97964 4.65029 5.93045
#
# Compressibility (1/GPa) = 0.02627406
#
# Stress axis : x y z
#
# Youngs Moduli (GPa) = 91.18483 77.00973 71.42753
#
# Poissons Ratio (x) = 0.11675 0.26909
# Poissons Ratio (y) = 0.13824 0.03970
# Poissons Ratio (z) = 0.34352 0.04280
#
# Static dielectric constant tensor:
#      x y z
#    x 2.002240 0.000000 0.000000 
#    y 0.000000 3.883810 0.000000 
#    z 0.000000 0.000000 3.969900 
# 
# 
# High freq. dielectric constant tensor:
#      x y z
#    x 1.870210 0.000000 0.000000 
#    y 0.000000 1.862740 0.000000 
#    z 0.000000 0.000000 1.856530 
# 
# From -- ./inp_files/22648.got.cif
#   From: 2010.03.12/outbox.cif.g09.slc.cpg/sg60_12_cif.got.tgz:22648.got - 2010.04.10 18:46:24.
