data_PCOD8248008
_publ_section_title
;
Structure prediction by ZEFSAII (Michael W. Deem and Ramdas Pophale) SiO2 
 PCOD8248008
Probable space group: P B C N
;
_chemical_formula_sum "Si O2"
_cell_formula_units_Z 48
_cell_length_a 8.633180
_cell_length_b 9.731601
_cell_length_c 27.267230
_cell_angle_alpha 90.000000
_cell_angle_beta 90.000000
_cell_angle_gamma 90.000000
_cell_volume 2290.847143
_symmetry_space_group_name_H-M "P B C N"
_symmetry_group_IT_number 60
_symmetry_cell_setting 'orthorhombic'
loop_
_space_group_symop_operation_xyz
x,y,z
1/2-x,1/2-y,1/2+z
1/2+x,1/2-y,-z
-x,y,1/2-z
-x,-y,-z
1/2+x,1/2+y,1/2-z
1/2-x,1/2+y,z
x,-y,1/2+z
loop_
_atom_site_type_symbol
_atom_site_label
_atom_site_fract_x
_atom_site_fract_y
_atom_site_fract_z
Si Si1 0.930933 0.512297 0.799891
Si Si2 0.574275 0.263062 0.655788
Si Si3 0.067868 0.718943 0.359456
Si Si4 0.932672 0.966177 0.304112
Si Si5 0.649624 0.137784 0.037088
Si Si6 0.417854 0.832682 0.450563
O O1 0.747159 0.498909 0.799870
O O2 0.000000 0.448475 0.750000
O O3 0.990024 0.668937 0.803878
O O4 0.005345 0.430147 0.844787
O O5 0.759508 0.253024 0.660557
O O6 0.522998 0.417578 0.666056
O O7 0.518537 0.213239 0.602325
O O8 0.064798 0.720026 0.418648
O O9 0.951884 0.829733 0.336484
O O10 0.000000 0.944937 0.250000
O O11 0.813681 0.209891 0.028170
O O12 0.674284 0.978068 0.052218
O O13 0.561998 0.149134 0.986134
#
# Coordination Sequence:
#
# PCOD8248008 Si02
#       6
#     8   8   8   8   8   8
#     4  12  24  42  65  92 131 168 217 272 324 390
#     4  11  23  43  66  94 129 173 215 270 326 384
#     4  11  23  43  66  94 129 173 215 270 326 384
#     4  12  26  42  65  98 129 172 221 268 328 388
#     4  10  23  43  67  98 133 172 215 266 325 385
#     4  10  23  43  67  98 133 172 215 266 325 385
#
# _framework density 20.952949
#
# number of rings (size 3 to 8) (size 9 to 14) (size 15 to 20)
#    0.000    1.000    1.667    5.000    7.000    3.333 
#    0.000    0.000    0.000    0.000    0.000    0.000 
#    0.000    0.000    0.000    0.000    0.000    0.000 
#
# Total GULP energy -595400.750380 kJ/mol
# GULP energy per Si atom -12404.182300 kJ/mol
# Density = 2.090526 g / cm^3
# Si number density = 20.952949 Si / 1000 Ang^3
#
#
#
# Elastic Constant Matrix: (Units=GPa)
#
#
# Indices 1 2 3 4 5 6 
#
# 1 71.4270 -2.9864 23.6308 0.0000 0.0000 0.0000
# 2 -2.9864 90.4222 21.0972 0.0000 0.0000 0.0000
# 3 23.6308 21.0972 70.0823 0.0000 0.0000 0.0000
# 4 0.0000 0.0000 0.0000 34.0460 0.0000 0.0000
# 5 0.0000 0.0000 0.0000 0.0000 29.4602 0.0000
# 6 0.0000 0.0000 0.0000 0.0000 0.0000 28.0921
#
#
#
# Elastic Compliance Matrix: (Units=1/GPa)
#
#
# Indices 1 2 3 4 5 6 
#
# 1 0.016065 0.001930 -0.005998 0.000000 0.000000 0.000000
# 2 0.001930 0.012127 -0.004301 0.000000 0.000000 0.000000
# 3 -0.005998 -0.004301 0.017586 0.000000 0.000000 0.000000
# 4 0.000000 0.000000 0.000000 0.029372 0.000000 0.000000
# 5 0.000000 0.000000 0.000000 0.000000 0.033944 0.000000
# 6 0.000000 0.000000 0.000000 0.000000 0.000000 0.035597
#
#
# Mechanical properties :
#
#
# Convention : Reuss Voigt Hill
#
# Bulk Modulus (GPa) = 34.43577 35.04610 34.74093
# Shear Modulus (GPa) = 29.22096 30.99898 30.10997
#
# Velocity S-wave (km/s) = 3.73848 3.85054 3.79493
# Velocity P-wave (km/s) = 5.92499 6.04411 5.98485
#
# Compressibility (1/GPa) = 0.02903957
#
# Stress axis : x y z
#
# Youngs Moduli (GPa) = 62.24564 82.46371 56.86259
#
# Poissons Ratio (x) = -0.15916 0.34106
# Poissons Ratio (y) = -0.12014 0.24458
# Poissons Ratio (z) = 0.37335 0.35470
#
# Static dielectric constant tensor:
#      x y z
#    x 3.618010 0.000000 0.000000 
#    y 0.000000 3.949530 0.000000 
#    z 0.000000 0.000000 3.792150 
# 
# 
# High freq. dielectric constant tensor:
#      x y z
#    x 1.811390 0.000000 0.000000 
#    y 0.000000 1.835460 0.000000 
#    z 0.000000 0.000000 1.830980 
# 
# From -- ./inp_files/25928.got.cif
#   From: 2010.03.12/outbox.cif.g09.slc.cpg/sg60_13_cif.got.tgz:25928.got - 2010.04.10 18:46:24.
