data_PCOD8248463
_publ_section_title
;
Structure prediction by ZEFSAII (Michael W. Deem and Ramdas Pophale) SiO2 
 PCOD8248463
Probable space group: P B C N
;
_chemical_formula_sum "Si O2"
_cell_formula_units_Z 64
_cell_length_a 9.133356
_cell_length_b 11.523046
_cell_length_c 28.978685
_cell_angle_alpha 90.000000
_cell_angle_beta 90.000000
_cell_angle_gamma 90.000000
_cell_volume 3049.835081
_symmetry_space_group_name_H-M "P B C N"
_symmetry_group_IT_number 60
_symmetry_cell_setting 'orthorhombic'
loop_
_space_group_symop_operation_xyz
x,y,z
1/2-x,1/2-y,1/2+z
1/2+x,1/2-y,-z
-x,y,1/2-z
-x,-y,-z
1/2+x,1/2+y,1/2-z
1/2-x,1/2+y,z
x,-y,1/2+z
loop_
_atom_site_type_symbol
_atom_site_label
_atom_site_fract_x
_atom_site_fract_y
_atom_site_fract_z
Si Si1 0.044391 0.205215 0.961210
Si Si2 0.077768 0.664977 0.123282
Si Si3 0.433206 0.217520 0.702285
Si Si4 0.416653 0.073016 0.876992
Si Si5 0.870659 0.943174 0.837008
Si Si6 0.610498 0.495310 0.100209
Si Si7 0.105790 0.823621 0.206117
Si Si8 0.133499 0.768670 0.947173
O O1 0.200180 0.268833 0.964797
O O2 0.932116 0.264741 0.924783
O O3 0.085921 0.074080 0.947183
O O4 0.972392 0.203509 0.010856
O O5 0.238679 0.615349 0.134530
O O6 0.026774 0.753999 0.163890
O O7 0.971805 0.556713 0.115525
O O8 0.500000 0.177390 0.750000
O O9 0.487731 0.124838 0.664750
O O10 0.478086 0.346141 0.685316
O O11 0.261209 0.238582 0.712092
O O12 0.429619 0.152029 0.922943
O O13 0.242178 0.059394 0.868588
O O14 0.963110 0.021875 0.871665
O O15 0.835781 0.043134 0.799756
O O16 0.631159 0.630690 0.090690
O O17 0.000000 0.812405 0.250000
#
# Coordination Sequence:
#
# PCOD8248463 Si02
#       8
#     8   8   8   8   8   8   8   8
#     4  11  25  43  67 100 134 175 222 276 337 394
#     4  11  24  45  67  96 135 177 219 271 333 394
#     4  11  25  43  65  98 132 172 220 271 330 392
#     4  11  24  45  67  94 134 175 221 271 335 392
#     4  11  23  43  70  95 129 174 221 272 331 396
#     4  11  23  43  71  95 130 177 225 274 332 400
#     4  11  25  43  68 100 133 172 220 273 332 393
#     4  11  25  43  67 100 134 174 222 277 332 402
#
# _framework density 20.984739999999999
#
# number of rings (size 3 to 8) (size 9 to 14) (size 15 to 20)
#    0.000    1.000    5.000    0.750    3.500    3.000 
#    0.000    0.000    0.000    0.000    0.000    0.000 
#    0.000    0.000    0.000    0.000    0.000    0.000 
#
# Total GULP energy -792961.374757 kJ/mol
# GULP energy per Si atom -12390.021481 kJ/mol
# Density = 2.093698 g / cm^3
# Si number density = 20.984740 Si / 1000 Ang^3
#
#
#
# Elastic Constant Matrix: (Units=GPa)
#
#
# Indices 1 2 3 4 5 6 
#
# 1 101.0055 16.6189 45.9091 0.0000 0.0000 0.0000
# 2 16.6189 101.6214 10.1139 0.0000 0.0000 0.0000
# 3 45.9091 10.1139 77.7709 0.0000 0.0000 0.0000
# 4 0.0000 0.0000 0.0000 18.7724 0.0000 0.0000
# 5 0.0000 0.0000 0.0000 0.0000 39.5858 0.0000
# 6 0.0000 0.0000 0.0000 0.0000 0.0000 30.6884
#
#
#
# Elastic Compliance Matrix: (Units=1/GPa)
#
#
# Indices 1 2 3 4 5 6 
#
# 1 0.013741 -0.001459 -0.007922 0.000000 0.000000 0.000000
# 2 -0.001459 0.010124 -0.000456 0.000000 0.000000 0.000000
# 3 -0.007922 -0.000456 0.017594 0.000000 0.000000 0.000000
# 4 0.000000 0.000000 0.000000 0.053270 0.000000 0.000000
# 5 0.000000 0.000000 0.000000 0.000000 0.025262 0.000000
# 6 0.000000 0.000000 0.000000 0.000000 0.000000 0.032586
#
#
# Mechanical properties :
#
#
# Convention : Reuss Voigt Hill
#
# Bulk Modulus (GPa) = 45.89873 47.29795 46.59834
# Shear Modulus (GPa) = 27.85348 31.65971 29.75659
#
# Velocity S-wave (km/s) = 3.64719 3.88841 3.76973
# Velocity P-wave (km/s) = 6.29730 6.53818 6.41887
#
# Compressibility (1/GPa) = 0.02178710
#
# Stress axis : x y z
#
# Youngs Moduli (GPa) = 72.77431 98.77182 56.83797
#
# Poissons Ratio (x) = 0.14409 0.45026
# Poissons Ratio (y) = 0.10616 0.02589
# Poissons Ratio (z) = 0.57651 0.04499
#
# Static dielectric constant tensor:
#      x y z
#    x 3.828620 0.000000 0.000000 
#    y 0.000000 4.101270 0.000000 
#    z 0.000000 0.000000 3.638210 
# 
# 
# High freq. dielectric constant tensor:
#      x y z
#    x 1.823530 0.000000 0.000000 
#    y 0.000000 1.845020 0.000000 
#    z 0.000000 0.000000 1.806790 
# 
# From -- ./inp_files/26000.got.cif
#   From: 2010.03.12/outbox.cif.g09.slc.cpg/sg60_13_cif.got.tgz:26000.got - 2010.04.10 18:46:24.
