data_PCOD8248062
_publ_section_title
;
Structure prediction by ZEFSAII (Michael W. Deem and Ramdas Pophale) SiO2 
 PCOD8248062
Probable space group: P B C N
;
_chemical_formula_sum "Si O2"
_cell_formula_units_Z 40
_cell_length_a 8.716660
_cell_length_b 14.581295
_cell_length_c 14.299695
_cell_angle_alpha 90.000000
_cell_angle_beta 90.000000
_cell_angle_gamma 90.000000
_cell_volume 1817.493964
_symmetry_space_group_name_H-M "P B C N"
_symmetry_group_IT_number 60
_symmetry_cell_setting 'orthorhombic'
loop_
_space_group_symop_operation_xyz
x,y,z
1/2-x,1/2-y,1/2+z
1/2+x,1/2-y,-z
-x,y,1/2-z
-x,-y,-z
1/2+x,1/2+y,1/2-z
1/2-x,1/2+y,z
x,-y,1/2+z
loop_
_atom_site_type_symbol
_atom_site_label
_atom_site_fract_x
_atom_site_fract_y
_atom_site_fract_z
Si Si1 0.749904 0.800407 0.754357
Si Si2 0.500000 0.548616 0.250000
Si Si3 0.434263 0.086678 0.948561
Si Si4 0.988491 0.727704 0.098657
Si Si5 0.000000 0.351842 0.250000
Si Si6 0.421421 0.433537 0.427107
O O1 0.855422 0.888048 0.775266
O O2 0.667625 0.801912 0.652610
O O3 0.630202 0.800922 0.837681
O O4 0.847331 0.708043 0.755888
O O5 0.439613 0.481473 0.328601
O O6 0.491170 0.084373 0.841427
O O7 0.252537 0.083598 0.955255
O O8 0.500609 0.177095 0.999215
O O9 0.500000 0.000000 0.000000
O O10 0.002487 0.835037 0.076517
O O11 0.500000 0.500000 0.500000
#
# Coordination Sequence:
#
# PCOD8248062 Si02
#       6
#     8   4   8   8   4   8
#     4  10  23  45  75 103 141 194 240 310 362 444
#     4  11  24  46  73 104 146 188 251 300 373 440
#     4  12  29  46  75 109 149 195 249 310 369 448
#     4  11  25  48  72 106 147 195 246 303 377 439
#     4  11  26  44  73 104 146 184 245 298 371 424
#     4  12  28  45  72 106 145 197 247 303 371 453
#
# _framework density 22.008326
#
# number of rings (size 3 to 8) (size 9 to 14) (size 15 to 20)
#    0.000    0.800    2.000    3.600   11.200    3.200 
#    0.000    0.000    0.000    0.000    0.000    0.000 
#    0.000    0.000    0.000    0.000    0.000    0.000 
#
# Total GULP energy -496190.703332 kJ/mol
# GULP energy per Si atom -12404.767583 kJ/mol
# Density = 2.195823 g / cm^3
# Si number density = 22.008326 Si / 1000 Ang^3
#
#
#
# Elastic Constant Matrix: (Units=GPa)
#
#
# Indices 1 2 3 4 5 6 
#
# 1 112.2554 35.0324 25.9138 0.0000 0.0000 0.0000
# 2 35.0324 150.1097 42.5081 0.0000 0.0000 0.0000
# 3 25.9138 42.5081 116.1740 0.0000 0.0000 0.0000
# 4 0.0000 0.0000 0.0000 44.4272 0.0000 0.0000
# 5 0.0000 0.0000 0.0000 0.0000 33.4942 0.0000
# 6 0.0000 0.0000 0.0000 0.0000 0.0000 24.4341
#
#
#
# Elastic Compliance Matrix: (Units=1/GPa)
#
#
# Indices 1 2 3 4 5 6 
#
# 1 0.009840 -0.001869 -0.001511 0.000000 0.000000 0.000000
# 2 -0.001869 0.007787 -0.002432 0.000000 0.000000 0.000000
# 3 -0.001511 -0.002432 0.009835 0.000000 0.000000 0.000000
# 4 0.000000 0.000000 0.000000 0.022509 0.000000 0.000000
# 5 0.000000 0.000000 0.000000 0.000000 0.029856 0.000000
# 6 0.000000 0.000000 0.000000 0.000000 0.000000 0.040926
#
#
# Mechanical properties :
#
#
# Convention : Reuss Voigt Hill
#
# Bulk Modulus (GPa) = 63.14133 65.04973 64.09553
# Shear Modulus (GPa) = 36.32233 38.81007 37.56620
#
# Velocity S-wave (km/s) = 4.06691 4.20387 4.13596
# Velocity P-wave (km/s) = 7.12776 7.29277 7.21074
#
# Compressibility (1/GPa) = 0.01583749
#
# Stress axis : x y z
#
# Youngs Moduli (GPa) = 101.62328 128.42469 101.67893
#
# Poissons Ratio (x) = 0.23997 0.15366
# Poissons Ratio (y) = 0.18989 0.24732
# Poissons Ratio (z) = 0.15358 0.31237
#
# Static dielectric constant tensor:
#      x y z
#    x 4.174710 0.000000 0.000000 
#    y 0.000000 4.106750 0.000000 
#    z 0.000000 0.000000 4.169690 
# 
# 
# High freq. dielectric constant tensor:
#      x y z
#    x 1.882460 0.000000 0.000000 
#    y 0.000000 1.876490 0.000000 
#    z 0.000000 0.000000 1.877270 
# 
# From -- ./inp_files/14716.got.cif
#   From: 2010.03.12/outbox.cif.g09.slc.cpg/sg60_8_cif.got.tgz:14716.got - 2010.04.10 18:46:24.
