data_PCOD8248962
_publ_section_title
;
Structure prediction by ZEFSAII (Michael W. Deem and Ramdas Pophale) SiO2 
 PCOD8248962
Probable space group: P B C A
;
_chemical_formula_sum "Si O2"
_cell_formula_units_Z 64
_cell_length_a 8.990833
_cell_length_b 19.652095
_cell_length_c 17.809914
_cell_angle_alpha 90.000000
_cell_angle_beta 90.000000
_cell_angle_gamma 90.000000
_cell_volume 3146.810627
_symmetry_space_group_name_H-M "P B C A"
_symmetry_group_IT_number 61
_symmetry_cell_setting 'orthorhombic'
loop_
_space_group_symop_operation_xyz
x,y,z
1/2-x,-y,1/2+z
1/2+x,1/2-y,-z
-x,1/2+y,1/2-z
-x,-y,-z
1/2+x,y,1/2-z
1/2-x,1/2+y,z
x,1/2-y,1/2+z
loop_
_atom_site_type_symbol
_atom_site_label
_atom_site_fract_x
_atom_site_fract_y
_atom_site_fract_z
Si Si1 0.889891 0.586775 0.795900
Si Si2 0.563462 0.910355 0.351316
Si Si3 0.353586 0.062368 0.223514
Si Si4 0.892750 0.794740 0.087138
Si Si5 0.553910 0.441436 0.853012
Si Si6 0.399059 0.209685 0.176737
Si Si7 0.592788 0.707733 0.667434
Si Si8 0.888195 0.698101 0.417551
O O1 0.718678 0.608856 0.810105
O O2 0.913397 0.506700 0.818240
O O3 0.929487 0.591281 0.708449
O O4 0.996314 0.638693 0.840046
O O5 0.518532 0.854295 0.412577
O O6 0.572996 0.984347 0.391435
O O7 0.175457 0.065345 0.214509
O O8 0.393673 0.062589 0.312194
O O9 0.427794 0.130184 0.190348
O O10 0.757246 0.812420 0.142139
O O11 0.970862 0.727198 0.118451
O O12 0.840078 0.783562 0.001927
O O13 0.579124 0.382925 0.914038
O O14 0.410825 0.257818 0.250110
O O15 0.238489 0.221719 0.140054
O O16 0.535562 0.762096 0.606549
#
# Coordination Sequence:
#
# PCOD8248962 Si02
#       8
#     8   8   8   8   8   8   8   8
#     4  10  20  36  61  94 117 148 200 256 296 343
#     4  10  20  36  59  89 120 153 196 245 300 357
#     4   9  19  35  61  90 116 147 195 257 295 340
#     4  12  25  38  59  89 125 164 196 247 308 352
#     4   9  19  36  60  86 117 152 194 245 299 354
#     4  11  22  40  63  87 118 157 208 250 292 360
#     4  12  23  38  64  91 117 161 206 245 295 357
#     4  11  24  41  59  88 126 158 199 253 302 357
#
# _framework density 20.338054
#
# number of rings (size 3 to 8) (size 9 to 14) (size 15 to 20)
#    0.000    1.500    2.500    3.000    1.750    1.500 
#    0.000    0.000    0.000   13.500    0.000    0.000 
#    0.000    0.000    0.000    0.000    0.000    0.000 
#
# Total GULP energy -793243.556888 kJ/mol
# GULP energy per Si atom -12394.430576 kJ/mol
# Density = 2.029176 g / cm^3
# Si number density = 20.338054 Si / 1000 Ang^3
#
#
#
# Elastic Constant Matrix: (Units=GPa)
#
#
# Indices 1 2 3 4 5 6 
#
# 1 82.3427 43.1876 20.9394 0.0000 0.0000 0.0000
# 2 43.1876 131.8242 33.0583 0.0000 0.0000 0.0000
# 3 20.9394 33.0583 75.3127 0.0000 0.0000 0.0000
# 4 0.0000 0.0000 0.0000 18.9325 0.0000 0.0000
# 5 0.0000 0.0000 0.0000 0.0000 21.6824 0.0000
# 6 0.0000 0.0000 0.0000 0.0000 0.0000 30.4212
#
#
#
# Elastic Compliance Matrix: (Units=1/GPa)
#
#
# Indices 1 2 3 4 5 6 
#
# 1 0.014999 -0.004347 -0.002262 0.000000 0.000000 0.000000
# 2 -0.004347 0.009784 -0.003086 0.000000 0.000000 0.000000
# 3 -0.002262 -0.003086 0.015262 0.000000 0.000000 0.000000
# 4 0.000000 0.000000 0.000000 0.052819 0.000000 0.000000
# 5 0.000000 0.000000 0.000000 0.000000 0.046120 0.000000
# 6 0.000000 0.000000 0.000000 0.000000 0.000000 0.032872
#
#
# Mechanical properties :
#
#
# Convention : Reuss Voigt Hill
#
# Bulk Modulus (GPa) = 48.41531 53.76114 51.08822
# Shear Modulus (GPa) = 25.23578 27.02684 26.13131
#
# Velocity S-wave (km/s) = 3.52634 3.64934 3.58837
# Velocity P-wave (km/s) = 6.35902 6.65192 6.50712
#
# Compressibility (1/GPa) = 0.02065462
#
# Stress axis : x y z
#
# Youngs Moduli (GPa) = 66.66910 102.20967 65.52395
#
# Poissons Ratio (x) = 0.44427 0.14824
# Poissons Ratio (y) = 0.28979 0.20221
# Poissons Ratio (z) = 0.15083 0.31542
#
# Static dielectric constant tensor:
#      x y z
#    x 3.713860 0.000000 0.000000 
#    y 0.000000 4.100550 0.000000 
#    z 0.000000 0.000000 3.203600 
# 
# 
# High freq. dielectric constant tensor:
#      x y z
#    x 1.798560 0.000000 0.000000 
#    y 0.000000 1.820000 0.000000 
#    z 0.000000 0.000000 1.745950 
# 
# From -- ./inp_files/9045.got.cif
#   From: 2010.03.12/outbox.cif.g09.slc.cpg/sg61_5_cif.got.tgz:9045.got - 2010.04.10 19:05:03.
