data_PCOD8248781
_publ_section_title
;
Structure prediction by ZEFSAII (Michael W. Deem and Ramdas Pophale) SiO2 
 PCOD8248781
Probable space group: P B C A
;
_chemical_formula_sum "Si O2"
_cell_formula_units_Z 56
_cell_length_a 5.170295
_cell_length_b 22.887955
_cell_length_c 23.550076
_cell_angle_alpha 90.000000
_cell_angle_beta 90.000000
_cell_angle_gamma 90.000000
_cell_volume 2786.856631
_symmetry_space_group_name_H-M "P B C A"
_symmetry_group_IT_number 61
_symmetry_cell_setting 'orthorhombic'
loop_
_space_group_symop_operation_xyz
x,y,z
1/2-x,-y,1/2+z
1/2+x,1/2-y,-z
-x,1/2+y,1/2-z
-x,-y,-z
1/2+x,y,1/2-z
1/2-x,1/2+y,z
x,1/2-y,1/2+z
loop_
_atom_site_type_symbol
_atom_site_label
_atom_site_fract_x
_atom_site_fract_y
_atom_site_fract_z
Si Si1 0.013059 0.213399 0.496295
Si Si2 0.341271 0.884399 0.909588
Si Si3 0.822747 0.556475 0.453113
Si Si4 0.832759 0.389706 0.068359
Si Si5 0.842647 0.056425 0.893706
Si Si6 0.700386 0.384977 0.722609
Si Si7 0.165958 0.984371 0.227950
O O1 0.280643 0.241972 0.518184
O O2 0.075053 0.175748 0.440207
O O3 0.898989 0.175441 0.548409
O O4 0.590323 0.927080 0.909370
O O5 0.267403 0.875096 0.844261
O O6 0.088450 0.908347 0.942355
O O7 0.701804 0.569070 0.514073
O O8 0.875011 0.487037 0.447580
O O9 0.566096 0.393911 0.104150
O O10 0.066062 0.412797 0.107037
O O11 0.876740 0.014057 0.839470
O O12 0.443142 0.354107 0.746447
O O13 0.705632 0.452889 0.741571
O O14 0.429155 0.949773 0.242673
#
# Coordination Sequence:
#
# PCOD8248781 Si02
#       7
#     8   8   8   8   8   8   8
#     4  11  23  42  63  84 112 147 200 258 307 349
#     4  11  21  36  59  88 117 156 196 240 296 349
#     4  11  20  34  53  81 124 158 184 220 277 357
#     4  11  23  36  54  85 114 151 197 233 281 353
#     4  12  21  34  54  82 123 161 184 223 280 349
#     4  10  19  32  51  81 117 149 186 230 273 337
#     4  10  19  32  49  75 110 154 193 220 259 324
#
# _framework density 20.094322999999999
#
# number of rings (size 3 to 8) (size 9 to 14) (size 15 to 20)
#    0.000    1.143    0.000   11.143    0.000    0.000 
#    0.000    0.000    0.000    0.000    0.000   20.000 
#    0.000    0.000    0.000    0.000    0.000    0.000 
#
# Total GULP energy -694063.039045 kJ/mol
# GULP energy per Si atom -12393.982840 kJ/mol
# Density = 2.004859 g / cm^3
# Si number density = 20.094323 Si / 1000 Ang^3
#
#
#
# Elastic Constant Matrix: (Units=GPa)
#
#
# Indices 1 2 3 4 5 6 
#
# 1 178.7009 25.1344 27.6541 0.0000 0.0000 0.0000
# 2 25.1344 56.4462 21.8156 0.0000 0.0000 0.0000
# 3 27.6541 21.8156 75.9078 0.0000 0.0000 0.0000
# 4 0.0000 0.0000 0.0000 19.1389 0.0000 0.0000
# 5 0.0000 0.0000 0.0000 0.0000 31.6512 0.0000
# 6 0.0000 0.0000 0.0000 0.0000 0.0000 29.3824
#
#
#
# Elastic Compliance Matrix: (Units=1/GPa)
#
#
# Indices 1 2 3 4 5 6 
#
# 1 0.006145 -0.002105 -0.001634 0.000000 0.000000 0.000000
# 2 -0.002105 0.020651 -0.005168 0.000000 0.000000 0.000000
# 3 -0.001634 -0.005168 0.015254 0.000000 0.000000 0.000000
# 4 0.000000 0.000000 0.000000 0.052250 0.000000 0.000000
# 5 0.000000 0.000000 0.000000 0.000000 0.031594 0.000000
# 6 0.000000 0.000000 0.000000 0.000000 0.000000 0.034034
#
#
# Mechanical properties :
#
#
# Convention : Reuss Voigt Hill
#
# Bulk Modulus (GPa) = 41.25996 51.14034 46.20015
# Shear Modulus (GPa) = 26.90780 31.79789 29.35284
#
# Velocity S-wave (km/s) = 3.66331 3.98229 3.82613
# Velocity P-wave (km/s) = 6.20248 6.83010 6.52384
#
# Compressibility (1/GPa) = 0.02423657
#
# Stress axis : x y z
#
# Youngs Moduli (GPa) = 162.73931 48.42479 65.55502
#
# Poissons Ratio (x) = 0.10192 0.10710
# Poissons Ratio (y) = 0.34253 0.33880
# Poissons Ratio (z) = 0.26587 0.25026
#
# Static dielectric constant tensor:
#      x y z
#    x 5.352320 0.000000 0.000000 
#    y 0.000000 3.272690 0.000000 
#    z 0.000000 0.000000 3.487110 
# 
# 
# High freq. dielectric constant tensor:
#      x y z
#    x 1.831140 0.000000 0.000000 
#    y 0.000000 1.722290 0.000000 
#    z 0.000000 0.000000 1.774380 
# 
# From -- ./inp_files/9995.got.cif
#   From: 2010.03.12/outbox.cif.g09.slc.cpg/sg61_5_cif.got.tgz:9995.got - 2010.04.10 19:05:03.
