data_PCOD8248624
_publ_section_title
;
Structure prediction by ZEFSAII (Michael W. Deem and Ramdas Pophale) SiO2 
 PCOD8248624
Probable space group: P B C N
;
_chemical_formula_sum "Si O2"
_cell_formula_units_Z 48
_cell_length_a 14.687912
_cell_length_b 8.860257
_cell_length_c 16.611232
_cell_angle_alpha 90.000000
_cell_angle_beta 90.000000
_cell_angle_gamma 90.000000
_cell_volume 2161.763724
_symmetry_space_group_name_H-M "P B C N"
_symmetry_group_IT_number 60
_symmetry_cell_setting 'orthorhombic'
loop_
_space_group_symop_operation_xyz
x,y,z
1/2-x,1/2-y,1/2+z
1/2+x,1/2-y,-z
-x,y,1/2-z
-x,-y,-z
1/2+x,1/2+y,1/2-z
1/2-x,1/2+y,z
x,-y,1/2+z
loop_
_atom_site_type_symbol
_atom_site_label
_atom_site_fract_x
_atom_site_fract_y
_atom_site_fract_z
Si Si1 0.822512 0.620114 0.872990
Si Si2 0.572383 0.628542 0.316229
Si Si3 0.249197 0.043897 0.274560
Si Si4 0.316106 0.188365 0.039603
Si Si5 0.815094 0.205519 0.612393
Si Si6 0.011497 0.123319 0.566516
O O1 0.913089 0.728704 0.877781
O O2 0.815859 0.551366 0.783099
O O3 0.825474 0.489353 0.940647
O O4 0.733948 0.723335 0.888676
O O5 0.500000 0.676965 0.250000
O O6 0.672179 0.621714 0.278227
O O7 0.545548 0.468014 0.354680
O O8 0.309808 0.164314 0.321499
O O9 0.198468 0.951088 0.343172
O O10 0.417092 0.254691 0.034123
O O11 0.260248 0.217308 0.957732
O O12 0.917243 0.211033 0.578674
O O13 0.000000 0.000000 0.500000
#
# Coordination Sequence:
#
# PCOD8248624 Si02
#       6
#     8   8   8   8   8   8
#     4  12  23  44  71 101 140 191 233 292 369 430
#     4  12  25  43  72 103 142 182 239 297 360 434
#     4  12  23  45  70 102 143 186 234 297 363 430
#     4  12  25  46  71 103 146 189 242 300 362 433
#     4  12  26  45  72 104 145 189 241 303 362 430
#     4  12  26  46  74 104 142 194 244 294 368 437
#
# _framework density 22.204093
#
# number of rings (size 3 to 8) (size 9 to 14) (size 15 to 20)
#    0.000    0.000    6.667    4.000    0.000    1.333 
#    0.000    4.167    0.000    0.000    0.000    0.000 
#    0.000    0.000    0.000    0.000    0.000    0.000 
#
# Total GULP energy -595236.009217 kJ/mol
# GULP energy per Si atom -12400.750192 kJ/mol
# Density = 2.215356 g / cm^3
# Si number density = 22.204093 Si / 1000 Ang^3
#
#
#
# Elastic Constant Matrix: (Units=GPa)
#
#
# Indices 1 2 3 4 5 6 
#
# 1 395.0071 128.6880 70.0794 0.0000 0.0000 0.0000
# 2 128.6880 133.1818 29.2502 0.0000 0.0000 0.0000
# 3 70.0794 29.2502 93.0791 0.0000 0.0000 0.0000
# 4 0.0000 0.0000 0.0000 2.0268 0.0000 0.0000
# 5 0.0000 0.0000 0.0000 0.0000 35.9357 0.0000
# 6 0.0000 0.0000 0.0000 0.0000 0.0000 40.5452
#
#
#
# Elastic Compliance Matrix: (Units=1/GPa)
#
#
# Indices 1 2 3 4 5 6 
#
# 1 0.003992 -0.003434 -0.001927 0.000000 0.000000 0.000000
# 2 -0.003434 0.011020 -0.000877 0.000000 0.000000 0.000000
# 3 -0.001927 -0.000877 0.012470 0.000000 0.000000 0.000000
# 4 0.000000 0.000000 0.000000 0.493398 0.000000 0.000000
# 5 0.000000 0.000000 0.000000 0.000000 0.027827 0.000000
# 6 0.000000 0.000000 0.000000 0.000000 0.000000 0.024664
#
#
# Mechanical properties :
#
#
# Convention : Reuss Voigt Hill
#
# Bulk Modulus (GPa) = 66.64242 119.70035 93.17139
# Shear Modulus (GPa) = 8.46240 41.91822 25.19031
#
# Velocity S-wave (km/s) = 1.95434 4.34966 3.37187
# Velocity P-wave (km/s) = 5.93054 8.90238 7.56385
#
# Compressibility (1/GPa) = 0.01500546
#
# Stress axis : x y z
#
# Youngs Moduli (GPa) = 250.48245 90.74599 80.19452
#
# Poissons Ratio (x) = 0.31166 0.15450
# Poissons Ratio (y) = 0.86028 0.07034
# Poissons Ratio (z) = 0.48256 0.07960
#
# Static dielectric constant tensor:
#      x y z
#    x 3.953320 0.000000 0.000000 
#    y 0.000000 5.537920 0.000000 
#    z 0.000000 0.000000 4.255500 
# 
# 
# High freq. dielectric constant tensor:
#      x y z
#    x 1.864300 0.000000 0.000000 
#    y 0.000000 1.888580 0.000000 
#    z 0.000000 0.000000 1.884950 
# 
# From -- ./inp_files/20509.got.cif
#   From: 2010.03.12/outbox.cif.g09.slc.cpg/sg60_11_cif.got.tgz:20509.got - 2010.04.10 18:46:24.
