data_PCOD8248439
_publ_section_title
;
Structure prediction by ZEFSAII (Michael W. Deem and Ramdas Pophale) SiO2 
 PCOD8248439
Probable space group: P B C N
;
_chemical_formula_sum "Si O2"
_cell_formula_units_Z 64
_cell_length_a 18.429104
_cell_length_b 16.989060
_cell_length_c 9.356329
_cell_angle_alpha 90.000000
_cell_angle_beta 90.000000
_cell_angle_gamma 90.000000
_cell_volume 2929.402553
_symmetry_space_group_name_H-M "P B C N"
_symmetry_group_IT_number 60
_symmetry_cell_setting 'orthorhombic'
loop_
_space_group_symop_operation_xyz
x,y,z
1/2-x,1/2-y,1/2+z
1/2+x,1/2-y,-z
-x,y,1/2-z
-x,-y,-z
1/2+x,1/2+y,1/2-z
1/2-x,1/2+y,z
x,-y,1/2+z
loop_
_atom_site_type_symbol
_atom_site_label
_atom_site_fract_x
_atom_site_fract_y
_atom_site_fract_z
Si Si1 0.692671 0.686080 0.978367
Si Si2 0.217774 0.915483 0.750964
Si Si3 0.046480 0.715299 0.633927
Si Si4 0.890337 0.425734 0.176343
Si Si5 0.550221 0.766587 0.871785
Si Si6 0.883244 0.576946 0.342196
Si Si7 0.318666 0.691632 0.019697
Si Si8 0.277545 0.411358 0.277513
O O1 0.609693 0.708148 0.940959
O O2 0.743331 0.762092 0.952412
O O3 0.717225 0.610520 0.888098
O O4 0.704227 0.655402 0.138409
O O5 0.298930 0.925984 0.695107
O O6 0.174143 0.887358 0.612829
O O7 0.189816 0.000958 0.804161
O O8 0.069092 0.641586 0.733715
O O9 0.115015 0.753747 0.559471
O O10 0.000000 0.768147 0.750000
O O11 0.994893 0.694938 0.501457
O O12 0.917275 0.506067 0.250746
O O13 0.805395 0.407698 0.177951
O O14 0.905999 0.432112 0.007853
O O15 0.500000 0.723874 0.750000
O O16 0.587298 0.839200 0.787302
O O17 0.322329 0.657822 0.858767
#
# Coordination Sequence:
#
# PCOD8248439 Si02
#       8
#     8   8   8   8   8   8   8   8
#     4  12  24  43  71  99 136 180 236 292 340 418
#     4  11  24  40  71 100 138 173 226 298 351 404
#     4  12  26  44  67  97 144 185 230 289 349 420
#     4  11  24  43  67 103 142 186 228 278 348 437
#     4  12  27  45  66 102 144 186 236 287 352 419
#     4  11  25  43  67 102 144 184 231 275 352 434
#     4  12  23  42  72  98 130 184 232 286 349 407
#     4  11  23  41  67 104 134 169 232 291 353 409
#
# _framework density 21.847458
#
# number of rings (size 3 to 8) (size 9 to 14) (size 15 to 20)
#    0.000    0.500    5.000    3.000    8.750    1.000 
#    0.000    0.000    0.000   15.000    0.000    0.000 
#    0.000    0.000    0.000    0.000    0.000    0.000 
#
# Total GULP energy -793002.718076 kJ/mol
# GULP energy per Si atom -12390.667470 kJ/mol
# Density = 2.179773 g / cm^3
# Si number density = 21.847458 Si / 1000 Ang^3
#
#
#
# Elastic Constant Matrix: (Units=GPa)
#
#
# Indices 1 2 3 4 5 6 
#
# 1 44.7145 27.5004 13.9351 0.0000 0.0000 0.0000
# 2 27.5004 104.7757 30.2767 0.0000 0.0000 0.0000
# 3 13.9351 30.2767 87.1724 0.0000 0.0000 0.0000
# 4 0.0000 0.0000 0.0000 58.6829 0.0000 0.0000
# 5 0.0000 0.0000 0.0000 0.0000 35.2181 0.0000
# 6 0.0000 0.0000 0.0000 0.0000 0.0000 11.7855
#
#
#
# Elastic Compliance Matrix: (Units=1/GPa)
#
#
# Indices 1 2 3 4 5 6 
#
# 1 0.026998 -0.006491 -0.002062 0.000000 0.000000 0.000000
# 2 -0.006491 0.012169 -0.003189 0.000000 0.000000 0.000000
# 3 -0.002062 -0.003189 0.012909 0.000000 0.000000 0.000000
# 4 0.000000 0.000000 0.000000 0.017041 0.000000 0.000000
# 5 0.000000 0.000000 0.000000 0.000000 0.028394 0.000000
# 6 0.000000 0.000000 0.000000 0.000000 0.000000 0.084850
#
#
# Mechanical properties :
#
#
# Convention : Reuss Voigt Hill
#
# Bulk Modulus (GPa) = 34.97233 42.23188 38.60211
# Shear Modulus (GPa) = 23.21526 32.13400 27.67463
#
# Velocity S-wave (km/s) = 3.26330 3.83931 3.56296
# Velocity P-wave (km/s) = 5.49919 6.24708 5.88503
#
# Compressibility (1/GPa) = 0.02859403
#
# Stress axis : x y z
#
# Youngs Moduli (GPa) = 37.03920 82.17403 77.46705
#
# Poissons Ratio (x) = 0.53335 0.15971
# Poissons Ratio (y) = 0.24040 0.24705
# Poissons Ratio (z) = 0.07636 0.26206
#
# Static dielectric constant tensor:
#      x y z
#    x 4.047210 0.000000 0.000000 
#    y 0.000000 4.058520 0.000000 
#    z 0.000000 0.000000 4.228990 
# 
# 
# High freq. dielectric constant tensor:
#      x y z
#    x 1.846830 0.000000 0.000000 
#    y 0.000000 1.847430 0.000000 
#    z 0.000000 0.000000 1.882360 
# 
# From -- ./inp_files/7569.got.cif
#   From: 2010.03.12/outbox.cif.g09.slc.cpg/sg60_4_cif.got.tgz:7569.got - 2010.04.10 18:46:24.
