data_PCOD8248118
_publ_section_title
;
Structure prediction by ZEFSAII (Michael W. Deem and Ramdas Pophale) SiO2 
 PCOD8248118
Probable space group: P B C N
;
_chemical_formula_sum "Si O2"
_cell_formula_units_Z 48
_cell_length_a 11.314106
_cell_length_b 7.794096
_cell_length_c 25.577250
_cell_angle_alpha 90.000000
_cell_angle_beta 90.000000
_cell_angle_gamma 90.000000
_cell_volume 2255.484477
_symmetry_space_group_name_H-M "P B C N"
_symmetry_group_IT_number 60
_symmetry_cell_setting 'orthorhombic'
loop_
_space_group_symop_operation_xyz
x,y,z
1/2-x,1/2-y,1/2+z
1/2+x,1/2-y,-z
-x,y,1/2-z
-x,-y,-z
1/2+x,1/2+y,1/2-z
1/2-x,1/2+y,z
x,-y,1/2+z
loop_
_atom_site_type_symbol
_atom_site_label
_atom_site_fract_x
_atom_site_fract_y
_atom_site_fract_z
Si Si1 0.030240 0.148873 0.961528
Si Si2 0.593020 0.181285 0.938279
Si Si3 0.589659 0.223434 0.646814
Si Si4 0.849687 0.897683 0.140339
Si Si5 0.333453 0.177857 0.099328
Si Si6 0.008567 0.391768 0.689603
O O1 0.912108 0.174797 0.927127
O O2 0.133694 0.096146 0.922046
O O3 0.079689 0.298794 0.999157
O O4 0.000000 0.000000 0.000000
O O5 0.469253 0.229868 0.910595
O O6 0.695059 0.293302 0.909505
O O7 0.624652 0.985862 0.932188
O O8 0.604853 0.421484 0.666404
O O9 0.711409 0.120751 0.648261
O O10 0.509157 0.098078 0.682944
O O11 0.911218 0.727698 0.162419
O O12 0.365673 0.156936 0.161515
O O13 0.000000 0.343479 0.750000
#
# Coordination Sequence:
#
# PCOD8248118 Si02
#       6
#     8   8   8   8   8   8
#     4  11  22  38  64  93 132 178 219 260 333 392
#     4  11  23  40  63  96 134 175 217 266 332 391
#     4  11  23  43  68  97 132 173 220 273 327 401
#     4  11  23  42  68  97 134 171 225 275 324 399
#     4  10  24  42  61  94 134 170 221 276 320 401
#     4  10  24  48  69  96 128 172 227 283 338 388
#
# _framework density 21.281458000000001
#
# number of rings (size 3 to 8) (size 9 to 14) (size 15 to 20)
#    0.000    1.333    3.333    1.500    4.667    2.000 
#    6.000    0.000    0.000    0.000    0.000    0.000 
#    0.000    0.000    0.000    0.000    0.000    0.000 
#
# Total GULP energy -594747.007537 kJ/mol
# GULP energy per Si atom -12390.562657 kJ/mol
# Density = 2.123302 g / cm^3
# Si number density = 21.281458 Si / 1000 Ang^3
#
#
#
# Elastic Constant Matrix: (Units=GPa)
#
#
# Indices 1 2 3 4 5 6 
#
# 1 56.6223 5.0189 4.6460 0.0000 0.0000 0.0000
# 2 5.0189 97.1680 14.5858 0.0000 0.0000 0.0000
# 3 4.6460 14.5858 114.9160 0.0000 0.0000 0.0000
# 4 0.0000 0.0000 0.0000 24.2073 0.0000 0.0000
# 5 0.0000 0.0000 0.0000 0.0000 64.7084 0.0000
# 6 0.0000 0.0000 0.0000 0.0000 0.0000 42.0606
#
#
#
# Elastic Compliance Matrix: (Units=1/GPa)
#
#
# Indices 1 2 3 4 5 6 
#
# 1 0.017785 -0.000826 -0.000614 0.000000 0.000000 0.000000
# 2 -0.000826 0.010530 -0.001303 0.000000 0.000000 0.000000
# 3 -0.000614 -0.001303 0.008892 0.000000 0.000000 0.000000
# 4 0.000000 0.000000 0.000000 0.041310 0.000000 0.000000
# 5 0.000000 0.000000 0.000000 0.000000 0.015454 0.000000
# 6 0.000000 0.000000 0.000000 0.000000 0.000000 0.023775
#
#
# Mechanical properties :
#
#
# Convention : Reuss Voigt Hill
#
# Bulk Modulus (GPa) = 31.52661 35.24532 33.38596
# Shear Modulus (GPa) = 37.36755 42.49229 39.92992
#
# Velocity S-wave (km/s) = 4.19486 4.47327 4.33630
# Velocity P-wave (km/s) = 6.18941 6.57858 6.38696
#
# Compressibility (1/GPa) = 0.03171924
#
# Stress axis : x y z
#
# Youngs Moduli (GPa) = 56.22865 94.96906 112.45772
#
# Poissons Ratio (x) = 0.07848 0.06906
# Poissons Ratio (y) = 0.04647 0.14654
# Poissons Ratio (z) = 0.03453 0.12375
#
# Static dielectric constant tensor:
#      x y z
#    x 3.159800 0.000000 0.000000 
#    y 0.000000 4.233910 0.000000 
#    z 0.000000 0.000000 4.951650 
# 
# 
# High freq. dielectric constant tensor:
#      x y z
#    x 1.829780 0.000000 0.000000 
#    y 0.000000 1.856840 0.000000 
#    z 0.000000 0.000000 1.809360 
# 
# From -- ./inp_files/24256.got.cif
#   From: 2010.03.12/outbox.cif.g09.slc.cpg/sg60_13_cif.got.tgz:24256.got - 2010.04.10 18:46:24.
