data_PCOD8248691
_publ_section_title
;
Structure prediction by ZEFSAII (Michael W. Deem and Ramdas Pophale) SiO2 
 PCOD8248691
Probable space group: P B C N
;
_chemical_formula_sum "Si O2"
_cell_formula_units_Z 24
_cell_length_a 13.391885
_cell_length_b 6.950846
_cell_length_c 10.061527
_cell_angle_alpha 90.000000
_cell_angle_beta 90.000000
_cell_angle_gamma 90.000000
_cell_volume 936.576539
_symmetry_space_group_name_H-M "P B C N"
_symmetry_group_IT_number 60
_symmetry_cell_setting 'orthorhombic'
loop_
_space_group_symop_operation_xyz
x,y,z
1/2-x,1/2-y,1/2+z
1/2+x,1/2-y,-z
-x,y,1/2-z
-x,-y,-z
1/2+x,1/2+y,1/2-z
1/2-x,1/2+y,z
x,-y,1/2+z
loop_
_atom_site_type_symbol
_atom_site_label
_atom_site_fract_x
_atom_site_fract_y
_atom_site_fract_z
Si Si1 0.103176 0.398009 0.016072
Si Si2 0.101374 0.070064 0.831783
Si Si3 0.813960 0.657332 0.701060
O O1 0.090502 0.171763 0.976815
O O2 0.181896 0.501479 0.917898
O O3 0.133880 0.420541 0.167422
O O4 0.000000 0.500000 0.000000
O O5 0.196220 0.180565 0.763029
O O6 0.000000 0.103846 0.750000
O O7 0.127930 0.846811 0.847575
#
# Coordination Sequence:
#
# PCOD8248691 Si02
#       3
#     8   8   8
#     4  12  28  52  84 117 164 210 276 332 410 478
#     4  12  28  49  78 117 161 209 269 329 410 484
#     4  12  29  51  80 117 161 215 266 343 403 481
#
# _framework density 25.625243999999999
#
# number of rings (size 3 to 8) (size 9 to 14) (size 15 to 20)
#    0.000    0.000    3.333    5.000    4.667    8.000 
#    0.000    0.000    0.000    0.000    0.000    0.000 
#    0.000    0.000    0.000    0.000    0.000    0.000 
#
# Total GULP energy -297542.653905 kJ/mol
# GULP energy per Si atom -12397.610579 kJ/mol
# Density = 2.556692 g / cm^3
# Si number density = 25.625244 Si / 1000 Ang^3
#
#
#
# Elastic Constant Matrix: (Units=GPa)
#
#
# Indices 1 2 3 4 5 6 
#
# 1 158.9802 29.1126 19.8259 0.0000 0.0000 0.0000
# 2 29.1126 146.6577 55.8604 0.0000 0.0000 0.0000
# 3 19.8259 55.8604 116.1965 0.0000 0.0000 0.0000
# 4 0.0000 0.0000 0.0000 53.3110 0.0000 0.0000
# 5 0.0000 0.0000 0.0000 0.0000 28.5361 0.0000
# 6 0.0000 0.0000 0.0000 0.0000 0.0000 49.3981
#
#
#
# Elastic Compliance Matrix: (Units=1/GPa)
#
#
# Indices 1 2 3 4 5 6 
#
# 1 0.006562 -0.001073 -0.000604 0.000000 0.000000 0.000000
# 2 -0.001073 0.008522 -0.003914 0.000000 0.000000 0.000000
# 3 -0.000604 -0.003914 0.010591 0.000000 0.000000 0.000000
# 4 0.000000 0.000000 0.000000 0.018758 0.000000 0.000000
# 5 0.000000 0.000000 0.000000 0.000000 0.035043 0.000000
# 6 0.000000 0.000000 0.000000 0.000000 0.000000 0.020244
#
#
# Mechanical properties :
#
#
# Convention : Reuss Voigt Hill
#
# Bulk Modulus (GPa) = 68.99477 70.15912 69.57694
# Shear Modulus (GPa) = 43.20322 47.38476 45.29399
#
# Velocity S-wave (km/s) = 4.11050 4.30483 4.20879
# Velocity P-wave (km/s) = 7.03643 7.22130 7.12946
#
# Compressibility (1/GPa) = 0.01449385
#
# Stress axis : x y z
#
# Youngs Moduli (GPa) = 152.39691 117.33906 94.42157
#
# Poissons Ratio (x) = 0.12585 0.05703
# Poissons Ratio (y) = 0.16345 0.36957
# Poissons Ratio (z) = 0.09205 0.45927
#
# Static dielectric constant tensor:
#      x y z
#    x 5.207510 0.000000 0.000000 
#    y 0.000000 5.147570 0.000000 
#    z 0.000000 0.000000 5.225180 
# 
# 
# High freq. dielectric constant tensor:
#      x y z
#    x 2.053560 0.000000 0.000000 
#    y 0.000000 2.042200 0.000000 
#    z 0.000000 0.000000 2.004320 
# 
# From -- ./inp_files/5399.got.cif
#   From: 2010.03.12/outbox.cif.g09.slc.cpg/sg60_3_cif.got.tgz:5399.got - 2010.04.10 18:46:24.
