data_PCOD8248379
_publ_section_title
;
Structure prediction by ZEFSAII (Michael W. Deem and Ramdas Pophale) SiO2 
 PCOD8248379
Probable space group: P B C N
;
_chemical_formula_sum "Si O2"
_cell_formula_units_Z 40
_cell_length_a 11.692551
_cell_length_b 18.677984
_cell_length_c 8.729473
_cell_angle_alpha 90.000000
_cell_angle_beta 90.000000
_cell_angle_gamma 90.000000
_cell_volume 1906.458245
_symmetry_space_group_name_H-M "P B C N"
_symmetry_group_IT_number 60
_symmetry_cell_setting 'orthorhombic'
loop_
_space_group_symop_operation_xyz
x,y,z
1/2-x,1/2-y,1/2+z
1/2+x,1/2-y,-z
-x,y,1/2-z
-x,-y,-z
1/2+x,1/2+y,1/2-z
1/2-x,1/2+y,z
x,-y,1/2+z
loop_
_atom_site_type_symbol
_atom_site_label
_atom_site_fract_x
_atom_site_fract_y
_atom_site_fract_z
Si Si1 0.201470 0.049135 0.327646
Si Si2 0.028553 0.163830 0.422592
Si Si3 0.072075 0.318947 0.407608
Si Si4 0.695665 0.401710 0.025870
Si Si5 0.048487 0.433334 0.912233
O O1 0.108087 0.094251 0.421868
O O2 0.316013 0.067650 0.416538
O O3 0.172735 0.965558 0.353327
O O4 0.211937 0.067906 0.147351
O O5 0.089399 0.238082 0.473124
O O6 0.000000 0.181986 0.250000
O O7 0.916087 0.149044 0.525520
O O8 0.196391 0.357234 0.408477
O O9 0.000000 0.325241 0.250000
O O10 0.992621 0.357177 0.530068
O O11 0.000000 0.448808 0.750000
O O12 0.000000 0.500000 0.000000
#
# Coordination Sequence:
#
# PCOD8248379 Si02
#       5
#     8   8   8   8   8
#     4  11  22  41  66  93 126 165 213 267 316 378
#     4   9  23  44  64  90 130 174 207 267 326 385
#     4  11  24  41  64  93 130 168 213 266 330 382
#     4  11  23  42  67  93 127 166 219 263 324 385
#     4  12  22  38  60  94 126 164 214 266 317 379
#
# _framework density 20.981316
#
# number of rings (size 3 to 8) (size 9 to 14) (size 15 to 20)
#    0.000    1.200    4.000    1.200    5.600    0.000 
#    0.000    2.000    0.000    0.000    0.000    0.000 
#    0.000    0.000    0.000    0.000    0.000    0.000 
#
# Total GULP energy -495669.985341 kJ/mol
# GULP energy per Si atom -12391.749634 kJ/mol
# Density = 2.093356 g / cm^3
# Si number density = 20.981316 Si / 1000 Ang^3
#
#
#
# Elastic Constant Matrix: (Units=GPa)
#
#
# Indices 1 2 3 4 5 6 
#
# 1 129.3040 62.8702 43.1336 0.0000 0.0000 0.0000
# 2 62.8702 175.4473 40.0799 0.0000 0.0000 0.0000
# 3 43.1336 40.0799 73.7053 0.0000 0.0000 0.0000
# 4 0.0000 0.0000 0.0000 15.1893 0.0000 0.0000
# 5 0.0000 0.0000 0.0000 0.0000 37.3959 0.0000
# 6 0.0000 0.0000 0.0000 0.0000 0.0000 44.9806
#
#
#
# Elastic Compliance Matrix: (Units=1/GPa)
#
#
# Indices 1 2 3 4 5 6 
#
# 1 0.010644 -0.002730 -0.004744 0.000000 0.000000 0.000000
# 2 -0.002730 0.007209 -0.002322 0.000000 0.000000 0.000000
# 3 -0.004744 -0.002322 0.017607 0.000000 0.000000 0.000000
# 4 0.000000 0.000000 0.000000 0.065836 0.000000 0.000000
# 5 0.000000 0.000000 0.000000 0.000000 0.026741 0.000000
# 6 0.000000 0.000000 0.000000 0.000000 0.000000 0.022232
#
#
# Mechanical properties :
#
#
# Convention : Reuss Voigt Hill
#
# Bulk Modulus (GPa) = 63.02878 74.51380 68.77129
# Shear Modulus (GPa) = 28.54706 35.00470 31.77588
#
# Velocity S-wave (km/s) = 3.69263 4.08901 3.89586
# Velocity P-wave (km/s) = 6.94883 7.60820 7.28598
#
# Compressibility (1/GPa) = 0.01586577
#
# Stress axis : x y z
#
# Youngs Moduli (GPa) = 93.95080 138.72349 56.79666
#
# Poissons Ratio (x) = 0.37876 0.26946
# Poissons Ratio (y) = 0.25652 0.13189
# Poissons Ratio (z) = 0.44573 0.32213
#
# Static dielectric constant tensor:
#      x y z
#    x 4.252500 0.000000 0.000000 
#    y 0.000000 4.105490 0.000000 
#    z 0.000000 0.000000 3.937550 
# 
# 
# High freq. dielectric constant tensor:
#      x y z
#    x 1.833150 0.000000 0.000000 
#    y 0.000000 1.836870 0.000000 
#    z 0.000000 0.000000 1.809800 
# 
# From -- ./inp_files/4735.got.cif
#   From: 2010.03.12/outbox.cif.g09.slc.cpg/sg60_3_cif.got.tgz:4735.got - 2010.04.10 18:46:24.
