data_PCOD8248766
_publ_section_title
;
Structure prediction by ZEFSAII (Michael W. Deem and Ramdas Pophale) SiO2 
 PCOD8248766
Probable space group: P B C A
;
_chemical_formula_sum "Si O2"
_cell_formula_units_Z 64
_cell_length_a 12.273178
_cell_length_b 14.407331
_cell_length_c 17.588388
_cell_angle_alpha 90.000000
_cell_angle_beta 90.000000
_cell_angle_gamma 90.000000
_cell_volume 3110.044509
_symmetry_space_group_name_H-M "P B C A"
_symmetry_group_IT_number 61
_symmetry_cell_setting 'orthorhombic'
loop_
_space_group_symop_operation_xyz
x,y,z
1/2-x,-y,1/2+z
1/2+x,1/2-y,-z
-x,1/2+y,1/2-z
-x,-y,-z
1/2+x,y,1/2-z
1/2-x,1/2+y,z
x,1/2-y,1/2+z
loop_
_atom_site_type_symbol
_atom_site_label
_atom_site_fract_x
_atom_site_fract_y
_atom_site_fract_z
Si Si1 0.228265 0.832222 0.987289
Si Si2 0.757903 0.775073 0.339327
Si Si3 0.632364 0.090978 0.741265
Si Si4 0.369395 0.486600 0.504305
Si Si5 0.218215 0.350063 0.423056
Si Si6 0.262387 0.058876 0.161226
Si Si7 0.999799 0.394474 0.481119
Si Si8 0.585771 0.581954 0.823181
O O1 0.250827 0.790360 0.070815
O O2 0.099027 0.848741 0.971477
O O3 0.303241 0.922461 0.977730
O O4 0.258465 0.759643 0.921574
O O5 0.864650 0.822389 0.301354
O O6 0.748002 0.667194 0.318927
O O7 0.668178 0.838169 0.294584
O O8 0.682078 0.116436 0.659380
O O9 0.505004 0.062941 0.739908
O O10 0.691374 0.996504 0.766628
O O11 0.500000 0.500000 0.500000
O O12 0.327308 0.404373 0.449497
O O13 0.341253 0.459422 0.590448
O O14 0.124439 0.359427 0.489885
O O15 0.143044 0.013571 0.148045
O O16 0.974695 0.372764 0.394037
O O17 0.000000 0.500000 0.500000
#
# Coordination Sequence:
#
# PCOD8248766 Si02
#       8
#     8   8   8   8   8   8   8   8
#     4  11  22  41  65  94 129 170 220 272 335 400
#     4  10  21  40  67  86 126 175 214 256 336 403
#     4  10  23  41  63  96 132 169 220 278 325 398
#     4  12  25  40  65  99 131 169 224 284 339 397
#     4  11  24  40  63  99 131 164 226 279 327 392
#     4  11  21  43  66  91 130 180 215 267 346 407
#     4  10  18  38  64  83 125 174 209 259 325 403
#     4   9  20  38  61  89 125 166 214 269 321 395
#
# _framework density 20.578484
#
# number of rings (size 3 to 8) (size 9 to 14) (size 15 to 20)
#    0.000    1.500    6.250    0.000    1.750    5.000 
#    0.000    0.000    0.000    0.000    0.000    0.000 
#    0.000    0.000    0.000    0.000    0.000    0.000 
#
# Total GULP energy -792883.467042 kJ/mol
# GULP energy per Si atom -12388.804173 kJ/mol
# Density = 2.053165 g / cm^3
# Si number density = 20.578484 Si / 1000 Ang^3
#
#
#
# Elastic Constant Matrix: (Units=GPa)
#
#
# Indices 1 2 3 4 5 6 
#
# 1 104.3333 26.1103 14.3786 0.0000 0.0000 0.0000
# 2 26.1103 147.4278 17.8903 0.0000 0.0000 0.0000
# 3 14.3786 17.8903 52.1512 0.0000 0.0000 0.0000
# 4 0.0000 0.0000 0.0000 26.4887 0.0000 0.0000
# 5 0.0000 0.0000 0.0000 0.0000 27.7144 0.0000
# 6 0.0000 0.0000 0.0000 0.0000 0.0000 23.1362
#
#
#
# Elastic Compliance Matrix: (Units=1/GPa)
#
#
# Indices 1 2 3 4 5 6 
#
# 1 0.010289 -0.001542 -0.002308 0.000000 0.000000 0.000000
# 2 -0.001542 0.007309 -0.002082 0.000000 0.000000 0.000000
# 3 -0.002308 -0.002082 0.020525 0.000000 0.000000 0.000000
# 4 0.000000 0.000000 0.000000 0.037752 0.000000 0.000000
# 5 0.000000 0.000000 0.000000 0.000000 0.036082 0.000000
# 6 0.000000 0.000000 0.000000 0.000000 0.000000 0.043222
#
#
# Mechanical properties :
#
#
# Convention : Reuss Voigt Hill
#
# Bulk Modulus (GPa) = 38.08195 46.74121 42.41158
# Shear Modulus (GPa) = 28.44201 31.83672 30.13937
#
# Velocity S-wave (km/s) = 3.72173 3.93757 3.83117
# Velocity P-wave (km/s) = 6.08393 6.59057 6.34231
#
# Compressibility (1/GPa) = 0.02625916
#
# Stress axis : x y z
#
# Youngs Moduli (GPa) = 97.19464 136.82209 48.71991
#
# Poissons Ratio (x) = 0.21100 0.11243
# Poissons Ratio (y) = 0.14989 0.10144
# Poissons Ratio (z) = 0.22429 0.28487
#
# Static dielectric constant tensor:
#      x y z
#    x 8.904310 0.000000 0.000000 
#    y 0.000000 3.773110 0.000000 
#    z 0.000000 0.000000 3.558270 
# 
# 
# High freq. dielectric constant tensor:
#      x y z
#    x 1.815360 0.000000 0.000000 
#    y 0.000000 1.804440 0.000000 
#    z 0.000000 0.000000 1.785280 
# 
# From -- ./inp_files/9278.got.cif
#   From: 2010.03.12/outbox.cif.g09.slc.cpg/sg61_5_cif.got.tgz:9278.got - 2010.04.10 19:05:03.
