data_PCOD8248360
_publ_section_title
;
Structure prediction by ZEFSAII (Michael W. Deem and Ramdas Pophale) SiO2 
 PCOD8248360
Probable space group: P B C N
;
_chemical_formula_sum "Si O2"
_cell_formula_units_Z 36
_cell_length_a 8.146867
_cell_length_b 13.550381
_cell_length_c 13.211020
_cell_angle_alpha 90.000000
_cell_angle_beta 90.000000
_cell_angle_gamma 90.000000
_cell_volume 1458.406136
_symmetry_space_group_name_H-M "P B C N"
_symmetry_group_IT_number 60
_symmetry_cell_setting 'orthorhombic'
loop_
_space_group_symop_operation_xyz
x,y,z
1/2-x,1/2-y,1/2+z
1/2+x,1/2-y,-z
-x,y,1/2-z
-x,-y,-z
1/2+x,1/2+y,1/2-z
1/2-x,1/2+y,z
x,-y,1/2+z
loop_
_atom_site_type_symbol
_atom_site_label
_atom_site_fract_x
_atom_site_fract_y
_atom_site_fract_z
Si Si1 0.249615 0.084358 0.093937
Si Si2 0.198748 0.131459 0.576843
Si Si3 0.714798 0.258488 0.749626
Si Si4 0.048145 0.708477 0.950878
Si Si5 0.000000 0.386929 0.750000
O O1 0.146525 0.166701 0.159092
O O2 0.410792 0.051049 0.161582
O O3 0.151646 0.984347 0.070442
O O4 0.308478 0.135916 0.990760
O O5 0.203719 0.164513 0.694273
O O6 0.375999 0.155576 0.528319
O O7 0.058084 0.188114 0.512854
O O8 0.575924 0.225305 0.670073
O O9 0.863119 0.317010 0.694361
#
# Coordination Sequence:
#
# PCOD8248360 Si02
#       5
#     8   8   8   8   4
#     4   9  21  38  63  92 117 167 218 239 301 386
#     4  11  23  39  63  93 122 163 213 250 316 370
#     4   9  21  36  62  87 124 151 211 258 305 349
#     4  11  22  38  63  93 126 164 204 267 304 371
#     4   8  18  40  60  86 118 160 212 250 288 378
#
# _framework density 24.684483
#
# number of rings (size 3 to 8) (size 9 to 14) (size 15 to 20)
#    1.333    0.889    0.000    2.667    3.111    1.778 
#    0.000    4.444    9.778    2.667    0.000    0.000 
#    0.000    0.000    0.000    0.000    0.000    0.000 
#
# Total GULP energy -446032.239244 kJ/mol
# GULP energy per Si atom -12389.784423 kJ/mol
# Density = 2.462830 g / cm^3
# Si number density = 24.684483 Si / 1000 Ang^3
#
#
#
# Elastic Constant Matrix: (Units=GPa)
#
#
# Indices 1 2 3 4 5 6 
#
# 1 34.6655 -17.0267 5.2161 0.0000 0.0000 0.0000
# 2 -17.0267 134.1778 18.7486 0.0000 0.0000 0.0000
# 3 5.2161 18.7486 121.0076 0.0000 0.0000 0.0000
# 4 0.0000 0.0000 0.0000 20.9564 0.0000 0.0000
# 5 0.0000 0.0000 0.0000 0.0000 30.5118 0.0000
# 6 0.0000 0.0000 0.0000 0.0000 0.0000 20.1309
#
#
#
# Elastic Compliance Matrix: (Units=1/GPa)
#
#
# Indices 1 2 3 4 5 6 
#
# 1 0.031233 0.004243 -0.002004 0.000000 0.000000 0.000000
# 2 0.004243 0.008194 -0.001453 0.000000 0.000000 0.000000
# 3 -0.002004 -0.001453 0.008575 0.000000 0.000000 0.000000
# 4 0.000000 0.000000 0.000000 0.047718 0.000000 0.000000
# 5 0.000000 0.000000 0.000000 0.000000 0.032774 0.000000
# 6 0.000000 0.000000 0.000000 0.000000 0.000000 0.049675
#
#
# Mechanical properties :
#
#
# Convention : Reuss Voigt Hill
#
# Bulk Modulus (GPa) = 20.17081 33.74743 26.95912
# Shear Modulus (GPa) = 25.89052 33.18070 29.53561
#
# Velocity S-wave (km/s) = 3.24212 3.67030 3.46284
# Velocity P-wave (km/s) = 4.71215 5.62696 5.18975
#
# Compressibility (1/GPa) = 0.04957660
#
# Stress axis : x y z
#
# Youngs Moduli (GPa) = 32.01755 122.03726 116.61315
#
# Poissons Ratio (x) = -0.51785 0.23367
# Poissons Ratio (y) = -0.13586 0.16938
# Poissons Ratio (z) = 0.06416 0.17726
#
# Static dielectric constant tensor:
#      x y z
#    x 4.116770 0.000000 0.000000 
#    y 0.000000 4.103120 0.000000 
#    z 0.000000 0.000000 4.185290 
# 
# 
# High freq. dielectric constant tensor:
#      x y z
#    x 1.975150 0.000000 0.000000 
#    y 0.000000 1.961510 0.000000 
#    z 0.000000 0.000000 1.980860 
# 
# From -- ./inp_files/15775.got.cif
#   From: 2010.03.12/outbox.cif.g09.slc.cpg/sg60_8_cif.got.tgz:15775.got - 2010.04.10 18:46:24.
