data_PCOD8248452
_publ_section_title
;
Structure prediction by ZEFSAII (Michael W. Deem and Ramdas Pophale) SiO2 
 PCOD8248452
Probable space group: P B C N
;
_chemical_formula_sum "Si O2"
_cell_formula_units_Z 60
_cell_length_a 16.860201
_cell_length_b 16.966473
_cell_length_c 9.566778
_cell_angle_alpha 90.000000
_cell_angle_beta 90.000000
_cell_angle_gamma 90.000000
_cell_volume 2736.654769
_symmetry_space_group_name_H-M "P B C N"
_symmetry_group_IT_number 60
_symmetry_cell_setting 'orthorhombic'
loop_
_space_group_symop_operation_xyz
x,y,z
1/2-x,1/2-y,1/2+z
1/2+x,1/2-y,-z
-x,y,1/2-z
-x,-y,-z
1/2+x,1/2+y,1/2-z
1/2-x,1/2+y,z
x,-y,1/2+z
loop_
_atom_site_type_symbol
_atom_site_label
_atom_site_fract_x
_atom_site_fract_y
_atom_site_fract_z
Si Si1 0.856560 0.035434 0.712282
Si Si2 0.729958 0.163202 0.418283
Si Si3 0.218552 0.571980 0.356161
Si Si4 0.234210 0.840158 0.117860
Si Si5 0.052176 0.504855 0.367085
Si Si6 0.376980 0.844014 0.311408
Si Si7 0.598655 0.401957 0.930067
Si Si8 0.000000 0.210539 0.250000
O O1 0.835209 0.110137 0.808039
O O2 0.916650 0.058960 0.584227
O O3 0.775142 0.004529 0.641609
O O4 0.894344 0.967803 0.808909
O O5 0.705233 0.101374 0.300581
O O6 0.711836 0.249841 0.360901
O O7 0.677173 0.150583 0.552620
O O8 0.822512 0.150561 0.451080
O O9 0.259537 0.637728 0.453788
O O10 0.132656 0.548152 0.411454
O O11 0.321303 0.854158 0.178011
O O12 0.065037 0.417478 0.307872
O O13 0.000000 0.551090 0.250000
O O14 0.000000 0.500000 0.500000
O O15 0.427034 0.762918 0.306339
O O16 0.528236 0.343699 0.881107
#
# Coordination Sequence:
#
# PCOD8248452 Si02
#       8
#     8   8   8   8   8   8   8   4
#     4  11  23  42  70  99 129 178 238 290 335 408
#     4  11  24  41  69  98 134 177 233 283 338 413
#     4  11  24  40  64 100 132 172 229 289 338 408
#     4  12  22  41  70 100 131 173 232 291 337 401
#     4  12  24  39  62  92 136 180 214 271 349 420
#     4  12  24  44  66 101 137 181 227 283 351 420
#     4  11  24  44  69 101 138 180 233 287 352 421
#     4  12  28  44  70 104 150 190 226 290 376 430
#
# _framework density 21.924578
#
# number of rings (size 3 to 8) (size 9 to 14) (size 15 to 20)
#    0.000    0.533    6.000    2.400    3.733    0.533 
#    0.000    0.000    0.000    1.600    0.000    0.000 
#    0.000    0.000    0.000    0.000    0.000    0.000 
#
# Total GULP energy -744066.912337 kJ/mol
# GULP energy per Si atom -12401.115206 kJ/mol
# Density = 2.187468 g / cm^3
# Si number density = 21.924578 Si / 1000 Ang^3
#
#
#
# Elastic Constant Matrix: (Units=GPa)
#
#
# Indices 1 2 3 4 5 6 
#
# 1 40.0536 3.8998 12.1807 0.0000 0.0000 0.0000
# 2 3.8998 70.3449 3.1334 0.0000 0.0000 0.0000
# 3 12.1807 3.1334 104.1360 0.0000 0.0000 0.0000
# 4 0.0000 0.0000 0.0000 31.8020 0.0000 0.0000
# 5 0.0000 0.0000 0.0000 0.0000 36.1486 0.0000
# 6 0.0000 0.0000 0.0000 0.0000 0.0000 24.8466
#
#
#
# Elastic Compliance Matrix: (Units=1/GPa)
#
#
# Indices 1 2 3 4 5 6 
#
# 1 0.026007 -0.001308 -0.003003 0.000000 0.000000 0.000000
# 2 -0.001308 0.014301 -0.000277 0.000000 0.000000 0.000000
# 3 -0.003003 -0.000277 0.009962 0.000000 0.000000 0.000000
# 4 0.000000 0.000000 0.000000 0.031445 0.000000 0.000000
# 5 0.000000 0.000000 0.000000 0.000000 0.027664 0.000000
# 6 0.000000 0.000000 0.000000 0.000000 0.000000 0.040247
#
#
# Mechanical properties :
#
#
# Convention : Reuss Voigt Hill
#
# Bulk Modulus (GPa) = 24.33446 28.10692 26.22069
# Shear Modulus (GPa) = 28.98567 31.58083 30.28325
#
# Velocity S-wave (km/s) = 3.63996 3.79942 3.72054
# Velocity P-wave (km/s) = 5.36554 5.66525 5.51743
#
# Compressibility (1/GPa) = 0.04109398
#
# Stress axis : x y z
#
# Youngs Moduli (GPa) = 38.45110 69.92744 100.37756
#
# Poissons Ratio (x) = 0.09147 0.30140
# Poissons Ratio (y) = 0.05030 0.02783
# Poissons Ratio (z) = 0.11546 0.01939
#
# Static dielectric constant tensor:
#      x y z
#    x 3.474920 0.000000 0.000000 
#    y 0.000000 3.936550 0.000000 
#    z 0.000000 0.000000 3.593090 
# 
# 
# High freq. dielectric constant tensor:
#      x y z
#    x 1.851690 0.000000 0.000000 
#    y 0.000000 1.866250 0.000000 
#    z 0.000000 0.000000 1.873370 
# 
# From -- ./inp_files/6919.got.cif
#   From: 2010.03.12/outbox.cif.g09.slc.cpg/sg60_4_cif.got.tgz:6919.got - 2010.04.10 18:46:24.
