data_PCOD8248419
_publ_section_title
;
Structure prediction by ZEFSAII (Michael W. Deem and Ramdas Pophale) SiO2 
 PCOD8248419
Probable space group: P B C N
;
_chemical_formula_sum "Si O2"
_cell_formula_units_Z 64
_cell_length_a 12.583847
_cell_length_b 21.947173
_cell_length_c 11.255039
_cell_angle_alpha 90.000000
_cell_angle_beta 90.000000
_cell_angle_gamma 90.000000
_cell_volume 3108.415175
_symmetry_space_group_name_H-M "P B C N"
_symmetry_group_IT_number 60
_symmetry_cell_setting 'orthorhombic'
loop_
_space_group_symop_operation_xyz
x,y,z
1/2-x,1/2-y,1/2+z
1/2+x,1/2-y,-z
-x,y,1/2-z
-x,-y,-z
1/2+x,1/2+y,1/2-z
1/2-x,1/2+y,z
x,-y,1/2+z
loop_
_atom_site_type_symbol
_atom_site_label
_atom_site_fract_x
_atom_site_fract_y
_atom_site_fract_z
Si Si1 0.953205 0.077625 0.135531
Si Si2 0.383825 0.551814 0.769731
Si Si3 0.410406 0.727319 0.913880
Si Si4 0.146907 0.772446 0.156341
Si Si5 0.855806 0.634588 0.358403
Si Si6 0.844244 0.893512 0.991250
Si Si7 0.282423 0.390462 0.049261
Si Si8 0.911446 0.634305 0.084857
O O1 0.000000 0.115723 0.250000
O O2 0.056374 0.064908 0.052479
O O3 0.899833 0.017760 0.192465
O O4 0.863569 0.112160 0.062003
O O5 0.500000 0.582524 0.750000
O O6 0.316638 0.559609 0.647638
O O7 0.320616 0.586899 0.873311
O O8 0.335846 0.724132 0.797653
O O9 0.528301 0.708220 0.877214
O O10 0.406679 0.796143 0.961753
O O11 0.372175 0.678638 0.012447
O O12 0.168935 0.704710 0.107846
O O13 0.224862 0.821928 0.099030
O O14 0.759305 0.594061 0.409893
O O15 0.865752 0.628145 0.217633
O O16 0.966217 0.612273 0.419198
O O17 0.163993 0.406270 0.000819
#
# Coordination Sequence:
#
# PCOD8248419 Si02
#       8
#     8   8   8   8   8   8   8   8
#     4  11  25  36  56  89 116 148 197 253 309 353
#     4  11  23  38  57  88 115 156 196 245 315 363
#     4   9  16  30  55  84 120 155 199 227 288 361
#     4   9  16  31  55  87 118 160 192 229 287 369
#     4   9  20  36  58  86 122 155 200 235 289 355
#     4  12  19  35  58  85 115 157 193 247 295 359
#     4  12  20  37  61  83 119 160 201 241 304 357
#     4   9  20  37  56  86 116 163 198 239 285 361
#
# _framework density 20.589269000000002
#
# number of rings (size 3 to 8) (size 9 to 14) (size 15 to 20)
#    0.000    1.750    3.750    3.375    1.750    0.000 
#    0.000    0.625    0.000    0.750    6.500    0.000 
#    0.000    0.000    0.000    0.000    0.000    0.000 
#
# Total GULP energy -793090.539252 kJ/mol
# GULP energy per Si atom -12392.039676 kJ/mol
# Density = 2.054241 g / cm^3
# Si number density = 20.589269 Si / 1000 Ang^3
#
#
#
# Elastic Constant Matrix: (Units=GPa)
#
#
# Indices 1 2 3 4 5 6 
#
# 1 110.1775 28.6883 35.7156 0.0000 0.0000 0.0000
# 2 28.6883 39.7709 22.3809 0.0000 0.0000 0.0000
# 3 35.7156 22.3809 72.9088 0.0000 0.0000 0.0000
# 4 0.0000 0.0000 0.0000 21.4774 0.0000 0.0000
# 5 0.0000 0.0000 0.0000 0.0000 40.5532 0.0000
# 6 0.0000 0.0000 0.0000 0.0000 0.0000 18.9688
#
#
#
# Elastic Compliance Matrix: (Units=1/GPa)
#
#
# Indices 1 2 3 4 5 6 
#
# 1 0.012029 -0.006480 -0.003903 0.000000 0.000000 0.000000
# 2 -0.006480 0.033886 -0.007227 0.000000 0.000000 0.000000
# 3 -0.003903 -0.007227 0.017846 0.000000 0.000000 0.000000
# 4 0.000000 0.000000 0.000000 0.046561 0.000000 0.000000
# 5 0.000000 0.000000 0.000000 0.000000 0.024659 0.000000
# 6 0.000000 0.000000 0.000000 0.000000 0.000000 0.052718
#
#
# Mechanical properties :
#
#
# Convention : Reuss Voigt Hill
#
# Bulk Modulus (GPa) = 35.03978 44.04741 39.54360
# Shear Modulus (GPa) = 21.51149 25.27138 23.39144
#
# Velocity S-wave (km/s) = 3.23583 3.50724 3.37426
# Velocity P-wave (km/s) = 5.56922 6.15148 5.86758
#
# Compressibility (1/GPa) = 0.02853899
#
# Stress axis : x y z
#
# Youngs Moduli (GPa) = 83.13273 29.51094 56.03349
#
# Poissons Ratio (x) = 0.19124 0.21872
# Poissons Ratio (y) = 0.53873 0.40498
# Poissons Ratio (z) = 0.32449 0.21329
#
# Static dielectric constant tensor:
#      x y z
#    x 3.609150 0.000000 0.000000 
#    y 0.000000 3.413950 0.000000 
#    z 0.000000 0.000000 3.869470 
# 
# 
# High freq. dielectric constant tensor:
#      x y z
#    x 1.786190 0.000000 0.000000 
#    y 0.000000 1.776890 0.000000 
#    z 0.000000 0.000000 1.803520 
# 
# From -- ./inp_files/11355.got.cif
#   From: 2010.03.12/outbox.cif.g09.slc.cpg/sg60_6_cif.got.tgz:11355.got - 2010.04.10 18:46:24.
