data_PCOD8248593
_publ_section_title
;
Structure prediction by ZEFSAII (Michael W. Deem and Ramdas Pophale) SiO2 
 PCOD8248593
Probable space group: P B C N
;
_chemical_formula_sum "Si O2"
_cell_formula_units_Z 28
_cell_length_a 11.728469
_cell_length_b 4.848207
_cell_length_c 19.120091
_cell_angle_alpha 90.000000
_cell_angle_beta 90.000000
_cell_angle_gamma 90.000000
_cell_volume 1087.207485
_symmetry_space_group_name_H-M "P B C N"
_symmetry_group_IT_number 60
_symmetry_cell_setting 'orthorhombic'
loop_
_space_group_symop_operation_xyz
x,y,z
1/2-x,1/2-y,1/2+z
1/2+x,1/2-y,-z
-x,y,1/2-z
-x,-y,-z
1/2+x,1/2+y,1/2-z
1/2-x,1/2+y,z
x,-y,1/2+z
loop_
_atom_site_type_symbol
_atom_site_label
_atom_site_fract_x
_atom_site_fract_y
_atom_site_fract_z
Si Si1 0.500000 0.284688 0.750000
Si Si2 0.171227 0.671827 0.997809
Si Si3 0.829253 0.974864 0.162949
Si Si4 0.501450 0.937502 0.609307
O O1 0.611259 0.484876 0.739524
O O2 0.482249 0.092967 0.682405
O O3 0.280410 0.477098 0.985099
O O4 0.070369 0.641910 0.941742
O O5 0.121540 0.629509 0.075642
O O6 0.717786 0.786524 0.150922
O O7 0.932154 0.854465 0.116073
#
# Coordination Sequence:
#
# PCOD8248593 Si02
#       4
#     4   8   8   8
#     4  12  28  48  76 122 148 204 256 322 386 466
#     4  11  28  49  80 112 153 209 261 323 383 455
#     4  12  26  46  74 109 153 200 244 309 388 456
#     4  11  27  51  79 114 159 199 270 313 392 471
#
# _framework density 25.754054
#
# number of rings (size 3 to 8) (size 9 to 14) (size 15 to 20)
#    0.000    0.571    2.857    2.571    8.000    4.571 
#    0.000    0.000    0.000    0.000    0.000    0.000 
#    0.000    0.000    0.000    0.000    0.000    0.000 
#
# Total GULP energy -346887.541785 kJ/mol
# GULP energy per Si atom -12388.840778 kJ/mol
# Density = 2.569544 g / cm^3
# Si number density = 25.754054 Si / 1000 Ang^3
#
#
#
# Elastic Constant Matrix: (Units=GPa)
#
#
# Indices 1 2 3 4 5 6 
#
# 1 67.9867 40.2901 17.1302 0.0000 0.0000 0.0000
# 2 40.2901 129.0721 43.8069 0.0000 0.0000 0.0000
# 3 17.1302 43.8069 125.3589 0.0000 0.0000 0.0000
# 4 0.0000 0.0000 0.0000 36.2815 0.0000 0.0000
# 5 0.0000 0.0000 0.0000 0.0000 52.3206 0.0000
# 6 0.0000 0.0000 0.0000 0.0000 0.0000 35.4080
#
#
#
# Elastic Compliance Matrix: (Units=1/GPa)
#
#
# Indices 1 2 3 4 5 6 
#
# 1 0.018083 -0.005453 -0.000566 0.000000 0.000000 0.000000
# 2 -0.005453 0.010434 -0.002901 0.000000 0.000000 0.000000
# 3 -0.000566 -0.002901 0.009068 0.000000 0.000000 0.000000
# 4 0.000000 0.000000 0.000000 0.027562 0.000000 0.000000
# 5 0.000000 0.000000 0.000000 0.000000 0.019113 0.000000
# 6 0.000000 0.000000 0.000000 0.000000 0.000000 0.028242
#
#
# Mechanical properties :
#
#
# Convention : Reuss Voigt Hill
#
# Bulk Modulus (GPa) = 50.64204 58.31910 54.48057
# Shear Modulus (GPa) = 36.51683 39.54806 38.03245
#
# Velocity S-wave (km/s) = 3.76959 3.92293 3.84703
# Velocity P-wave (km/s) = 6.21714 6.57366 6.39788
#
# Compressibility (1/GPa) = 0.01974644
#
# Stress axis : x y z
#
# Youngs Moduli (GPa) = 55.30196 95.83785 110.27532
#
# Poissons Ratio (x) = 0.52256 0.06237
# Poissons Ratio (y) = 0.30154 0.31993
# Poissons Ratio (z) = 0.03128 0.27804
#
# Static dielectric constant tensor:
#      x y z
#    x 4.875500 0.000000 0.000000 
#    y 0.000000 4.792830 0.000000 
#    z 0.000000 0.000000 5.079560 
# 
# 
# High freq. dielectric constant tensor:
#      x y z
#    x 2.034750 0.000000 0.000000 
#    y 0.000000 2.048730 0.000000 
#    z 0.000000 0.000000 2.029670 
# 
# From -- ./inp_files/20321.got.cif
#   From: 2010.03.12/outbox.cif.g09.slc.cpg/sg60_11_cif.got.tgz:20321.got - 2010.04.10 18:46:24.
