data_PCOD8248240
_publ_section_title
;
Structure prediction by ZEFSAII (Michael W. Deem and Ramdas Pophale) SiO2 
 PCOD8248240
Probable space group: P B C N
;
_chemical_formula_sum "Si O2"
_cell_formula_units_Z 44
_cell_length_a 5.040999
_cell_length_b 16.252890
_cell_length_c 23.857918
_cell_angle_alpha 90.000000
_cell_angle_beta 90.000000
_cell_angle_gamma 90.000000
_cell_volume 1954.698361
_symmetry_space_group_name_H-M "P B C N"
_symmetry_group_IT_number 60
_symmetry_cell_setting 'orthorhombic'
loop_
_space_group_symop_operation_xyz
x,y,z
1/2-x,1/2-y,1/2+z
1/2+x,1/2-y,-z
-x,y,1/2-z
-x,-y,-z
1/2+x,1/2+y,1/2-z
1/2-x,1/2+y,z
x,-y,1/2+z
loop_
_atom_site_type_symbol
_atom_site_label
_atom_site_fract_x
_atom_site_fract_y
_atom_site_fract_z
Si Si1 0.751221 0.555409 0.013173
Si Si2 0.500000 0.615498 0.750000
Si Si3 0.832508 0.779435 0.146306
Si Si4 0.210456 0.496376 0.169471
Si Si5 0.213277 0.094073 0.357458
Si Si6 0.320178 0.848507 0.090369
O O1 0.751472 0.586860 0.076371
O O2 0.500000 0.500000 0.000000
O O3 0.772447 0.638928 0.975941
O O4 0.000000 0.500000 0.000000
O O5 0.651495 0.670380 0.704129
O O6 0.728973 0.558755 0.776331
O O7 0.760151 0.686921 0.162072
O O8 0.615610 0.819645 0.105178
O O9 0.113759 0.781762 0.114335
O O10 0.420176 0.569981 0.162065
O O11 0.234926 0.438868 0.115169
O O12 0.918502 0.534814 0.175050
#
# Coordination Sequence:
#
# PCOD8248240 Si02
#       6
#     8   4   8   8   8   8
#     4  12  22  39  70 101 137 178 219 271 332 401
#     4  10  26  46  68  94 130 188 224 280 356 398
#     4  11  26  42  66  97 141 169 223 285 339 396
#     4  11  23  42  69  93 128 174 232 268 322 406
#     4  12  24  43  67 105 133 169 224 287 326 397
#     4  11  22  42  66  97 136 182 216 262 337 412
#
# _framework density 22.509868000000001
#
# number of rings (size 3 to 8) (size 9 to 14) (size 15 to 20)
#    0.000    0.727    3.636    4.364    0.000    9.455 
#    0.000    0.000    0.000    0.000    0.000    0.000 
#    0.000    0.000    0.000    0.000    0.000    0.000 
#
# Total GULP energy -545852.241355 kJ/mol
# GULP energy per Si atom -12405.732758 kJ/mol
# Density = 2.245863 g / cm^3
# Si number density = 22.509868 Si / 1000 Ang^3
#
#
#
# Elastic Constant Matrix: (Units=GPa)
#
#
# Indices 1 2 3 4 5 6 
#
# 1 103.2234 7.1380 14.8960 0.0000 0.0000 0.0000
# 2 7.1380 101.9862 24.8102 0.0000 0.0000 0.0000
# 3 14.8960 24.8102 105.3430 0.0000 0.0000 0.0000
# 4 0.0000 0.0000 0.0000 27.5377 0.0000 0.0000
# 5 0.0000 0.0000 0.0000 0.0000 32.8363 0.0000
# 6 0.0000 0.0000 0.0000 0.0000 0.0000 39.9434
#
#
#
# Elastic Compliance Matrix: (Units=1/GPa)
#
#
# Indices 1 2 3 4 5 6 
#
# 1 0.009903 -0.000374 -0.001312 0.000000 0.000000 0.000000
# 2 -0.000374 0.010415 -0.002400 0.000000 0.000000 0.000000
# 3 -0.001312 -0.002400 0.010244 0.000000 0.000000 0.000000
# 4 0.000000 0.000000 0.000000 0.036314 0.000000 0.000000
# 5 0.000000 0.000000 0.000000 0.000000 0.030454 0.000000
# 6 0.000000 0.000000 0.000000 0.000000 0.000000 0.025035
#
#
# Mechanical properties :
#
#
# Convention : Reuss Voigt Hill
#
# Bulk Modulus (GPa) = 44.66409 44.91566 44.78987
# Shear Modulus (GPa) = 36.23165 37.64405 36.93785
#
# Velocity S-wave (km/s) = 4.01632 4.09386 4.05527
# Velocity P-wave (km/s) = 6.43373 6.50717 6.47055
#
# Compressibility (1/GPa) = 0.02238935
#
# Stress axis : x y z
#
# Youngs Moduli (GPa) = 100.97998 96.01269 97.62163
#
# Poissons Ratio (x) = 0.03590 0.12811
# Poissons Ratio (y) = 0.03775 0.23430
# Poissons Ratio (z) = 0.13251 0.23044
#
# Static dielectric constant tensor:
#      x y z
#    x 4.166370 0.000000 0.000000 
#    y 0.000000 4.218710 0.000000 
#    z 0.000000 0.000000 4.189420 
# 
# 
# High freq. dielectric constant tensor:
#      x y z
#    x 1.902880 0.000000 0.000000 
#    y 0.000000 1.881620 0.000000 
#    z 0.000000 0.000000 1.891820 
# 
# From -- ./inp_files/24825.got.cif
#   From: 2010.03.12/outbox.cif.g09.slc.cpg/sg60_13_cif.got.tgz:24825.got - 2010.04.10 18:46:24.
