data_PCOD8248794
_publ_section_title
;
Structure prediction by ZEFSAII (Michael W. Deem and Ramdas Pophale) SiO2 
 PCOD8248794
Probable space group: P B C A
;
_chemical_formula_sum "Si O2"
_cell_formula_units_Z 64
_cell_length_a 5.397793
_cell_length_b 21.320002
_cell_length_c 27.138002
_cell_angle_alpha 90.000000
_cell_angle_beta 90.000000
_cell_angle_gamma 90.000000
_cell_volume 3123.067256
_symmetry_space_group_name_H-M "P B C A"
_symmetry_group_IT_number 61
_symmetry_cell_setting 'orthorhombic'
loop_
_space_group_symop_operation_xyz
x,y,z
1/2-x,-y,1/2+z
1/2+x,1/2-y,-z
-x,1/2+y,1/2-z
-x,-y,-z
1/2+x,y,1/2-z
1/2-x,1/2+y,z
x,1/2-y,1/2+z
loop_
_atom_site_type_symbol
_atom_site_label
_atom_site_fract_x
_atom_site_fract_y
_atom_site_fract_z
Si Si1 0.845813 0.679395 0.947678
Si Si2 0.040653 0.745226 0.125203
Si Si3 0.112080 0.713456 0.232194
Si Si4 0.841675 0.849993 0.555386
Si Si5 0.219270 0.640647 0.873663
Si Si6 0.457448 0.353030 0.271449
Si Si7 0.991818 0.440981 0.435837
Si Si8 0.659752 0.426785 0.957229
O O1 0.728988 0.738774 0.919257
O O2 0.706016 0.614179 0.939729
O O3 0.116104 0.669968 0.924498
O O4 0.860014 0.692861 0.005931
O O5 0.170845 0.717114 0.173799
O O6 0.846674 0.695313 0.102765
O O7 0.918846 0.809008 0.145662
O O8 0.347443 0.678225 0.257686
O O9 0.050934 0.779479 0.259241
O O10 0.079845 0.895876 0.557693
O O11 0.580411 0.885876 0.557464
O O12 0.018396 0.633952 0.830220
O O13 0.340097 0.573661 0.887699
O O14 0.702331 0.384917 0.247967
O O15 0.163489 0.441869 0.484617
O O16 0.856957 0.507316 0.428035
#
# Coordination Sequence:
#
# PCOD8248794 Si02
#       8
#     8   8   8   8   8   8   8   8
#     4  10  22  34  54  84 120 153 190 230 293 351
#     4  11  24  34  55  85 123 155 188 231 295 366
#     4  10  19  35  54  78 109 146 187 236 283 338
#     4  11  25  38  56  82 120 164 193 233 278 341
#     4  11  20  34  57  85 115 149 191 232 301 354
#     4  10  19  33  51  77 114 140 178 233 285 347
#     4   9  21  36  60  82 108 154 196 250 280 330
#     4  10  22  42  57  80 115 153 208 238 273 327
#
# _framework density 20.492674000000001
#
# number of rings (size 3 to 8) (size 9 to 14) (size 15 to 20)
#    0.000    1.750    3.750    1.500    7.000    1.500 
#    0.000    0.000    0.000    0.000    0.000    5.250 
#    0.000    0.000    0.000    0.000    0.000    0.000 
#
# Total GULP energy -793180.547986 kJ/mol
# GULP energy per Si atom -12393.446062 kJ/mol
# Density = 2.044603 g / cm^3
# Si number density = 20.492674 Si / 1000 Ang^3
#
#
#
# Elastic Constant Matrix: (Units=GPa)
#
#
# Indices 1 2 3 4 5 6 
#
# 1 98.5208 2.7163 5.3947 0.0000 0.0000 0.0000
# 2 2.7163 38.2039 19.4575 0.0000 0.0000 0.0000
# 3 5.3947 19.4575 87.7928 0.0000 0.0000 0.0000
# 4 0.0000 0.0000 0.0000 15.1657 0.0000 0.0000
# 5 0.0000 0.0000 0.0000 0.0000 30.0407 0.0000
# 6 0.0000 0.0000 0.0000 0.0000 0.0000 17.3197
#
#
#
# Elastic Compliance Matrix: (Units=1/GPa)
#
#
# Indices 1 2 3 4 5 6 
#
# 1 0.010191 -0.000457 -0.000525 0.000000 0.000000 0.000000
# 2 -0.000457 0.029526 -0.006516 0.000000 0.000000 0.000000
# 3 -0.000525 -0.006516 0.012867 0.000000 0.000000 0.000000
# 4 0.000000 0.000000 0.000000 0.065938 0.000000 0.000000
# 5 0.000000 0.000000 0.000000 0.000000 0.033288 0.000000
# 6 0.000000 0.000000 0.000000 0.000000 0.000000 0.057738
#
#
# Mechanical properties :
#
#
# Convention : Reuss Voigt Hill
#
# Bulk Modulus (GPa) = 26.60377 31.07272 28.83825
# Shear Modulus (GPa) = 21.09044 25.63517 23.36280
#
# Velocity S-wave (km/s) = 3.21155 3.54070 3.38014
# Velocity P-wave (km/s) = 5.17323 5.64900 5.41634
#
# Compressibility (1/GPa) = 0.03758865
#
# Stress axis : x y z
#
# Youngs Moduli (GPa) = 98.12108 33.86803 77.71932
#
# Poissons Ratio (x) = 0.01549 0.04079
# Poissons Ratio (y) = 0.04487 0.50641
# Poissons Ratio (z) = 0.05150 0.22068
#
# Static dielectric constant tensor:
#      x y z
#    x 4.240150 0.000000 0.000000 
#    y 0.000000 3.321060 0.000000 
#    z 0.000000 0.000000 3.727660 
# 
# 
# High freq. dielectric constant tensor:
#      x y z
#    x 1.817040 0.000000 0.000000 
#    y 0.000000 1.739520 0.000000 
#    z 0.000000 0.000000 1.796280 
# 
# From -- ./inp_files/1110.got.cif
#   From: 2010.03.12/outbox.cif.g09.slc.cpg/sg61_1_cif.got.tgz:1110.got - 2010.04.10 19:05:03.
