data_PCOD8248983
_publ_section_title
;
Structure prediction by ZEFSAII (Michael W. Deem and Ramdas Pophale) SiO2 
 PCOD8248983
Probable space group: P B C A
;
_chemical_formula_sum "Si O2"
_cell_formula_units_Z 48
_cell_length_a 14.916616
_cell_length_b 18.585865
_cell_length_c 8.739118
_cell_angle_alpha 90.000000
_cell_angle_beta 90.000000
_cell_angle_gamma 90.000000
_cell_volume 2422.817442
_symmetry_space_group_name_H-M "P B C A"
_symmetry_group_IT_number 61
_symmetry_cell_setting 'orthorhombic'
loop_
_space_group_symop_operation_xyz
x,y,z
1/2-x,-y,1/2+z
1/2+x,1/2-y,-z
-x,1/2+y,1/2-z
-x,-y,-z
1/2+x,y,1/2-z
1/2-x,1/2+y,z
x,1/2-y,1/2+z
loop_
_atom_site_type_symbol
_atom_site_label
_atom_site_fract_x
_atom_site_fract_y
_atom_site_fract_z
Si Si1 0.259857 0.906196 0.191085
Si Si2 0.104997 0.160067 0.194805
Si Si3 0.597723 0.190341 0.658871
Si Si4 0.255533 0.943942 0.838631
Si Si5 0.598730 0.843030 0.705120
Si Si6 0.393206 0.298831 0.135733
O O1 0.352028 0.867830 0.237517
O O2 0.177208 0.851939 0.215246
O O3 0.241468 0.971963 0.304569
O O4 0.269723 0.933190 0.018304
O O5 0.129343 0.229526 0.296419
O O6 0.167142 0.094484 0.242595
O O7 0.003943 0.133459 0.226269
O O8 0.120752 0.178930 0.018057
O O9 0.492431 0.180974 0.695917
O O10 0.159496 0.913709 0.782996
O O11 0.613003 0.803547 0.544988
O O12 0.629477 0.784274 0.829402
#
# Coordination Sequence:
#
# PCOD8248983 Si02
#       6
#     8   8   8   8   8   8
#     4  11  23  38  55  80 112 148 184 224 273 326
#     4  10  20  37  59  83 109 141 180 225 271 322
#     4  10  20  37  59  83 109 141 180 225 271 322
#     4  11  23  38  55  80 112 148 184 224 273 326
#     4   9  20  37  58  81 108 141 180 223 271 322
#     4   9  20  37  58  81 108 141 180 223 271 322
#
# _framework density 19.811644999999999
#
# number of rings (size 3 to 8) (size 9 to 14) (size 15 to 20)
#    0.000    2.000    0.000    3.000    0.000    8.000 
#    0.000    6.667    0.000    0.000    0.000    0.000 
#    0.000    0.000    0.000    0.000    0.000    0.000 
#
# Total GULP energy -595433.637982 kJ/mol
# GULP energy per Si atom -12404.867458 kJ/mol
# Density = 1.976655 g / cm^3
# Si number density = 19.811645 Si / 1000 Ang^3
#
#
#
# Elastic Constant Matrix: (Units=GPa)
#
#
# Indices 1 2 3 4 5 6 
#
# 1 75.6323 21.0657 26.8605 0.0000 0.0000 0.0000
# 2 21.0657 41.5191 3.8513 0.0000 0.0000 0.0000
# 3 26.8605 3.8513 43.9208 0.0000 0.0000 0.0000
# 4 0.0000 0.0000 0.0000 36.9326 0.0000 0.0000
# 5 0.0000 0.0000 0.0000 0.0000 31.2445 0.0000
# 6 0.0000 0.0000 0.0000 0.0000 0.0000 21.8542
#
#
#
# Elastic Compliance Matrix: (Units=1/GPa)
#
#
# Indices 1 2 3 4 5 6 
#
# 1 0.019722 -0.008961 -0.011276 0.000000 0.000000 0.000000
# 2 -0.008961 0.028354 0.002994 0.000000 0.000000 0.000000
# 3 -0.011276 0.002994 0.029402 0.000000 0.000000 0.000000
# 4 0.000000 0.000000 0.000000 0.027076 0.000000 0.000000
# 5 0.000000 0.000000 0.000000 0.000000 0.032006 0.000000
# 6 0.000000 0.000000 0.000000 0.000000 0.000000 0.045758
#
#
# Mechanical properties :
#
#
# Convention : Reuss Voigt Hill
#
# Bulk Modulus (GPa) = 23.25983 29.40301 26.33142
# Shear Modulus (GPa) = 21.63253 25.29256 23.46254
#
# Velocity S-wave (km/s) = 3.30799 3.57690 3.44507
# Velocity P-wave (km/s) = 5.13385 5.65088 5.39856
#
# Compressibility (1/GPa) = 0.04299257
#
# Stress axis : x y z
#
# Youngs Moduli (GPa) = 50.70444 35.26847 34.01175
#
# Poissons Ratio (x) = 0.31602 0.38351
# Poissons Ratio (y) = 0.45434 -0.10182
# Poissons Ratio (z) = 0.57173 -0.10558
#
# Static dielectric constant tensor:
#      x y z
#    x 3.825080 0.000000 0.000000 
#    y 0.000000 3.554180 0.000000 
#    z 0.000000 0.000000 3.618290 
# 
# 
# High freq. dielectric constant tensor:
#      x y z
#    x 1.783550 0.000000 0.000000 
#    y 0.000000 1.764180 0.000000 
#    z 0.000000 0.000000 1.778950 
# 
# From -- ./inp_files/2822.got.cif
#   From: 2010.03.12/outbox.cif.g09.slc.cpg/sg61_2_cif.got.tgz:2822.got - 2010.04.10 19:05:03.
