data_PCOD8248552
_publ_section_title
;
Structure prediction by ZEFSAII (Michael W. Deem and Ramdas Pophale) SiO2 
 PCOD8248552
Probable space group: P B C N
;
_chemical_formula_sum "Si O2"
_cell_formula_units_Z 36
_cell_length_a 8.728060
_cell_length_b 22.624091
_cell_length_c 7.965071
_cell_angle_alpha 90.000000
_cell_angle_beta 90.000000
_cell_angle_gamma 90.000000
_cell_volume 1572.818155
_symmetry_space_group_name_H-M "P B C N"
_symmetry_group_IT_number 60
_symmetry_cell_setting 'orthorhombic'
loop_
_space_group_symop_operation_xyz
x,y,z
1/2-x,1/2-y,1/2+z
1/2+x,1/2-y,-z
-x,y,1/2-z
-x,-y,-z
1/2+x,1/2+y,1/2-z
1/2-x,1/2+y,z
x,-y,1/2+z
loop_
_atom_site_type_symbol
_atom_site_label
_atom_site_fract_x
_atom_site_fract_y
_atom_site_fract_z
Si Si1 0.547181 0.288838 0.514537
Si Si2 0.666724 0.474729 0.541001
Si Si3 0.321458 0.076529 0.781138
Si Si4 0.762119 0.793311 0.192261
Si Si5 0.500000 0.608014 0.250000
O O1 0.399066 0.264215 0.417475
O O2 0.689593 0.294122 0.386639
O O3 0.610016 0.246777 0.664746
O O4 0.485798 0.351309 0.585357
O O5 0.500000 0.500000 0.500000
O O6 0.728304 0.435150 0.389286
O O7 0.783334 0.527358 0.579887
O O8 0.647730 0.433698 0.709236
O O9 0.500000 0.074854 0.750000
O O10 0.274968 0.139531 0.859368
#
# Coordination Sequence:
#
# PCOD8248552 Si02
#       5
#     8   8   8   8   4
#     4  11  25  44  71 106 143 191 252 305 378 452
#     4  12  24  45  74 107 144 200 250 300 370 466
#     4  12  27  46  72 109 153 191 248 320 385 442
#     4  11  26  45  71 104 145 192 246 315 379 453
#     4  12  22  40  76 100 140 188 252 290 366 456
#
# _framework density 22.888850000000001
#
# number of rings (size 3 to 8) (size 9 to 14) (size 15 to 20)
#    0.000    0.444    4.444    3.333    7.778    0.000 
#    0.000    0.000    0.000    0.000    0.000    0.000 
#    0.000    0.000    0.000    0.000    0.000    0.000 
#
# Total GULP energy -446231.276020 kJ/mol
# GULP energy per Si atom -12395.313223 kJ/mol
# Density = 2.283675 g / cm^3
# Si number density = 22.888850 Si / 1000 Ang^3
#
#
#
# Elastic Constant Matrix: (Units=GPa)
#
#
# Indices 1 2 3 4 5 6 
#
# 1 131.2653 56.6797 51.7745 0.0000 0.0000 0.0000
# 2 56.6797 127.3963 21.7275 0.0000 0.0000 0.0000
# 3 51.7745 21.7275 74.6869 0.0000 0.0000 0.0000
# 4 0.0000 0.0000 0.0000 41.4558 0.0000 0.0000
# 5 0.0000 0.0000 0.0000 0.0000 53.1418 0.0000
# 6 0.0000 0.0000 0.0000 0.0000 0.0000 35.1635
#
#
#
# Elastic Compliance Matrix: (Units=1/GPa)
#
#
# Indices 1 2 3 4 5 6 
#
# 1 0.012335 -0.004240 -0.007318 0.000000 0.000000 0.000000
# 2 -0.004240 0.009717 0.000113 0.000000 0.000000 0.000000
# 3 -0.007318 0.000113 0.018429 0.000000 0.000000 0.000000
# 4 0.000000 0.000000 0.000000 0.024122 0.000000 0.000000
# 5 0.000000 0.000000 0.000000 0.000000 0.018818 0.000000
# 6 0.000000 0.000000 0.000000 0.000000 0.000000 0.028439
#
#
# Mechanical properties :
#
#
# Convention : Reuss Voigt Hill
#
# Bulk Modulus (GPa) = 56.84707 65.96798 61.40752
# Shear Modulus (GPa) = 35.55856 39.49668 37.52762
#
# Velocity S-wave (km/s) = 3.94576 4.15852 4.05354
# Velocity P-wave (km/s) = 6.75639 7.20703 6.98535
#
# Compressibility (1/GPa) = 0.01759106
#
# Stress axis : x y z
#
# Youngs Moduli (GPa) = 81.06869 102.91506 54.26185
#
# Poissons Ratio (x) = 0.43636 0.39706
# Poissons Ratio (y) = 0.34373 -0.00611
# Poissons Ratio (z) = 0.59322 -0.01158
#
# Static dielectric constant tensor:
#      x y z
#    x 3.909440 0.000000 0.000000 
#    y 0.000000 4.313870 0.000000 
#    z 0.000000 0.000000 3.976350 
# 
# 
# High freq. dielectric constant tensor:
#      x y z
#    x 1.898970 0.000000 0.000000 
#    y 0.000000 1.907420 0.000000 
#    z 0.000000 0.000000 1.913030 
# 
# From -- ./inp_files/3715.got.cif
#   From: 2010.03.12/outbox.cif.g09.slc.cpg/sg60_2_cif.got.tgz:3715.got - 2010.04.10 18:46:24.
