data_PCOD8248236
_publ_section_title
;
Structure prediction by ZEFSAII (Michael W. Deem and Ramdas Pophale) SiO2 
 PCOD8248236
Probable space group: P B C N
;
_chemical_formula_sum "Si O2"
_cell_formula_units_Z 40
_cell_length_a 11.965170
_cell_length_b 7.608952
_cell_length_c 17.637207
_cell_angle_alpha 90.000000
_cell_angle_beta 90.000000
_cell_angle_gamma 90.000000
_cell_volume 1605.733729
_symmetry_space_group_name_H-M "P B C N"
_symmetry_group_IT_number 60
_symmetry_cell_setting 'orthorhombic'
loop_
_space_group_symop_operation_xyz
x,y,z
1/2-x,1/2-y,1/2+z
1/2+x,1/2-y,-z
-x,y,1/2-z
-x,-y,-z
1/2+x,1/2+y,1/2-z
1/2-x,1/2+y,z
x,-y,1/2+z
loop_
_atom_site_type_symbol
_atom_site_label
_atom_site_fract_x
_atom_site_fract_y
_atom_site_fract_z
Si Si1 0.919725 0.069269 0.317382
Si Si2 0.964781 0.351811 0.941272
Si Si3 0.684064 0.813947 0.808273
Si Si4 0.335892 0.948211 0.859281
Si Si5 0.106570 0.825829 0.918410
O O1 0.816150 0.203837 0.324644
O O2 0.000000 0.130052 0.250000
O O3 0.994181 0.072906 0.393055
O O4 0.870249 0.877029 0.302164
O O5 0.875301 0.416174 0.878126
O O6 0.079840 0.303365 0.896476
O O7 0.908002 0.196439 0.990619
O O8 0.000000 0.500000 0.000000
O O9 0.668272 0.919148 0.730329
O O10 0.215484 0.940097 0.899335
O O11 0.384059 0.142054 0.873302
#
# Coordination Sequence:
#
# PCOD8248236 Si02
#       5
#     8   8   8   8   8
#     4  12  28  47  74 115 145 197 256 316 378 456
#     4  10  26  45  74 109 149 201 248 307 385 449
#     4  12  27  48  79 109 150 199 255 311 383 453
#     4  11  24  49  77 105 154 197 248 319 371 456
#     4  11  27  46  75 111 151 193 253 310 385 451
#
# _framework density 24.910729
#
# number of rings (size 3 to 8) (size 9 to 14) (size 15 to 20)
#    0.000    0.800    2.000    3.000   11.200    2.400 
#    0.000    0.000    0.000    0.000    0.000    0.000 
#    0.000    0.000    0.000    0.000    0.000    0.000 
#
# Total GULP energy -495906.465232 kJ/mol
# GULP energy per Si atom -12397.661631 kJ/mol
# Density = 2.485403 g / cm^3
# Si number density = 24.910729 Si / 1000 Ang^3
#
#
#
# Elastic Constant Matrix: (Units=GPa)
#
#
# Indices 1 2 3 4 5 6 
#
# 1 218.2111 28.2838 77.0414 0.0000 0.0000 0.0000
# 2 28.2838 46.8233 -0.4028 0.0000 0.0000 0.0000
# 3 77.0414 -0.4028 139.3742 0.0000 0.0000 0.0000
# 4 0.0000 0.0000 0.0000 27.5876 0.0000 0.0000
# 5 0.0000 0.0000 0.0000 0.0000 51.2112 0.0000
# 6 0.0000 0.0000 0.0000 0.0000 0.0000 39.2280
#
#
#
# Elastic Compliance Matrix: (Units=1/GPa)
#
#
# Indices 1 2 3 4 5 6 
#
# 1 0.006318 -0.003847 -0.003504 0.000000 0.000000 0.000000
# 2 -0.003847 0.023699 0.002195 0.000000 0.000000 0.000000
# 3 -0.003504 0.002195 0.009118 0.000000 0.000000 0.000000
# 4 0.000000 0.000000 0.000000 0.036248 0.000000 0.000000
# 5 0.000000 0.000000 0.000000 0.000000 0.019527 0.000000
# 6 0.000000 0.000000 0.000000 0.000000 0.000000 0.025492
#
#
# Mechanical properties :
#
#
# Convention : Reuss Voigt Hill
#
# Bulk Modulus (GPa) = 34.69258 68.25036 51.47147
# Shear Modulus (GPa) = 35.63227 43.57111 39.60169
#
# Velocity S-wave (km/s) = 3.78616 4.18675 3.99149
# Velocity P-wave (km/s) = 5.75069 7.12947 6.47687
#
# Compressibility (1/GPa) = 0.02882460
#
# Stress axis : x y z
#
# Youngs Moduli (GPa) = 158.26970 42.19509 109.67330
#
# Poissons Ratio (x) = 0.16231 0.38426
# Poissons Ratio (y) = 0.60883 -0.24072
# Poissons Ratio (z) = 0.55453 -0.09261
#
# Static dielectric constant tensor:
#      x y z
#    x 5.368340 0.000000 0.000000 
#    y 0.000000 4.253930 0.000000 
#    z 0.000000 0.000000 5.098930 
# 
# 
# High freq. dielectric constant tensor:
#      x y z
#    x 2.012690 0.000000 0.000000 
#    y 0.000000 1.974330 0.000000 
#    z 0.000000 0.000000 2.007230 
# 
# From -- ./inp_files/19864.got.cif
#   From: 2010.03.12/outbox.cif.g09.slc.cpg/sg60_10_cif.got.tgz:19864.got - 2010.04.10 18:46:24.
