data_PCOD8248576
_publ_section_title
;
Structure prediction by ZEFSAII (Michael W. Deem and Ramdas Pophale) SiO2 
 PCOD8248576
Probable space group: P B C N
;
_chemical_formula_sum "Si O2"
_cell_formula_units_Z 48
_cell_length_a 9.047653
_cell_length_b 12.274288
_cell_length_c 18.562641
_cell_angle_alpha 90.000000
_cell_angle_beta 90.000000
_cell_angle_gamma 90.000000
_cell_volume 2061.446227
_symmetry_space_group_name_H-M "P B C N"
_symmetry_group_IT_number 60
_symmetry_cell_setting 'orthorhombic'
loop_
_space_group_symop_operation_xyz
x,y,z
1/2-x,1/2-y,1/2+z
1/2+x,1/2-y,-z
-x,y,1/2-z
-x,-y,-z
1/2+x,1/2+y,1/2-z
1/2-x,1/2+y,z
x,-y,1/2+z
loop_
_atom_site_type_symbol
_atom_site_label
_atom_site_fract_x
_atom_site_fract_y
_atom_site_fract_z
Si Si1 0.613091 0.344876 0.003420
Si Si2 0.379917 0.052840 0.672025
Si Si3 0.081082 0.317726 0.424507
Si Si4 0.500000 0.849233 0.750000
Si Si5 0.566474 0.531905 0.890150
Si Si6 0.500000 0.577004 0.250000
Si Si7 0.206200 0.743926 0.779354
O O1 0.554839 0.232774 0.969337
O O2 0.571296 0.435025 0.946153
O O3 0.788054 0.346059 0.019625
O O4 0.523383 0.366689 0.077072
O O5 0.514047 0.079652 0.617884
O O6 0.231103 0.067635 0.627670
O O7 0.355067 0.132104 0.742153
O O8 0.415026 0.928917 0.694442
O O9 0.147853 0.242049 0.361194
O O10 0.382033 0.762977 0.782119
O O11 0.475615 0.498808 0.819069
O O12 0.358858 0.653726 0.234664
#
# Coordination Sequence:
#
# PCOD8248576 Si02
#       7
#     8   8   8   4   8   4   8
#     4  11  27  45  70 104 143 195 238 295 373 442
#     4  12  25  46  72 108 148 189 246 316 359 437
#     4  12  25  47  70 100 149 192 242 304 365 442
#     4  12  27  41  74 118 146 188 243 309 376 426
#     4  11  26  44  72 105 141 190 242 294 372 438
#     4  12  21  45  76  94 148 182 237 305 360 434
#     4  12  25  45  73 112 145 188 246 309 369 432
#
# _framework density 23.284625999999999
#
# number of rings (size 3 to 8) (size 9 to 14) (size 15 to 20)
#    0.000    0.333    6.667    1.000    7.000    2.000 
#    0.000    0.000    0.000    0.000    0.000    0.000 
#    0.000    0.000    0.000    0.000    0.000    0.000 
#
# Total GULP energy -594947.620646 kJ/mol
# GULP energy per Si atom -12394.742097 kJ/mol
# Density = 2.323163 g / cm^3
# Si number density = 23.284626 Si / 1000 Ang^3
#
#
#
# Elastic Constant Matrix: (Units=GPa)
#
#
# Indices 1 2 3 4 5 6 
#
# 1 125.5428 9.2701 14.2357 0.0000 0.0000 0.0000
# 2 9.2701 32.5463 10.0939 0.0000 0.0000 0.0000
# 3 14.2357 10.0939 88.6941 0.0000 0.0000 0.0000
# 4 0.0000 0.0000 0.0000 32.3171 0.0000 0.0000
# 5 0.0000 0.0000 0.0000 0.0000 50.1855 0.0000
# 6 0.0000 0.0000 0.0000 0.0000 0.0000 32.5698
#
#
#
# Elastic Compliance Matrix: (Units=1/GPa)
#
#
# Indices 1 2 3 4 5 6 
#
# 1 0.008238 -0.002007 -0.001094 0.000000 0.000000 0.000000
# 2 -0.002007 0.032339 -0.003358 0.000000 0.000000 0.000000
# 3 -0.001094 -0.003358 0.011832 0.000000 0.000000 0.000000
# 4 0.000000 0.000000 0.000000 0.030943 0.000000 0.000000
# 5 0.000000 0.000000 0.000000 0.000000 0.019926 0.000000
# 6 0.000000 0.000000 0.000000 0.000000 0.000000 0.030703
#
#
# Mechanical properties :
#
#
# Convention : Reuss Voigt Hill
#
# Bulk Modulus (GPa) = 25.32241 34.88693 30.10467
# Shear Modulus (GPa) = 31.23769 37.22672 34.23221
#
# Velocity S-wave (km/s) = 3.66670 4.00280 3.83843
# Velocity P-wave (km/s) = 5.36890 6.03146 5.70980
#
# Compressibility (1/GPa) = 0.03949071
#
# Stress axis : x y z
#
# Youngs Moduli (GPa) = 121.39406 30.92274 84.51345
#
# Poissons Ratio (x) = 0.06206 0.09244
# Poissons Ratio (y) = 0.24365 0.28381
# Poissons Ratio (z) = 0.13277 0.10384
#
# Static dielectric constant tensor:
#      x y z
#    x 4.380110 0.000000 0.000000 
#    y 0.000000 3.938420 0.000000 
#    z 0.000000 0.000000 4.388140 
# 
# 
# High freq. dielectric constant tensor:
#      x y z
#    x 1.938170 0.000000 0.000000 
#    y 0.000000 1.903950 0.000000 
#    z 0.000000 0.000000 1.924960 
# 
# From -- ./inp_files/19346.got.cif
#   From: 2010.03.12/outbox.cif.g09.slc.cpg/sg60_10_cif.got.tgz:19346.got - 2010.04.10 18:46:24.
