data_PCOD8248655
_publ_section_title
;
Structure prediction by ZEFSAII (Michael W. Deem and Ramdas Pophale) SiO2 
 PCOD8248655
Probable space group: P B C N
;
_chemical_formula_sum "Si O2"
_cell_formula_units_Z 48
_cell_length_a 18.121141
_cell_length_b 8.762277
_cell_length_c 13.092574
_cell_angle_alpha 90.000000
_cell_angle_beta 90.000000
_cell_angle_gamma 90.000000
_cell_volume 2078.871068
_symmetry_space_group_name_H-M "P B C N"
_symmetry_group_IT_number 60
_symmetry_cell_setting 'orthorhombic'
loop_
_space_group_symop_operation_xyz
x,y,z
1/2-x,1/2-y,1/2+z
1/2+x,1/2-y,-z
-x,y,1/2-z
-x,-y,-z
1/2+x,1/2+y,1/2-z
1/2-x,1/2+y,z
x,-y,1/2+z
loop_
_atom_site_type_symbol
_atom_site_label
_atom_site_fract_x
_atom_site_fract_y
_atom_site_fract_z
Si Si1 0.168057 0.945603 0.431098
Si Si2 0.684952 0.456889 0.843693
Si Si3 0.427614 0.896343 0.486037
Si Si4 0.336609 0.199700 0.171802
Si Si5 0.684588 0.893673 0.613671
Si Si6 0.426133 0.643752 0.310310
O O1 0.150172 0.993860 0.546323
O O2 0.190650 0.771620 0.434787
O O3 0.231970 0.045612 0.375470
O O4 0.092763 0.988324 0.371773
O O5 0.764383 0.386222 0.869658
O O6 0.684140 0.626930 0.793743
O O7 0.637880 0.335471 0.776069
O O8 0.404821 0.810852 0.591613
O O9 0.434836 0.783676 0.389218
O O10 0.500000 0.000000 0.500000
O O11 0.359571 0.006140 0.465755
O O12 0.357124 0.112408 0.277185
O O13 0.500000 0.613955 0.250000
#
# Coordination Sequence:
#
# PCOD8248655 Si02
#       6
#     8   8   8   8   8   8
#     4  12  24  48  75 115 144 195 254 313 381 451
#     4  12  26  45  79 110 147 191 254 317 376 455
#     4  12  31  50  72 111 154 204 255 315 388 464
#     4  12  25  46  77 112 147 196 252 315 384 449
#     4  12  25  45  78 108 149 190 253 312 370 459
#     4  12  29  49  73 107 152 197 253 315 388 463
#
# _framework density 23.089455000000001
#
# number of rings (size 3 to 8) (size 9 to 14) (size 15 to 20)
#    0.000    0.000    6.667    2.000    7.000    2.000 
#    0.000    0.000    0.000    0.000    0.000    0.000 
#    0.000    0.000    0.000    0.000    0.000    0.000 
#
# Total GULP energy -595023.900998 kJ/mol
# GULP energy per Si atom -12396.331271 kJ/mol
# Density = 2.303690 g / cm^3
# Si number density = 23.089455 Si / 1000 Ang^3
#
#
#
# Elastic Constant Matrix: (Units=GPa)
#
#
# Indices 1 2 3 4 5 6 
#
# 1 98.1799 36.4367 29.9951 0.0000 0.0000 0.0000
# 2 36.4367 122.1553 8.4649 0.0000 0.0000 0.0000
# 3 29.9951 8.4649 95.9888 0.0000 0.0000 0.0000
# 4 0.0000 0.0000 0.0000 42.7668 0.0000 0.0000
# 5 0.0000 0.0000 0.0000 0.0000 35.9237 0.0000
# 6 0.0000 0.0000 0.0000 0.0000 0.0000 28.6224
#
#
#
# Elastic Compliance Matrix: (Units=1/GPa)
#
#
# Indices 1 2 3 4 5 6 
#
# 1 0.012594 -0.003505 -0.003626 0.000000 0.000000 0.000000
# 2 -0.003505 0.009212 0.000283 0.000000 0.000000 0.000000
# 3 -0.003626 0.000283 0.011526 0.000000 0.000000 0.000000
# 4 0.000000 0.000000 0.000000 0.023383 0.000000 0.000000
# 5 0.000000 0.000000 0.000000 0.000000 0.027837 0.000000
# 6 0.000000 0.000000 0.000000 0.000000 0.000000 0.034938
#
#
# Mechanical properties :
#
#
# Convention : Reuss Voigt Hill
#
# Bulk Modulus (GPa) = 50.92919 51.79081 51.36000
# Shear Modulus (GPa) = 35.78274 37.55773 36.67024
#
# Velocity S-wave (km/s) = 3.94095 4.03751 3.98952
# Velocity P-wave (km/s) = 6.54319 6.64940 6.59651
#
# Compressibility (1/GPa) = 0.01963511
#
# Stress axis : x y z
#
# Youngs Moduli (GPa) = 79.40178 108.55095 86.75948
#
# Poissons Ratio (x) = 0.38051 0.31462
# Poissons Ratio (y) = 0.27833 -0.02455
# Poissons Ratio (z) = 0.28794 -0.03072
#
# Static dielectric constant tensor:
#      x y z
#    x 4.323450 0.000000 0.000000 
#    y 0.000000 4.103630 0.000000 
#    z 0.000000 0.000000 4.488230 
# 
# 
# High freq. dielectric constant tensor:
#      x y z
#    x 1.888100 0.000000 0.000000 
#    y 0.000000 1.914360 0.000000 
#    z 0.000000 0.000000 1.947700 
# 
# From -- ./inp_files/17317.got.cif
#   From: 2010.03.12/outbox.cif.g09.slc.cpg/sg60_9_cif.got.tgz:17317.got - 2010.04.10 18:46:24.
