data_PCOD8248395
_publ_section_title
;
Structure prediction by ZEFSAII (Michael W. Deem and Ramdas Pophale) SiO2 
 PCOD8248395
Probable space group: P B C N
;
_chemical_formula_sum "Si O2"
_cell_formula_units_Z 60
_cell_length_a 13.430193
_cell_length_b 22.118057
_cell_length_c 8.259150
_cell_angle_alpha 90.000000
_cell_angle_beta 90.000000
_cell_angle_gamma 90.000000
_cell_volume 2453.378643
_symmetry_space_group_name_H-M "P B C N"
_symmetry_group_IT_number 60
_symmetry_cell_setting 'orthorhombic'
loop_
_space_group_symop_operation_xyz
x,y,z
1/2-x,1/2-y,1/2+z
1/2+x,1/2-y,-z
-x,y,1/2-z
-x,-y,-z
1/2+x,1/2+y,1/2-z
1/2-x,1/2+y,z
x,-y,1/2+z
loop_
_atom_site_type_symbol
_atom_site_label
_atom_site_fract_x
_atom_site_fract_y
_atom_site_fract_z
Si Si1 0.099236 0.884297 0.994005
Si Si2 0.500000 0.459325 0.750000
Si Si3 0.899506 0.310112 0.669371
Si Si4 0.310422 0.690815 0.217000
Si Si5 0.890282 0.319048 0.300015
Si Si6 0.737322 0.914806 0.144207
Si Si7 0.911008 0.168626 0.619741
Si Si8 0.299236 0.503641 0.617318
O O1 0.142304 0.831664 0.883712
O O2 0.008160 0.919085 0.909364
O O3 0.031379 0.850293 0.132995
O O4 0.184899 0.935194 0.013048
O O5 0.401890 0.498420 0.718956
O O6 0.806023 0.328590 0.783001
O O7 0.887773 0.338397 0.488921
O O8 0.902245 0.237786 0.667222
O O9 0.000000 0.336211 0.750000
O O10 0.315756 0.763319 0.223203
O O11 0.367219 0.662775 0.064047
O O12 0.857638 0.371830 0.173207
O O13 0.000000 0.297952 0.250000
O O14 0.834500 0.877073 0.215245
O O15 0.718579 0.975678 0.249176
O O16 0.759246 0.941884 0.964597
#
# Coordination Sequence:
#
# PCOD8248395 Si02
#       8
#     8   4   8   8   8   8   8   8
#     4  12  21  38  65 101 142 185 228 277 356 419
#     4  12  20  40  58 104 136 188 226 288 352 422
#     4  11  26  43  69 108 138 186 235 281 345 432
#     4  11  22  42  69 102 144 183 229 281 352 429
#     4  11  26  48  72 101 142 186 233 292 357 418
#     4  12  25  46  66 102 134 191 232 292 354 417
#     4  11  23  38  67 101 146 183 218 287 351 421
#     4  12  25  40  68  96 145 181 240 290 353 422
#
# _framework density 24.45607
#
# number of rings (size 3 to 8) (size 9 to 14) (size 15 to 20)
#    0.000    0.533    5.333    3.600    3.733    2.133 
#    0.000    0.667    0.000    0.800    0.000    0.000 
#    0.000    0.000    0.000    0.000    0.000    0.000 
#
# Total GULP energy -743450.024626 kJ/mol
# GULP energy per Si atom -12390.833744 kJ/mol
# Density = 2.440041 g / cm^3
# Si number density = 24.456070 Si / 1000 Ang^3
#
#
#
# Elastic Constant Matrix: (Units=GPa)
#
#
# Indices 1 2 3 4 5 6 
#
# 1 117.3066 13.3491 34.3016 0.0000 0.0000 0.0000
# 2 13.3491 85.9845 26.5279 0.0000 0.0000 0.0000
# 3 34.3016 26.5279 67.4016 0.0000 0.0000 0.0000
# 4 0.0000 0.0000 0.0000 50.9687 0.0000 0.0000
# 5 0.0000 0.0000 0.0000 0.0000 29.9633 0.0000
# 6 0.0000 0.0000 0.0000 0.0000 0.0000 40.7662
#
#
#
# Elastic Compliance Matrix: (Units=1/GPa)
#
#
# Indices 1 2 3 4 5 6 
#
# 1 0.010015 0.000020 -0.005105 0.000000 0.000000 0.000000
# 2 0.000020 0.013237 -0.005220 0.000000 0.000000 0.000000
# 3 -0.005105 -0.005220 0.019489 0.000000 0.000000 0.000000
# 4 0.000000 0.000000 0.000000 0.019620 0.000000 0.000000
# 5 0.000000 0.000000 0.000000 0.000000 0.033374 0.000000
# 6 0.000000 0.000000 0.000000 0.000000 0.000000 0.024530
#
#
# Mechanical properties :
#
#
# Convention : Reuss Voigt Hill
#
# Bulk Modulus (GPa) = 45.18411 46.56111 45.87261
# Shear Modulus (GPa) = 33.72627 37.44056 35.58341
#
# Velocity S-wave (km/s) = 3.71759 3.91696 3.81858
# Velocity P-wave (km/s) = 6.07808 6.28782 6.18384
#
# Compressibility (1/GPa) = 0.02213167
#
# Stress axis : x y z
#
# Youngs Moduli (GPa) = 99.84971 75.54342 51.31142
#
# Poissons Ratio (x) = -0.00152 0.26193
# Poissons Ratio (y) = -0.00200 0.26786
# Poissons Ratio (z) = 0.50970 0.39435
#
# Static dielectric constant tensor:
#      x y z
#    x 4.132360 0.000000 0.000000 
#    y 0.000000 4.284060 0.000000 
#    z 0.000000 0.000000 4.348050 
# 
# 
# High freq. dielectric constant tensor:
#      x y z
#    x 1.948080 0.000000 0.000000 
#    y 0.000000 1.966480 0.000000 
#    z 0.000000 0.000000 1.997850 
# 
# From -- ./inp_files/6279.got.cif
#   From: 2010.03.12/outbox.cif.g09.slc.cpg/sg60_4_cif.got.tgz:6279.got - 2010.04.10 18:46:24.
