data_PCOD8248279
_publ_section_title
;
Structure prediction by ZEFSAII (Michael W. Deem and Ramdas Pophale) SiO2 
 PCOD8248279
Probable space group: P B C N
;
_chemical_formula_sum "Si O2"
_cell_formula_units_Z 56
_cell_length_a 14.285957
_cell_length_b 19.461854
_cell_length_c 9.345390
_cell_angle_alpha 90.000000
_cell_angle_beta 90.000000
_cell_angle_gamma 90.000000
_cell_volume 2598.310084
_symmetry_space_group_name_H-M "P B C N"
_symmetry_group_IT_number 60
_symmetry_cell_setting 'orthorhombic'
loop_
_space_group_symop_operation_xyz
x,y,z
1/2-x,1/2-y,1/2+z
1/2+x,1/2-y,-z
-x,y,1/2-z
-x,-y,-z
1/2+x,1/2+y,1/2-z
1/2-x,1/2+y,z
x,-y,1/2+z
loop_
_atom_site_type_symbol
_atom_site_label
_atom_site_fract_x
_atom_site_fract_y
_atom_site_fract_z
Si Si1 0.110397 0.516690 0.508403
Si Si2 0.704459 0.071377 0.268477
Si Si3 0.840525 0.743170 0.583975
Si Si4 0.367417 0.269608 0.483849
Si Si5 0.404077 0.796048 0.708361
Si Si6 0.403571 0.149903 0.680052
Si Si7 0.104242 0.870837 0.722867
O O1 0.165592 0.453244 0.578439
O O2 0.153221 0.525905 0.351040
O O3 0.137781 0.583637 0.600951
O O4 0.000000 0.500000 0.500000
O O5 0.681239 0.152519 0.258954
O O6 0.818057 0.068693 0.257706
O O7 0.741622 0.750993 0.505688
O O8 0.912104 0.729619 0.453857
O O9 0.835944 0.678850 0.694434
O O10 0.877153 0.810454 0.663657
O O11 0.396063 0.269636 0.316233
O O12 0.424006 0.209894 0.566331
O O13 0.387778 0.342211 0.560117
O O14 0.500000 0.835932 0.750000
O O15 0.500000 0.126224 0.750000
O O16 0.000000 0.901010 0.750000
#
# Coordination Sequence:
#
# PCOD8248279 Si02
#       7
#     8   8   8   8   8   8   8
#     4  12  26  44  63  93 129 168 213 272 329 384
#     4  12  26  42  65  90 130 166 216 262 318 386
#     4  11  21  36  61  92 129 162 205 254 318 381
#     4  11  20  38  60  92 128 165 204 257 317 381
#     4  12  21  35  59  92 127 159 201 253 311 378
#     4  11  22  37  58  86 123 164 205 249 315 385
#     4  11  23  44  64  92 129 173 213 259 317 382
#
# _framework density 21.552471000000001
#
# number of rings (size 3 to 8) (size 9 to 14) (size 15 to 20)
#    0.000    0.571    4.286    6.429    4.000    0.000 
#    0.000    0.714    0.000    0.000    0.000    0.000 
#    0.000    0.000    0.000    0.000    0.000    0.000 
#
# Total GULP energy -694345.045067 kJ/mol
# GULP energy per Si atom -12399.018662 kJ/mol
# Density = 2.150342 g / cm^3
# Si number density = 21.552471 Si / 1000 Ang^3
#
#
#
# Elastic Constant Matrix: (Units=GPa)
#
#
# Indices 1 2 3 4 5 6 
#
# 1 136.8472 24.5999 29.5278 0.0000 0.0000 0.0000
# 2 24.5999 44.6239 33.0518 0.0000 0.0000 0.0000
# 3 29.5278 33.0518 133.2576 0.0000 0.0000 0.0000
# 4 0.0000 0.0000 0.0000 26.6372 0.0000 0.0000
# 5 0.0000 0.0000 0.0000 0.0000 31.1425 0.0000
# 6 0.0000 0.0000 0.0000 0.0000 0.0000 31.7396
#
#
#
# Elastic Compliance Matrix: (Units=1/GPa)
#
#
# Indices 1 2 3 4 5 6 
#
# 1 0.008189 -0.003884 -0.000851 0.000000 0.000000 0.000000
# 2 -0.003884 0.029295 -0.006405 0.000000 0.000000 0.000000
# 3 -0.000851 -0.006405 0.009282 0.000000 0.000000 0.000000
# 4 0.000000 0.000000 0.000000 0.037541 0.000000 0.000000
# 5 0.000000 0.000000 0.000000 0.000000 0.032110 0.000000
# 6 0.000000 0.000000 0.000000 0.000000 0.000000 0.031506
#
#
# Mechanical properties :
#
#
# Convention : Reuss Voigt Hill
#
# Bulk Modulus (GPa) = 40.84210 54.34309 47.59259
# Shear Modulus (GPa) = 28.03211 33.07382 30.55296
#
# Velocity S-wave (km/s) = 3.61036 3.92161 3.76920
# Velocity P-wave (km/s) = 6.03082 6.76568 6.40879
#
# Compressibility (1/GPa) = 0.02448454
#
# Stress axis : x y z
#
# Youngs Moduli (GPa) = 122.11056 34.13560 107.73994
#
# Poissons Ratio (x) = 0.13258 0.09172
# Poissons Ratio (y) = 0.47428 0.69011
# Poissons Ratio (z) = 0.10395 0.21865
#
# Static dielectric constant tensor:
#      x y z
#    x 4.029090 0.000000 0.000000 
#    y 0.000000 3.476230 0.000000 
#    z 0.000000 0.000000 4.211200 
# 
# 
# High freq. dielectric constant tensor:
#      x y z
#    x 1.850560 0.000000 0.000000 
#    y 0.000000 1.794970 0.000000 
#    z 0.000000 0.000000 1.867520 
# 
# From -- ./inp_files/6153.got.cif
#   From: 2010.03.12/outbox.cif.g09.slc.cpg/sg60_4_cif.got.tgz:6153.got - 2010.04.10 18:46:24.
