data_PCOD8248515
_publ_section_title
;
Structure prediction by ZEFSAII (Michael W. Deem and Ramdas Pophale) SiO2 
 PCOD8248515
Probable space group: P B C N
;
_chemical_formula_sum "Si O2"
_cell_formula_units_Z 32
_cell_length_a 12.915092
_cell_length_b 9.855856
_cell_length_c 10.802362
_cell_angle_alpha 90.000000
_cell_angle_beta 90.000000
_cell_angle_gamma 90.000000
_cell_volume 1375.024957
_symmetry_space_group_name_H-M "P B C N"
_symmetry_group_IT_number 60
_symmetry_cell_setting 'orthorhombic'
loop_
_space_group_symop_operation_xyz
x,y,z
1/2-x,1/2-y,1/2+z
1/2+x,1/2-y,-z
-x,y,1/2-z
-x,-y,-z
1/2+x,1/2+y,1/2-z
1/2-x,1/2+y,z
x,-y,1/2+z
loop_
_atom_site_type_symbol
_atom_site_label
_atom_site_fract_x
_atom_site_fract_y
_atom_site_fract_z
Si Si1 0.923572 0.317120 0.395508
Si Si2 0.351292 0.846834 0.362322
Si Si3 0.764062 0.911713 0.528187
Si Si4 0.938885 0.991642 0.871495
O O1 0.877503 0.395675 0.276268
O O2 0.847500 0.343753 0.508048
O O3 0.918136 0.164344 0.345790
O O4 0.039148 0.362535 0.436426
O O5 0.320289 0.687527 0.374484
O O6 0.258288 0.939687 0.414755
O O7 0.831536 0.927507 0.400930
O O8 0.000000 0.052669 0.750000
O O9 0.000000 0.000000 0.000000
#
# Coordination Sequence:
#
# PCOD8248515 Si02
#       4
#     8   8   8   8
#     4  11  24  44  68  98 147 184 238 307 358 430
#     4  11  25  45  68 104 144 186 239 304 365 434
#     4  12  25  42  73 101 137 190 242 289 375 434
#     4  12  24  45  73 105 145 192 242 303 363 439
#
# _framework density 23.272304999999999
#
# number of rings (size 3 to 8) (size 9 to 14) (size 15 to 20)
#    0.000    0.500    7.500    0.750    7.000    0.000 
#    0.000    0.000    0.000    3.000    0.000    0.000 
#    0.000    0.000    0.000    0.000    0.000    0.000 
#
# Total GULP energy -396477.420036 kJ/mol
# GULP energy per Si atom -12389.919376 kJ/mol
# Density = 2.321934 g / cm^3
# Si number density = 23.272305 Si / 1000 Ang^3
#
#
#
# Elastic Constant Matrix: (Units=GPa)
#
#
# Indices 1 2 3 4 5 6 
#
# 1 130.6150 32.7875 35.4578 0.0000 0.0000 0.0000
# 2 32.7875 83.7691 17.0926 0.0000 0.0000 0.0000
# 3 35.4578 17.0926 92.8314 0.0000 0.0000 0.0000
# 4 0.0000 0.0000 0.0000 19.5628 0.0000 0.0000
# 5 0.0000 0.0000 0.0000 0.0000 48.4572 0.0000
# 6 0.0000 0.0000 0.0000 0.0000 0.0000 26.1090
#
#
#
# Elastic Compliance Matrix: (Units=1/GPa)
#
#
# Indices 1 2 3 4 5 6 
#
# 1 0.009215 -0.003001 -0.002967 0.000000 0.000000 0.000000
# 2 -0.003001 0.013381 -0.001317 0.000000 0.000000 0.000000
# 3 -0.002967 -0.001317 0.012148 0.000000 0.000000 0.000000
# 4 0.000000 0.000000 0.000000 0.051117 0.000000 0.000000
# 5 0.000000 0.000000 0.000000 0.000000 0.020637 0.000000
# 6 0.000000 0.000000 0.000000 0.000000 0.000000 0.038301
#
#
# Mechanical properties :
#
#
# Convention : Reuss Voigt Hill
#
# Bulk Modulus (GPa) = 49.57258 53.09904 51.33581
# Shear Modulus (GPa) = 30.10320 33.61764 31.86042
#
# Velocity S-wave (km/s) = 3.60046 3.80483 3.70405
# Velocity P-wave (km/s) = 6.21544 6.49371 6.35610
#
# Compressibility (1/GPa) = 0.02017244
#
# Stress axis : x y z
#
# Youngs Moduli (GPa) = 108.51901 74.73217 82.31734
#
# Poissons Ratio (x) = 0.22430 0.24425
# Poissons Ratio (y) = 0.32570 0.10845
# Poissons Ratio (z) = 0.32199 0.09845
#
# Static dielectric constant tensor:
#      x y z
#    x 4.667010 0.000000 0.000000 
#    y 0.000000 3.976310 0.000000 
#    z 0.000000 0.000000 4.003710 
# 
# 
# High freq. dielectric constant tensor:
#      x y z
#    x 1.947130 0.000000 0.000000 
#    y 0.000000 1.897420 0.000000 
#    z 0.000000 0.000000 1.902920 
# 
# From -- ./inp_files/10584.got.cif
#   From: 2010.03.12/outbox.cif.g09.slc.cpg/sg60_6_cif.got.tgz:10584.got - 2010.04.10 18:46:24.
