data_PCOD8248007
_publ_section_title
;
Structure prediction by ZEFSAII (Michael W. Deem and Ramdas Pophale) SiO2 
 PCOD8248007
Probable space group: P B C N
;
_chemical_formula_sum "Si O2"
_cell_formula_units_Z 32
_cell_length_a 4.849746
_cell_length_b 20.136721
_cell_length_c 14.014110
_cell_angle_alpha 90.000000
_cell_angle_beta 90.000000
_cell_angle_gamma 90.000000
_cell_volume 1368.589704
_symmetry_space_group_name_H-M "P B C N"
_symmetry_group_IT_number 60
_symmetry_cell_setting 'orthorhombic'
loop_
_space_group_symop_operation_xyz
x,y,z
1/2-x,1/2-y,1/2+z
1/2+x,1/2-y,-z
-x,y,1/2-z
-x,-y,-z
1/2+x,1/2+y,1/2-z
1/2-x,1/2+y,z
x,-y,1/2+z
loop_
_atom_site_type_symbol
_atom_site_label
_atom_site_fract_x
_atom_site_fract_y
_atom_site_fract_z
Si Si1 0.455735 0.080133 0.452142
Si Si2 0.834966 0.407320 0.150367
Si Si3 0.544236 0.526424 0.352782
Si Si4 0.809907 0.292698 0.016588
O O1 0.492164 0.058761 0.563229
O O2 0.135556 0.068175 0.429232
O O3 0.550690 0.156828 0.439985
O O4 0.638245 0.034197 0.381739
O O5 0.550361 0.448954 0.155660
O O6 0.770506 0.330657 0.119259
O O7 0.000000 0.411101 0.250000
O O8 0.500000 0.560126 0.250000
O O9 0.514771 0.270120 0.975666
#
# Coordination Sequence:
#
# PCOD8248007 Si02
#       4
#     8   8   8   8
#     4  10  24  41  71  94 139 174 222 275 343 378
#     4  10  24  42  72 100 135 176 226 274 339 405
#     4  12  23  42  65 106 138 174 219 278 339 409
#     4  10  23  43  67  92 133 174 232 271 323 391
#
# _framework density 23.381733000000001
#
# number of rings (size 3 to 8) (size 9 to 14) (size 15 to 20)
#    1.500    0.000    0.000    5.250    0.000    6.000 
#    0.000    7.500    0.000    0.000    0.000    0.000 
#    0.000    0.000    0.000    0.000    0.000    0.000 
#
# Total GULP energy -396492.173361 kJ/mol
# GULP energy per Si atom -12390.380418 kJ/mol
# Density = 2.332851 g / cm^3
# Si number density = 23.381733 Si / 1000 Ang^3
#
#
#
# Elastic Constant Matrix: (Units=GPa)
#
#
# Indices 1 2 3 4 5 6 
#
# 1 53.9711 4.8804 -4.4038 0.0000 0.0000 0.0000
# 2 4.8804 81.7405 19.2441 0.0000 0.0000 0.0000
# 3 -4.4038 19.2441 118.3013 0.0000 0.0000 0.0000
# 4 0.0000 0.0000 0.0000 20.1464 0.0000 0.0000
# 5 0.0000 0.0000 0.0000 0.0000 18.3540 0.0000
# 6 0.0000 0.0000 0.0000 0.0000 0.0000 17.4407
#
#
#
# Elastic Compliance Matrix: (Units=1/GPa)
#
#
# Indices 1 2 3 4 5 6 
#
# 1 0.018724 -0.001333 0.000914 0.000000 0.000000 0.000000
# 2 -0.001333 0.012816 -0.002134 0.000000 0.000000 0.000000
# 3 0.000914 -0.002134 0.008834 0.000000 0.000000 0.000000
# 4 0.000000 0.000000 0.000000 0.049637 0.000000 0.000000
# 5 0.000000 0.000000 0.000000 0.000000 0.054484 0.000000
# 6 0.000000 0.000000 0.000000 0.000000 0.000000 0.057337
#
#
# Mechanical properties :
#
#
# Convention : Reuss Voigt Hill
#
# Bulk Modulus (GPa) = 28.35554 32.60602 30.48078
# Shear Modulus (GPa) = 22.86297 26.80770 24.83534
#
# Velocity S-wave (km/s) = 3.13039 3.38971 3.26263
# Velocity P-wave (km/s) = 5.02189 5.41253 5.22087
#
# Compressibility (1/GPa) = 0.03526647
#
# Stress axis : x y z
#
# Youngs Moduli (GPa) = 53.40870 78.02789 113.19627
#
# Poissons Ratio (x) = 0.10402 -0.10344
# Poissons Ratio (y) = 0.07120 0.24161
# Poissons Ratio (z) = -0.04881 0.16654
#
# Static dielectric constant tensor:
#      x y z
#    x 3.894710 0.000000 0.000000 
#    y 0.000000 4.162210 0.000000 
#    z 0.000000 0.000000 4.146430 
# 
# 
# High freq. dielectric constant tensor:
#      x y z
#    x 1.931460 0.000000 0.000000 
#    y 0.000000 1.923440 0.000000 
#    z 0.000000 0.000000 1.908520 
# 
# From -- ./inp_files/13686.got.cif
#   From: 2010.03.12/outbox.cif.g09.slc.cpg/sg60_7_cif.got.tgz:13686.got - 2010.04.10 18:46:24.
