data_PCOD8248119
_publ_section_title
;
Structure prediction by ZEFSAII (Michael W. Deem and Ramdas Pophale) SiO2 
 PCOD8248119
Probable space group: P B C N
;
_chemical_formula_sum "Si O2"
_cell_formula_units_Z 60
_cell_length_a 12.082677
_cell_length_b 8.839298
_cell_length_c 26.482126
_cell_angle_alpha 90.000000
_cell_angle_beta 90.000000
_cell_angle_gamma 90.000000
_cell_volume 2828.354154
_symmetry_space_group_name_H-M "P B C N"
_symmetry_group_IT_number 60
_symmetry_cell_setting 'orthorhombic'
loop_
_space_group_symop_operation_xyz
x,y,z
1/2-x,1/2-y,1/2+z
1/2+x,1/2-y,-z
-x,y,1/2-z
-x,-y,-z
1/2+x,1/2+y,1/2-z
1/2-x,1/2+y,z
x,-y,1/2+z
loop_
_atom_site_type_symbol
_atom_site_label
_atom_site_fract_x
_atom_site_fract_y
_atom_site_fract_z
Si Si1 0.172830 0.881889 0.167408
Si Si2 0.270600 0.979361 0.501129
Si Si3 0.124438 0.190606 0.191019
Si Si4 0.656421 0.713561 0.667802
Si Si5 0.377598 0.285150 0.058204
Si Si6 0.500000 0.719056 0.750000
Si Si7 0.121737 0.252714 0.945348
Si Si8 0.378875 0.361523 0.807630
O O1 0.297802 0.836494 0.183592
O O2 0.131215 0.791015 0.118782
O O3 0.081342 0.872880 0.212340
O O4 0.178584 0.060526 0.155725
O O5 0.335038 0.878360 0.541346
O O6 0.209870 0.874512 0.460268
O O7 0.186682 0.077937 0.533223
O O8 0.354049 0.086368 0.470845
O O9 0.130530 0.134758 0.248059
O O10 0.996016 0.213618 0.174938
O O11 0.585384 0.804388 0.711759
O O12 0.617216 0.775678 0.614480
O O13 0.634658 0.533296 0.672393
O O14 0.785756 0.750457 0.670962
O O15 0.501624 0.303025 0.037731
#
# Coordination Sequence:
#
# PCOD8248119 Si02
#       8
#     8   8   8   8   8   4   8   8
#     4  12  22  40  65  90 126 168 203 246 311 367
#     4  10  24  42  62  92 120 152 210 262 302 364
#     4  11  21  39  57  85 124 165 204 251 292 354
#     4  12  22  40  65  90 126 168 203 246 311 367
#     4  11  22  41  65  90 121 160 200 255 314 361
#     4  12  20  40  62  94 128 168 196 252 296 374
#     4  11  22  41  65  90 121 160 200 255 314 361
#     4  11  21  39  57  85 124 165 204 251 292 354
#
# _framework density 21.213750999999998
#
# number of rings (size 3 to 8) (size 9 to 14) (size 15 to 20)
#    0.000    0.800    5.333    2.400    0.000    0.000 
#    2.400    6.667    0.000    0.000    0.000    0.000 
#    0.000    0.000    0.000    0.000    0.000    0.000 
#
# Total GULP energy -743598.742744 kJ/mol
# GULP energy per Si atom -12393.312379 kJ/mol
# Density = 2.116547 g / cm^3
# Si number density = 21.213751 Si / 1000 Ang^3
#
#
#
# Elastic Constant Matrix: (Units=GPa)
#
#
# Indices 1 2 3 4 5 6 
#
# 1 146.8757 34.0065 25.7778 0.0000 0.0000 0.0000
# 2 34.0065 48.7225 18.1257 0.0000 0.0000 0.0000
# 3 25.7778 18.1257 103.1131 0.0000 0.0000 0.0000
# 4 0.0000 0.0000 0.0000 14.9817 0.0000 0.0000
# 5 0.0000 0.0000 0.0000 0.0000 11.9287 0.0000
# 6 0.0000 0.0000 0.0000 0.0000 0.0000 20.9828
#
#
#
# Elastic Compliance Matrix: (Units=1/GPa)
#
#
# Indices 1 2 3 4 5 6 
#
# 1 0.008240 -0.005334 -0.001122 0.000000 0.000000 0.000000
# 2 -0.005334 0.025413 -0.003134 0.000000 0.000000 0.000000
# 3 -0.001122 -0.003134 0.010530 0.000000 0.000000 0.000000
# 4 0.000000 0.000000 0.000000 0.066748 0.000000 0.000000
# 5 0.000000 0.000000 0.000000 0.000000 0.083831 0.000000
# 6 0.000000 0.000000 0.000000 0.000000 0.000000 0.047658
#
#
# Mechanical properties :
#
#
# Convention : Reuss Voigt Hill
#
# Bulk Modulus (GPa) = 39.99553 50.50347 45.24950
# Shear Modulus (GPa) = 18.52294 24.29872 21.41083
#
# Velocity S-wave (km/s) = 2.95813 3.38808 3.18038
# Velocity P-wave (km/s) = 5.52828 6.25812 5.90449
#
# Compressibility (1/GPa) = 0.02500279
#
# Stress axis : x y z
#
# Youngs Moduli (GPa) = 121.35238 39.34973 94.97075
#
# Poissons Ratio (x) = 0.20989 0.10660
# Poissons Ratio (y) = 0.64729 0.29762
# Poissons Ratio (z) = 0.13621 0.12331
#
# Static dielectric constant tensor:
#      x y z
#    x 4.402890 0.000000 0.000000 
#    y 0.000000 3.601760 0.000000 
#    z 0.000000 0.000000 3.845840 
# 
# 
# High freq. dielectric constant tensor:
#      x y z
#    x 1.851880 0.000000 0.000000 
#    y 0.000000 1.811190 0.000000 
#    z 0.000000 0.000000 1.832390 
# 
# From -- ./inp_files/25348.got.cif
#   From: 2010.03.12/outbox.cif.g09.slc.cpg/sg60_13_cif.got.tgz:25348.got - 2010.04.10 18:46:24.
