data_PCOD8248181
_publ_section_title
;
Structure prediction by ZEFSAII (Michael W. Deem and Ramdas Pophale) SiO2 
 PCOD8248181
Probable space group: P B C N
;
_chemical_formula_sum "Si O2"
_cell_formula_units_Z 44
_cell_length_a 32.061526
_cell_length_b 7.409371
_cell_length_c 8.229379
_cell_angle_alpha 90.000000
_cell_angle_beta 90.000000
_cell_angle_gamma 90.000000
_cell_volume 1954.936226
_symmetry_space_group_name_H-M "P B C N"
_symmetry_group_IT_number 60
_symmetry_cell_setting 'orthorhombic'
loop_
_space_group_symop_operation_xyz
x,y,z
1/2-x,1/2-y,1/2+z
1/2+x,1/2-y,-z
-x,y,1/2-z
-x,-y,-z
1/2+x,1/2+y,1/2-z
1/2-x,1/2+y,z
x,-y,1/2+z
loop_
_atom_site_type_symbol
_atom_site_label
_atom_site_fract_x
_atom_site_fract_y
_atom_site_fract_z
Si Si1 0.873117 0.637764 0.595832
Si Si2 0.000000 0.001636 0.750000
Si Si3 0.938676 0.904517 0.504255
Si Si4 0.289934 0.888582 0.574220
Si Si5 0.205981 0.758318 0.439406
Si Si6 0.619595 0.256608 0.967401
O O1 0.904830 0.749121 0.482433
O O2 0.827157 0.695516 0.532870
O O3 0.883491 0.424993 0.577918
O O4 0.878206 0.699272 0.780305
O O5 0.963157 0.880476 0.673650
O O6 0.024337 0.128256 0.623940
O O7 0.918317 0.105809 0.497454
O O8 0.245709 0.877441 0.481586
O O9 0.297139 0.102129 0.576437
O O10 0.289897 0.812722 0.755499
O O11 0.161929 0.860842 0.469558
#
# Coordination Sequence:
#
# PCOD8248181 Si02
#       6
#     8   4   8   8   8   8
#     4  11  24  42  68  99 133 178 224 270 333 400
#     4  10  24  46  70 102 130 170 224 282 326 416
#     4  11  24  46  72  96 140 172 218 276 344 393
#     4  11  23  40  62  92 132 171 221 271 318 387
#     4  11  23  40  62  92 132 171 221 271 318 387
#     4  11  24  42  68  99 133 178 224 270 333 400
#
# _framework density 22.507128999999999
#
# number of rings (size 3 to 8) (size 9 to 14) (size 15 to 20)
#    0.000    1.091    1.818    6.545    7.636    0.000 
#    0.000    5.455    0.000    0.000    0.000    0.000 
#    0.000    0.000    0.000    0.000    0.000    0.000 
#
# Total GULP energy -545204.827448 kJ/mol
# GULP energy per Si atom -12391.018806 kJ/mol
# Density = 2.245590 g / cm^3
# Si number density = 22.507129 Si / 1000 Ang^3
#
#
#
# Elastic Constant Matrix: (Units=GPa)
#
#
# Indices 1 2 3 4 5 6 
#
# 1 160.9258 47.6275 34.8168 0.0000 0.0000 0.0000
# 2 47.6275 58.2032 12.9071 0.0000 0.0000 0.0000
# 3 34.8168 12.9071 87.7302 0.0000 0.0000 0.0000
# 4 0.0000 0.0000 0.0000 19.4743 0.0000 0.0000
# 5 0.0000 0.0000 0.0000 0.0000 43.3852 0.0000
# 6 0.0000 0.0000 0.0000 0.0000 0.0000 16.9452
#
#
#
# Elastic Compliance Matrix: (Units=1/GPa)
#
#
# Indices 1 2 3 4 5 6 
#
# 1 0.008694 -0.006563 -0.002485 0.000000 0.000000 0.000000
# 2 -0.006563 0.022715 -0.000737 0.000000 0.000000 0.000000
# 3 -0.002485 -0.000737 0.012493 0.000000 0.000000 0.000000
# 4 0.000000 0.000000 0.000000 0.051350 0.000000 0.000000
# 5 0.000000 0.000000 0.000000 0.000000 0.023049 0.000000
# 6 0.000000 0.000000 0.000000 0.000000 0.000000 0.059014
#
#
# Mechanical properties :
#
#
# Convention : Reuss Voigt Hill
#
# Bulk Modulus (GPa) = 41.09800 55.28468 48.19134
# Shear Modulus (GPa) = 24.39062 30.06146 27.22604
#
# Velocity S-wave (km/s) = 3.29551 3.65861 3.48179
# Velocity P-wave (km/s) = 5.72539 6.51642 6.13367
#
# Compressibility (1/GPa) = 0.02433208
#
# Stress axis : x y z
#
# Youngs Moduli (GPa) = 115.02027 44.02294 80.04385
#
# Poissons Ratio (x) = 0.28894 0.19889
# Poissons Ratio (y) = 0.75492 0.05901
# Poissons Ratio (z) = 0.28580 0.03245
#
# Static dielectric constant tensor:
#      x y z
#    x 4.685100 0.000000 0.000000 
#    y 0.000000 3.821030 0.000000 
#    z 0.000000 0.000000 4.275640 
# 
# 
# High freq. dielectric constant tensor:
#      x y z
#    x 1.912960 0.000000 0.000000 
#    y 0.000000 1.849280 0.000000 
#    z 0.000000 0.000000 1.904390 
# 
# From -- ./inp_files/8344.got.cif
#   From: 2010.03.12/outbox.cif.g09.slc.cpg/sg60_5_cif.got.tgz:8344.got - 2010.04.10 18:46:24.
