data_PCOD8248228
_publ_section_title
;
Structure prediction by ZEFSAII (Michael W. Deem and Ramdas Pophale) SiO2 
 PCOD8248228
Probable space group: P B C N
;
_chemical_formula_sum "Si O2"
_cell_formula_units_Z 52
_cell_length_a 8.496943
_cell_length_b 18.989986
_cell_length_c 14.495049
_cell_angle_alpha 90.000000
_cell_angle_beta 90.000000
_cell_angle_gamma 90.000000
_cell_volume 2338.875137
_symmetry_space_group_name_H-M "P B C N"
_symmetry_group_IT_number 60
_symmetry_cell_setting 'orthorhombic'
loop_
_space_group_symop_operation_xyz
x,y,z
1/2-x,1/2-y,1/2+z
1/2+x,1/2-y,-z
-x,y,1/2-z
-x,-y,-z
1/2+x,1/2+y,1/2-z
1/2-x,1/2+y,z
x,-y,1/2+z
loop_
_atom_site_type_symbol
_atom_site_label
_atom_site_fract_x
_atom_site_fract_y
_atom_site_fract_z
Si Si1 0.000000 0.176329 0.750000
Si Si2 0.671592 0.007291 0.919048
Si Si3 0.190923 0.214285 0.094392
Si Si4 0.339423 0.142265 0.694891
Si Si5 0.333116 0.582868 0.216728
Si Si6 0.030666 0.730798 0.429368
Si Si7 0.859728 0.419594 0.597644
O O1 0.165594 0.131298 0.744173
O O2 0.969898 0.228226 0.665730
O O3 0.612225 0.074207 0.862410
O O4 0.814538 0.969289 0.869245
O O5 0.536168 0.948227 0.914502
O O6 0.731478 0.033396 0.020339
O O7 0.189597 0.293654 0.127852
O O8 0.155634 0.162701 0.179481
O O9 0.360623 0.196820 0.051393
O O10 0.069042 0.212191 0.009369
O O11 0.500000 0.159624 0.750000
O O12 0.500000 0.558926 0.250000
O O13 0.205312 0.570765 0.298276
O O14 0.149869 0.664016 0.424622
#
# Coordination Sequence:
#
# PCOD8248228 Si02
#       7
#     4   8   8   8   8   8   8
#     4  10  26  40  68 102 140 186 226 294 364 408
#     4  11  25  45  72 104 132 193 239 288 363 425
#     4  11  25  42  68 102 134 182 234 289 358 421
#     4  11  23  43  67  98 137 178 235 293 348 426
#     4  12  27  44  70 104 144 191 234 291 364 433
#     4  11  23  44  69  99 140 179 234 294 350 431
#     4  11  23  47  73  96 145 187 236 293 352 439
#
# _framework density 22.232908999999999
#
# number of rings (size 3 to 8) (size 9 to 14) (size 15 to 20)
#    0.000    0.923    3.077    3.692    5.385    0.615 
#    2.769    0.000    0.000    0.000    0.000    0.000 
#    0.000    0.000    0.000    0.000    0.000    0.000 
#
# Total GULP energy -644180.306919 kJ/mol
# GULP energy per Si atom -12388.082825 kJ/mol
# Density = 2.218231 g / cm^3
# Si number density = 22.232909 Si / 1000 Ang^3
#
#
#
# Elastic Constant Matrix: (Units=GPa)
#
#
# Indices 1 2 3 4 5 6 
#
# 1 87.7418 7.0406 37.5822 0.0000 0.0000 0.0000
# 2 7.0406 85.8979 36.7442 0.0000 0.0000 0.0000
# 3 37.5822 36.7442 126.8575 0.0000 0.0000 0.0000
# 4 0.0000 0.0000 0.0000 43.5494 0.0000 0.0000
# 5 0.0000 0.0000 0.0000 0.0000 37.6714 0.0000
# 6 0.0000 0.0000 0.0000 0.0000 0.0000 22.0084
#
#
#
# Elastic Compliance Matrix: (Units=1/GPa)
#
#
# Indices 1 2 3 4 5 6 
#
# 1 0.013087 0.000669 -0.004071 0.000000 0.000000 0.000000
# 2 0.000669 0.013322 -0.004057 0.000000 0.000000 0.000000
# 3 -0.004071 -0.004057 0.010264 0.000000 0.000000 0.000000
# 4 0.000000 0.000000 0.000000 0.022962 0.000000 0.000000
# 5 0.000000 0.000000 0.000000 0.000000 0.026545 0.000000
# 6 0.000000 0.000000 0.000000 0.000000 0.000000 0.045437
#
#
# Mechanical properties :
#
#
# Convention : Reuss Voigt Hill
#
# Bulk Modulus (GPa) = 45.96588 51.47014 48.71801
# Shear Modulus (GPa) = 32.51229 35.25453 33.88341
#
# Velocity S-wave (km/s) = 3.82822 3.98639 3.90811
# Velocity P-wave (km/s) = 6.34507 6.66252 6.50573
#
# Compressibility (1/GPa) = 0.02175526
#
# Stress axis : x y z
#
# Youngs Moduli (GPa) = 76.41142 75.06196 97.42860
#
# Poissons Ratio (x) = -0.05019 0.39661
# Poissons Ratio (y) = -0.05109 0.39526
# Poissons Ratio (z) = 0.31105 0.30452
#
# Static dielectric constant tensor:
#      x y z
#    x -47.573130 0.000000 0.000000 
#    y 0.000000 4.117160 0.000000 
#    z 0.000000 0.000000 4.383450 
# 
# 
# High freq. dielectric constant tensor:
#      x y z
#    x 1.867770 0.000000 0.000000 
#    y 0.000000 1.879640 0.000000 
#    z 0.000000 0.000000 1.882590 
# 
# From -- ./inp_files/15222.got.cif
#   From: 2010.03.12/outbox.cif.g09.slc.cpg/sg60_8_cif.got.tgz:15222.got - 2010.04.10 18:46:24.
