data_PCOD8248804
_publ_section_title
;
Structure prediction by ZEFSAII (Michael W. Deem and Ramdas Pophale) SiO2 
 PCOD8248804
Probable space group: P B C A
;
_chemical_formula_sum "Si O2"
_cell_formula_units_Z 48
_cell_length_a 9.310140
_cell_length_b 15.593946
_cell_length_c 17.358426
_cell_angle_alpha 90.000000
_cell_angle_beta 90.000000
_cell_angle_gamma 90.000000
_cell_volume 2520.127886
_symmetry_space_group_name_H-M "P B C A"
_symmetry_group_IT_number 61
_symmetry_cell_setting 'orthorhombic'
loop_
_space_group_symop_operation_xyz
x,y,z
1/2-x,-y,1/2+z
1/2+x,1/2-y,-z
-x,1/2+y,1/2-z
-x,-y,-z
1/2+x,y,1/2-z
1/2-x,1/2+y,z
x,1/2-y,1/2+z
loop_
_atom_site_type_symbol
_atom_site_label
_atom_site_fract_x
_atom_site_fract_y
_atom_site_fract_z
Si Si1 0.323075 0.175872 0.035534
Si Si2 0.585011 0.977029 0.699471
Si Si3 0.361594 0.663495 0.514498
Si Si4 0.773412 0.915537 0.825262
Si Si5 0.787005 0.489334 0.064663
Si Si6 0.572420 0.441988 0.351446
O O1 0.251018 0.261065 0.001286
O O2 0.269832 0.167220 0.124039
O O3 0.494347 0.186518 0.032099
O O4 0.269265 0.094018 0.987798
O O5 0.697617 0.911626 0.740925
O O6 0.443639 0.922391 0.682234
O O7 0.649672 0.012149 0.620617
O O8 0.552392 0.058399 0.757791
O O9 0.290068 0.576223 0.484261
O O10 0.400531 0.649070 0.606040
O O11 0.709900 0.998248 0.870640
O O12 0.933076 0.486953 0.112905
#
# Coordination Sequence:
#
# PCOD8248804 Si02
#       6
#     8   8   8   8   8   8
#     4  11  24  38  62  91 120 163 207 249 306 364
#     4  10  19  33  66  86 115 156 202 242 305 357
#     4  11  22  40  61  87 127 161 205 252 308 361
#     4  10  19  37  59  89 114 155 200 243 298 358
#     4  11  19  40  63  84 122 158 200 252 303 362
#     4   9  17  39  61  82 113 165 190 242 304 357
#
# _framework density 19.046652999999999
#
# number of rings (size 3 to 8) (size 9 to 14) (size 15 to 20)
#    1.000    0.667    5.000    1.000    2.333    2.000 
#    0.000    1.667    3.667    0.000    0.000    0.000 
#    0.000    0.000    0.000    0.000    0.000    0.000 
#
# Total GULP energy -594745.667302 kJ/mol
# GULP energy per Si atom -12390.534735 kJ/mol
# Density = 1.900330 g / cm^3
# Si number density = 19.046653 Si / 1000 Ang^3
#
#
#
# Elastic Constant Matrix: (Units=GPa)
#
#
# Indices 1 2 3 4 5 6 
#
# 1 83.9388 33.6807 21.3977 0.0000 0.0000 0.0000
# 2 33.6807 92.9468 14.6058 0.0000 0.0000 0.0000
# 3 21.3977 14.6058 47.8899 0.0000 0.0000 0.0000
# 4 0.0000 0.0000 0.0000 12.7587 0.0000 0.0000
# 5 0.0000 0.0000 0.0000 0.0000 29.0611 0.0000
# 6 0.0000 0.0000 0.0000 0.0000 0.0000 19.9636
#
#
#
# Elastic Compliance Matrix: (Units=1/GPa)
#
#
# Indices 1 2 3 4 5 6 
#
# 1 0.015141 -0.004646 -0.005348 0.000000 0.000000 0.000000
# 2 -0.004646 0.012726 -0.001805 0.000000 0.000000 0.000000
# 3 -0.005348 -0.001805 0.023821 0.000000 0.000000 0.000000
# 4 0.000000 0.000000 0.000000 0.078378 0.000000 0.000000
# 5 0.000000 0.000000 0.000000 0.000000 0.034410 0.000000
# 6 0.000000 0.000000 0.000000 0.000000 0.000000 0.050091
#
#
# Mechanical properties :
#
#
# Convention : Reuss Voigt Hill
#
# Bulk Modulus (GPa) = 35.60074 40.46042 38.03058
# Shear Modulus (GPa) = 20.19955 22.69612 21.44784
#
# Velocity S-wave (km/s) = 3.26011 3.45571 3.35933
# Velocity P-wave (km/s) = 5.73611 6.10012 5.92092
#
# Compressibility (1/GPa) = 0.02808930
#
# Stress axis : x y z
#
# Youngs Moduli (GPa) = 66.04541 78.57836 41.97900
#
# Poissons Ratio (x) = 0.36509 0.22451
# Poissons Ratio (y) = 0.30686 0.07579
# Poissons Ratio (z) = 0.35322 0.14186
#
# Static dielectric constant tensor:
#      x y z
#    x 3.414700 0.000000 0.000000 
#    y 0.000000 3.074640 0.000000 
#    z 0.000000 0.000000 3.639870 
# 
# 
# High freq. dielectric constant tensor:
#      x y z
#    x 1.745670 0.000000 0.000000 
#    y 0.000000 1.698040 0.000000 
#    z 0.000000 0.000000 1.745050 
# 
# From -- ./inp_files/10075.got.cif
#   From: 2010.03.12/outbox.cif.g09.slc.cpg/sg61_6_cif.got.tgz:10075.got - 2010.04.10 19:05:03.
