data_PCOD8248893
_publ_section_title
;
Structure prediction by ZEFSAII (Michael W. Deem and Ramdas Pophale) SiO2 
 PCOD8248893
Probable space group: P B C A
;
_chemical_formula_sum "Si O2"
_cell_formula_units_Z 48
_cell_length_a 14.111094
_cell_length_b 19.068549
_cell_length_c 9.026575
_cell_angle_alpha 90.000000
_cell_angle_beta 90.000000
_cell_angle_gamma 90.000000
_cell_volume 2428.853537
_symmetry_space_group_name_H-M "P B C A"
_symmetry_group_IT_number 61
_symmetry_cell_setting 'orthorhombic'
loop_
_space_group_symop_operation_xyz
x,y,z
1/2-x,-y,1/2+z
1/2+x,1/2-y,-z
-x,1/2+y,1/2-z
-x,-y,-z
1/2+x,y,1/2-z
1/2-x,1/2+y,z
x,1/2-y,1/2+z
loop_
_atom_site_type_symbol
_atom_site_label
_atom_site_fract_x
_atom_site_fract_y
_atom_site_fract_z
Si Si1 0.947507 0.728359 0.767403
Si Si2 0.004178 0.877688 0.777142
Si Si3 0.984376 0.095754 0.890655
Si Si4 0.864089 0.496088 0.742446
Si Si5 0.359820 0.671177 0.433681
Si Si6 0.221762 0.937042 0.031893
O O1 0.857076 0.759624 0.672729
O O2 0.019821 0.793553 0.798461
O O3 0.003975 0.674487 0.665849
O O4 0.912366 0.691548 0.915125
O O5 0.920300 0.888500 0.656479
O O6 0.098093 0.917649 0.717092
O O7 0.980452 0.910998 0.938630
O O8 0.873655 0.076189 0.875615
O O9 0.044803 0.044043 0.789019
O O10 0.805389 0.529579 0.873794
O O11 0.796778 0.491662 0.599817
O O12 0.257311 0.638347 0.467595
#
# Coordination Sequence:
#
# PCOD8248893 Si02
#       6
#     8   8   8   8   8   8
#     4  10  19  41  65  91 123 172 207 270 321 379
#     4   9  20  39  65  87 124 171 207 264 322 381
#     4  11  22  44  65  88 138 170 209 267 334 380
#     4  11  25  42  64  94 132 170 217 273 327 392
#     4  10  21  40  67  89 127 164 218 266 319 391
#     4  11  25  40  63 101 125 174 220 265 323 397
#
# _framework density 19.762409999999999
#
# number of rings (size 3 to 8) (size 9 to 14) (size 15 to 20)
#    1.000    0.667    3.333    2.000    4.667    2.000 
#    6.000    0.000    0.000    0.000    0.000    0.000 
#    0.000    0.000    0.000    0.000    0.000    0.000 
#
# Total GULP energy -594708.158683 kJ/mol
# GULP energy per Si atom -12389.753306 kJ/mol
# Density = 1.971743 g / cm^3
# Si number density = 19.762410 Si / 1000 Ang^3
#
#
#
# Elastic Constant Matrix: (Units=GPa)
#
#
# Indices 1 2 3 4 5 6 
#
# 1 106.2596 45.7273 47.3040 0.0000 0.0000 0.0000
# 2 45.7273 81.6811 16.3410 0.0000 0.0000 0.0000
# 3 47.3040 16.3410 74.3153 0.0000 0.0000 0.0000
# 4 0.0000 0.0000 0.0000 28.1914 0.0000 0.0000
# 5 0.0000 0.0000 0.0000 0.0000 30.9749 0.0000
# 6 0.0000 0.0000 0.0000 0.0000 0.0000 30.0062
#
#
#
# Elastic Compliance Matrix: (Units=1/GPa)
#
#
# Indices 1 2 3 4 5 6 
#
# 1 0.016620 -0.007519 -0.008926 0.000000 0.000000 0.000000
# 2 -0.007519 0.016207 0.001222 0.000000 0.000000 0.000000
# 3 -0.008926 0.001222 0.018869 0.000000 0.000000 0.000000
# 4 0.000000 0.000000 0.000000 0.035472 0.000000 0.000000
# 5 0.000000 0.000000 0.000000 0.000000 0.032284 0.000000
# 6 0.000000 0.000000 0.000000 0.000000 0.000000 0.033326
#
#
# Mechanical properties :
#
#
# Convention : Reuss Voigt Hill
#
# Bulk Modulus (GPa) = 47.05549 53.44450 50.24999
# Shear Modulus (GPa) = 26.27324 28.02676 27.15000
#
# Velocity S-wave (km/s) = 3.65012 3.76997 3.71053
# Velocity P-wave (km/s) = 6.45189 6.78619 6.62115
#
# Compressibility (1/GPa) = 0.02125151
#
# Stress axis : x y z
#
# Youngs Moduli (GPa) = 60.16838 61.70023 52.99674
#
# Poissons Ratio (x) = 0.46390 0.47304
# Poissons Ratio (y) = 0.45238 -0.06476
# Poissons Ratio (z) = 0.53706 -0.07540
#
# Static dielectric constant tensor:
#      x y z
#    x 3.327820 0.000000 0.000000 
#    y 0.000000 3.750940 0.000000 
#    z 0.000000 0.000000 3.629760 
# 
# 
# High freq. dielectric constant tensor:
#      x y z
#    x 1.741260 0.000000 0.000000 
#    y 0.000000 1.777410 0.000000 
#    z 0.000000 0.000000 1.777100 
# 
# From -- ./inp_files/2933.got.cif
#   From: 2010.03.12/outbox.cif.g09.slc.cpg/sg61_2_cif.got.tgz:2933.got - 2010.04.10 19:05:03.
