data_PCOD8248094
_publ_section_title
;
Structure prediction by ZEFSAII (Michael W. Deem and Ramdas Pophale) SiO2 
 PCOD8248094
Probable space group: P B C N
;
_chemical_formula_sum "Si O2"
_cell_formula_units_Z 56
_cell_length_a 13.854733
_cell_length_b 22.622231
_cell_length_c 8.774501
_cell_angle_alpha 90.000000
_cell_angle_beta 90.000000
_cell_angle_gamma 90.000000
_cell_volume 2750.147716
_symmetry_space_group_name_H-M "P B C N"
_symmetry_group_IT_number 60
_symmetry_cell_setting 'orthorhombic'
loop_
_space_group_symop_operation_xyz
x,y,z
1/2-x,1/2-y,1/2+z
1/2+x,1/2-y,-z
-x,y,1/2-z
-x,-y,-z
1/2+x,1/2+y,1/2-z
1/2-x,1/2+y,z
x,-y,1/2+z
loop_
_atom_site_type_symbol
_atom_site_label
_atom_site_fract_x
_atom_site_fract_y
_atom_site_fract_z
Si Si1 0.038267 0.265728 0.418469
Si Si2 0.335484 0.200702 0.490479
Si Si3 0.456052 0.633164 0.418752
Si Si4 0.791965 0.999237 0.324499
Si Si5 0.753073 0.580761 0.075264
Si Si6 0.767169 0.309344 0.162820
Si Si7 0.631206 0.581745 0.583846
O O1 0.070659 0.199953 0.469569
O O2 0.130320 0.309173 0.426371
O O3 0.000000 0.258549 0.250000
O O4 0.950895 0.292109 0.516207
O O5 0.315534 0.139278 0.404870
O O6 0.286855 0.197875 0.657165
O O7 0.294019 0.253459 0.390671
O O8 0.500000 0.630393 0.250000
O O9 0.361318 0.593565 0.422033
O O10 0.528160 0.610948 0.551101
O O11 0.721891 0.036239 0.212863
O O12 0.844685 0.045107 0.433324
O O13 0.724696 0.953051 0.416837
O O14 0.872039 0.962744 0.227068
O O15 0.712190 0.368859 0.118716
#
# Coordination Sequence:
#
# PCOD8248094 Si02
#       7
#     8   8   8   8   8   8   8
#     4   9  20  36  59  91 122 155 190 237 310 362
#     4  11  22  39  64  90 120 158 196 248 305 355
#     4  11  20  34  59  91 125 162 196 242 299 373
#     4  10  24  39  58  83 120 168 202 249 290 355
#     4  11  22  39  59  86 122 160 205 245 299 357
#     4  11  22  39  64  90 120 158 196 248 305 355
#     4  11  22  39  59  86 122 160 205 245 299 357
#
# _framework density 20.362542999999999
#
# number of rings (size 3 to 8) (size 9 to 14) (size 15 to 20)
#    0.000    1.429    5.714    0.000    2.000    4.000 
#    0.000    2.143    0.000    5.143    0.000    0.000 
#    0.000    0.000    0.000    0.000    0.000    0.000 
#
# Total GULP energy -694244.200662 kJ/mol
# GULP energy per Si atom -12397.217869 kJ/mol
# Density = 2.031620 g / cm^3
# Si number density = 20.362543 Si / 1000 Ang^3
#
#
#
# Elastic Constant Matrix: (Units=GPa)
#
#
# Indices 1 2 3 4 5 6 
#
# 1 49.2531 31.1038 0.5574 0.0000 0.0000 0.0000
# 2 31.1038 130.6074 37.2888 0.0000 0.0000 0.0000
# 3 0.5574 37.2888 72.4330 0.0000 0.0000 0.0000
# 4 0.0000 0.0000 0.0000 28.9808 0.0000 0.0000
# 5 0.0000 0.0000 0.0000 0.0000 18.6640 0.0000
# 6 0.0000 0.0000 0.0000 0.0000 0.0000 13.4348
#
#
#
# Elastic Compliance Matrix: (Units=1/GPa)
#
#
# Indices 1 2 3 4 5 6 
#
# 1 0.024555 -0.006792 0.003308 0.000000 0.000000 0.000000
# 2 -0.006792 0.010854 -0.005536 0.000000 0.000000 0.000000
# 3 0.003308 -0.005536 0.016630 0.000000 0.000000 0.000000
# 4 0.000000 0.000000 0.000000 0.034506 0.000000 0.000000
# 5 0.000000 0.000000 0.000000 0.000000 0.053579 0.000000
# 6 0.000000 0.000000 0.000000 0.000000 0.000000 0.074434
#
#
# Mechanical properties :
#
#
# Convention : Reuss Voigt Hill
#
# Bulk Modulus (GPa) = 29.41214 43.35482 36.38348
# Shear Modulus (GPa) = 20.49754 24.43881 22.46818
#
# Velocity S-wave (km/s) = 3.17619 3.46813 3.32536
# Velocity P-wave (km/s) = 5.28455 6.11350 5.71408
#
# Compressibility (1/GPa) = 0.03399957
#
# Stress axis : x y z
#
# Youngs Moduli (GPa) = 40.72471 92.12773 60.13160
#
# Poissons Ratio (x) = 0.62574 -0.19889
# Poissons Ratio (y) = 0.27660 0.33287
# Poissons Ratio (z) = -0.13470 0.50999
#
# Static dielectric constant tensor:
#      x y z
#    x 3.763520 0.000000 0.000000 
#    y 0.000000 3.972730 0.000000 
#    z 0.000000 0.000000 3.813980 
# 
# 
# High freq. dielectric constant tensor:
#      x y z
#    x 1.761270 0.000000 0.000000 
#    y 0.000000 1.812600 0.000000 
#    z 0.000000 0.000000 1.799760 
# 
# From -- ./inp_files/6144.got.cif
#   From: 2010.03.12/outbox.cif.g09.slc.cpg/sg60_4_cif.got.tgz:6144.got - 2010.04.10 18:46:24.
