data_PCOD8248906
_publ_section_title
;
Structure prediction by ZEFSAII (Michael W. Deem and Ramdas Pophale) SiO2 
 PCOD8248906
Probable space group: P B C A
;
_chemical_formula_sum "Si O2"
_cell_formula_units_Z 48
_cell_length_a 9.945481
_cell_length_b 16.599725
_cell_length_c 13.934673
_cell_angle_alpha 90.000000
_cell_angle_beta 90.000000
_cell_angle_gamma 90.000000
_cell_volume 2300.506513
_symmetry_space_group_name_H-M "P B C A"
_symmetry_group_IT_number 61
_symmetry_cell_setting 'orthorhombic'
loop_
_space_group_symop_operation_xyz
x,y,z
1/2-x,-y,1/2+z
1/2+x,1/2-y,-z
-x,1/2+y,1/2-z
-x,-y,-z
1/2+x,y,1/2-z
1/2-x,1/2+y,z
x,1/2-y,1/2+z
loop_
_atom_site_type_symbol
_atom_site_label
_atom_site_fract_x
_atom_site_fract_y
_atom_site_fract_z
Si Si1 0.874449 0.807471 0.660427
Si Si2 0.201926 0.407566 0.469026
Si Si3 0.874449 0.192529 0.660427
Si Si4 0.042798 0.158412 0.136207
Si Si5 0.042798 0.658412 0.636207
Si Si6 0.701925 0.907566 0.530974
O O1 0.750000 0.750000 0.687819
O O2 0.914991 0.858909 0.754355
O O3 0.836437 0.869541 0.576317
O O4 0.998286 0.751982 0.625263
O O5 0.336437 0.369542 0.423683
O O6 0.167992 0.358131 0.565765
O O7 0.228904 0.500000 0.494593
O O8 0.079126 0.400784 0.393273
O O9 0.914991 0.141091 0.754355
O O10 0.998286 0.248019 0.625263
O O11 0.920874 0.099216 0.106727
O O12 0.167992 0.641869 0.565765
#
# Coordination Sequence:
#
# PCOD8248906 Si02
#       6
#     8   8   8   8   8   8
#     4   9  19  34  54  80 106 142 185 223 265 322
#     4  10  20  33  55  84 110 141 178 225 282 325
#     4   9  19  34  54  80 106 142 185 223 265 322
#     4   9  18  34  53  78 108 142 182 220 265 325
#     4   9  18  34  53  78 108 142 182 220 265 325
#     4  10  20  33  55  84 110 141 178 225 282 325
#
# _framework density 20.86497
#
# number of rings (size 3 to 8) (size 9 to 14) (size 15 to 20)
#    0.000    2.667    0.000    2.000    0.000    9.333 
#    0.000    0.000    0.000    0.000    0.000   67.667 
#    0.000    0.000    0.000    0.000    0.000    0.000 
#
# Total GULP energy -595169.919671 kJ/mol
# GULP energy per Si atom -12399.373326 kJ/mol
# Density = 2.081748 g / cm^3
# Si number density = 20.864970 Si / 1000 Ang^3
#
#
#
# Elastic Constant Matrix: (Units=GPa)
#
#
# Indices 1 2 3 4 5 6 
#
# 1 47.0884 42.5183 47.2752 0.0000 0.0000 0.0000
# 2 42.5183 112.6104 86.2665 0.0000 0.0000 0.0000
# 3 47.2752 86.2665 134.1711 0.0000 0.0000 0.0000
# 4 0.0000 0.0000 0.0000 15.0149 0.0000 0.0000
# 5 0.0000 0.0000 0.0000 0.0000 45.4562 0.0000
# 6 0.0000 0.0000 0.0000 0.0000 0.0000 22.8981
#
#
#
# Elastic Compliance Matrix: (Units=1/GPa)
#
#
# Indices 1 2 3 4 5 6 
#
# 1 0.035894 -0.007614 -0.007752 0.000000 0.000000 0.000000
# 2 -0.007614 0.019115 -0.009607 0.000000 0.000000 0.000000
# 3 -0.007752 -0.009607 0.016361 0.000000 0.000000 0.000000
# 4 0.000000 0.000000 0.000000 0.066601 0.000000 0.000000
# 5 0.000000 0.000000 0.000000 0.000000 0.021999 0.000000
# 6 0.000000 0.000000 0.000000 0.000000 0.000000 0.043672
#
#
# Mechanical properties :
#
#
# Convention : Reuss Voigt Hill
#
# Bulk Modulus (GPa) = 46.67583 71.77664 59.22623
# Shear Modulus (GPa) = 19.17694 24.52783 21.85238
#
# Velocity S-wave (km/s) = 3.03495 3.43235 3.23975
# Velocity P-wave (km/s) = 5.89069 7.08401 6.51473
#
# Compressibility (1/GPa) = 0.02142437
#
# Stress axis : x y z
#
# Youngs Moduli (GPa) = 27.85944 52.31566 61.11940
#
# Poissons Ratio (x) = 0.39835 0.47378
# Poissons Ratio (y) = 0.21213 0.58718
# Poissons Ratio (z) = 0.21596 0.50260
#
# Static dielectric constant tensor:
#      x y z
#    x 3.702740 0.000000 0.000000 
#    y 0.000000 3.524140 0.000000 
#    z 0.000000 0.000000 3.811760 
# 
# 
# High freq. dielectric constant tensor:
#      x y z
#    x 1.798260 0.000000 0.000000 
#    y 0.000000 1.792810 0.000000 
#    z 0.000000 0.000000 1.816970 
# 
# From -- ./inp_files/7482.got.cif
#   From: 2010.03.12/outbox.cif.g09.slc.cpg/sg61_4_cif.got.tgz:7482.got - 2010.04.10 19:05:03.
