data_PCOD8248982
_publ_section_title
;
Structure prediction by ZEFSAII (Michael W. Deem and Ramdas Pophale) SiO2 
 PCOD8248982
Probable space group: P B C A
;
_chemical_formula_sum "Si O2"
_cell_formula_units_Z 64
_cell_length_a 11.181951
_cell_length_b 24.700897
_cell_length_c 12.042493
_cell_angle_alpha 90.000000
_cell_angle_beta 90.000000
_cell_angle_gamma 90.000000
_cell_volume 3326.187385
_symmetry_space_group_name_H-M "P B C A"
_symmetry_group_IT_number 61
_symmetry_cell_setting 'orthorhombic'
loop_
_space_group_symop_operation_xyz
x,y,z
1/2-x,-y,1/2+z
1/2+x,1/2-y,-z
-x,1/2+y,1/2-z
-x,-y,-z
1/2+x,y,1/2-z
1/2-x,1/2+y,z
x,1/2-y,1/2+z
loop_
_atom_site_type_symbol
_atom_site_label
_atom_site_fract_x
_atom_site_fract_y
_atom_site_fract_z
Si Si1 0.355098 0.670630 0.887422
Si Si2 0.662855 0.219501 0.843379
Si Si3 0.722706 0.588052 0.236887
Si Si4 0.968290 0.539028 0.334539
Si Si5 0.480630 0.077194 0.575573
Si Si6 0.029202 0.744512 0.478657
Si Si7 0.788457 0.150896 0.017643
Si Si8 0.194597 0.677979 0.085909
O O1 0.303423 0.693044 0.772831
O O2 0.432025 0.617646 0.859447
O O3 0.428672 0.717763 0.945899
O O4 0.249107 0.655836 0.970680
O O5 0.523325 0.234469 0.860704
O O6 0.732527 0.275575 0.851419
O O7 0.686125 0.176684 0.942421
O O8 0.847180 0.556468 0.267479
O O9 0.600225 0.552864 0.217658
O O10 0.760191 0.621791 0.127807
O O11 0.680550 0.627149 0.334642
O O12 0.959539 0.565382 0.456023
O O13 0.962348 0.474460 0.346597
O O14 0.354280 0.106216 0.557639
O O15 0.127544 0.700597 0.445241
O O16 0.069716 0.795341 0.552231
#
# Coordination Sequence:
#
# PCOD8248982 Si02
#       8
#     8   8   8   8   8   8   8   8
#     4  10  20  37  58  83 113 164 205 243 311 371
#     4  10  22  34  56  85 122 163 205 246 302 367
#     4  11  23  38  65  94 122 160 207 255 317 359
#     4  10  22  40  67  90 117 160 206 265 309 368
#     4   9  19  42  62  82 117 158 209 247 314 376
#     4   9  21  35  51  87 120 164 198 249 300 363
#     4   9  21  38  57  87 120 160 205 251 312 369
#     4  10  22  34  55  86 124 160 203 251 296 376
#
# _framework density 19.241250000000001
#
# number of rings (size 3 to 8) (size 9 to 14) (size 15 to 20)
#    0.000    2.250    1.250    0.000   10.500    3.000 
#    0.000    0.000    0.000    7.500    0.000    0.000 
#    0.000    0.000    0.000    0.000    0.000    0.000 
#
# Total GULP energy -792973.181483 kJ/mol
# GULP energy per Si atom -12390.205961 kJ/mol
# Density = 1.919746 g / cm^3
# Si number density = 19.241250 Si / 1000 Ang^3
#
#
#
# Elastic Constant Matrix: (Units=GPa)
#
#
# Indices 1 2 3 4 5 6 
#
# 1 79.0683 32.0505 25.5000 0.0000 0.0000 0.0000
# 2 32.0505 94.9427 43.7785 0.0000 0.0000 0.0000
# 3 25.5000 43.7785 89.3626 0.0000 0.0000 0.0000
# 4 0.0000 0.0000 0.0000 29.1622 0.0000 0.0000
# 5 0.0000 0.0000 0.0000 0.0000 17.3591 0.0000
# 6 0.0000 0.0000 0.0000 0.0000 0.0000 14.8654
#
#
#
# Elastic Compliance Matrix: (Units=1/GPa)
#
#
# Indices 1 2 3 4 5 6 
#
# 1 0.015018 -0.003996 -0.002328 0.000000 0.000000 0.000000
# 2 -0.003996 0.014670 -0.006046 0.000000 0.000000 0.000000
# 3 -0.002328 -0.006046 0.014817 0.000000 0.000000 0.000000
# 4 0.000000 0.000000 0.000000 0.034291 0.000000 0.000000
# 5 0.000000 0.000000 0.000000 0.000000 0.057607 0.000000
# 6 0.000000 0.000000 0.000000 0.000000 0.000000 0.067270
#
#
# Mechanical properties :
#
#
# Convention : Reuss Voigt Hill
#
# Bulk Modulus (GPa) = 50.59787 51.78128 51.18958
# Shear Modulus (GPa) = 21.27651 23.08030 22.17840
#
# Velocity S-wave (km/s) = 3.32893 3.46717 3.39875
# Velocity P-wave (km/s) = 6.41322 6.55731 6.48567
#
# Compressibility (1/GPa) = 0.01976368
#
# Stress axis : x y z
#
# Youngs Moduli (GPa) = 66.58709 68.16757 67.49189
#
# Poissons Ratio (x) = 0.27243 0.15709
# Poissons Ratio (y) = 0.26611 0.40807
# Poissons Ratio (z) = 0.15499 0.41216
#
# Static dielectric constant tensor:
#      x y z
#    x 3.626070 0.000000 0.000000 
#    y 0.000000 3.617580 0.000000 
#    z 0.000000 0.000000 3.434920 
# 
# 
# High freq. dielectric constant tensor:
#      x y z
#    x 1.744690 0.000000 0.000000 
#    y 0.000000 1.748070 0.000000 
#    z 0.000000 0.000000 1.741010 
# 
# From -- ./inp_files/5456.got.cif
#   From: 2010.03.12/outbox.cif.g09.slc.cpg/sg61_3_cif.got.tgz:5456.got - 2010.04.10 19:05:03.
