data_PCOD8248578
_publ_section_title
;
Structure prediction by ZEFSAII (Michael W. Deem and Ramdas Pophale) SiO2 
 PCOD8248578
Probable space group: P B C N
;
_chemical_formula_sum "Si O2"
_cell_formula_units_Z 32
_cell_length_a 26.626599
_cell_length_b 4.932611
_cell_length_c 10.389527
_cell_angle_alpha 90.000000
_cell_angle_beta 90.000000
_cell_angle_gamma 90.000000
_cell_volume 1364.546504
_symmetry_space_group_name_H-M "P B C N"
_symmetry_group_IT_number 60
_symmetry_cell_setting 'orthorhombic'
loop_
_space_group_symop_operation_xyz
x,y,z
1/2-x,1/2-y,1/2+z
1/2+x,1/2-y,-z
-x,y,1/2-z
-x,-y,-z
1/2+x,1/2+y,1/2-z
1/2-x,1/2+y,z
x,-y,1/2+z
loop_
_atom_site_type_symbol
_atom_site_label
_atom_site_fract_x
_atom_site_fract_y
_atom_site_fract_z
Si Si1 0.493813 0.712101 0.613547
Si Si2 0.652385 0.505678 0.546416
Si Si3 0.414290 0.983168 0.474421
Si Si4 0.216363 0.967679 0.203490
O O1 0.500000 0.560343 0.750000
O O2 0.500000 0.500000 0.500000
O O3 0.439030 0.857011 0.604837
O O4 0.537714 0.939153 0.612449
O O5 0.618413 0.252818 0.592415
O O6 0.683923 0.599208 0.670041
O O7 0.686358 0.407284 0.427490
O O8 0.619249 0.755365 0.494904
O O9 0.265291 0.777019 0.205687
#
# Coordination Sequence:
#
# PCOD8248578 Si02
#       4
#     8   8   8   8
#     4  11  26  47  74 104 157 191 240 296 356 423
#     4  12  26  44  76 103 142 181 246 290 350 440
#     4  11  26  45  68 111 140 193 234 291 348 415
#     4  12  26  48  72 103 140 183 230 300 370 420
#
# _framework density 23.451014000000001
#
# number of rings (size 3 to 8) (size 9 to 14) (size 15 to 20)
#    0.000    0.500    2.500    4.500    7.000    4.000 
#    0.000    0.000    0.000    0.000    0.000    0.000 
#    0.000    0.000    0.000    0.000    0.000    0.000 
#
# Total GULP energy -396812.144768 kJ/mol
# GULP energy per Si atom -12400.379524 kJ/mol
# Density = 2.339764 g / cm^3
# Si number density = 23.451014 Si / 1000 Ang^3
#
#
#
# Elastic Constant Matrix: (Units=GPa)
#
#
# Indices 1 2 3 4 5 6 
#
# 1 105.8924 36.9860 23.3592 0.0000 0.0000 0.0000
# 2 36.9860 128.5777 20.0297 0.0000 0.0000 0.0000
# 3 23.3592 20.0297 131.8528 0.0000 0.0000 0.0000
# 4 0.0000 0.0000 0.0000 26.9250 0.0000 0.0000
# 5 0.0000 0.0000 0.0000 0.0000 15.2032 0.0000
# 6 0.0000 0.0000 0.0000 0.0000 0.0000 46.1370
#
#
#
# Elastic Compliance Matrix: (Units=1/GPa)
#
#
# Indices 1 2 3 4 5 6 
#
# 1 0.010770 -0.002869 -0.001472 0.000000 0.000000 0.000000
# 2 -0.002869 0.008730 -0.000818 0.000000 0.000000 0.000000
# 3 -0.001472 -0.000818 0.007969 0.000000 0.000000 0.000000
# 4 0.000000 0.000000 0.000000 0.037140 0.000000 0.000000
# 5 0.000000 0.000000 0.000000 0.000000 0.065776 0.000000
# 6 0.000000 0.000000 0.000000 0.000000 0.000000 0.021675
#
#
# Mechanical properties :
#
#
# Convention : Reuss Voigt Hill
#
# Bulk Modulus (GPa) = 58.30347 58.56364 58.43356
# Shear Modulus (GPa) = 29.74504 36.71624 33.23064
#
# Velocity S-wave (km/s) = 3.56531 3.96113 3.76842
# Velocity P-wave (km/s) = 6.47027 6.77847 6.62616
#
# Compressibility (1/GPa) = 0.01715164
#
# Stress axis : x y z
#
# Youngs Moduli (GPa) = 92.84767 114.54703 125.48154
#
# Poissons Ratio (x) = 0.32861 0.18475
# Poissons Ratio (y) = 0.26636 0.10264
# Poissons Ratio (z) = 0.13670 0.09369
#
# Static dielectric constant tensor:
#      x y z
#    x 4.548880 0.000000 0.000000 
#    y 0.000000 4.274080 0.000000 
#    z 0.000000 0.000000 3.979110 
# 
# 
# High freq. dielectric constant tensor:
#      x y z
#    x 1.944660 0.000000 0.000000 
#    y 0.000000 1.939280 0.000000 
#    z 0.000000 0.000000 1.912390 
# 
# From -- ./inp_files/12716.got.cif
#   From: 2010.03.12/outbox.cif.g09.slc.cpg/sg60_7_cif.got.tgz:12716.got - 2010.04.10 18:46:24.
