data_PCOD8248640
_publ_section_title
;
Structure prediction by ZEFSAII (Michael W. Deem and Ramdas Pophale) SiO2 
 PCOD8248640
Probable space group: P B C N
;
_chemical_formula_sum "Si O2"
_cell_formula_units_Z 32
_cell_length_a 14.084102
_cell_length_b 4.660075
_cell_length_c 18.815492
_cell_angle_alpha 90.000000
_cell_angle_beta 90.000000
_cell_angle_gamma 90.000000
_cell_volume 1234.916653
_symmetry_space_group_name_H-M "P B C N"
_symmetry_group_IT_number 60
_symmetry_cell_setting 'orthorhombic'
loop_
_space_group_symop_operation_xyz
x,y,z
1/2-x,1/2-y,1/2+z
1/2+x,1/2-y,-z
-x,y,1/2-z
-x,-y,-z
1/2+x,1/2+y,1/2-z
1/2-x,1/2+y,z
x,-y,1/2+z
loop_
_atom_site_type_symbol
_atom_site_label
_atom_site_fract_x
_atom_site_fract_y
_atom_site_fract_z
Si Si1 0.314597 0.554805 0.506648
Si Si2 0.061241 0.772619 0.134744
Si Si3 0.933540 0.285299 0.121145
Si Si4 0.683773 0.950127 0.252140
O O1 0.285340 0.223232 0.499496
O O2 0.356591 0.607598 0.584499
O O3 0.388058 0.627190 0.445488
O O4 0.101494 0.581417 0.199527
O O5 0.998141 0.543228 0.091120
O O6 0.997307 0.042023 0.161667
O O7 0.856188 0.438519 0.171954
O O8 0.782646 0.123180 0.265148
#
# Coordination Sequence:
#
# PCOD8248640 Si02
#       4
#     8   8   8   8
#     4  12  24  44  70 102 138 180 228 286 349 416
#     4  12  25  44  69 101 138 182 231 288 349 415
#     4  12  25  44  69 101 138 182 231 288 349 415
#     4  12  25  44  67  98 136 182 232 284 341 410
#
# _framework density 25.912680999999999
#
# number of rings (size 3 to 8) (size 9 to 14) (size 15 to 20)
#    0.000    0.000    0.000   11.250    0.000    2.000 
#    0.000    0.000    0.000    0.000    0.000    0.000 
#    0.000    0.000    0.000    0.000    0.000    0.000 
#
# Total GULP energy -396780.435576 kJ/mol
# GULP energy per Si atom -12399.388612 kJ/mol
# Density = 2.585370 g / cm^3
# Si number density = 25.912681 Si / 1000 Ang^3
#
#
#
# Elastic Constant Matrix: (Units=GPa)
#
#
# Indices 1 2 3 4 5 6 
#
# 1 78.8178 31.7765 8.2422 0.0000 0.0000 0.0000
# 2 31.7765 102.8162 10.8367 0.0000 0.0000 0.0000
# 3 8.2422 10.8367 84.5599 0.0000 0.0000 0.0000
# 4 0.0000 0.0000 0.0000 33.1132 0.0000 0.0000
# 5 0.0000 0.0000 0.0000 0.0000 19.8778 0.0000
# 6 0.0000 0.0000 0.0000 0.0000 0.0000 65.6697
#
#
#
# Elastic Compliance Matrix: (Units=1/GPa)
#
#
# Indices 1 2 3 4 5 6 
#
# 1 0.014554 -0.004408 -0.000854 0.000000 0.000000 0.000000
# 2 -0.004408 0.011194 -0.001005 0.000000 0.000000 0.000000
# 3 -0.000854 -0.001005 0.012038 0.000000 0.000000 0.000000
# 4 0.000000 0.000000 0.000000 0.030199 0.000000 0.000000
# 5 0.000000 0.000000 0.000000 0.000000 0.050307 0.000000
# 6 0.000000 0.000000 0.000000 0.000000 0.000000 0.015228
#
#
# Mechanical properties :
#
#
# Convention : Reuss Voigt Hill
#
# Bulk Modulus (GPa) = 39.59950 40.87830 40.23890
# Shear Modulus (GPa) = 32.36836 38.08806 35.22821
#
# Velocity S-wave (km/s) = 3.53814 3.83804 3.69114
# Velocity P-wave (km/s) = 5.65741 5.95402 5.80761
#
# Compressibility (1/GPa) = 0.02525284
#
# Stress axis : x y z
#
# Youngs Moduli (GPa) = 68.70993 89.33059 83.07078
#
# Poissons Ratio (x) = 0.39378 0.07092
# Poissons Ratio (y) = 0.30288 0.08348
# Poissons Ratio (z) = 0.05866 0.08977
#
# Static dielectric constant tensor:
#      x y z
#    x 4.829220 0.000000 0.000000 
#    y 0.000000 5.035380 0.000000 
#    z 0.000000 0.000000 4.174680 
# 
# 
# High freq. dielectric constant tensor:
#      x y z
#    x 2.050450 0.000000 0.000000 
#    y 0.000000 2.065330 0.000000 
#    z 0.000000 0.000000 2.016070 
# 
# From -- ./inp_files/22477.got.cif
#   From: 2010.03.12/outbox.cif.g09.slc.cpg/sg60_12_cif.got.tgz:22477.got - 2010.04.10 18:46:24.
