data_PCOD8248177
_publ_section_title
;
Structure prediction by ZEFSAII (Michael W. Deem and Ramdas Pophale) SiO2 
 PCOD8248177
Probable space group: P B C N
;
_chemical_formula_sum "Si O2"
_cell_formula_units_Z 32
_cell_length_a 5.408252
_cell_length_b 28.625847
_cell_length_c 8.740896
_cell_angle_alpha 90.000000
_cell_angle_beta 90.000000
_cell_angle_gamma 90.000000
_cell_volume 1353.228757
_symmetry_space_group_name_H-M "P B C N"
_symmetry_group_IT_number 60
_symmetry_cell_setting 'orthorhombic'
loop_
_space_group_symop_operation_xyz
x,y,z
1/2-x,1/2-y,1/2+z
1/2+x,1/2-y,-z
-x,y,1/2-z
-x,-y,-z
1/2+x,1/2+y,1/2-z
1/2-x,1/2+y,z
x,-y,1/2+z
loop_
_atom_site_type_symbol
_atom_site_label
_atom_site_fract_x
_atom_site_fract_y
_atom_site_fract_z
Si Si1 0.000000 0.925429 0.750000
Si Si2 0.180884 0.543345 0.988633
Si Si3 0.038530 0.270921 0.931579
Si Si4 0.186484 0.624047 0.485647
Si Si5 0.500000 0.418728 0.250000
O O1 0.119784 0.959904 0.624685
O O2 0.196746 0.890629 0.824592
O O3 0.310373 0.544341 0.824301
O O4 0.000000 0.500000 0.000000
O O5 0.054608 0.593348 0.995415
O O6 0.102792 0.323065 0.981371
O O7 0.000000 0.265296 0.750000
O O8 0.278956 0.241134 0.984234
O O9 0.376387 0.615172 0.624764
#
# Coordination Sequence:
#
# PCOD8248177 Si02
#       5
#     4   8   8   8   4
#     4  10  24  45  74 102 146 196 248 306 383 454
#     4  11  25  45  72 107 147 197 251 308 380 457
#     4  12  30  51  83 119 159 210 268 331 404 475
#     4  11  26  47  75 108 150 194 251 315 382 462
#     4  10  26  45  74 106 148 194 252 310 383 452
#
# _framework density 23.647148999999999
#
# number of rings (size 3 to 8) (size 9 to 14) (size 15 to 20)
#    0.000    1.000    0.000    3.750   12.250   12.000 
#    0.000    3.750    0.000    0.000    0.000    0.000 
#    0.000    0.000    0.000    0.000    0.000    0.000 
#
# Total GULP energy -396809.546323 kJ/mol
# GULP energy per Si atom -12400.298323 kJ/mol
# Density = 2.359333 g / cm^3
# Si number density = 23.647149 Si / 1000 Ang^3
#
#
#
# Elastic Constant Matrix: (Units=GPa)
#
#
# Indices 1 2 3 4 5 6 
#
# 1 138.5218 49.1530 59.5761 0.0000 0.0000 0.0000
# 2 49.1530 140.5733 52.1523 0.0000 0.0000 0.0000
# 3 59.5761 52.1523 151.5170 0.0000 0.0000 0.0000
# 4 0.0000 0.0000 0.0000 32.9450 0.0000 0.0000
# 5 0.0000 0.0000 0.0000 0.0000 49.2574 0.0000
# 6 0.0000 0.0000 0.0000 0.0000 0.0000 49.7445
#
#
#
# Elastic Compliance Matrix: (Units=1/GPa)
#
#
# Indices 1 2 3 4 5 6 
#
# 1 0.009225 -0.002155 -0.002885 0.000000 0.000000 0.000000
# 2 -0.002155 0.008659 -0.002133 0.000000 0.000000 0.000000
# 3 -0.002885 -0.002133 0.008469 0.000000 0.000000 0.000000
# 4 0.000000 0.000000 0.000000 0.030354 0.000000 0.000000
# 5 0.000000 0.000000 0.000000 0.000000 0.020302 0.000000
# 6 0.000000 0.000000 0.000000 0.000000 0.000000 0.020103
#
#
# Mechanical properties :
#
#
# Convention : Reuss Voigt Hill
#
# Bulk Modulus (GPa) = 83.29730 83.59721 83.44726
# Shear Modulus (GPa) = 43.30571 44.37143 43.83857
#
# Velocity S-wave (km/s) = 4.28405 4.33644 4.31032
# Velocity P-wave (km/s) = 7.73125 7.77828 7.75480
#
# Compressibility (1/GPa) = 0.01200519
#
# Stress axis : x y z
#
# Youngs Moduli (GPa) = 108.40421 115.49243 118.08336
#
# Poissons Ratio (x) = 0.24889 0.34071
# Poissons Ratio (y) = 0.23362 0.25186
# Poissons Ratio (z) = 0.31279 0.24634
#
# Static dielectric constant tensor:
#      x y z
#    x 4.908830 0.000000 0.000000 
#    y 0.000000 4.085240 0.000000 
#    z 0.000000 0.000000 4.698930 
# 
# 
# High freq. dielectric constant tensor:
#      x y z
#    x 1.961830 0.000000 0.000000 
#    y 0.000000 1.934530 0.000000 
#    z 0.000000 0.000000 1.960450 
# 
# From -- ./inp_files/3074.got.cif
#   From: 2010.03.12/outbox.cif.g09.slc.cpg/sg60_2_cif.got.tgz:3074.got - 2010.04.10 18:46:24.
