data_PCOD8248210
_publ_section_title
;
Structure prediction by ZEFSAII (Michael W. Deem and Ramdas Pophale) SiO2 
 PCOD8248210
Probable space group: P B C N
;
_chemical_formula_sum "Si O2"
_cell_formula_units_Z 20
_cell_length_a 11.296561
_cell_length_b 14.819373
_cell_length_c 5.056641
_cell_angle_alpha 90.000000
_cell_angle_beta 90.000000
_cell_angle_gamma 90.000000
_cell_volume 846.521909
_symmetry_space_group_name_H-M "P B C N"
_symmetry_group_IT_number 60
_symmetry_cell_setting 'orthorhombic'
loop_
_space_group_symop_operation_xyz
x,y,z
1/2-x,1/2-y,1/2+z
1/2+x,1/2-y,-z
-x,y,1/2-z
-x,-y,-z
1/2+x,1/2+y,1/2-z
1/2-x,1/2+y,z
x,-y,1/2+z
loop_
_atom_site_type_symbol
_atom_site_label
_atom_site_fract_x
_atom_site_fract_y
_atom_site_fract_z
Si Si1 0.336655 0.557746 0.993237
Si Si2 0.926673 0.373014 0.010041
Si Si3 0.500000 0.299753 0.750000
O O1 0.364663 0.476690 0.198232
O O2 0.201567 0.585641 0.023585
O O3 0.419750 0.642049 0.053810
O O4 0.000000 0.391777 0.750000
O O5 0.916068 0.265153 0.070441
O O6 0.000000 0.420496 0.250000
#
# Coordination Sequence:
#
# PCOD8248210 Si02
#       3
#     8   8   4
#     4  12  27  44  71 104 143 178 232 298 355 406
#     4  10  25  43  73  98 138 187 241 280 349 424
#     4  10  28  44  74  98 144 188 242 276 354 426
#
# _framework density 23.626086999999998
#
# number of rings (size 3 to 8) (size 9 to 14) (size 15 to 20)
#    1.200    0.000    0.000    3.600   11.200    4.800 
#    0.000    0.000    0.000    0.000    0.000    0.000 
#    0.000    0.000    0.000    0.000    0.000    0.000 
#
# Total GULP energy -248013.978139 kJ/mol
# GULP energy per Si atom -12400.698907 kJ/mol
# Density = 2.357231 g / cm^3
# Si number density = 23.626087 Si / 1000 Ang^3
#
#
#
# Elastic Constant Matrix: (Units=GPa)
#
#
# Indices 1 2 3 4 5 6 
#
# 1 49.8693 1.7963 0.0782 0.0000 0.0000 0.0000
# 2 1.7963 67.3524 5.4461 0.0000 0.0000 0.0000
# 3 0.0782 5.4461 118.6818 0.0000 0.0000 0.0000
# 4 0.0000 0.0000 0.0000 47.9013 0.0000 0.0000
# 5 0.0000 0.0000 0.0000 0.0000 34.7259 0.0000
# 6 0.0000 0.0000 0.0000 0.0000 0.0000 60.3134
#
#
#
# Elastic Compliance Matrix: (Units=1/GPa)
#
#
# Indices 1 2 3 4 5 6 
#
# 1 0.020072 -0.000536 0.000011 0.000000 0.000000 0.000000
# 2 -0.000536 0.014917 -0.000684 0.000000 0.000000 0.000000
# 3 0.000011 -0.000684 0.008457 0.000000 0.000000 0.000000
# 4 0.000000 0.000000 0.000000 0.020876 0.000000 0.000000
# 5 0.000000 0.000000 0.000000 0.000000 0.028797 0.000000
# 6 0.000000 0.000000 0.000000 0.000000 0.000000 0.016580
#
#
# Mechanical properties :
#
#
# Convention : Reuss Voigt Hill
#
# Bulk Modulus (GPa) = 24.37366 27.83829 26.10598
# Shear Modulus (GPa) = 39.74779 43.82698 41.78739
#
# Velocity S-wave (km/s) = 4.10612 4.31167 4.21015
# Velocity P-wave (km/s) = 5.72880 6.04945 5.89130
#
# Compressibility (1/GPa) = 0.04102789
#
# Stress axis : x y z
#
# Youngs Moduli (GPa) = 49.82133 67.03800 118.24132
#
# Poissons Ratio (x) = 0.03595 -0.00135
# Poissons Ratio (y) = 0.02672 0.08090
# Poissons Ratio (z) = -0.00057 0.04586
#
# Static dielectric constant tensor:
#      x y z
#    x 4.012650 0.000000 0.000000 
#    y 0.000000 4.342850 0.000000 
#    z 0.000000 0.000000 4.292580 
# 
# 
# High freq. dielectric constant tensor:
#      x y z
#    x 1.938830 0.000000 0.000000 
#    y 0.000000 1.945970 0.000000 
#    z 0.000000 0.000000 1.945460 
# 
# From -- ./inp_files/139.got.cif
#   From: 2010.03.12/outbox.cif.g09.slc.cpg/sg60_1_cif.got.tgz:139.got - 2010.04.10 18:46:24.
