data_PCOD8248689
_publ_section_title
;
Structure prediction by ZEFSAII (Michael W. Deem and Ramdas Pophale) SiO2 
 PCOD8248689
Probable space group: P B C N
;
_chemical_formula_sum "Si O2"
_cell_formula_units_Z 32
_cell_length_a 7.413940
_cell_length_b 10.279360
_cell_length_c 17.385497
_cell_angle_alpha 90.000000
_cell_angle_beta 90.000000
_cell_angle_gamma 90.000000
_cell_volume 1324.958432
_symmetry_space_group_name_H-M "P B C N"
_symmetry_group_IT_number 60
_symmetry_cell_setting 'orthorhombic'
loop_
_space_group_symop_operation_xyz
x,y,z
1/2-x,1/2-y,1/2+z
1/2+x,1/2-y,-z
-x,y,1/2-z
-x,-y,-z
1/2+x,1/2+y,1/2-z
1/2-x,1/2+y,z
x,-y,1/2+z
loop_
_atom_site_type_symbol
_atom_site_label
_atom_site_fract_x
_atom_site_fract_y
_atom_site_fract_z
Si Si1 0.327377 0.859310 0.832658
Si Si2 0.707174 0.115251 0.755746
Si Si3 0.323110 0.768327 0.606586
Si Si4 0.960226 0.866694 0.539632
O O1 0.305262 0.712891 0.802903
O O2 0.543365 0.871691 0.850097
O O3 0.218704 0.881001 0.910411
O O4 0.262428 0.966345 0.770591
O O5 0.500000 0.154608 0.750000
O O6 0.789055 0.139374 0.840904
O O7 0.128096 0.829619 0.592969
O O8 0.422591 0.737954 0.526782
O O9 0.000000 0.000000 0.500000
#
# Coordination Sequence:
#
# PCOD8248689 Si02
#       4
#     8   8   8   8
#     4  12  28  51  79 117 154 207 261 323 390 467
#     4  12  27  49  81 113 156 207 260 321 391 463
#     4  12  27  52  76 117 152 206 260 324 392 467
#     4  12  28  47  81 112 158 204 258 323 397 465
#
# _framework density 24.151700999999999
#
# number of rings (size 3 to 8) (size 9 to 14) (size 15 to 20)
#    0.000    0.000    5.000    3.750    7.000    3.000 
#    0.000    0.000    0.000    0.000    0.000    0.000 
#    0.000    0.000    0.000    0.000    0.000    0.000 
#
# Total GULP energy -396875.573424 kJ/mol
# GULP energy per Si atom -12402.361669 kJ/mol
# Density = 2.409673 g / cm^3
# Si number density = 24.151701 Si / 1000 Ang^3
#
#
#
# Elastic Constant Matrix: (Units=GPa)
#
#
# Indices 1 2 3 4 5 6 
#
# 1 143.5202 30.4397 41.6204 0.0000 0.0000 0.0000
# 2 30.4397 107.1912 36.6414 0.0000 0.0000 0.0000
# 3 41.6204 36.6414 105.8587 0.0000 0.0000 0.0000
# 4 0.0000 0.0000 0.0000 43.9748 0.0000 0.0000
# 5 0.0000 0.0000 0.0000 0.0000 50.5882 0.0000
# 6 0.0000 0.0000 0.0000 0.0000 0.0000 31.4160
#
#
#
# Elastic Compliance Matrix: (Units=1/GPa)
#
#
# Indices 1 2 3 4 5 6 
#
# 1 0.008036 -0.001363 -0.002688 0.000000 0.000000 0.000000
# 2 -0.001363 0.010812 -0.003207 0.000000 0.000000 0.000000
# 3 -0.002688 -0.003207 0.011613 0.000000 0.000000 0.000000
# 4 0.000000 0.000000 0.000000 0.022740 0.000000 0.000000
# 5 0.000000 0.000000 0.000000 0.000000 0.019767 0.000000
# 6 0.000000 0.000000 0.000000 0.000000 0.000000 0.031831
#
#
# Mechanical properties :
#
#
# Convention : Reuss Voigt Hill
#
# Bulk Modulus (GPa) = 62.70913 63.77481 63.24197
# Shear Modulus (GPa) = 40.11837 41.72035 40.91936
#
# Velocity S-wave (km/s) = 4.08008 4.16074 4.12061
# Velocity P-wave (km/s) = 6.94385 7.03887 6.99152
#
# Compressibility (1/GPa) = 0.01594664
#
# Stress axis : x y z
#
# Youngs Moduli (GPa) = 124.43624 92.48665 86.10918
#
# Poissons Ratio (x) = 0.12609 0.23144
# Poissons Ratio (y) = 0.16965 0.27611
# Poissons Ratio (z) = 0.33445 0.29656
#
# Static dielectric constant tensor:
#      x y z
#    x 5.620990 0.000000 0.000000 
#    y 0.000000 4.143280 0.000000 
#    z 0.000000 0.000000 5.945570 
# 
# 
# High freq. dielectric constant tensor:
#      x y z
#    x 1.980580 0.000000 0.000000 
#    y 0.000000 1.944850 0.000000 
#    z 0.000000 0.000000 1.978140 
# 
# From -- ./inp_files/14423.got.cif
#   From: 2010.03.12/outbox.cif.g09.slc.cpg/sg60_8_cif.got.tgz:14423.got - 2010.04.10 18:46:24.
