data_PCOD8248113
_publ_section_title
;
Structure prediction by ZEFSAII (Michael W. Deem and Ramdas Pophale) SiO2 
 PCOD8248113
Probable space group: P B C N
;
_chemical_formula_sum "Si O2"
_cell_formula_units_Z 64
_cell_length_a 16.481335
_cell_length_b 14.752421
_cell_length_c 11.771328
_cell_angle_alpha 90.000000
_cell_angle_beta 90.000000
_cell_angle_gamma 90.000000
_cell_volume 2862.075894
_symmetry_space_group_name_H-M "P B C N"
_symmetry_group_IT_number 60
_symmetry_cell_setting 'orthorhombic'
loop_
_space_group_symop_operation_xyz
x,y,z
1/2-x,1/2-y,1/2+z
1/2+x,1/2-y,-z
-x,y,1/2-z
-x,-y,-z
1/2+x,1/2+y,1/2-z
1/2-x,1/2+y,z
x,-y,1/2+z
loop_
_atom_site_type_symbol
_atom_site_label
_atom_site_fract_x
_atom_site_fract_y
_atom_site_fract_z
Si Si1 0.718227 0.835622 0.178347
Si Si2 0.660697 0.354061 0.598066
Si Si3 0.559898 0.945883 0.147158
Si Si4 0.727802 0.079649 0.905696
Si Si5 0.032082 0.083640 0.568402
Si Si6 0.879744 0.179352 0.538148
Si Si7 0.854378 0.949192 0.830664
Si Si8 0.069624 0.385510 0.989271
O O1 0.674285 0.741333 0.157433
O O2 0.652610 0.914659 0.160374
O O3 0.746522 0.843894 0.309438
O O4 0.795413 0.846909 0.096686
O O5 0.738195 0.385389 0.526217
O O6 0.583525 0.350708 0.514930
O O7 0.644618 0.424309 0.699265
O O8 0.500000 0.924978 0.250000
O O9 0.520314 0.888909 0.042744
O O10 0.565352 0.054072 0.124835
O O11 0.631578 0.065533 0.921967
O O12 0.765388 0.982534 0.870420
O O13 0.954888 0.140507 0.613400
O O14 0.088452 0.039293 0.665204
O O15 0.000000 0.000000 0.500000
O O16 0.882113 0.133829 0.412250
O O17 0.894208 0.286283 0.532513
#
# Coordination Sequence:
#
# PCOD8248113 Si02
#       8
#     8   8   8   8   8   8   8   8
#     4  12  25  43  73 102 144 186 238 295 360 425
#     4  11  24  44  67 103 143 187 238 295 358 433
#     4  11  25  44  72  97 137 185 232 289 358 418
#     4  11  24  42  67 106 142 185 242 283 356 431
#     4   9  22  43  67 104 140 180 235 290 367 429
#     4  11  23  45  72 106 141 181 238 299 356 429
#     4  10  24  41  73  99 145 186 234 294 368 425
#     4  11  23  46  69 100 140 181 241 290 343 431
#
# _framework density 22.361391000000001
#
# number of rings (size 3 to 8) (size 9 to 14) (size 15 to 20)
#    0.000    1.250    2.500    2.250    7.000    2.000 
#    2.250    3.750    0.000    0.000    0.000    0.000 
#    0.000    0.000    0.000    0.000    0.000    0.000 
#
# Total GULP energy -793345.738158 kJ/mol
# GULP energy per Si atom -12396.027159 kJ/mol
# Density = 2.231050 g / cm^3
# Si number density = 22.361391 Si / 1000 Ang^3
#
#
#
# Elastic Constant Matrix: (Units=GPa)
#
#
# Indices 1 2 3 4 5 6 
#
# 1 142.1349 50.9605 38.3887 0.0000 0.0000 0.0000
# 2 50.9605 109.4685 49.6768 0.0000 0.0000 0.0000
# 3 38.3887 49.6768 110.3664 0.0000 0.0000 0.0000
# 4 0.0000 0.0000 0.0000 31.9603 0.0000 0.0000
# 5 0.0000 0.0000 0.0000 0.0000 26.0775 0.0000
# 6 0.0000 0.0000 0.0000 0.0000 0.0000 35.9143
#
#
#
# Elastic Compliance Matrix: (Units=1/GPa)
#
#
# Indices 1 2 3 4 5 6 
#
# 1 0.008639 -0.003340 -0.001501 0.000000 0.000000 0.000000
# 2 -0.003340 0.012771 -0.004587 0.000000 0.000000 0.000000
# 3 -0.001501 -0.004587 0.011647 0.000000 0.000000 0.000000
# 4 0.000000 0.000000 0.000000 0.031289 0.000000 0.000000
# 5 0.000000 0.000000 0.000000 0.000000 0.038347 0.000000
# 6 0.000000 0.000000 0.000000 0.000000 0.000000 0.027844
#
#
# Mechanical properties :
#
#
# Convention : Reuss Voigt Hill
#
# Bulk Modulus (GPa) = 70.41730 71.11354 70.76542
# Shear Modulus (GPa) = 32.44062 33.65335 33.04699
#
# Velocity S-wave (km/s) = 3.81299 3.88361 3.84846
# Velocity P-wave (km/s) = 7.13752 7.20978 7.17374
#
# Compressibility (1/GPa) = 0.01420106
#
# Stress axis : x y z
#
# Youngs Moduli (GPa) = 115.75889 78.29961 85.85583
#
# Poissons Ratio (x) = 0.26154 0.12890
# Poissons Ratio (y) = 0.38666 0.39379
# Poissons Ratio (z) = 0.17379 0.35914
#
# Static dielectric constant tensor:
#      x y z
#    x 6.067210 0.000000 0.000000 
#    y 0.000000 3.996020 0.000000 
#    z 0.000000 0.000000 3.968840 
# 
# 
# High freq. dielectric constant tensor:
#      x y z
#    x 1.901230 0.000000 0.000000 
#    y 0.000000 1.870480 0.000000 
#    z 0.000000 0.000000 1.871410 
# 
# From -- ./inp_files/12542.got.cif
#   From: 2010.03.12/outbox.cif.g09.slc.cpg/sg60_7_cif.got.tgz:12542.got - 2010.04.10 18:46:24.
