data_PCOD8248109
_publ_section_title
;
Structure prediction by ZEFSAII (Michael W. Deem and Ramdas Pophale) SiO2 
 PCOD8248109
Probable space group: P B C N
;
_chemical_formula_sum "Si O2"
_cell_formula_units_Z 44
_cell_length_a 6.712313
_cell_length_b 24.890121
_cell_length_c 13.289872
_cell_angle_alpha 90.000000
_cell_angle_beta 90.000000
_cell_angle_gamma 90.000000
_cell_volume 2220.342673
_symmetry_space_group_name_H-M "P B C N"
_symmetry_group_IT_number 60
_symmetry_cell_setting 'orthorhombic'
loop_
_space_group_symop_operation_xyz
x,y,z
1/2-x,1/2-y,1/2+z
1/2+x,1/2-y,-z
-x,y,1/2-z
-x,-y,-z
1/2+x,1/2+y,1/2-z
1/2-x,1/2+y,z
x,-y,1/2+z
loop_
_atom_site_type_symbol
_atom_site_label
_atom_site_fract_x
_atom_site_fract_y
_atom_site_fract_z
Si Si1 0.000000 0.947581 0.750000
Si Si2 0.260073 0.678802 0.997152
Si Si3 0.151378 0.865007 0.903419
Si Si4 0.435601 0.769295 0.861856
Si Si5 0.623716 0.986999 0.846287
Si Si6 0.519168 0.914657 0.472333
O O1 0.861183 0.910664 0.680829
O O2 0.858322 0.985167 0.818647
O O3 0.343346 0.716124 0.909816
O O4 0.434169 0.652819 0.062630
O O5 0.132520 0.632551 0.941566
O O6 0.125161 0.712834 0.073354
O O7 0.270101 0.815451 0.855639
O O8 0.269068 0.889287 0.998066
O O9 0.500000 0.753982 0.750000
O O10 0.500000 0.968739 0.750000
O O11 0.581613 0.945675 0.935234
O O12 0.558056 0.046827 0.877871
#
# Coordination Sequence:
#
# PCOD8248109 Si02
#       6
#     4   8   8   8   8   8
#     4  12  22  36  70  96 118 164 222 268 322 368
#     4  11  22  44  64  96 131 168 211 269 320 388
#     4  11  22  39  64  96 126 162 214 266 318 382
#     4  11  24  41  66  95 132 169 215 264 322 388
#     4  11  23  42  62  93 124 164 215 268 316 381
#     4  10  24  41  64  88 131 166 206 265 325 375
#
# _framework density 19.816759999999999
#
# number of rings (size 3 to 8) (size 9 to 14) (size 15 to 20)
#    0.000    1.091    5.455    1.091    2.545    2.182 
#    3.273    0.000    0.000    0.000    0.000    0.000 
#    0.000    0.000    0.000    0.000    0.000    0.000 
#
# Total GULP energy -545818.017668 kJ/mol
# GULP energy per Si atom -12404.954947 kJ/mol
# Density = 1.977166 g / cm^3
# Si number density = 19.816760 Si / 1000 Ang^3
#
#
#
# Elastic Constant Matrix: (Units=GPa)
#
#
# Indices 1 2 3 4 5 6 
#
# 1 132.4748 61.9664 44.2078 0.0000 0.0000 0.0000
# 2 61.9664 112.7296 52.3090 0.0000 0.0000 0.0000
# 3 44.2078 52.3090 85.2426 0.0000 0.0000 0.0000
# 4 0.0000 0.0000 0.0000 -440.0794 0.0000 0.0000
# 5 0.0000 0.0000 0.0000 0.0000 28.1557 0.0000
# 6 0.0000 0.0000 0.0000 0.0000 0.0000 7.4100
#
#
#
# Elastic Compliance Matrix: (Units=1/GPa)
#
#
# Indices 1 2 3 4 5 6 
#
# 1 0.010583 -0.004572 -0.002682 0.000000 0.000000 0.000000
# 2 -0.004572 0.014378 -0.006452 0.000000 0.000000 0.000000
# 3 -0.002682 -0.006452 0.017081 0.000000 0.000000 0.000000
# 4 0.000000 0.000000 0.000000 -0.002272 0.000000 0.000000
# 5 0.000000 0.000000 0.000000 0.000000 0.035517 0.000000
# 6 0.000000 0.000000 0.000000 0.000000 0.000000 0.134952
#
#
# Mechanical properties :
#
#
# Convention : Reuss Voigt Hill
#
# Bulk Modulus (GPa) = 68.35784 71.93485 70.14634
# Shear Modulus (GPa) = 20.61620 -69.43848 -24.41114
#
# Velocity S-wave (km/s) = 3.22893 -5.92590 -3.51357
# Velocity P-wave (km/s) = 6.96212 3.23156 4.36052
#
# Compressibility (1/GPa) = 0.01462890
#
# Stress axis : x y z
#
# Youngs Moduli (GPa) = 94.49533 69.55099 58.54327
#
# Poissons Ratio (x) = 0.31802 0.15703
# Poissons Ratio (y) = 0.43208 0.37770
# Poissons Ratio (z) = 0.25347 0.44872
#
# Static dielectric constant tensor:
#      x y z
#    x 3.799790 0.000000 0.000000 
#    y 0.000000 3.710310 0.000000 
#    z 0.000000 0.000000 3.449050 
# 
# 
# High freq. dielectric constant tensor:
#      x y z
#    x 1.791180 0.000000 0.000000 
#    y 0.000000 1.777180 0.000000 
#    z 0.000000 0.000000 1.759290 
# 
# From -- ./inp_files/13879.got.cif
#   From: 2010.03.12/outbox.cif.g09.slc.cpg/sg60_7_cif.got.tgz:13879.got - 2010.04.10 18:46:24.
