data_PCOD8248662
_publ_section_title
;
Structure prediction by ZEFSAII (Michael W. Deem and Ramdas Pophale) SiO2 
 PCOD8248662
Probable space group: P B C N
;
_chemical_formula_sum "Si O2"
_cell_formula_units_Z 24
_cell_length_a 7.297805
_cell_length_b 22.591597
_cell_length_c 7.340816
_cell_angle_alpha 90.000000
_cell_angle_beta 90.000000
_cell_angle_gamma 90.000000
_cell_volume 1210.273504
_symmetry_space_group_name_H-M "P B C N"
_symmetry_group_IT_number 60
_symmetry_cell_setting 'orthorhombic'
loop_
_space_group_symop_operation_xyz
x,y,z
1/2-x,1/2-y,1/2+z
1/2+x,1/2-y,-z
-x,y,1/2-z
-x,-y,-z
1/2+x,1/2+y,1/2-z
1/2-x,1/2+y,z
x,-y,1/2+z
loop_
_atom_site_type_symbol
_atom_site_label
_atom_site_fract_x
_atom_site_fract_y
_atom_site_fract_z
Si Si1 0.500000 0.745207 0.750000
Si Si2 0.150170 0.187822 0.394360
Si Si3 0.500000 0.963899 0.250000
Si Si4 0.145955 0.423320 0.886650
O O1 0.654028 0.784004 0.651223
O O2 0.408086 0.703831 0.598045
O O3 0.170185 0.115948 0.381597
O O4 0.000000 0.209535 0.250000
O O5 0.570358 0.921075 0.407260
O O6 0.334695 0.007365 0.324834
O O7 0.000000 0.392398 0.750000
#
# Coordination Sequence:
#
# PCOD8248662 Si02
#       4
#     4   8   4   8
#     4  12  25  44  64  90 132 168 209 266 318 370
#     4  12  25  41  65  94 126 167 214 263 314 379
#     4   8  17  36  64  90 122 162 201 258 322 364
#     4   9  18  36  64  89 119 163 202 254 312 372
#
# _framework density 19.83023
#
# number of rings (size 3 to 8) (size 9 to 14) (size 15 to 20)
#    1.000    0.667    5.000    0.000    0.000    5.333 
#    0.000    1.667    0.000    0.000    0.000    0.000 
#    0.000    0.000    0.000    0.000    0.000    0.000 
#
# Total GULP energy -297318.203251 kJ/mol
# GULP energy per Si atom -12388.258469 kJ/mol
# Density = 1.978510 g / cm^3
# Si number density = 19.830230 Si / 1000 Ang^3
#
#
#
# Elastic Constant Matrix: (Units=GPa)
#
#
# Indices 1 2 3 4 5 6 
#
# 1 90.8840 37.6264 47.8213 0.0000 0.0000 0.0000
# 2 37.6264 63.6825 32.2918 0.0000 0.0000 0.0000
# 3 47.8213 32.2918 167.2140 0.0000 0.0000 0.0000
# 4 0.0000 0.0000 0.0000 -5.0035 0.0000 0.0000
# 5 0.0000 0.0000 0.0000 0.0000 32.7289 0.0000
# 6 0.0000 0.0000 0.0000 0.0000 0.0000 -61.4665
#
#
#
# Elastic Compliance Matrix: (Units=1/GPa)
#
#
# Indices 1 2 3 4 5 6 
#
# 1 0.015829 -0.007823 -0.003016 0.000000 0.000000 0.000000
# 2 -0.007823 0.021274 -0.001871 0.000000 0.000000 0.000000
# 3 -0.003016 -0.001871 0.007204 0.000000 0.000000 0.000000
# 4 0.000000 0.000000 0.000000 -0.199862 0.000000 0.000000
# 5 0.000000 0.000000 0.000000 0.000000 0.030554 0.000000
# 6 0.000000 0.000000 0.000000 0.000000 0.000000 -0.016269
#
#
# Mechanical properties :
#
#
# Convention : Reuss Voigt Hill
#
# Bulk Modulus (GPa) = 52.94748 61.91771 57.43259
# Shear Modulus (GPa) = -45.63953 6.85452 -19.39250
#
# Velocity S-wave (km/s) = -4.80261 1.86121 -3.13057
# Velocity P-wave (km/s) = 1.99878 5.99254 3.99471
#
# Compressibility (1/GPa) = 0.01888664
#
# Stress axis : x y z
#
# Youngs Moduli (GPa) = 63.17602 47.00623 138.80659
#
# Poissons Ratio (x) = 0.36773 0.41866
# Poissons Ratio (y) = 0.49422 0.25971
# Poissons Ratio (z) = 0.19055 0.08795
#
# Static dielectric constant tensor:
#      x y z
#    x 3.280310 0.000000 0.000000 
#    y 0.000000 3.408180 0.000000 
#    z 0.000000 0.000000 3.722270 
# 
# 
# High freq. dielectric constant tensor:
#      x y z
#    x 1.733960 0.000000 0.000000 
#    y 0.000000 1.765810 0.000000 
#    z 0.000000 0.000000 1.795720 
# 
# From -- ./inp_files/3751.got.cif
#   From: 2010.03.12/outbox.cif.g09.slc.cpg/sg60_2_cif.got.tgz:3751.got - 2010.04.10 18:46:24.
