data_PCOD8248426
_publ_section_title
;
Structure prediction by ZEFSAII (Michael W. Deem and Ramdas Pophale) SiO2 
 PCOD8248426
Probable space group: P B C N
;
_chemical_formula_sum "Si O2"
_cell_formula_units_Z 64
_cell_length_a 29.313397
_cell_length_b 11.183002
_cell_length_c 9.365591
_cell_angle_alpha 90.000000
_cell_angle_beta 90.000000
_cell_angle_gamma 90.000000
_cell_volume 3070.151031
_symmetry_space_group_name_H-M "P B C N"
_symmetry_group_IT_number 60
_symmetry_cell_setting 'orthorhombic'
loop_
_space_group_symop_operation_xyz
x,y,z
1/2-x,1/2-y,1/2+z
1/2+x,1/2-y,-z
-x,y,1/2-z
-x,-y,-z
1/2+x,1/2+y,1/2-z
1/2-x,1/2+y,z
x,-y,1/2+z
loop_
_atom_site_type_symbol
_atom_site_label
_atom_site_fract_x
_atom_site_fract_y
_atom_site_fract_z
Si Si1 0.679738 0.064365 0.039091
Si Si2 0.724272 0.749755 0.338702
Si Si3 0.240936 0.104090 0.912689
Si Si4 0.142220 0.862762 0.779465
Si Si5 0.633866 0.583756 0.538650
Si Si6 0.033800 0.501159 0.872013
Si Si7 0.894152 0.693974 0.209491
Si Si8 0.114906 0.651689 0.972541
O O1 0.652540 0.124381 0.169651
O O2 0.729323 0.017150 0.091853
O O3 0.650066 0.953190 0.983997
O O4 0.686691 0.163552 0.915673
O O5 0.755902 0.827212 0.236572
O O6 0.757756 0.688888 0.455808
O O7 0.696833 0.644996 0.252695
O O8 0.188095 0.086172 0.941608
O O9 0.119093 0.896710 0.626506
O O10 0.133468 0.732700 0.844913
O O11 0.122746 0.953398 0.898055
O O12 0.605989 0.678923 0.631332
O O13 0.060535 0.377353 0.839682
O O14 0.069420 0.604276 0.901466
O O15 0.000000 0.541937 0.750000
O O16 0.000000 0.500000 0.000000
O O17 0.895708 0.718573 0.378950
#
# Coordination Sequence:
#
# PCOD8248426 Si02
#       8
#     8   8   8   8   8   8   8   8
#     4  11  23  39  63  92 131 174 226 286 346 396
#     4  11  25  41  56  92 124 176 230 293 336 399
#     4  11  25  37  61  82 132 173 235 279 336 388
#     4  11  24  45  61  95 126 182 229 277 338 401
#     4  11  26  41  65  89 134 183 237 281 331 404
#     4  11  24  43  72 111 142 173 215 280 354 427
#     4  11  23  43  66 100 136 180 222 284 348 410
#     4  11  24  39  72  95 139 172 218 273 351 413
#
# _framework density 20.845880000000001
#
# number of rings (size 3 to 8) (size 9 to 14) (size 15 to 20)
#    0.000    1.000    5.000    1.500   10.500    0.000 
#    0.000    0.000    0.000    1.500    0.000    0.000 
#    0.000    0.000    0.000    0.000    0.000    0.000 
#
# Total GULP energy -793105.550650 kJ/mol
# GULP energy per Si atom -12392.274229 kJ/mol
# Density = 2.079843 g / cm^3
# Si number density = 20.845880 Si / 1000 Ang^3
#
#
#
# Elastic Constant Matrix: (Units=GPa)
#
#
# Indices 1 2 3 4 5 6 
#
# 1 69.0908 9.2505 33.1746 0.0000 0.0000 0.0000
# 2 9.2505 68.6891 29.8484 0.0000 0.0000 0.0000
# 3 33.1746 29.8484 121.9822 0.0000 0.0000 0.0000
# 4 0.0000 0.0000 0.0000 35.1909 0.0000 0.0000
# 5 0.0000 0.0000 0.0000 0.0000 32.2741 0.0000
# 6 0.0000 0.0000 0.0000 0.0000 0.0000 19.5896
#
#
#
# Elastic Compliance Matrix: (Units=1/GPa)
#
#
# Indices 1 2 3 4 5 6 
#
# 1 0.016653 -0.000307 -0.004454 0.000000 0.000000 0.000000
# 2 -0.000307 0.016296 -0.003904 0.000000 0.000000 0.000000
# 3 -0.004454 -0.003904 0.010365 0.000000 0.000000 0.000000
# 4 0.000000 0.000000 0.000000 0.028416 0.000000 0.000000
# 5 0.000000 0.000000 0.000000 0.000000 0.030985 0.000000
# 6 0.000000 0.000000 0.000000 0.000000 0.000000 0.051048
#
#
# Mechanical properties :
#
#
# Convention : Reuss Voigt Hill
#
# Bulk Modulus (GPa) = 38.48578 44.92325 41.70451
# Shear Modulus (GPa) = 27.81573 29.91016 28.86295
#
# Velocity S-wave (km/s) = 3.65684 3.79202 3.72504
# Velocity P-wave (km/s) = 6.02761 6.38510 6.20893
#
# Compressibility (1/GPa) = 0.02598363
#
# Stress axis : x y z
#
# Youngs Moduli (GPa) = 60.04762 61.36402 96.48318
#
# Poissons Ratio (x) = 0.01886 0.42973
# Poissons Ratio (y) = 0.01846 0.37667
# Poissons Ratio (z) = 0.26745 0.23957
#
# Static dielectric constant tensor:
#      x y z
#    x 3.490450 0.000000 0.000000 
#    y 0.000000 3.964850 0.000000 
#    z 0.000000 0.000000 4.090320 
# 
# 
# High freq. dielectric constant tensor:
#      x y z
#    x 1.779870 0.000000 0.000000 
#    y 0.000000 1.814460 0.000000 
#    z 0.000000 0.000000 1.838420 
# 
# From -- ./inp_files/8519.got.cif
#   From: 2010.03.12/outbox.cif.g09.slc.cpg/sg60_5_cif.got.tgz:8519.got - 2010.04.10 18:46:24.
