data_PCOD8248274
_publ_section_title
;
Structure prediction by ZEFSAII (Michael W. Deem and Ramdas Pophale) SiO2 
 PCOD8248274
Probable space group: P B C N
;
_chemical_formula_sum "Si O2"
_cell_formula_units_Z 48
_cell_length_a 8.993002
_cell_length_b 29.968469
_cell_length_c 9.534154
_cell_angle_alpha 90.000000
_cell_angle_beta 90.000000
_cell_angle_gamma 90.000000
_cell_volume 2569.516491
_symmetry_space_group_name_H-M "P B C N"
_symmetry_group_IT_number 60
_symmetry_cell_setting 'orthorhombic'
loop_
_space_group_symop_operation_xyz
x,y,z
1/2-x,1/2-y,1/2+z
1/2+x,1/2-y,-z
-x,y,1/2-z
-x,-y,-z
1/2+x,1/2+y,1/2-z
1/2-x,1/2+y,z
x,-y,1/2+z
loop_
_atom_site_type_symbol
_atom_site_label
_atom_site_fract_x
_atom_site_fract_y
_atom_site_fract_z
Si Si1 0.778125 0.619740 0.168496
Si Si2 0.832930 0.028973 0.235370
Si Si3 0.900815 0.718844 0.463700
Si Si4 0.428558 0.880020 0.532390
Si Si5 0.847173 0.473274 0.019544
Si Si6 0.772566 0.718813 0.162172
O O1 0.662099 0.578683 0.165317
O O2 0.868070 0.615921 0.311335
O O3 0.704595 0.668646 0.153970
O O4 0.892916 0.615092 0.039603
O O5 0.749339 0.027028 0.380727
O O6 0.000000 0.011924 0.250000
O O7 0.747692 0.994255 0.140697
O O8 0.877427 0.668474 0.523315
O O9 0.801270 0.730030 0.326109
O O10 0.853080 0.750153 0.592858
O O11 0.073622 0.724529 0.423280
O O12 0.374005 0.921333 0.437300
O O13 0.000000 0.500000 0.000000
#
# Coordination Sequence:
#
# PCOD8248274 Si02
#       6
#     8   8   8   8   8   8
#     4   8  15  32  53  78 104 139 186 220 258 324
#     4  11  22  36  55  85 116 140 180 238 286 323
#     4   9  18  34  55  77 110 138 180 224 269 317
#     4   8  15  31  56  77 100 142 188 225 251 319
#     4  11  20  36  61  81 106 149 193 224 271 337
#     4   9  18  34  55  79 106 143 178 224 267 319
#
# _framework density 18.680555999999999
#
# number of rings (size 3 to 8) (size 9 to 14) (size 15 to 20)
#    0.000    2.667    1.667    3.000    0.000    0.667 
#    9.000    1.667    7.333    0.000    0.000    0.000 
#    0.000    0.000    0.000    0.000    0.000    0.000 
#
# Total GULP energy -594705.097801 kJ/mol
# GULP energy per Si atom -12389.689538 kJ/mol
# Density = 1.863804 g / cm^3
# Si number density = 18.680556 Si / 1000 Ang^3
#
#
#
# Elastic Constant Matrix: (Units=GPa)
#
#
# Indices 1 2 3 4 5 6 
#
# 1 90.0865 65.7561 35.6437 0.0000 0.0000 0.0000
# 2 65.7561 202.2098 74.8644 0.0000 0.0000 0.0000
# 3 35.6437 74.8644 63.7976 0.0000 0.0000 0.0000
# 4 0.0000 0.0000 0.0000 30.9206 0.0000 0.0000
# 5 0.0000 0.0000 0.0000 0.0000 29.8462 0.0000
# 6 0.0000 0.0000 0.0000 0.0000 0.0000 23.8602
#
#
#
# Elastic Compliance Matrix: (Units=1/GPa)
#
#
# Indices 1 2 3 4 5 6 
#
# 1 0.015346 -0.003211 -0.004806 0.000000 0.000000 0.000000
# 2 -0.003211 0.009416 -0.009256 0.000000 0.000000 0.000000
# 3 -0.004806 -0.009256 0.029221 0.000000 0.000000 0.000000
# 4 0.000000 0.000000 0.000000 0.032341 0.000000 0.000000
# 5 0.000000 0.000000 0.000000 0.000000 0.033505 0.000000
# 6 0.000000 0.000000 0.000000 0.000000 0.000000 0.041911
#
#
# Mechanical properties :
#
#
# Convention : Reuss Voigt Hill
#
# Bulk Modulus (GPa) = 51.44550 78.73579 65.09065
# Shear Modulus (GPa) = 24.65929 28.91405 26.78667
#
# Velocity S-wave (km/s) = 3.63719 3.93850 3.79084
# Velocity P-wave (km/s) = 6.72594 7.93236 7.35393
#
# Compressibility (1/GPa) = 0.01943805
#
# Stress axis : x y z
#
# Youngs Moduli (GPa) = 65.16517 106.19876 34.22232
#
# Poissons Ratio (x) = 0.34101 0.16446
# Poissons Ratio (y) = 0.20925 0.31675
# Poissons Ratio (z) = 0.31315 0.98295
#
# Static dielectric constant tensor:
#      x y z
#    x 3.336350 0.000000 0.000000 
#    y 0.000000 3.898580 0.000000 
#    z 0.000000 0.000000 3.288850 
# 
# 
# High freq. dielectric constant tensor:
#      x y z
#    x 1.708810 0.000000 0.000000 
#    y 0.000000 1.739680 0.000000 
#    z 0.000000 0.000000 1.693620 
# 
# From -- ./inp_files/4251.got.cif
#   From: 2010.03.12/outbox.cif.g09.slc.cpg/sg60_3_cif.got.tgz:4251.got - 2010.04.10 18:46:24.
