data_PCOD8248482
_publ_section_title
;
Structure prediction by ZEFSAII (Michael W. Deem and Ramdas Pophale) SiO2 
 PCOD8248482
Probable space group: P B C N
;
_chemical_formula_sum "Si O2"
_cell_formula_units_Z 52
_cell_length_a 7.447575
_cell_length_b 12.475250
_cell_length_c 25.159174
_cell_angle_alpha 90.000000
_cell_angle_beta 90.000000
_cell_angle_gamma 90.000000
_cell_volume 2337.547914
_symmetry_space_group_name_H-M "P B C N"
_symmetry_group_IT_number 60
_symmetry_cell_setting 'orthorhombic'
loop_
_space_group_symop_operation_xyz
x,y,z
1/2-x,1/2-y,1/2+z
1/2+x,1/2-y,-z
-x,y,1/2-z
-x,-y,-z
1/2+x,1/2+y,1/2-z
1/2-x,1/2+y,z
x,-y,1/2+z
loop_
_atom_site_type_symbol
_atom_site_label
_atom_site_fract_x
_atom_site_fract_y
_atom_site_fract_z
Si Si1 0.659842 0.734906 0.283940
Si Si2 0.506200 0.574545 0.133565
Si Si3 0.000000 0.370977 0.750000
Si Si4 0.915371 0.535269 0.138354
Si Si5 0.878686 0.219032 0.452892
Si Si6 0.963579 0.611580 0.470430
Si Si7 0.725112 0.886686 0.374218
O O1 0.500000 0.788493 0.250000
O O2 0.572643 0.634860 0.315254
O O3 0.753431 0.825824 0.318993
O O4 0.817815 0.696965 0.244951
O O5 0.701203 0.522800 0.144964
O O6 0.524209 0.661337 0.085712
O O7 0.369142 0.480186 0.118581
O O8 0.008734 0.434942 0.694462
O O9 0.959894 0.616420 0.089895
O O10 0.016702 0.425789 0.121956
O O11 0.751417 0.122389 0.472132
O O12 0.750857 0.302175 0.421389
O O13 0.965537 0.281491 0.501321
O O14 0.000000 0.500000 0.500000
#
# Coordination Sequence:
#
# PCOD8248482 Si02
#       7
#     8   8   4   8   8   8   8
#     4  11  24  43  67  98 141 183 241 297 358 426
#     4  11  23  45  71 103 140 189 238 296 365 428
#     4  12  24  46  70 100 140 192 238 298 360 430
#     4  12  24  44  73  98 144 186 235 296 355 426
#     4  11  23  45  72 105 150 184 238 301 363 433
#     4  12  24  46  75 109 148 191 241 302 366 433
#     4  11  24  45  67 104 142 185 235 298 357 432
#
# _framework density 22.245532999999998
#
# number of rings (size 3 to 8) (size 9 to 14) (size 15 to 20)
#    0.000    0.615    6.154    1.846    1.077    2.462 
#    6.923    3.077    0.000    0.000    0.000    0.000 
#    0.000    0.000    0.000    0.000    0.000    0.000 
#
# Total GULP energy -644608.612241 kJ/mol
# GULP energy per Si atom -12396.319466 kJ/mol
# Density = 2.219490 g / cm^3
# Si number density = 22.245533 Si / 1000 Ang^3
#
#
#
# Elastic Constant Matrix: (Units=GPa)
#
#
# Indices 1 2 3 4 5 6 
#
# 1 120.8800 25.8583 16.8819 0.0000 0.0000 0.0000
# 2 25.8583 74.8029 17.7022 0.0000 0.0000 0.0000
# 3 16.8819 17.7022 112.4072 0.0000 0.0000 0.0000
# 4 0.0000 0.0000 0.0000 22.0993 0.0000 0.0000
# 5 0.0000 0.0000 0.0000 0.0000 28.5947 0.0000
# 6 0.0000 0.0000 0.0000 0.0000 0.0000 36.3818
#
#
#
# Elastic Compliance Matrix: (Units=1/GPa)
#
#
# Indices 1 2 3 4 5 6 
#
# 1 0.009020 -0.002906 -0.000897 0.000000 0.000000 0.000000
# 2 -0.002906 0.014822 -0.001898 0.000000 0.000000 0.000000
# 3 -0.000897 -0.001898 0.009330 0.000000 0.000000 0.000000
# 4 0.000000 0.000000 0.000000 0.045250 0.000000 0.000000
# 5 0.000000 0.000000 0.000000 0.000000 0.034972 0.000000
# 6 0.000000 0.000000 0.000000 0.000000 0.000000 0.027486
#
#
# Mechanical properties :
#
#
# Convention : Reuss Voigt Hill
#
# Bulk Modulus (GPa) = 45.93392 47.66388 46.79890
# Shear Modulus (GPa) = 31.34063 33.92500 32.63282
#
# Velocity S-wave (km/s) = 3.75754 3.90939 3.83422
# Velocity P-wave (km/s) = 6.28640 6.46920 6.37846
#
# Compressibility (1/GPa) = 0.02177040
#
# Stress axis : x y z
#
# Youngs Moduli (GPa) = 110.87078 67.46717 107.18319
#
# Poissons Ratio (x) = 0.19604 0.09614
# Poissons Ratio (y) = 0.32215 0.20342
# Poissons Ratio (z) = 0.09945 0.12804
#
# Static dielectric constant tensor:
#      x y z
#    x 3.968720 0.000000 0.000000 
#    y 0.000000 3.897000 0.000000 
#    z 0.000000 0.000000 4.190730 
# 
# 
# High freq. dielectric constant tensor:
#      x y z
#    x 1.874860 0.000000 0.000000 
#    y 0.000000 1.869090 0.000000 
#    z 0.000000 0.000000 1.887440 
# 
# From -- ./inp_files/25181.got.cif
#   From: 2010.03.12/outbox.cif.g09.slc.cpg/sg60_13_cif.got.tgz:25181.got - 2010.04.10 18:46:24.
