data_PCOD8248683
_publ_section_title
;
Structure prediction by ZEFSAII (Michael W. Deem and Ramdas Pophale) SiO2 
 PCOD8248683
Probable space group: P B C N
;
_chemical_formula_sum "Si O2"
_cell_formula_units_Z 40
_cell_length_a 10.586120
_cell_length_b 28.728684
_cell_length_c 5.271938
_cell_angle_alpha 90.000000
_cell_angle_beta 90.000000
_cell_angle_gamma 90.000000
_cell_volume 1603.329706
_symmetry_space_group_name_H-M "P B C N"
_symmetry_group_IT_number 60
_symmetry_cell_setting 'orthorhombic'
loop_
_space_group_symop_operation_xyz
x,y,z
1/2-x,1/2-y,1/2+z
1/2+x,1/2-y,-z
-x,y,1/2-z
-x,-y,-z
1/2+x,1/2+y,1/2-z
1/2-x,1/2+y,z
x,-y,1/2+z
loop_
_atom_site_type_symbol
_atom_site_label
_atom_site_fract_x
_atom_site_fract_y
_atom_site_fract_z
Si Si1 0.500000 0.319455 0.250000
Si Si2 0.623721 0.394203 0.907905
Si Si3 0.204907 0.469956 0.413721
Si Si4 0.131011 0.643899 0.355085
Si Si5 0.180803 0.744293 0.157850
Si Si6 0.000000 0.594094 0.750000
O O1 0.407891 0.350561 0.416705
O O2 0.580644 0.284043 0.425826
O O3 0.500000 0.408393 0.750000
O O4 0.739124 0.379662 0.727011
O O5 0.667775 0.438855 0.067794
O O6 0.205609 0.508008 0.634402
O O7 0.078144 0.438873 0.444152
O O8 0.127044 0.698588 0.296463
O O9 0.111519 0.628679 0.647039
O O10 0.000000 0.621756 0.250000
O O11 0.257236 0.769035 0.389360
#
# Coordination Sequence:
#
# PCOD8248683 Si02
#       6
#     4   8   8   8   8   4
#     4  12  28  48  78 113 170 227 266 336 406 484
#     4  12  29  52  80 117 167 218 268 333 418 496
#     4  12  29  53  84 120 157 210 272 348 418 496
#     4  12  26  49  81 121 159 216 276 330 396 482
#     4  12  28  48  76 118 167 216 279 329 392 475
#     4  12  28  50  88 119 168 201 274 344 426 480
#
# _framework density 24.948080000000001
#
# number of rings (size 3 to 8) (size 9 to 14) (size 15 to 20)
#    0.000    0.000    5.000    3.000   11.200    0.800 
#    0.000    0.000    0.000    0.000    0.000    0.000 
#    0.000    0.000    0.000    0.000    0.000    0.000 
#
# Total GULP energy -495560.531142 kJ/mol
# GULP energy per Si atom -12389.013279 kJ/mol
# Density = 2.489130 g / cm^3
# Si number density = 24.948080 Si / 1000 Ang^3
#
#
#
# Elastic Constant Matrix: (Units=GPa)
#
#
# Indices 1 2 3 4 5 6 
#
# 1 165.0297 53.0383 38.1566 0.0000 0.0000 0.0000
# 2 53.0383 111.1402 21.7161 0.0000 0.0000 0.0000
# 3 38.1566 21.7161 75.5772 0.0000 0.0000 0.0000
# 4 0.0000 0.0000 0.0000 32.4968 0.0000 0.0000
# 5 0.0000 0.0000 0.0000 0.0000 50.1190 0.0000
# 6 0.0000 0.0000 0.0000 0.0000 0.0000 30.0100
#
#
#
# Elastic Compliance Matrix: (Units=1/GPa)
#
#
# Indices 1 2 3 4 5 6 
#
# 1 0.007759 -0.003112 -0.003023 0.000000 0.000000 0.000000
# 2 -0.003112 0.010781 -0.001527 0.000000 0.000000 0.000000
# 3 -0.003023 -0.001527 0.015196 0.000000 0.000000 0.000000
# 4 0.000000 0.000000 0.000000 0.030772 0.000000 0.000000
# 5 0.000000 0.000000 0.000000 0.000000 0.019953 0.000000
# 6 0.000000 0.000000 0.000000 0.000000 0.000000 0.033322
#
#
# Mechanical properties :
#
#
# Convention : Reuss Voigt Hill
#
# Bulk Modulus (GPa) = 54.30955 64.17437 59.24196
# Shear Modulus (GPa) = 35.90832 38.44757 37.17794
#
# Velocity S-wave (km/s) = 3.79796 3.92995 3.86452
# Velocity P-wave (km/s) = 6.40694 6.80967 6.61138
#
# Compressibility (1/GPa) = 0.01841297
#
# Stress axis : x y z
#
# Youngs Moduli (GPa) = 128.88995 92.75580 65.80530
#
# Poissons Ratio (x) = 0.28864 0.19892
# Poissons Ratio (y) = 0.40109 0.10046
# Poissons Ratio (z) = 0.38962 0.14161
#
# Static dielectric constant tensor:
#      x y z
#    x 4.917640 0.000000 0.000000 
#    y 0.000000 4.583070 0.000000 
#    z 0.000000 0.000000 4.551160 
# 
# 
# High freq. dielectric constant tensor:
#      x y z
#    x 2.007070 0.000000 0.000000 
#    y 0.000000 2.009720 0.000000 
#    z 0.000000 0.000000 1.985020 
# 
# From -- ./inp_files/870.got.cif
#   From: 2010.03.12/outbox.cif.g09.slc.cpg/sg60_1_cif.got.tgz:870.got - 2010.04.10 18:46:24.
