data_PCOD8248599
_publ_section_title
;
Structure prediction by ZEFSAII (Michael W. Deem and Ramdas Pophale) SiO2 
 PCOD8248599
Probable space group: P B C N
;
_chemical_formula_sum "Si O2"
_cell_formula_units_Z 64
_cell_length_a 9.638229
_cell_length_b 18.606912
_cell_length_c 17.517125
_cell_angle_alpha 90.000000
_cell_angle_beta 90.000000
_cell_angle_gamma 90.000000
_cell_volume 3141.480537
_symmetry_space_group_name_H-M "P B C N"
_symmetry_group_IT_number 60
_symmetry_cell_setting 'orthorhombic'
loop_
_space_group_symop_operation_xyz
x,y,z
1/2-x,1/2-y,1/2+z
1/2+x,1/2-y,-z
-x,y,1/2-z
-x,-y,-z
1/2+x,1/2+y,1/2-z
1/2-x,1/2+y,z
x,-y,1/2+z
loop_
_atom_site_type_symbol
_atom_site_label
_atom_site_fract_x
_atom_site_fract_y
_atom_site_fract_z
Si Si1 0.450283 0.250179 0.456832
Si Si2 0.782166 0.893520 0.278651
Si Si3 0.723343 0.552408 0.287563
Si Si4 0.935322 0.944156 0.631922
Si Si5 0.346882 0.245220 0.760337
Si Si6 0.896685 0.318833 0.816713
Si Si7 0.662166 0.299293 0.572389
Si Si8 0.460411 0.606045 0.872635
O O1 0.538415 0.204120 0.396342
O O2 0.540393 0.252594 0.533934
O O3 0.306381 0.208516 0.474468
O O4 0.415004 0.332133 0.431238
O O5 0.656939 0.838732 0.262375
O O6 0.879846 0.888487 0.205789
O O7 0.877376 0.877927 0.353334
O O8 0.718709 0.971834 0.290692
O O9 0.670253 0.568228 0.202124
O O10 0.594519 0.567220 0.343742
O O11 0.859278 0.596909 0.312753
O O12 0.887270 0.882835 0.572222
O O13 0.928981 0.024936 0.595610
O O14 0.500000 0.276580 0.750000
O O15 0.250281 0.281374 0.697372
O O16 0.300388 0.264905 0.845647
O O17 0.000000 0.294886 0.750000
#
# Coordination Sequence:
#
# PCOD8248599 Si02
#       8
#     8   8   8   8   8   8   8   8
#     4  12  26  40  62  91 130 171 217 264 319 384
#     4   9  17  34  60  95 123 148 204 262 317 371
#     4   9  18  32  62  97 120 150 199 270 317 369
#     4   9  18  36  61  92 125 154 211 265 315 378
#     4  12  23  37  64  92 124 159 207 265 320 375
#     4  12  21  39  65  87 119 164 210 258 317 381
#     4  12  26  41  58  93 128 168 214 266 326 376
#     4   9  17  36  64  89 119 164 212 260 308 381
#
# _framework density 20.37256
#
# number of rings (size 3 to 8) (size 9 to 14) (size 15 to 20)
#    0.000    1.500    5.000    2.250    3.500    1.000 
#    0.000    0.000    0.000    0.750    0.000    0.000 
#    0.000    0.000    0.000    0.000    0.000    0.000 
#
# Total GULP energy -793192.094400 kJ/mol
# GULP energy per Si atom -12393.626475 kJ/mol
# Density = 2.032619 g / cm^3
# Si number density = 20.372560 Si / 1000 Ang^3
#
#
#
# Elastic Constant Matrix: (Units=GPa)
#
#
# Indices 1 2 3 4 5 6 
#
# 1 81.6463 33.3779 2.5461 0.0000 0.0000 0.0000
# 2 33.3779 126.2501 18.5303 0.0000 0.0000 0.0000
# 3 2.5461 18.5303 21.9685 0.0000 0.0000 0.0000
# 4 0.0000 0.0000 0.0000 14.0554 0.0000 0.0000
# 5 0.0000 0.0000 0.0000 0.0000 28.8548 0.0000
# 6 0.0000 0.0000 0.0000 0.0000 0.0000 34.2000
#
#
#
# Elastic Compliance Matrix: (Units=1/GPa)
#
#
# Indices 1 2 3 4 5 6 
#
# 1 0.013787 -0.003892 0.001685 0.000000 0.000000 0.000000
# 2 -0.003892 0.010139 -0.008101 0.000000 0.000000 0.000000
# 3 0.001685 -0.008101 0.052158 0.000000 0.000000 0.000000
# 4 0.000000 0.000000 0.000000 0.071147 0.000000 0.000000
# 5 0.000000 0.000000 0.000000 0.000000 0.034656 0.000000
# 6 0.000000 0.000000 0.000000 0.000000 0.000000 0.029240
#
#
# Mechanical properties :
#
#
# Convention : Reuss Voigt Hill
#
# Bulk Modulus (GPa) = 18.02871 37.64148 27.83510
# Shear Modulus (GPa) = 19.98155 27.11609 23.54882
#
# Velocity S-wave (km/s) = 3.13518 3.65226 3.40355
# Velocity P-wave (km/s) = 4.68770 6.02511 5.39799
#
# Compressibility (1/GPa) = 0.05546709
#
# Stress axis : x y z
#
# Youngs Moduli (GPa) = 72.53427 98.63073 19.17269
#
# Poissons Ratio (x) = 0.38389 -0.03231
# Poissons Ratio (y) = 0.28232 0.15532
# Poissons Ratio (z) = -0.12224 0.79900
#
# Static dielectric constant tensor:
#      x y z
#    x 4.008500 0.000000 0.000000 
#    y 0.000000 4.212450 0.000000 
#    z 0.000000 0.000000 3.427020 
# 
# 
# High freq. dielectric constant tensor:
#      x y z
#    x 1.785220 0.000000 0.000000 
#    y 0.000000 1.809710 0.000000 
#    z 0.000000 0.000000 1.761280 
# 
# From -- ./inp_files/19672.got.cif
#   From: 2010.03.12/outbox.cif.g09.slc.cpg/sg60_10_cif.got.tgz:19672.got - 2010.04.10 18:46:24.
