data_PCOD8248698
_publ_section_title
;
Structure prediction by ZEFSAII (Michael W. Deem and Ramdas Pophale) SiO2 
 PCOD8248698
Probable space group: P B C A
;
_chemical_formula_sum "Si O2"
_cell_formula_units_Z 56
_cell_length_a 5.198449
_cell_length_b 21.933145
_cell_length_c 28.838601
_cell_angle_alpha 90.000000
_cell_angle_beta 90.000000
_cell_angle_gamma 90.000000
_cell_volume 3288.129290
_symmetry_space_group_name_H-M "P B C A"
_symmetry_group_IT_number 61
_symmetry_cell_setting 'orthorhombic'
loop_
_space_group_symop_operation_xyz
x,y,z
1/2-x,-y,1/2+z
1/2+x,1/2-y,-z
-x,1/2+y,1/2-z
-x,-y,-z
1/2+x,y,1/2-z
1/2-x,1/2+y,z
x,1/2-y,1/2+z
loop_
_atom_site_type_symbol
_atom_site_label
_atom_site_fract_x
_atom_site_fract_y
_atom_site_fract_z
Si Si1 0.211654 0.078667 0.492505
Si Si2 0.750791 0.280697 0.519867
Si Si3 0.824749 0.183060 0.120384
Si Si4 0.197923 0.795384 0.775481
Si Si5 0.173373 0.606984 0.130694
Si Si6 0.711693 0.028055 0.447628
Si Si7 0.810934 0.072745 0.264190
O O1 0.266517 0.149711 0.497375
O O2 0.419982 0.048870 0.457718
O O3 0.917578 0.067927 0.476973
O O4 0.252115 0.043836 0.541912
O O5 0.472164 0.255233 0.506924
O O6 0.789563 0.273544 0.575583
O O7 0.795381 0.219511 0.169272
O O8 0.606169 0.131149 0.115843
O O9 0.109465 0.155321 0.116331
O O10 0.446761 0.767048 0.749629
O O11 0.195815 0.868811 0.770588
O O12 0.228032 0.542167 0.106136
O O13 0.185581 0.597023 0.184676
O O14 0.559519 0.033240 0.250802
#
# Coordination Sequence:
#
# PCOD8248698 Si02
#       7
#     8   8   8   8   8   8   8
#     4  10  20  35  51  69  98 124 172 214 241 291
#     4  12  24  37  50  70 100 141 180 216 256 296
#     4  12  20  30  47  69  99 133 165 197 247 309
#     4  10  16  27  42  66  95 130 146 190 251 309
#     4  12  17  28  48  70 100 128 157 190 247 315
#     4  10  19  32  52  75  93 129 163 204 251 286
#     4  10  16  25  38  67  99 129 141 181 241 312
#
# _framework density 17.030963
#
# number of rings (size 3 to 8) (size 9 to 14) (size 15 to 20)
#    0.000    1.143    8.571    1.714    0.000    0.000 
#    0.000    0.000    0.000    0.000    0.000    0.000 
#    0.000    6.857    0.000    0.000    0.000    0.000 
#
# Total GULP energy -693914.089726 kJ/mol
# GULP energy per Si atom -12391.323031 kJ/mol
# Density = 1.699220 g / cm^3
# Si number density = 17.030963 Si / 1000 Ang^3
#
#
#
# Elastic Constant Matrix: (Units=GPa)
#
#
# Indices 1 2 3 4 5 6 
#
# 1 118.7156 3.8277 20.5249 0.0000 0.0000 0.0000
# 2 3.8277 42.8146 19.3955 0.0000 0.0000 0.0000
# 3 20.5249 19.3955 100.2941 0.0000 0.0000 0.0000
# 4 0.0000 0.0000 0.0000 1.1620 0.0000 0.0000
# 5 0.0000 0.0000 0.0000 0.0000 13.7765 0.0000
# 6 0.0000 0.0000 0.0000 0.0000 0.0000 15.3724
#
#
#
# Elastic Compliance Matrix: (Units=1/GPa)
#
#
# Indices 1 2 3 4 5 6 
#
# 1 0.008733 0.000032 -0.001793 0.000000 0.000000 0.000000
# 2 0.000032 0.025599 -0.004957 0.000000 0.000000 0.000000
# 3 -0.001793 -0.004957 0.011296 0.000000 0.000000 0.000000
# 4 0.000000 0.000000 0.000000 0.860573 0.000000 0.000000
# 5 0.000000 0.000000 0.000000 0.000000 0.072587 0.000000
# 6 0.000000 0.000000 0.000000 0.000000 0.000000 0.065052
#
#
# Mechanical properties :
#
#
# Convention : Reuss Voigt Hill
#
# Bulk Modulus (GPa) = 31.06469 38.81338 34.93904
# Shear Modulus (GPa) = 4.68162 20.60060 12.64111
#
# Velocity S-wave (km/s) = 1.65978 3.48170 2.72737
# Velocity P-wave (km/s) = 4.68539 6.24519 5.52065
#
# Compressibility (1/GPa) = 0.03219089
#
# Stress axis : x y z
#
# Youngs Moduli (GPa) = 114.51471 39.06356 88.52480
#
# Poissons Ratio (x) = -0.00124 0.15874
# Poissons Ratio (y) = -0.00362 0.43882
# Poissons Ratio (z) = 0.20535 0.19364
#
# Static dielectric constant tensor:
#      x y z
#    x 4.129290 0.000000 0.000000 
#    y 0.000000 2.687820 0.000000 
#    z 0.000000 0.000000 3.390500 
# 
# 
# High freq. dielectric constant tensor:
#      x y z
#    x 1.699150 0.000000 0.000000 
#    y 0.000000 1.572000 0.000000 
#    z 0.000000 0.000000 1.662780 
# 
# From -- ./inp_files/10659.got.cif
#   From: 2010.03.12/outbox.cif.g09.slc.cpg/sg61_6_cif.got.tgz:10659.got - 2010.04.10 19:05:03.
