data_PCOD8248928
_publ_section_title
;
Structure prediction by ZEFSAII (Michael W. Deem and Ramdas Pophale) SiO2 
 PCOD8248928
Probable space group: P B C A
;
_chemical_formula_sum "Si O2"
_cell_formula_units_Z 64
_cell_length_a 5.322769
_cell_length_b 18.949967
_cell_length_c 29.886593
_cell_angle_alpha 90.000000
_cell_angle_beta 90.000000
_cell_angle_gamma 90.000000
_cell_volume 3014.549963
_symmetry_space_group_name_H-M "P B C A"
_symmetry_group_IT_number 61
_symmetry_cell_setting 'orthorhombic'
loop_
_space_group_symop_operation_xyz
x,y,z
1/2-x,-y,1/2+z
1/2+x,1/2-y,-z
-x,1/2+y,1/2-z
-x,-y,-z
1/2+x,y,1/2-z
1/2-x,1/2+y,z
x,1/2-y,1/2+z
loop_
_atom_site_type_symbol
_atom_site_label
_atom_site_fract_x
_atom_site_fract_y
_atom_site_fract_z
Si Si1 0.430078 0.537707 0.227281
Si Si2 0.028482 0.870875 0.226916
Si Si3 0.781528 0.402853 0.045298
Si Si4 0.671253 0.470693 0.872944
Si Si5 0.076723 0.628076 0.625766
Si Si6 0.836856 0.716505 0.942252
Si Si7 0.077425 0.842282 0.979729
Si Si8 0.154506 0.052177 0.425242
O O1 0.697713 0.569125 0.243687
O O2 0.455339 0.454272 0.233134
O O3 0.378254 0.559309 0.176315
O O4 0.289765 0.839043 0.246137
O O5 0.987394 0.849842 0.175105
O O6 0.655270 0.385024 0.093013
O O7 0.902353 0.480608 0.047446
O O8 0.987802 0.344164 0.037664
O O9 0.600647 0.402157 0.001692
O O10 0.732785 0.554698 0.871488
O O11 0.424042 0.453692 0.901218
O O12 0.919693 0.432623 0.892537
O O13 0.243093 0.692922 0.606795
O O14 0.953450 0.794945 0.939958
O O15 0.619864 0.714509 0.980143
O O16 0.320884 0.881800 0.959205
#
# Coordination Sequence:
#
# PCOD8248928 Si02
#       8
#     8   8   8   8   8   8   8   8
#     4   9  16  28  49  78 111 144 176 221 279 337
#     4   9  18  29  50  81 114 143 177 225 277 333
#     4  10  21  38  56  80 112 153 188 233 287 334
#     4  10  20  35  54  83 116 147 184 231 285 339
#     4   9  20  34  55  81 114 151 183 227 287 339
#     4  11  21  38  57  78 113 150 193 237 285 334
#     4  11  24  37  57  81 109 150 199 240 278 337
#     4  11  23  37  57  83 115 150 187 238 285 337
#
# _framework density 21.230366
#
# number of rings (size 3 to 8) (size 9 to 14) (size 15 to 20)
#    0.000    2.000    2.500    1.125    3.500    3.500 
#    0.000    0.000    0.000    0.000    0.000    5.250 
#    0.000    0.000    0.000    0.000    0.000    0.000 
#
# Total GULP energy -793279.334287 kJ/mol
# GULP energy per Si atom -12394.989598 kJ/mol
# Density = 2.118204 g / cm^3
# Si number density = 21.230366 Si / 1000 Ang^3
#
#
#
# Elastic Constant Matrix: (Units=GPa)
#
#
# Indices 1 2 3 4 5 6 
#
# 1 91.8658 1.3889 22.1616 0.0000 0.0000 0.0000
# 2 1.3889 42.5490 19.8609 0.0000 0.0000 0.0000
# 3 22.1616 19.8609 105.1178 0.0000 0.0000 0.0000
# 4 0.0000 0.0000 0.0000 15.7658 0.0000 0.0000
# 5 0.0000 0.0000 0.0000 0.0000 32.4466 0.0000
# 6 0.0000 0.0000 0.0000 0.0000 0.0000 16.9272
#
#
#
# Elastic Compliance Matrix: (Units=1/GPa)
#
#
# Indices 1 2 3 4 5 6 
#
# 1 0.011495 0.000829 -0.002580 0.000000 0.000000 0.000000
# 2 0.000829 0.025835 -0.005056 0.000000 0.000000 0.000000
# 3 -0.002580 -0.005056 0.011012 0.000000 0.000000 0.000000
# 4 0.000000 0.000000 0.000000 0.063429 0.000000 0.000000
# 5 0.000000 0.000000 0.000000 0.000000 0.030820 0.000000
# 6 0.000000 0.000000 0.000000 0.000000 0.000000 0.059076
#
#
# Mechanical properties :
#
#
# Convention : Reuss Voigt Hill
#
# Bulk Modulus (GPa) = 28.79458 36.26170 32.52814
# Shear Modulus (GPa) = 22.04017 26.10267 24.07142
#
# Velocity S-wave (km/s) = 3.22552 3.51022 3.37088
# Velocity P-wave (km/s) = 5.24064 5.79190 5.52315
#
# Compressibility (1/GPa) = 0.03472876
#
# Stress axis : x y z
#
# Youngs Moduli (GPa) = 86.99176 38.70671 90.80673
#
# Poissons Ratio (x) = -0.03209 0.23430
# Poissons Ratio (y) = -0.07213 0.45913
# Poissons Ratio (z) = 0.22445 0.19571
#
# Static dielectric constant tensor:
#      x y z
#    x 3.967370 0.000000 0.000000 
#    y 0.000000 3.373840 0.000000 
#    z 0.000000 0.000000 3.817720 
# 
# 
# High freq. dielectric constant tensor:
#      x y z
#    x 1.840420 0.000000 0.000000 
#    y 0.000000 1.777990 0.000000 
#    z 0.000000 0.000000 1.831730 
# 
# From -- ./inp_files/1106.got.cif
#   From: 2010.03.12/outbox.cif.g09.slc.cpg/sg61_1_cif.got.tgz:1106.got - 2010.04.10 19:05:03.
