data_PCOD8248586
_publ_section_title
;
Structure prediction by ZEFSAII (Michael W. Deem and Ramdas Pophale) SiO2 
 PCOD8248586
Probable space group: P B C N
;
_chemical_formula_sum "Si O2"
_cell_formula_units_Z 60
_cell_length_a 12.041614
_cell_length_b 8.608650
_cell_length_c 24.803427
_cell_angle_alpha 90.000000
_cell_angle_beta 90.000000
_cell_angle_gamma 90.000000
_cell_volume 2571.173851
_symmetry_space_group_name_H-M "P B C N"
_symmetry_group_IT_number 60
_symmetry_cell_setting 'orthorhombic'
loop_
_space_group_symop_operation_xyz
x,y,z
1/2-x,1/2-y,1/2+z
1/2+x,1/2-y,-z
-x,y,1/2-z
-x,-y,-z
1/2+x,1/2+y,1/2-z
1/2-x,1/2+y,z
x,-y,1/2+z
loop_
_atom_site_type_symbol
_atom_site_label
_atom_site_fract_x
_atom_site_fract_y
_atom_site_fract_z
Si Si1 0.188330 0.906994 0.225482
Si Si2 0.887023 0.077918 0.560767
Si Si3 0.709527 0.835440 0.386818
Si Si4 0.791449 0.382191 0.614344
Si Si5 0.870821 0.966123 0.938402
Si Si6 0.514286 0.063714 0.657138
Si Si7 0.652960 0.286090 0.715976
Si Si8 0.500000 0.823358 0.750000
O O1 0.206128 0.870843 0.162623
O O2 0.305685 0.873147 0.255107
O O3 0.107312 0.784038 0.252909
O O4 0.141923 0.079896 0.238263
O O5 0.853955 0.231864 0.592392
O O6 0.884510 0.110587 0.497019
O O7 0.803787 0.936861 0.573397
O O8 0.009538 0.029168 0.580765
O O9 0.679014 0.656306 0.395443
O O10 0.593122 0.924333 0.380420
O O11 0.778777 0.896424 0.438735
O O12 0.879168 0.523785 0.620110
O O13 0.737993 0.348948 0.671934
O O14 0.537275 0.228295 0.688682
O O15 0.491489 0.922134 0.696403
#
# Coordination Sequence:
#
# PCOD8248586 Si02
#       8
#     8   8   8   8   8   8   8   4
#     4  12  25  42  67 101 145 196 236 292 358 432
#     4  11  26  48  77 107 142 190 250 314 379 435
#     4  12  27  47  71 106 148 193 246 299 374 442
#     4  12  23  44  75 107 139 186 246 305 366 434
#     4  11  27  50  72 106 148 191 247 312 373 446
#     4  12  25  44  70 105 149 187 244 298 354 438
#     4  12  22  43  67 103 144 186 239 291 352 432
#     4  12  26  42  64 104 144 194 238 282 354 430
#
# _framework density 23.335643000000001
#
# number of rings (size 3 to 8) (size 9 to 14) (size 15 to 20)
#    0.000    0.267    4.000    4.800    3.733    2.667 
#    0.000    1.333    0.000    0.000    0.000    0.000 
#    0.000    0.000    0.000    0.000    0.000    0.000 
#
# Total GULP energy -744121.252171 kJ/mol
# GULP energy per Si atom -12402.020870 kJ/mol
# Density = 2.328253 g / cm^3
# Si number density = 23.335643 Si / 1000 Ang^3
#
#
#
# Elastic Constant Matrix: (Units=GPa)
#
#
# Indices 1 2 3 4 5 6 
#
# 1 126.8645 47.2926 25.9836 0.0000 0.0000 0.0000
# 2 47.2926 126.4579 30.6653 0.0000 0.0000 0.0000
# 3 25.9836 30.6653 69.6931 0.0000 0.0000 0.0000
# 4 0.0000 0.0000 0.0000 34.5536 0.0000 0.0000
# 5 0.0000 0.0000 0.0000 0.0000 29.9119 0.0000
# 6 0.0000 0.0000 0.0000 0.0000 0.0000 36.6553
#
#
#
# Elastic Compliance Matrix: (Units=1/GPa)
#
#
# Indices 1 2 3 4 5 6 
#
# 1 0.009452 -0.003001 -0.002204 0.000000 0.000000 0.000000
# 2 -0.003001 0.009805 -0.003195 0.000000 0.000000 0.000000
# 3 -0.002204 -0.003195 0.016576 0.000000 0.000000 0.000000
# 4 0.000000 0.000000 0.000000 0.028941 0.000000 0.000000
# 5 0.000000 0.000000 0.000000 0.000000 0.033432 0.000000
# 6 0.000000 0.000000 0.000000 0.000000 0.000000 0.027281
#
#
# Mechanical properties :
#
#
# Convention : Reuss Voigt Hill
#
# Bulk Modulus (GPa) = 52.53837 58.98871 55.76354
# Shear Modulus (GPa) = 33.64037 34.82910 34.23474
#
# Velocity S-wave (km/s) = 3.80094 3.86752 3.83437
# Velocity P-wave (km/s) = 6.46730 6.72881 6.59935
#
# Compressibility (1/GPa) = 0.01903371
#
# Stress axis : x y z
#
# Youngs Moduli (GPa) = 105.79373 101.99090 60.32714
#
# Poissons Ratio (x) = 0.30603 0.13295
# Poissons Ratio (y) = 0.31744 0.19277
# Poissons Ratio (z) = 0.23315 0.32591
#
# Static dielectric constant tensor:
#      x y z
#    x 4.464330 0.000000 0.000000 
#    y 0.000000 4.208410 0.000000 
#    z 0.000000 0.000000 4.021160 
# 
# 
# High freq. dielectric constant tensor:
#      x y z
#    x 1.940090 0.000000 0.000000 
#    y 0.000000 1.928400 0.000000 
#    z 0.000000 0.000000 1.911780 
# 
# From -- ./inp_files/25339.got.cif
#   From: 2010.03.12/outbox.cif.g09.slc.cpg/sg60_13_cif.got.tgz:25339.got - 2010.04.10 18:46:24.
