data_PCOD8248112
_publ_section_title
;
Structure prediction by ZEFSAII (Michael W. Deem and Ramdas Pophale) SiO2 
 PCOD8248112
Probable space group: P B C N
;
_chemical_formula_sum "Si O2"
_cell_formula_units_Z 56
_cell_length_a 15.160162
_cell_length_b 19.215298
_cell_length_c 8.542904
_cell_angle_alpha 90.000000
_cell_angle_beta 90.000000
_cell_angle_gamma 90.000000
_cell_volume 2488.607997
_symmetry_space_group_name_H-M "P B C N"
_symmetry_group_IT_number 60
_symmetry_cell_setting 'orthorhombic'
loop_
_space_group_symop_operation_xyz
x,y,z
1/2-x,1/2-y,1/2+z
1/2+x,1/2-y,-z
-x,y,1/2-z
-x,-y,-z
1/2+x,1/2+y,1/2-z
1/2-x,1/2+y,z
x,-y,1/2+z
loop_
_atom_site_type_symbol
_atom_site_label
_atom_site_fract_x
_atom_site_fract_y
_atom_site_fract_z
Si Si1 0.154206 0.695660 0.095762
Si Si2 0.900931 0.912106 0.266265
Si Si3 0.674459 0.717703 0.602066
Si Si4 0.705593 0.952697 0.833805
Si Si5 0.974369 0.707416 0.930766
Si Si6 0.054881 0.445292 0.100094
Si Si7 0.175064 0.023021 0.440746
O O1 0.174034 0.723839 0.266522
O O2 0.147729 0.612329 0.112383
O O3 0.230685 0.718642 0.978350
O O4 0.061079 0.723161 0.033435
O O5 0.837699 0.856659 0.184543
O O6 0.873427 0.919852 0.449755
O O7 0.000000 0.884854 0.250000
O O8 0.893187 0.986552 0.178427
O O9 0.598476 0.734667 0.474811
O O10 0.743749 0.943037 0.657712
O O11 0.648017 0.023085 0.845617
O O12 0.787634 0.961587 0.949793
O O13 0.934309 0.631004 0.978411
O O14 0.000000 0.716167 0.750000
O O15 0.000000 0.425968 0.250000
O O16 0.000000 0.500000 0.000000
#
# Coordination Sequence:
#
# PCOD8248112 Si02
#       7
#     8   8   8   8   8   8   8
#     4  12  26  46  70  99 146 193 240 295 365 434
#     4  11  23  47  70 101 133 178 238 301 364 415
#     4  12  28  47  71 101 145 193 241 298 359 438
#     4  11  23  41  67 104 138 180 234 285 365 426
#     4  11  26  47  71 107 144 192 246 295 359 441
#     4  11  23  38  66 100 140 180 225 288 350 423
#     4  10  24  41  71  98 134 175 231 297 354 435
#
# _framework density 22.50254
#
# number of rings (size 3 to 8) (size 9 to 14) (size 15 to 20)
#    0.000    0.857    2.857    3.429    8.000    1.143 
#    2.571    0.714    0.000    0.000    0.000    0.000 
#    0.000    0.000    0.000    0.000    0.000    0.000 
#
# Total GULP energy -694467.524122 kJ/mol
# GULP energy per Si atom -12401.205788 kJ/mol
# Density = 2.245132 g / cm^3
# Si number density = 22.502540 Si / 1000 Ang^3
#
#
#
# Elastic Constant Matrix: (Units=GPa)
#
#
# Indices 1 2 3 4 5 6 
#
# 1 110.1491 22.4542 31.5878 0.0000 0.0000 0.0000
# 2 22.4542 68.1237 19.6988 0.0000 0.0000 0.0000
# 3 31.5878 19.6988 107.5334 0.0000 0.0000 0.0000
# 4 0.0000 0.0000 0.0000 31.6807 0.0000 0.0000
# 5 0.0000 0.0000 0.0000 0.0000 44.4940 0.0000
# 6 0.0000 0.0000 0.0000 0.0000 0.0000 27.7487
#
#
#
# Elastic Compliance Matrix: (Units=1/GPa)
#
#
# Indices 1 2 3 4 5 6 
#
# 1 0.010356 -0.002675 -0.002552 0.000000 0.000000 0.000000
# 2 -0.002675 0.016191 -0.002180 0.000000 0.000000 0.000000
# 3 -0.002552 -0.002180 0.010448 0.000000 0.000000 0.000000
# 4 0.000000 0.000000 0.000000 0.031565 0.000000 0.000000
# 5 0.000000 0.000000 0.000000 0.000000 0.022475 0.000000
# 6 0.000000 0.000000 0.000000 0.000000 0.000000 0.036038
#
#
# Mechanical properties :
#
#
# Convention : Reuss Voigt Hill
#
# Bulk Modulus (GPa) = 45.08431 48.14307 46.61369
# Shear Modulus (GPa) = 33.49368 34.92238 34.20803
#
# Velocity S-wave (km/s) = 3.86222 3.94373 3.90319
# Velocity P-wave (km/s) = 6.32200 6.49448 6.40882
#
# Compressibility (1/GPa) = 0.02218067
#
# Stress axis : x y z
#
# Youngs Moduli (GPa) = 96.56411 61.76101 95.70811
#
# Poissons Ratio (x) = 0.16524 0.24424
# Poissons Ratio (y) = 0.25835 0.20866
# Poissons Ratio (z) = 0.24642 0.13465
#
# Static dielectric constant tensor:
#      x y z
#    x 3.939990 0.000000 0.000000 
#    y 0.000000 4.005230 0.000000 
#    z 0.000000 0.000000 4.246830 
# 
# 
# High freq. dielectric constant tensor:
#      x y z
#    x 1.887470 0.000000 0.000000 
#    y 0.000000 1.878670 0.000000 
#    z 0.000000 0.000000 1.901760 
# 
# From -- ./inp_files/6163.got.cif
#   From: 2010.03.12/outbox.cif.g09.slc.cpg/sg60_4_cif.got.tgz:6163.got - 2010.04.10 18:46:24.
