data_PCOD8248871
_publ_section_title
;
Structure prediction by ZEFSAII (Michael W. Deem and Ramdas Pophale) SiO2 
 PCOD8248871
Probable space group: P B C A
;
_chemical_formula_sum "Si O2"
_cell_formula_units_Z 64
_cell_length_a 23.983868
_cell_length_b 13.807388
_cell_length_c 8.683850
_cell_angle_alpha 90.000000
_cell_angle_beta 90.000000
_cell_angle_gamma 90.000000
_cell_volume 2875.696623
_symmetry_space_group_name_H-M "P B C A"
_symmetry_group_IT_number 61
_symmetry_cell_setting 'orthorhombic'
loop_
_space_group_symop_operation_xyz
x,y,z
1/2-x,-y,1/2+z
1/2+x,1/2-y,-z
-x,1/2+y,1/2-z
-x,-y,-z
1/2+x,y,1/2-z
1/2-x,1/2+y,z
x,1/2-y,1/2+z
loop_
_atom_site_type_symbol
_atom_site_label
_atom_site_fract_x
_atom_site_fract_y
_atom_site_fract_z
Si Si1 0.398611 0.798721 0.489192
Si Si2 0.918591 0.509904 0.989460
Si Si3 0.587627 0.689057 0.644179
Si Si4 0.812373 0.445198 0.840835
Si Si5 0.337295 0.278114 0.085813
Si Si6 0.854364 0.636524 0.207843
Si Si7 0.743611 0.926971 0.546950
Si Si8 0.967738 0.658965 0.791608
O O1 0.361738 0.864783 0.605510
O O2 0.358425 0.742057 0.371612
O O3 0.443424 0.855633 0.381630
O O4 0.429532 0.726865 0.605402
O O5 0.928049 0.398998 0.031823
O O6 0.905379 0.571112 0.143179
O O7 0.863705 0.514147 0.882732
O O8 0.968735 0.554930 0.884192
O O9 0.614371 0.777035 0.545863
O O10 0.528203 0.711256 0.724176
O O11 0.634791 0.665171 0.771075
O O12 0.805485 0.462495 0.659178
O O13 0.820573 0.332329 0.879064
O O14 0.758906 0.486559 0.932671
O O15 0.280472 0.333661 0.043713
O O16 0.793716 0.598417 0.163485
#
# Coordination Sequence:
#
# PCOD8248871 Si02
#       8
#     8   8   8   8   8   8   8   8
#     4   9  19  36  59  90 123 153 210 267 318 388
#     4   9  21  40  58  88 126 162 215 272 323 384
#     4  11  22  40  63  86 125 168 214 267 324 388
#     4  10  24  42  62  95 127 173 215 269 329 393
#     4  11  24  42  62  96 132 169 222 269 322 397
#     4   9  20  36  57  89 120 160 202 263 322 380
#     4  11  24  40  65  92 129 174 216 262 329 391
#     4  10  19  38  63  90 121 170 213 266 333 386
#
# _framework density 22.255476999999999
#
# number of rings (size 3 to 8) (size 9 to 14) (size 15 to 20)
#    0.000    2.000    1.250    1.125    7.000    1.000 
#    4.500    0.625    0.000    0.000    0.000    0.000 
#    0.000    0.000    0.000    0.000    0.000    0.000 
#
# Total GULP energy -793053.038416 kJ/mol
# GULP energy per Si atom -12391.453725 kJ/mol
# Density = 2.220482 g / cm^3
# Si number density = 22.255477 Si / 1000 Ang^3
#
#
#
# Elastic Constant Matrix: (Units=GPa)
#
#
# Indices 1 2 3 4 5 6 
#
# 1 77.0405 18.9793 28.3328 0.0000 0.0000 0.0000
# 2 18.9793 55.4890 18.2403 0.0000 0.0000 0.0000
# 3 28.3328 18.2403 108.7493 0.0000 0.0000 0.0000
# 4 0.0000 0.0000 0.0000 26.0385 0.0000 0.0000
# 5 0.0000 0.0000 0.0000 0.0000 35.9007 0.0000
# 6 0.0000 0.0000 0.0000 0.0000 0.0000 20.4797
#
#
#
# Elastic Compliance Matrix: (Units=1/GPa)
#
#
# Indices 1 2 3 4 5 6 
#
# 1 0.015198 -0.004124 -0.003268 0.000000 0.000000 0.000000
# 2 -0.004124 0.020192 -0.002312 0.000000 0.000000 0.000000
# 3 -0.003268 -0.002312 0.010435 0.000000 0.000000 0.000000
# 4 0.000000 0.000000 0.000000 0.038405 0.000000 0.000000
# 5 0.000000 0.000000 0.000000 0.000000 0.027855 0.000000
# 6 0.000000 0.000000 0.000000 0.000000 0.000000 0.048829
#
#
# Mechanical properties :
#
#
# Convention : Reuss Voigt Hill
#
# Bulk Modulus (GPa) = 37.85527 41.37595 39.61561
# Shear Modulus (GPa) = 26.43723 28.19886 27.31805
#
# Velocity S-wave (km/s) = 3.45033 3.56343 3.50734
# Velocity P-wave (km/s) = 5.73754 5.96342 5.85157
#
# Compressibility (1/GPa) = 0.02641640
#
# Stress axis : x y z
#
# Youngs Moduli (GPa) = 65.79831 49.52391 95.83419
#
# Poissons Ratio (x) = 0.20424 0.31317
# Poissons Ratio (y) = 0.27136 0.22160
# Poissons Ratio (z) = 0.21502 0.11452
#
# Static dielectric constant tensor:
#      x y z
#    x 4.111370 0.000000 0.000000 
#    y 0.000000 3.763660 0.000000 
#    z 0.000000 0.000000 4.282130 
# 
# 
# High freq. dielectric constant tensor:
#      x y z
#    x 1.876490 0.000000 0.000000 
#    y 0.000000 1.850420 0.000000 
#    z 0.000000 0.000000 1.886020 
# 
# From -- ./inp_files/4341.got.cif
#   From: 2010.03.12/outbox.cif.g09.slc.cpg/sg61_3_cif.got.tgz:4341.got - 2010.04.10 19:05:03.
