data_PCOD8248529
_publ_section_title
;
Structure prediction by ZEFSAII (Michael W. Deem and Ramdas Pophale) SiO2 
 PCOD8248529
Probable space group: P B C N
;
_chemical_formula_sum "Si O2"
_cell_formula_units_Z 36
_cell_length_a 7.345675
_cell_length_b 8.914424
_cell_length_c 21.529801
_cell_angle_alpha 90.000000
_cell_angle_beta 90.000000
_cell_angle_gamma 90.000000
_cell_volume 1409.824365
_symmetry_space_group_name_H-M "P B C N"
_symmetry_group_IT_number 60
_symmetry_cell_setting 'orthorhombic'
loop_
_space_group_symop_operation_xyz
x,y,z
1/2-x,1/2-y,1/2+z
1/2+x,1/2-y,-z
-x,y,1/2-z
-x,-y,-z
1/2+x,1/2+y,1/2-z
1/2-x,1/2+y,z
x,-y,1/2+z
loop_
_atom_site_type_symbol
_atom_site_label
_atom_site_fract_x
_atom_site_fract_y
_atom_site_fract_z
Si Si1 0.921968 0.443543 0.857830
Si Si2 0.784388 0.816236 0.429922
Si Si3 0.418104 0.631951 0.437198
Si Si4 0.500000 0.762342 0.750000
Si Si5 0.211451 0.874083 0.361843
O O1 0.766286 0.557038 0.879283
O O2 0.938992 0.297200 0.903751
O O3 0.869453 0.371309 0.791232
O O4 0.117062 0.518650 0.852408
O O5 0.608880 0.713561 0.441849
O O6 0.839993 0.896247 0.493857
O O7 0.434849 0.466279 0.405008
O O8 0.275538 0.725284 0.396554
O O9 0.373186 0.662000 0.794580
#
# Coordination Sequence:
#
# PCOD8248529 Si02
#       5
#     8   8   8   4   8
#     4  11  27  48  73 114 146 200 243 311 367 446
#     4  11  26  45  79 112 153 188 252 305 390 443
#     4  11  24  45  74 115 148 193 241 316 377 449
#     4  12  28  48  78 102 152 200 254 304 360 450
#     4  11  25  48  74 108 151 195 248 307 374 441
#
# _framework density 25.535094999999998
#
# number of rings (size 3 to 8) (size 9 to 14) (size 15 to 20)
#    0.000    0.889    2.222    2.667    6.222    5.333 
#    0.000    0.000    0.000    0.000    0.000    0.000 
#    0.000    0.000    0.000    0.000    0.000    0.000 
#
# Total GULP energy -446470.079176 kJ/mol
# GULP energy per Si atom -12401.946644 kJ/mol
# Density = 2.547698 g / cm^3
# Si number density = 25.535095 Si / 1000 Ang^3
#
#
#
# Elastic Constant Matrix: (Units=GPa)
#
#
# Indices 1 2 3 4 5 6 
#
# 1 92.8879 44.2895 74.9686 0.0000 0.0000 0.0000
# 2 44.2895 160.1165 83.2594 0.0000 0.0000 0.0000
# 3 74.9686 83.2594 201.2445 0.0000 0.0000 0.0000
# 4 0.0000 0.0000 0.0000 67.0130 0.0000 0.0000
# 5 0.0000 0.0000 0.0000 0.0000 43.3010 0.0000
# 6 0.0000 0.0000 0.0000 0.0000 0.0000 32.0082
#
#
#
# Elastic Compliance Matrix: (Units=1/GPa)
#
#
# Indices 1 2 3 4 5 6 
#
# 1 0.015734 -0.001662 -0.005174 0.000000 0.000000 0.000000
# 2 -0.001662 0.008133 -0.002746 0.000000 0.000000 0.000000
# 3 -0.005174 -0.002746 0.008032 0.000000 0.000000 0.000000
# 4 0.000000 0.000000 0.000000 0.014922 0.000000 0.000000
# 5 0.000000 0.000000 0.000000 0.000000 0.023094 0.000000
# 6 0.000000 0.000000 0.000000 0.000000 0.000000 0.031242
#
#
# Mechanical properties :
#
#
# Convention : Reuss Voigt Hill
#
# Bulk Modulus (GPa) = 78.51410 95.47597 86.99504
# Shear Modulus (GPa) = 40.13965 45.24655 42.69310
#
# Velocity S-wave (km/s) = 3.96907 4.21400 4.09337
# Velocity P-wave (km/s) = 7.19854 7.81974 7.51556
#
# Compressibility (1/GPa) = 0.01273657
#
# Stress axis : x y z
#
# Youngs Moduli (GPa) = 63.55830 122.95809 124.49663
#
# Poissons Ratio (x) = 0.20433 0.64410
# Poissons Ratio (y) = 0.10562 0.34183
# Poissons Ratio (z) = 0.32883 0.33760
#
# Static dielectric constant tensor:
#      x y z
#    x 4.856140 0.000000 0.000000 
#    y 0.000000 5.184100 0.000000 
#    z 0.000000 0.000000 4.626470 
# 
# 
# High freq. dielectric constant tensor:
#      x y z
#    x 2.042960 0.000000 0.000000 
#    y 0.000000 2.057960 0.000000 
#    z 0.000000 0.000000 2.016650 
# 
# From -- ./inp_files/21902.got.cif
#   From: 2010.03.12/outbox.cif.g09.slc.cpg/sg60_11_cif.got.tgz:21902.got - 2010.04.10 18:46:24.
