data_PCOD8248618
_publ_section_title
;
Structure prediction by ZEFSAII (Michael W. Deem and Ramdas Pophale) SiO2 
 PCOD8248618
Probable space group: P B C N
;
_chemical_formula_sum "Si O2"
_cell_formula_units_Z 36
_cell_length_a 8.735469
_cell_length_b 19.590576
_cell_length_c 8.850622
_cell_angle_alpha 90.000000
_cell_angle_beta 90.000000
_cell_angle_gamma 90.000000
_cell_volume 1514.632338
_symmetry_space_group_name_H-M "P B C N"
_symmetry_group_IT_number 60
_symmetry_cell_setting 'orthorhombic'
loop_
_space_group_symop_operation_xyz
x,y,z
1/2-x,1/2-y,1/2+z
1/2+x,1/2-y,-z
-x,y,1/2-z
-x,-y,-z
1/2+x,1/2+y,1/2-z
1/2-x,1/2+y,z
x,-y,1/2+z
loop_
_atom_site_type_symbol
_atom_site_label
_atom_site_fract_x
_atom_site_fract_y
_atom_site_fract_z
Si Si1 0.666078 0.067367 0.790488
Si Si2 0.044030 0.818565 0.589117
Si Si3 0.756846 0.562057 0.453016
Si Si4 0.793120 0.688175 0.004132
Si Si5 0.500000 0.872050 0.750000
O O1 0.500000 0.036582 0.750000
O O2 0.755598 0.071965 0.632660
O O3 0.642549 0.140534 0.870001
O O4 0.759825 0.017078 0.903517
O O5 0.116441 0.893556 0.610557
O O6 0.168311 0.767548 0.518362
O O7 0.000000 0.787808 0.750000
O O8 0.888993 0.821440 0.492582
O O9 0.919889 0.585103 0.383390
O O10 0.865497 0.670544 0.167948
#
# Coordination Sequence:
#
# PCOD8248618 Si02
#       5
#     8   8   8   8   4
#     4  12  25  47  79 111 148 200 252 305 374 450
#     4  12  29  49  74 111 152 194 250 311 373 447
#     4  12  26  46  76 111 148 199 252 307 374 443
#     4  12  28  48  77 109 149 198 249 306 376 444
#     4  12  22  46  76 108 148 194 248 308 370 444
#
# _framework density 23.768146000000002
#
# number of rings (size 3 to 8) (size 9 to 14) (size 15 to 20)
#    0.000    0.000    5.556    4.000    3.111    1.778 
#    0.000    0.000    0.000    0.000    0.000    0.000 
#    0.000    0.000    0.000    0.000    0.000    0.000 
#
# Total GULP energy -446491.514244 kJ/mol
# GULP energy per Si atom -12402.542062 kJ/mol
# Density = 2.371405 g / cm^3
# Si number density = 23.768146 Si / 1000 Ang^3
#
#
#
# Elastic Constant Matrix: (Units=GPa)
#
#
# Indices 1 2 3 4 5 6 
#
# 1 121.2983 37.2869 8.1260 0.0000 0.0000 0.0000
# 2 37.2869 108.9916 25.8611 0.0000 0.0000 0.0000
# 3 8.1260 25.8611 121.3754 0.0000 0.0000 0.0000
# 4 0.0000 0.0000 0.0000 27.8745 0.0000 0.0000
# 5 0.0000 0.0000 0.0000 0.0000 31.7434 0.0000
# 6 0.0000 0.0000 0.0000 0.0000 0.0000 31.1416
#
#
#
# Elastic Compliance Matrix: (Units=1/GPa)
#
#
# Indices 1 2 3 4 5 6 
#
# 1 0.009213 -0.003166 0.000058 0.000000 0.000000 0.000000
# 2 -0.003166 0.010751 -0.002079 0.000000 0.000000 0.000000
# 3 0.000058 -0.002079 0.008678 0.000000 0.000000 0.000000
# 4 0.000000 0.000000 0.000000 0.035875 0.000000 0.000000
# 5 0.000000 0.000000 0.000000 0.000000 0.031503 0.000000
# 6 0.000000 0.000000 0.000000 0.000000 0.000000 0.032111
#
#
# Mechanical properties :
#
#
# Convention : Reuss Voigt Hill
#
# Bulk Modulus (GPa) = 54.73741 54.91258 54.82500
# Shear Modulus (GPa) = 34.57936 36.84466 35.71201
#
# Velocity S-wave (km/s) = 3.81840 3.94149 3.88043
# Velocity P-wave (km/s) = 6.52074 6.62325 6.57219
#
# Compressibility (1/GPa) = 0.01826904
#
# Stress axis : x y z
#
# Youngs Moduli (GPa) = 108.53757 93.01227 115.23437
#
# Poissons Ratio (x) = 0.29445 -0.00665
# Poissons Ratio (y) = 0.34359 0.23955
# Poissons Ratio (z) = -0.00626 0.19335
#
# Static dielectric constant tensor:
#      x y z
#    x 4.109320 0.000000 0.000000 
#    y 0.000000 4.053710 0.000000 
#    z 0.000000 0.000000 4.311440 
# 
# 
# High freq. dielectric constant tensor:
#      x y z
#    x 1.935320 0.000000 0.000000 
#    y 0.000000 1.939390 0.000000 
#    z 0.000000 0.000000 1.950980 
# 
# From -- ./inp_files/3680.got.cif
#   From: 2010.03.12/outbox.cif.g09.slc.cpg/sg60_2_cif.got.tgz:3680.got - 2010.04.10 18:46:24.
