data_PCOD8248185
_publ_section_title
;
Structure prediction by ZEFSAII (Michael W. Deem and Ramdas Pophale) SiO2 
 PCOD8248185
Probable space group: P B C N
;
_chemical_formula_sum "Si O2"
_cell_formula_units_Z 64
_cell_length_a 15.213506
_cell_length_b 22.603205
_cell_length_c 8.688091
_cell_angle_alpha 90.000000
_cell_angle_beta 90.000000
_cell_angle_gamma 90.000000
_cell_volume 2987.608560
_symmetry_space_group_name_H-M "P B C N"
_symmetry_group_IT_number 60
_symmetry_cell_setting 'orthorhombic'
loop_
_space_group_symop_operation_xyz
x,y,z
1/2-x,1/2-y,1/2+z
1/2+x,1/2-y,-z
-x,y,1/2-z
-x,-y,-z
1/2+x,1/2+y,1/2-z
1/2-x,1/2+y,z
x,-y,1/2+z
loop_
_atom_site_type_symbol
_atom_site_label
_atom_site_fract_x
_atom_site_fract_y
_atom_site_fract_z
Si Si1 0.140254 0.469651 0.916827
Si Si2 0.238219 0.692648 0.119706
Si Si3 0.184362 0.083087 0.424536
Si Si4 0.200725 0.698962 0.450240
Si Si5 0.454984 0.130370 0.581153
Si Si6 0.084594 0.135129 0.162384
Si Si7 0.485685 0.437488 0.074140
Si Si8 0.114704 0.587410 0.082630
O O1 0.246545 0.470838 0.921985
O O2 0.109582 0.443348 0.751025
O O3 0.100835 0.430026 0.056496
O O4 0.112150 0.537224 0.948583
O O5 0.181641 0.711113 0.270002
O O6 0.236062 0.747892 0.005210
O O7 0.343192 0.685926 0.143246
O O8 0.199427 0.629985 0.059269
O O9 0.239887 0.141467 0.450462
O O10 0.128148 0.082989 0.266009
O O11 0.116424 0.079412 0.562708
O O12 0.110551 0.686260 0.546151
O O13 0.500000 0.135408 0.750000
O O14 0.530711 0.129057 0.450171
O O15 0.000000 0.162350 0.250000
O O16 0.052987 0.109563 0.999523
O O17 0.500000 0.441143 0.250000
O O18 0.500000 0.500000 0.000000
#
# Coordination Sequence:
#
# PCOD8248185 Si02
#       8
#     8   8   8   8   8   8   8   8
#     4  11  23  42  69 100 142 187 223 292 352 419
#     4  11  24  45  70 101 133 183 228 288 343 401
#     4   9  20  43  64  92 132 172 224 275 341 401
#     4  10  24  46  71  95 138 177 231 285 337 408
#     4  11  24  45  68 106 138 185 232 285 351 418
#     4   9  19  41  64  88 126 170 218 273 331 394
#     4  11  23  37  60  93 130 171 216 277 334 408
#     4  12  24  43  71 103 144 181 234 289 355 420
#
# _framework density 21.421816
#
# number of rings (size 3 to 8) (size 9 to 14) (size 15 to 20)
#    0.000    1.500    3.750    2.625    3.500    2.500 
#    6.750    0.000    0.000    0.000    0.000    0.000 
#    0.000    0.000    0.000    0.000    0.000    0.000 
#
# Total GULP energy -792989.749329 kJ/mol
# GULP energy per Si atom -12390.464833 kJ/mol
# Density = 2.137306 g / cm^3
# Si number density = 21.421816 Si / 1000 Ang^3
#
#
#
# Elastic Constant Matrix: (Units=GPa)
#
#
# Indices 1 2 3 4 5 6 
#
# 1 113.2478 11.0254 50.2701 0.0000 0.0000 0.0000
# 2 11.0254 75.5995 37.4562 0.0000 0.0000 0.0000
# 3 50.2701 37.4562 138.1207 0.0000 0.0000 0.0000
# 4 0.0000 0.0000 0.0000 23.3297 0.0000 0.0000
# 5 0.0000 0.0000 0.0000 0.0000 25.8371 0.0000
# 6 0.0000 0.0000 0.0000 0.0000 0.0000 15.6669
#
#
#
# Elastic Compliance Matrix: (Units=1/GPa)
#
#
# Indices 1 2 3 4 5 6 
#
# 1 0.010543 0.000420 -0.003951 0.000000 0.000000 0.000000
# 2 0.000420 0.015297 -0.004301 0.000000 0.000000 0.000000
# 3 -0.003951 -0.004301 0.009845 0.000000 0.000000 0.000000
# 4 0.000000 0.000000 0.000000 0.042864 0.000000 0.000000
# 5 0.000000 0.000000 0.000000 0.000000 0.038704 0.000000
# 6 0.000000 0.000000 0.000000 0.000000 0.000000 0.063829
#
#
# Mechanical properties :
#
#
# Convention : Reuss Voigt Hill
#
# Bulk Modulus (GPa) = 49.94939 58.27463 54.11201
# Shear Modulus (GPa) = 24.57964 28.18115 26.38040
#
# Velocity S-wave (km/s) = 3.39102 3.63097 3.51304
# Velocity P-wave (km/s) = 6.22091 6.69634 6.46300
#
# Compressibility (1/GPa) = 0.02002027
#
# Stress axis : x y z
#
# Youngs Moduli (GPa) = 94.84776 65.37041 101.57900
#
# Poissons Ratio (x) = -0.02746 0.40136
# Poissons Ratio (y) = -0.03984 0.43692
# Poissons Ratio (z) = 0.37476 0.28118
#
# Static dielectric constant tensor:
#      x y z
#    x 4.175880 0.000000 0.000000 
#    y 0.000000 3.638350 0.000000 
#    z 0.000000 0.000000 3.761730 
# 
# 
# High freq. dielectric constant tensor:
#      x y z
#    x 1.857180 0.000000 0.000000 
#    y 0.000000 1.818590 0.000000 
#    z 0.000000 0.000000 1.835340 
# 
# From -- ./inp_files/6312.got.cif
#   From: 2010.03.12/outbox.cif.g09.slc.cpg/sg60_4_cif.got.tgz:6312.got - 2010.04.10 18:46:24.
