data_PCOD8248908
_publ_section_title
;
Structure prediction by ZEFSAII (Michael W. Deem and Ramdas Pophale) SiO2 
 PCOD8248908
Probable space group: P B C A
;
_chemical_formula_sum "Si O2"
_cell_formula_units_Z 48
_cell_length_a 10.204285
_cell_length_b 15.031793
_cell_length_c 17.457222
_cell_angle_alpha 90.000000
_cell_angle_beta 90.000000
_cell_angle_gamma 90.000000
_cell_volume 2677.740585
_symmetry_space_group_name_H-M "P B C A"
_symmetry_group_IT_number 61
_symmetry_cell_setting 'orthorhombic'
loop_
_space_group_symop_operation_xyz
x,y,z
1/2-x,-y,1/2+z
1/2+x,1/2-y,-z
-x,1/2+y,1/2-z
-x,-y,-z
1/2+x,y,1/2-z
1/2-x,1/2+y,z
x,1/2-y,1/2+z
loop_
_atom_site_type_symbol
_atom_site_label
_atom_site_fract_x
_atom_site_fract_y
_atom_site_fract_z
Si Si1 0.280451 0.782091 0.334678
Si Si2 0.511363 0.682644 0.410247
Si Si3 0.757965 0.767691 0.333216
Si Si4 0.993985 0.502760 0.174625
Si Si5 0.751405 0.444581 0.258396
Si Si6 0.982991 0.315350 0.091068
O O1 0.402035 0.753084 0.385760
O O2 0.277904 0.729011 0.253224
O O3 0.295721 0.887809 0.316389
O O4 0.146099 0.763634 0.380217
O O5 0.650637 0.711352 0.377357
O O6 0.471786 0.585775 0.380456
O O7 0.518940 0.679154 0.500629
O O8 0.715053 0.872156 0.325503
O O9 0.892927 0.758798 0.380003
O O10 0.879795 0.502161 0.238874
O O11 0.134859 0.510198 0.216219
O O12 0.987894 0.413615 0.125363
#
# Coordination Sequence:
#
# PCOD8248908 Si02
#       6
#     8   8   8   8   8   8
#     4   9  19  36  57  73 101 142 180 204 247 314
#     4  12  21  30  56  85 106 126 175 227 256 293
#     4   9  19  36  57  73 101 142 180 204 247 314
#     4  10  20  34  51  79 105 135 167 217 261 305
#     4   8  18  36  54  68 104 142 176 202 256 312
#     4  10  20  38  53  76 108 142 166 208 270 312
#
# _framework density 17.925560000000001
#
# number of rings (size 3 to 8) (size 9 to 14) (size 15 to 20)
#    1.000    1.333    0.000    3.500    2.333    0.000 
#    0.000    0.000    0.000    0.000    0.000   16.333 
#    0.000    0.000    0.000    0.000    0.000    0.000 
#
# Total GULP energy -594946.425791 kJ/mol
# GULP energy per Si atom -12394.717204 kJ/mol
# Density = 1.788476 g / cm^3
# Si number density = 17.925560 Si / 1000 Ang^3
#
#
#
# Elastic Constant Matrix: (Units=GPa)
#
#
# Indices 1 2 3 4 5 6 
#
# 1 87.3209 17.8885 44.7421 0.0000 0.0000 0.0000
# 2 17.8885 30.2187 5.3124 0.0000 0.0000 0.0000
# 3 44.7421 5.3124 102.6260 0.0000 0.0000 0.0000
# 4 0.0000 0.0000 0.0000 -1.5897 0.0000 0.0000
# 5 0.0000 0.0000 0.0000 0.0000 14.0553 0.0000
# 6 0.0000 0.0000 0.0000 0.0000 0.0000 8.4558
#
#
#
# Elastic Compliance Matrix: (Units=1/GPa)
#
#
# Indices 1 2 3 4 5 6 
#
# 1 0.016746 -0.008709 -0.006850 0.000000 0.000000 0.000000
# 2 -0.008709 0.037925 0.001834 0.000000 0.000000 0.000000
# 3 -0.006850 0.001834 0.012636 0.000000 0.000000 0.000000
# 4 0.000000 0.000000 0.000000 -0.629035 0.000000 0.000000
# 5 0.000000 0.000000 0.000000 0.000000 0.071148 0.000000
# 6 0.000000 0.000000 0.000000 0.000000 0.000000 0.118262
#
#
# Mechanical properties :
#
#
# Convention : Reuss Voigt Hill
#
# Bulk Modulus (GPa) = 25.09017 39.56130 32.32573
# Shear Modulus (GPa) = -15.07917 14.33246 -0.37336
#
# Velocity S-wave (km/s) = -2.90351 2.83071 -0.45687
# Velocity P-wave (km/s) = 1.66936 5.72726 4.21831
#
# Compressibility (1/GPa) = 0.03985625
#
# Stress axis : x y z
#
# Youngs Moduli (GPa) = 59.71601 26.36779 79.14160
#
# Poissons Ratio (x) = 0.22963 0.54212
# Poissons Ratio (y) = 0.52006 -0.14512
# Poissons Ratio (z) = 0.40905 -0.04835
#
# Static dielectric constant tensor:
#      x y z
#    x 3.407730 0.000000 0.000000 
#    y 0.000000 2.985770 0.000000 
#    z 0.000000 0.000000 3.243880 
# 
# 
# High freq. dielectric constant tensor:
#      x y z
#    x 1.705720 0.000000 0.000000 
#    y 0.000000 1.667320 0.000000 
#    z 0.000000 0.000000 1.684320 
# 
# From -- ./inp_files/8932.got.cif
#   From: 2010.03.12/outbox.cif.g09.slc.cpg/sg61_5_cif.got.tgz:8932.got - 2010.04.10 19:05:03.
