data_PCOD8248665
_publ_section_title
;
Structure prediction by ZEFSAII (Michael W. Deem and Ramdas Pophale) SiO2 
 PCOD8248665
Probable space group: P B C N
;
_chemical_formula_sum "Si O2"
_cell_formula_units_Z 40
_cell_length_a 26.986579
_cell_length_b 7.600108
_cell_length_c 8.719583
_cell_angle_alpha 90.000000
_cell_angle_beta 90.000000
_cell_angle_gamma 90.000000
_cell_volume 1788.394451
_symmetry_space_group_name_H-M "P B C N"
_symmetry_group_IT_number 60
_symmetry_cell_setting 'orthorhombic'
loop_
_space_group_symop_operation_xyz
x,y,z
1/2-x,1/2-y,1/2+z
1/2+x,1/2-y,-z
-x,y,1/2-z
-x,-y,-z
1/2+x,1/2+y,1/2-z
1/2-x,1/2+y,z
x,-y,1/2+z
loop_
_atom_site_type_symbol
_atom_site_label
_atom_site_fract_x
_atom_site_fract_y
_atom_site_fract_z
Si Si1 0.696622 0.150225 0.471705
Si Si2 0.037553 0.541265 0.630328
Si Si3 0.107255 0.854338 0.537666
Si Si4 0.797683 0.719029 0.832912
Si Si5 0.100927 0.800201 0.184128
O O1 0.702464 0.176569 0.652972
O O2 0.744309 0.209873 0.377467
O O3 0.649552 0.254824 0.412224
O O4 0.688201 0.946277 0.438114
O O5 0.079557 0.678400 0.588359
O O6 0.062348 0.360040 0.688594
O O7 0.000000 0.628098 0.750000
O O8 0.000000 0.500000 0.500000
O O9 0.160591 0.862010 0.623569
O O10 0.114615 0.855434 0.356076
O O11 0.078125 0.029253 0.595725
#
# Coordination Sequence:
#
# PCOD8248665 Si02
#       5
#     8   8   8   8   8
#     4  12  25  44  71 104 147 191 242 296 368 433
#     4  12  28  50  76 107 147 194 248 306 371 431
#     4  12  27  47  75 108 149 191 246 303 368 437
#     4  12  25  44  71 104 147 192 240 300 362 440
#     4  12  27  47  75 109 147 193 245 304 367 439
#
# _framework density 22.366430999999999
#
# number of rings (size 3 to 8) (size 9 to 14) (size 15 to 20)
#    0.000    0.000    4.000    6.000    5.600    1.600 
#    0.000    0.000    0.000    0.000    0.000    0.000 
#    0.000    0.000    0.000    0.000    0.000    0.000 
#
# Total GULP energy -496037.903288 kJ/mol
# GULP energy per Si atom -12400.947582 kJ/mol
# Density = 2.231552 g / cm^3
# Si number density = 22.366431 Si / 1000 Ang^3
#
#
#
# Elastic Constant Matrix: (Units=GPa)
#
#
# Indices 1 2 3 4 5 6 
#
# 1 98.9809 13.5802 36.8011 0.0000 0.0000 0.0000
# 2 13.5802 104.3321 7.6710 0.0000 0.0000 0.0000
# 3 36.8011 7.6710 127.4845 0.0000 0.0000 0.0000
# 4 0.0000 0.0000 0.0000 37.2935 0.0000 0.0000
# 5 0.0000 0.0000 0.0000 0.0000 37.0714 0.0000
# 6 0.0000 0.0000 0.0000 0.0000 0.0000 9.6597
#
#
#
# Elastic Compliance Matrix: (Units=1/GPa)
#
#
# Indices 1 2 3 4 5 6 
#
# 1 0.011479 -0.001256 -0.003238 0.000000 0.000000 0.000000
# 2 -0.001256 0.009765 -0.000225 0.000000 0.000000 0.000000
# 3 -0.003238 -0.000225 0.008792 0.000000 0.000000 0.000000
# 4 0.000000 0.000000 0.000000 0.026814 0.000000 0.000000
# 5 0.000000 0.000000 0.000000 0.000000 0.026975 0.000000
# 6 0.000000 0.000000 0.000000 0.000000 0.000000 0.103523
#
#
# Mechanical properties :
#
#
# Convention : Reuss Voigt Hill
#
# Bulk Modulus (GPa) = 48.54831 49.65576 49.10204
# Shear Modulus (GPa) = 24.55158 34.98793 29.76976
#
# Velocity S-wave (km/s) = 3.31675 3.95942 3.65225
# Velocity P-wave (km/s) = 6.03496 6.56901 6.30764
#
# Compressibility (1/GPa) = 0.02059804
#
# Stress axis : x y z
#
# Youngs Moduli (GPa) = 87.11378 102.40845 113.73476
#
# Poissons Ratio (x) = 0.12863 0.36829
# Poissons Ratio (y) = 0.10942 0.02559
# Poissons Ratio (z) = 0.28209 0.02304
#
# Static dielectric constant tensor:
#      x y z
#    x 4.021480 0.000000 0.000000 
#    y 0.000000 4.293480 0.000000 
#    z 0.000000 0.000000 4.169860 
# 
# 
# High freq. dielectric constant tensor:
#      x y z
#    x 1.886170 0.000000 0.000000 
#    y 0.000000 1.895710 0.000000 
#    z 0.000000 0.000000 1.902670 
# 
# From -- ./inp_files/7735.got.cif
#   From: 2010.03.12/outbox.cif.g09.slc.cpg/sg60_4_cif.got.tgz:7735.got - 2010.04.10 18:46:24.
