data_PCOD8248726
_publ_section_title
;
Structure prediction by ZEFSAII (Michael W. Deem and Ramdas Pophale) SiO2 
 PCOD8248726
Probable space group: P B C A
;
_chemical_formula_sum "Si O2"
_cell_formula_units_Z 64
_cell_length_a 5.242192
_cell_length_b 30.969445
_cell_length_c 20.825415
_cell_angle_alpha 90.000000
_cell_angle_beta 90.000000
_cell_angle_gamma 90.000000
_cell_volume 3380.959827
_symmetry_space_group_name_H-M "P B C A"
_symmetry_group_IT_number 61
_symmetry_cell_setting 'orthorhombic'
loop_
_space_group_symop_operation_xyz
x,y,z
1/2-x,-y,1/2+z
1/2+x,1/2-y,-z
-x,1/2+y,1/2-z
-x,-y,-z
1/2+x,y,1/2-z
1/2-x,1/2+y,z
x,1/2-y,1/2+z
loop_
_atom_site_type_symbol
_atom_site_label
_atom_site_fract_x
_atom_site_fract_y
_atom_site_fract_z
Si Si1 0.928902 0.515407 0.288751
Si Si2 0.953418 0.615476 0.288631
Si Si3 0.767737 0.445303 0.020839
Si Si4 0.411040 0.309965 0.877480
Si Si5 0.593856 0.779912 0.899975
Si Si6 0.886350 0.189634 0.969316
Si Si7 0.619245 0.848536 0.011088
Si Si8 0.765425 0.021215 0.922065
O O1 0.712785 0.504087 0.235928
O O2 0.943895 0.565568 0.307999
O O3 0.851092 0.487597 0.349883
O O4 0.669188 0.627174 0.264447
O O5 0.038180 0.642011 0.351501
O O6 0.851436 0.398746 0.994451
O O7 0.483139 0.446706 0.050312
O O8 0.983963 0.457751 0.073585
O O9 0.760407 0.476459 0.959884
O O10 0.649884 0.279682 0.856660
O O11 0.149956 0.286894 0.853069
O O12 0.375776 0.309312 0.953953
O O13 0.589413 0.737885 0.943701
O O14 0.622867 0.822463 0.944515
O O15 0.632212 0.163929 0.947155
O O16 0.136648 0.164395 0.945283
#
# Coordination Sequence:
#
# PCOD8248726 Si02
#       8
#     8   8   8   8   8   8   8   8
#     4  10  21  37  56  77 101 143 184 225 268 309
#     4  10  21  35  48  73 104 131 183 223 240 300
#     4  10  21  35  51  80 105 147 173 215 274 324
#     4  10  18  30  48  68  97 144 163 205 258 287
#     4  10  19  31  48  77 107 134 173 207 247 319
#     4  10  19  31  48  77 108 135 170 210 244 319
#     4  10  18  30  48  71 105 136 170 204 252 319
#     4  10  21  37  53  73 114 137 179 224 260 328
#
# _framework density 18.929535000000001
#
# number of rings (size 3 to 8) (size 9 to 14) (size 15 to 20)
#    0.000    2.000    0.000    6.000    3.500    0.000 
#    9.000    0.000    0.000    0.000    0.000    0.000 
#    0.000  116.000    0.000    0.000    0.000    0.000 
#
# Total GULP energy -792843.269346 kJ/mol
# GULP energy per Si atom -12388.176084 kJ/mol
# Density = 1.888645 g / cm^3
# Si number density = 18.929535 Si / 1000 Ang^3
#
#
#
# Elastic Constant Matrix: (Units=GPa)
#
#
# Indices 1 2 3 4 5 6 
#
# 1 170.8527 25.2831 0.9054 0.0000 0.0000 0.0000
# 2 25.2831 65.1197 4.6650 0.0000 0.0000 0.0000
# 3 0.9054 4.6650 22.2604 0.0000 0.0000 0.0000
# 4 0.0000 0.0000 0.0000 21.1790 0.0000 0.0000
# 5 0.0000 0.0000 0.0000 0.0000 17.7236 0.0000
# 6 0.0000 0.0000 0.0000 0.0000 0.0000 27.0653
#
#
#
# Elastic Compliance Matrix: (Units=1/GPa)
#
#
# Indices 1 2 3 4 5 6 
#
# 1 0.006211 -0.002430 0.000257 0.000000 0.000000 0.000000
# 2 -0.002430 0.016541 -0.003368 0.000000 0.000000 0.000000
# 3 0.000257 -0.003368 0.045618 0.000000 0.000000 0.000000
# 4 0.000000 0.000000 0.000000 0.047216 0.000000 0.000000
# 5 0.000000 0.000000 0.000000 0.000000 0.056422 0.000000
# 6 0.000000 0.000000 0.000000 0.000000 0.000000 0.036948
#
#
# Mechanical properties :
#
#
# Convention : Reuss Voigt Hill
#
# Bulk Modulus (GPa) = 17.45548 35.54886 26.50217
# Shear Modulus (GPa) = 20.90873 28.35221 24.63047
#
# Velocity S-wave (km/s) = 3.32709 3.87431 3.61108
# Velocity P-wave (km/s) = 4.89905 6.23170 5.60512
#
# Compressibility (1/GPa) = 0.05728859
#
# Stress axis : x y z
#
# Youngs Moduli (GPa) = 160.99900 60.45584 21.92109
#
# Poissons Ratio (x) = 0.14690 -0.00563
# Poissons Ratio (y) = 0.39121 0.07382
# Poissons Ratio (z) = -0.04131 0.20359
#
# Static dielectric constant tensor:
#      x y z
#    x 5.884950 0.000000 0.000000 
#    y 0.000000 3.290780 0.000000 
#    z 0.000000 0.000000 2.887970 
# 
# 
# High freq. dielectric constant tensor:
#      x y z
#    x 1.783710 0.000000 0.000000 
#    y 0.000000 1.717450 0.000000 
#    z 0.000000 0.000000 1.671540 
# 
# From -- ./inp_files/10014.got.cif
#   From: 2010.03.12/outbox.cif.g09.slc.cpg/sg61_6_cif.got.tgz:10014.got - 2010.04.10 19:05:03.
