data_PCOD8248486
_publ_section_title
;
Structure prediction by ZEFSAII (Michael W. Deem and Ramdas Pophale) SiO2 
 PCOD8248486
Probable space group: P B C N
;
_chemical_formula_sum "Si O2"
_cell_formula_units_Z 40
_cell_length_a 23.646635
_cell_length_b 8.168795
_cell_length_c 8.951523
_cell_angle_alpha 90.000000
_cell_angle_beta 90.000000
_cell_angle_gamma 90.000000
_cell_volume 1729.116588
_symmetry_space_group_name_H-M "P B C N"
_symmetry_group_IT_number 60
_symmetry_cell_setting 'orthorhombic'
loop_
_space_group_symop_operation_xyz
x,y,z
1/2-x,1/2-y,1/2+z
1/2+x,1/2-y,-z
-x,y,1/2-z
-x,-y,-z
1/2+x,1/2+y,1/2-z
1/2-x,1/2+y,z
x,-y,1/2+z
loop_
_atom_site_type_symbol
_atom_site_label
_atom_site_fract_x
_atom_site_fract_y
_atom_site_fract_z
Si Si1 0.964924 0.118310 0.109720
Si Si2 0.375036 0.176547 0.044121
Si Si3 0.680184 0.833088 0.465710
Si Si4 0.135801 0.106371 0.819636
Si Si5 0.784836 0.171004 0.173167
O O1 0.936188 0.274541 0.026437
O O2 0.000000 0.188886 0.250000
O O3 0.916976 0.011831 0.187985
O O4 0.000000 0.000000 0.000000
O O5 0.324865 0.260143 0.954475
O O6 0.363111 0.983476 0.052959
O O7 0.373753 0.241318 0.211654
O O8 0.641687 0.677475 0.511456
O O9 0.714822 0.794027 0.314902
O O10 0.722593 0.857866 0.606319
O O11 0.192586 0.006717 0.775633
#
# Coordination Sequence:
#
# PCOD8248486 Si02
#       5
#     8   8   8   8   8
#     4  11  23  46  76  99 134 188 237 281 360 430
#     4  11  24  42  67 104 137 179 237 295 342 418
#     4  12  25  43  68 103 141 179 233 294 348 415
#     4  11  24  43  69  98 133 184 233 281 350 435
#     4  11  24  42  68  95 141 189 224 277 358 431
#
# _framework density 23.133199999999999
#
# number of rings (size 3 to 8) (size 9 to 14) (size 15 to 20)
#    0.000    0.800    2.000    6.000    2.800    4.800 
#    0.000    4.000    0.000    0.000    0.000    0.000 
#    0.000    0.000    0.000    0.000    0.000    0.000 
#
# Total GULP energy -495935.584916 kJ/mol
# GULP energy per Si atom -12398.389623 kJ/mol
# Density = 2.308055 g / cm^3
# Si number density = 23.133200 Si / 1000 Ang^3
#
#
#
# Elastic Constant Matrix: (Units=GPa)
#
#
# Indices 1 2 3 4 5 6 
#
# 1 75.1180 33.2828 26.3432 0.0000 0.0000 0.0000
# 2 33.2828 121.8107 29.7537 0.0000 0.0000 0.0000
# 3 26.3432 29.7537 104.8409 0.0000 0.0000 0.0000
# 4 0.0000 0.0000 0.0000 40.9331 0.0000 0.0000
# 5 0.0000 0.0000 0.0000 0.0000 36.5058 0.0000
# 6 0.0000 0.0000 0.0000 0.0000 0.0000 30.8226
#
#
#
# Elastic Compliance Matrix: (Units=1/GPa)
#
#
# Indices 1 2 3 4 5 6 
#
# 1 0.015968 -0.003635 -0.002981 0.000000 0.000000 0.000000
# 2 -0.003635 0.009648 -0.001825 0.000000 0.000000 0.000000
# 3 -0.002981 -0.001825 0.010805 0.000000 0.000000 0.000000
# 4 0.000000 0.000000 0.000000 0.024430 0.000000 0.000000
# 5 0.000000 0.000000 0.000000 0.000000 0.027393 0.000000
# 6 0.000000 0.000000 0.000000 0.000000 0.000000 0.032444
#
#
# Mechanical properties :
#
#
# Convention : Reuss Voigt Hill
#
# Bulk Modulus (GPa) = 51.17531 53.39212 52.28372
# Shear Modulus (GPa) = 34.70216 35.81161 35.25689
#
# Velocity S-wave (km/s) = 3.87732 3.93881 3.90818
# Velocity P-wave (km/s) = 6.49729 6.61937 6.55862
#
# Compressibility (1/GPa) = 0.01954067
#
# Stress axis : x y z
#
# Youngs Moduli (GPa) = 62.62415 103.64409 92.54877
#
# Poissons Ratio (x) = 0.37675 0.27586
# Poissons Ratio (y) = 0.22764 0.16889
# Poissons Ratio (z) = 0.18666 0.18913
#
# Static dielectric constant tensor:
#      x y z
#    x 4.353930 0.000000 0.000000 
#    y 0.000000 4.312360 0.000000 
#    z 0.000000 0.000000 4.197430 
# 
# 
# High freq. dielectric constant tensor:
#      x y z
#    x 1.906500 0.000000 0.000000 
#    y 0.000000 1.908180 0.000000 
#    z 0.000000 0.000000 1.929640 
# 
# From -- ./inp_files/7739.got.cif
#   From: 2010.03.12/outbox.cif.g09.slc.cpg/sg60_4_cif.got.tgz:7739.got - 2010.04.10 18:46:24.
