data_PCOD8248271
_publ_section_title
;
Structure prediction by ZEFSAII (Michael W. Deem and Ramdas Pophale) SiO2 
 PCOD8248271
Probable space group: P B C N
;
_chemical_formula_sum "Si O2"
_cell_formula_units_Z 64
_cell_length_a 29.067274
_cell_length_b 13.407063
_cell_length_c 9.490722
_cell_angle_alpha 90.000000
_cell_angle_beta 90.000000
_cell_angle_gamma 90.000000
_cell_volume 3698.598651
_symmetry_space_group_name_H-M "P B C N"
_symmetry_group_IT_number 60
_symmetry_cell_setting 'orthorhombic'
loop_
_space_group_symop_operation_xyz
x,y,z
1/2-x,1/2-y,1/2+z
1/2+x,1/2-y,-z
-x,y,1/2-z
-x,-y,-z
1/2+x,1/2+y,1/2-z
1/2-x,1/2+y,z
x,-y,1/2+z
loop_
_atom_site_type_symbol
_atom_site_label
_atom_site_fract_x
_atom_site_fract_y
_atom_site_fract_z
Si Si1 0.871415 0.725881 0.048090
Si Si2 0.540185 0.115635 0.061633
Si Si3 0.714606 0.796107 0.032553
Si Si4 0.555376 0.932409 0.872386
Si Si5 0.181713 0.387720 0.185261
Si Si6 0.847309 0.396609 0.815691
Si Si7 0.807747 0.105128 0.586801
Si Si8 0.282707 0.414979 0.093410
O O1 0.927299 0.714006 0.052281
O O2 0.847176 0.674431 0.181377
O O3 0.856870 0.842369 0.052485
O O4 0.854042 0.672271 0.908466
O O5 0.485294 0.140077 0.066290
O O6 0.552162 0.055613 0.203897
O O7 0.550953 0.043489 0.932064
O O8 0.692464 0.817301 0.183257
O O9 0.769223 0.814185 0.041024
O O10 0.702003 0.684403 0.988161
O O11 0.695171 0.870311 0.914873
O O12 0.605276 0.885293 0.906020
O O13 0.158292 0.489927 0.237950
O O14 0.227608 0.416663 0.099610
O O15 0.802625 0.005701 0.496595
O O16 0.804437 0.078784 0.751333
#
# Coordination Sequence:
#
# PCOD8248271 Si02
#       8
#     8   8   8   8   8   8   8   8
#     4  11  21  34  52  76 107 141 185 218 263 327
#     4   9  18  32  49  75 108 138 173 210 267 320
#     4  11  23  36  52  77 109 141 184 220 262 317
#     4   9  18  30  50  75 107 140 169 214 260 326
#     4  11  22  32  54  77 108 147 177 220 265 317
#     4  11  20  35  52  79 108 143 183 211 265 320
#     4  11  24  37  55  74 105 144 185 226 266 315
#     4  11  24  38  53  74 105 146 186 230 267 304
#
# _framework density 17.303851000000002
#
# number of rings (size 3 to 8) (size 9 to 14) (size 15 to 20)
#    0.000    1.500    5.000    0.750    5.250    0.000 
#    0.000    0.000    0.000    0.000    0.000    0.875 
#    0.000    0.000    0.000    0.000    0.000    0.000 
#
# Total GULP energy -793459.210373 kJ/mol
# GULP energy per Si atom -12397.800162 kJ/mol
# Density = 1.726447 g / cm^3
# Si number density = 17.303851 Si / 1000 Ang^3
#
#
#
# Elastic Constant Matrix: (Units=GPa)
#
#
# Indices 1 2 3 4 5 6 
#
# 1 81.0342 31.7981 21.4617 0.0000 0.0000 0.0000
# 2 31.7981 100.0113 39.3534 0.0000 0.0000 0.0000
# 3 21.4617 39.3534 64.2621 0.0000 0.0000 0.0000
# 4 0.0000 0.0000 0.0000 24.0466 0.0000 0.0000
# 5 0.0000 0.0000 0.0000 0.0000 17.5169 0.0000
# 6 0.0000 0.0000 0.0000 0.0000 0.0000 26.5467
#
#
#
# Elastic Compliance Matrix: (Units=1/GPa)
#
#
# Indices 1 2 3 4 5 6 
#
# 1 0.014434 -0.003547 -0.002648 0.000000 0.000000 0.000000
# 2 -0.003547 0.014045 -0.007416 0.000000 0.000000 0.000000
# 3 -0.002648 -0.007416 0.020987 0.000000 0.000000 0.000000
# 4 0.000000 0.000000 0.000000 0.041586 0.000000 0.000000
# 5 0.000000 0.000000 0.000000 0.000000 0.057088 0.000000
# 6 0.000000 0.000000 0.000000 0.000000 0.000000 0.037669
#
#
# Mechanical properties :
#
#
# Convention : Reuss Voigt Hill
#
# Bulk Modulus (GPa) = 44.95855 47.83709 46.39782
# Shear Modulus (GPa) = 22.68121 23.80166 23.24144
#
# Velocity S-wave (km/s) = 3.62437 3.71281 3.66886
# Velocity P-wave (km/s) = 6.59947 6.78862 6.69471
#
# Compressibility (1/GPa) = 0.02224271
#
# Stress axis : x y z
#
# Youngs Moduli (GPa) = 69.28209 71.20038 47.64770
#
# Poissons Ratio (x) = 0.25255 0.12618
# Poissons Ratio (y) = 0.24575 0.35337
# Poissons Ratio (z) = 0.18348 0.52804
#
# Static dielectric constant tensor:
#      x y z
#    x 3.502160 0.000000 0.000000 
#    y 0.000000 3.009140 0.000000 
#    z 0.000000 0.000000 3.314020 
# 
# 
# High freq. dielectric constant tensor:
#      x y z
#    x 1.659190 0.000000 0.000000 
#    y 0.000000 1.636460 0.000000 
#    z 0.000000 0.000000 1.680780 
# 
# From -- ./inp_files/8500.got.cif
#   From: 2010.03.12/outbox.cif.g09.slc.cpg/sg60_5_cif.got.tgz:8500.got - 2010.04.10 18:46:24.
