data_PCOD8248964
_publ_section_title
;
Structure prediction by ZEFSAII (Michael W. Deem and Ramdas Pophale) SiO2 
 PCOD8248964
Probable space group: P B C A
;
_chemical_formula_sum "Si O2"
_cell_formula_units_Z 64
_cell_length_a 17.674074
_cell_length_b 10.019154
_cell_length_c 19.553845
_cell_angle_alpha 90.000000
_cell_angle_beta 90.000000
_cell_angle_gamma 90.000000
_cell_volume 3462.580583
_symmetry_space_group_name_H-M "P B C A"
_symmetry_group_IT_number 61
_symmetry_cell_setting 'orthorhombic'
loop_
_space_group_symop_operation_xyz
x,y,z
1/2-x,-y,1/2+z
1/2+x,1/2-y,-z
-x,1/2+y,1/2-z
-x,-y,-z
1/2+x,y,1/2-z
1/2-x,1/2+y,z
x,1/2-y,1/2+z
loop_
_atom_site_type_symbol
_atom_site_label
_atom_site_fract_x
_atom_site_fract_y
_atom_site_fract_z
Si Si1 0.177120 0.250007 0.073473
Si Si2 0.041596 0.013397 0.354896
Si Si3 0.396185 0.095823 0.217957
Si Si4 0.396188 0.404181 0.217954
Si Si5 0.750000 0.499994 0.857885
Si Si6 0.589072 0.250000 0.555576
Si Si7 0.041598 0.486609 0.354900
Si Si8 0.509090 0.250005 0.422153
O O1 0.222952 0.381058 0.093650
O O2 0.094238 0.250005 0.110534
O O3 0.222956 0.118963 0.093653
O O4 0.164963 0.250004 0.991142
O O5 0.085299 0.992329 0.284098
O O6 0.036995 0.878600 0.398341
O O7 0.089637 0.118920 0.398010
O O8 0.958004 0.070802 0.341023
O O9 0.396531 0.250003 0.239180
O O10 0.315093 0.053087 0.191156
O O11 0.414697 0.007678 0.284103
O O12 0.315097 0.446917 0.191150
O O13 0.458007 0.429198 0.158974
O O14 0.589638 0.118907 0.601982
O O15 0.515622 0.250007 0.504933
O O16 0.036994 0.621409 0.398342
#
# Coordination Sequence:
#
# PCOD8248964 Si02
#       8
#     8   8   8   8   8   8   8   8
#     4  10  24  37  64  89 120 162 201 246 300 363
#     4  11  21  38  63  94 122 152 211 252 310 346
#     4  11  22  36  64  92 122 161 199 261 296 367
#     4  11  22  36  64  92 122 161 199 261 296 367
#     4  12  22  42  62  90 126 164 208 238 314 368
#     4  10  22  39  61  90 122 155 197 264 300 353
#     4  11  21  38  63  94 122 152 211 252 310 346
#     4  10  20  36  59  95 116 155 200 260 296 354
#
# _framework density 18.483322999999999
#
# number of rings (size 3 to 8) (size 9 to 14) (size 15 to 20)
#    0.750    0.500    6.250    0.750    0.000    1.000 
#    0.000    2.500    0.000    0.000    0.000    0.000 
#    0.000    0.000    0.000    0.000    0.000    0.000 
#
# Total GULP energy -793719.802366 kJ/mol
# GULP energy per Si atom -12401.871912 kJ/mol
# Density = 1.844125 g / cm^3
# Si number density = 18.483323 Si / 1000 Ang^3
#
#
#
# Elastic Constant Matrix: (Units=GPa)
#
#
# Indices 1 2 3 4 5 6 
#
# 1 78.7077 42.2107 33.6962 0.0000 0.0000 0.0000
# 2 42.2107 152.8090 51.2867 0.0000 0.0000 0.0000
# 3 33.6962 51.2867 99.3437 0.0000 0.0000 0.0000
# 4 0.0000 0.0000 0.0000 30.8923 0.0000 0.0000
# 5 0.0000 0.0000 0.0000 0.0000 30.6968 0.0000
# 6 0.0000 0.0000 0.0000 0.0000 0.0000 13.2958
#
#
#
# Elastic Compliance Matrix: (Units=1/GPa)
#
#
# Indices 1 2 3 4 5 6 
#
# 1 0.016025 -0.003148 -0.003810 0.000000 0.000000 0.000000
# 2 -0.003148 0.008534 -0.003338 0.000000 0.000000 0.000000
# 3 -0.003810 -0.003338 0.013082 0.000000 0.000000 0.000000
# 4 0.000000 0.000000 0.000000 0.032371 0.000000 0.000000
# 5 0.000000 0.000000 0.000000 0.000000 0.032577 0.000000
# 6 0.000000 0.000000 0.000000 0.000000 0.000000 0.075212
#
#
# Mechanical properties :
#
#
# Convention : Reuss Voigt Hill
#
# Bulk Modulus (GPa) = 58.65722 65.02751 61.84236
# Shear Modulus (GPa) = 24.50088 28.55477 26.52783
#
# Velocity S-wave (km/s) = 3.64478 3.93478 3.79255
# Velocity P-wave (km/s) = 7.03681 7.47672 7.26010
#
# Compressibility (1/GPa) = 0.01704820
#
# Stress axis : x y z
#
# Youngs Moduli (GPa) = 62.40410 117.17931 76.44231
#
# Poissons Ratio (x) = 0.36884 0.29127
# Poissons Ratio (y) = 0.19643 0.25517
# Poissons Ratio (z) = 0.23778 0.39115
#
# Static dielectric constant tensor:
#      x y z
#    x 3.208640 0.000000 0.000000 
#    y 0.000000 3.486080 0.000000 
#    z 0.000000 0.000000 3.301820 
# 
# 
# High freq. dielectric constant tensor:
#      x y z
#    x 1.695060 0.000000 0.000000 
#    y 0.000000 1.736550 0.000000 
#    z 0.000000 0.000000 1.715230 
# 
# From -- ./inp_files/10557.got.cif
#   From: 2010.03.12/outbox.cif.g09.slc.cpg/sg61_6_cif.got.tgz:10557.got - 2010.04.10 19:05:03.
