data_PCOD8248430
_publ_section_title
;
Structure prediction by ZEFSAII (Michael W. Deem and Ramdas Pophale) SiO2 
 PCOD8248430
Probable space group: P B C N
;
_chemical_formula_sum "Si O2"
_cell_formula_units_Z 32
_cell_length_a 8.935826
_cell_length_b 18.607594
_cell_length_c 8.959961
_cell_angle_alpha 90.000000
_cell_angle_beta 90.000000
_cell_angle_gamma 90.000000
_cell_volume 1489.810547
_symmetry_space_group_name_H-M "P B C N"
_symmetry_group_IT_number 60
_symmetry_cell_setting 'orthorhombic'
loop_
_space_group_symop_operation_xyz
x,y,z
1/2-x,1/2-y,1/2+z
1/2+x,1/2-y,-z
-x,y,1/2-z
-x,-y,-z
1/2+x,1/2+y,1/2-z
1/2-x,1/2+y,z
x,-y,1/2+z
loop_
_atom_site_type_symbol
_atom_site_label
_atom_site_fract_x
_atom_site_fract_y
_atom_site_fract_z
Si Si1 0.650047 0.324379 0.161154
Si Si2 0.668305 0.479255 0.036617
Si Si3 0.323829 0.080108 0.247124
Si Si4 0.157272 0.781078 0.676827
O O1 0.500000 0.306957 0.250000
O O2 0.672375 0.409511 0.142979
O O3 0.789258 0.296284 0.261469
O O4 0.644133 0.283000 0.002273
O O5 0.750253 0.547768 0.105244
O O6 0.500000 0.500000 0.000000
O O7 0.757136 0.464534 0.887664
O O8 0.500000 0.071206 0.250000
O O9 0.282180 0.163363 0.233883
O O10 0.000000 0.802535 0.750000
#
# Coordination Sequence:
#
# PCOD8248430 Si02
#       4
#     8   8   8   8
#     4  11  23  41  64  94 129 171 223 277 338 411
#     4  11  23  42  67  96 130 176 225 278 341 407
#     4  11  23  40  63  93 129 169 220 277 334 398
#     4  11  24  41  63  91 128 174 219 274 341 408
#
# _framework density 21.479240999999998
#
# number of rings (size 3 to 8) (size 9 to 14) (size 15 to 20)
#    0.000    1.000    0.000    8.250    0.000    5.000 
#    0.000    0.000    0.000    0.000    0.000    0.000 
#    0.000    0.000    0.000    0.000    0.000    0.000 
#
# Total GULP energy -396960.586292 kJ/mol
# GULP energy per Si atom -12405.018322 kJ/mol
# Density = 2.143035 g / cm^3
# Si number density = 21.479241 Si / 1000 Ang^3
#
#
#
# Elastic Constant Matrix: (Units=GPa)
#
#
# Indices 1 2 3 4 5 6 
#
# 1 165.9149 21.6124 21.4786 0.0000 0.0000 0.0000
# 2 21.6124 70.4105 9.4289 0.0000 0.0000 0.0000
# 3 21.4786 9.4289 17.0358 0.0000 0.0000 0.0000
# 4 0.0000 0.0000 0.0000 40.4918 0.0000 0.0000
# 5 0.0000 0.0000 0.0000 0.0000 44.8317 0.0000
# 6 0.0000 0.0000 0.0000 0.0000 0.0000 37.3595
#
#
#
# Elastic Compliance Matrix: (Units=1/GPa)
#
#
# Indices 1 2 3 4 5 6 
#
# 1 0.007279 -0.001086 -0.008576 0.000000 0.000000 0.000000
# 2 -0.001086 0.015501 -0.007211 0.000000 0.000000 0.000000
# 3 -0.008576 -0.007211 0.073504 0.000000 0.000000 0.000000
# 4 0.000000 0.000000 0.000000 0.024696 0.000000 0.000000
# 5 0.000000 0.000000 0.000000 0.000000 0.022306 0.000000
# 6 0.000000 0.000000 0.000000 0.000000 0.000000 0.026767
#
#
# Mechanical properties :
#
#
# Convention : Reuss Voigt Hill
#
# Bulk Modulus (GPa) = 15.99015 39.82233 27.90624
# Shear Modulus (GPa) = 22.25743 37.92602 30.09172
#
# Velocity S-wave (km/s) = 3.22254 4.20659 3.74701
# Velocity P-wave (km/s) = 4.61595 6.49415 5.63387
#
# Compressibility (1/GPa) = 0.06253850
#
# Stress axis : x y z
#
# Youngs Moduli (GPa) = 137.38432 64.51070 13.60478
#
# Poissons Ratio (x) = 0.07004 0.11668
# Poissons Ratio (y) = 0.14917 0.09810
# Poissons Ratio (z) = 1.17823 0.46517
#
# Static dielectric constant tensor:
#      x y z
#    x 3.819030 0.000000 0.000000 
#    y 0.000000 3.982920 0.000000 
#    z 0.000000 0.000000 4.057140 
# 
# 
# High freq. dielectric constant tensor:
#      x y z
#    x 1.851680 0.000000 0.000000 
#    y 0.000000 1.847980 0.000000 
#    z 0.000000 0.000000 1.858040 
# 
# From -- ./inp_files/3568.got.cif
#   From: 2010.03.12/outbox.cif.g09.slc.cpg/sg60_2_cif.got.tgz:3568.got - 2010.04.10 18:46:24.
