data_PCOD8248249
_publ_section_title
;
Structure prediction by ZEFSAII (Michael W. Deem and Ramdas Pophale) SiO2 
 PCOD8248249
Probable space group: P B C N
;
_chemical_formula_sum "Si O2"
_cell_formula_units_Z 44
_cell_length_a 4.977729
_cell_length_b 16.366905
_cell_length_c 23.949688
_cell_angle_alpha 90.000000
_cell_angle_beta 90.000000
_cell_angle_gamma 90.000000
_cell_volume 1951.181504
_symmetry_space_group_name_H-M "P B C N"
_symmetry_group_IT_number 60
_symmetry_cell_setting 'orthorhombic'
loop_
_space_group_symop_operation_xyz
x,y,z
1/2-x,1/2-y,1/2+z
1/2+x,1/2-y,-z
-x,y,1/2-z
-x,-y,-z
1/2+x,1/2+y,1/2-z
1/2-x,1/2+y,z
x,-y,1/2+z
loop_
_atom_site_type_symbol
_atom_site_label
_atom_site_fract_x
_atom_site_fract_y
_atom_site_fract_z
Si Si1 0.254556 0.302668 0.988308
Si Si2 0.500000 0.548716 0.750000
Si Si3 0.830284 0.838899 0.155867
Si Si4 0.227345 0.555509 0.158196
Si Si5 0.234092 0.159528 0.361317
Si Si6 0.325559 0.898515 0.093478
O O1 0.218206 0.381558 0.028015
O O2 0.556946 0.269461 0.991964
O O3 0.187121 0.329839 0.925858
O O4 0.686874 0.606148 0.711391
O O5 0.699988 0.492711 0.785656
O O6 0.759418 0.745561 0.170893
O O7 0.627877 0.874873 0.109930
O O8 0.127932 0.841593 0.129940
O O9 0.432304 0.628317 0.145496
O O10 0.230346 0.493696 0.105566
O O11 0.932638 0.593563 0.166538
#
# Coordination Sequence:
#
# PCOD8248249 Si02
#       6
#     8   4   8   8   8   8
#     4  12  22  40  71  99 137 179 218 269 330 395
#     4  10  26  48  68  92 130 190 216 278 348 394
#     4  11  23  42  71  94 127 175 237 263 320 402
#     4  11  26  42  66  97 143 167 221 285 339 385
#     4  12  24  42  68 105 133 170 224 286 322 396
#     4  11  22  43  66  99 135 182 216 263 330 411
#
# _framework density 22.550439999999998
#
# number of rings (size 3 to 8) (size 9 to 14) (size 15 to 20)
#    0.000    0.727    3.636    4.364    0.000    9.455 
#    0.000    0.000    0.000    0.000    0.000    0.000 
#    0.000    0.000    0.000    0.000    0.000    0.000 
#
# Total GULP energy -545958.894218 kJ/mol
# GULP energy per Si atom -12408.156687 kJ/mol
# Density = 2.249911 g / cm^3
# Si number density = 22.550440 Si / 1000 Ang^3
#
#
#
# Elastic Constant Matrix: (Units=GPa)
#
#
# Indices 1 2 3 4 5 6 
#
# 1 74.4651 6.5057 3.0516 0.0000 0.0000 0.0000
# 2 6.5057 107.5327 25.2236 0.0000 0.0000 0.0000
# 3 3.0516 25.2236 102.6316 0.0000 0.0000 0.0000
# 4 0.0000 0.0000 0.0000 35.5456 0.0000 0.0000
# 5 0.0000 0.0000 0.0000 0.0000 27.9037 0.0000
# 6 0.0000 0.0000 0.0000 0.0000 0.0000 41.2204
#
#
#
# Elastic Compliance Matrix: (Units=1/GPa)
#
#
# Indices 1 2 3 4 5 6 
#
# 1 0.013505 -0.000767 -0.000213 0.000000 0.000000 0.000000
# 2 -0.000767 0.009912 -0.002413 0.000000 0.000000 0.000000
# 3 -0.000213 -0.002413 0.010343 0.000000 0.000000 0.000000
# 4 0.000000 0.000000 0.000000 0.028133 0.000000 0.000000
# 5 0.000000 0.000000 0.000000 0.000000 0.035837 0.000000
# 6 0.000000 0.000000 0.000000 0.000000 0.000000 0.024260
#
#
# Mechanical properties :
#
#
# Convention : Reuss Voigt Hill
#
# Bulk Modulus (GPa) = 37.07388 39.35458 38.21423
# Shear Modulus (GPa) = 36.29297 37.59053 36.94175
#
# Velocity S-wave (km/s) = 4.01610 4.08726 4.05184
# Velocity P-wave (km/s) = 6.16292 6.30587 6.23480
#
# Compressibility (1/GPa) = 0.02697317
#
# Stress axis : x y z
#
# Youngs Moduli (GPa) = 74.04744 100.88811 96.68356
#
# Poissons Ratio (x) = 0.07739 0.02060
# Poissons Ratio (y) = 0.05680 0.23332
# Poissons Ratio (z) = 0.01577 0.24347
#
# Static dielectric constant tensor:
#      x y z
#    x 4.062100 0.000000 0.000000 
#    y 0.000000 4.149710 0.000000 
#    z 0.000000 0.000000 4.054330 
# 
# 
# High freq. dielectric constant tensor:
#      x y z
#    x 1.901820 0.000000 0.000000 
#    y 0.000000 1.892390 0.000000 
#    z 0.000000 0.000000 1.879490 
# 
# From -- ./inp_files/24823.got.cif
#   From: 2010.03.12/outbox.cif.g09.slc.cpg/sg60_13_cif.got.tgz:24823.got - 2010.04.10 18:46:24.
