data_PCOD8248436
_publ_section_title
;
Structure prediction by ZEFSAII (Michael W. Deem and Ramdas Pophale) SiO2 
 PCOD8248436
Probable space group: P B C N
;
_chemical_formula_sum "Si O2"
_cell_formula_units_Z 32
_cell_length_a 4.956233
_cell_length_b 18.572952
_cell_length_c 16.264478
_cell_angle_alpha 90.000000
_cell_angle_beta 90.000000
_cell_angle_gamma 90.000000
_cell_volume 1497.175738
_symmetry_space_group_name_H-M "P B C N"
_symmetry_group_IT_number 60
_symmetry_cell_setting 'orthorhombic'
loop_
_space_group_symop_operation_xyz
x,y,z
1/2-x,1/2-y,1/2+z
1/2+x,1/2-y,-z
-x,y,1/2-z
-x,-y,-z
1/2+x,1/2+y,1/2-z
1/2-x,1/2+y,z
x,-y,1/2+z
loop_
_atom_site_type_symbol
_atom_site_label
_atom_site_fract_x
_atom_site_fract_y
_atom_site_fract_z
Si Si1 0.588592 0.560298 0.563627
Si Si2 0.398510 0.020842 0.661260
Si Si3 0.760878 0.360248 0.804899
Si Si4 0.824019 0.207321 0.474878
O O1 0.500000 0.500000 0.500000
O O2 0.386200 0.558769 0.641496
O O3 0.569428 0.637275 0.521213
O O4 0.890370 0.544063 0.592090
O O5 0.500000 0.047066 0.750000
O O6 0.367288 0.934783 0.656928
O O7 0.500000 0.376063 0.750000
O O8 0.691029 0.305167 0.877192
O O9 0.000000 0.325795 0.750000
O O10 0.531680 0.228019 0.509550
#
# Coordination Sequence:
#
# PCOD8248436 Si02
#       4
#     8   8   8   8
#     4  12  24  42  70  99 133 170 227 278 332 388
#     4  11  23  40  69 104 132 169 221 287 336 385
#     4  11  23  42  71  98 132 175 228 276 332 407
#     4  12  27  45  67 100 139 182 224 272 336 404
#
# _framework density 21.373574999999999
#
# number of rings (size 3 to 8) (size 9 to 14) (size 15 to 20)
#    0.000    0.500    2.500    7.500    3.500    0.000 
#    0.000   12.500    0.000    0.000    0.000    0.000 
#    0.000    0.000    0.000    0.000    0.000    0.000 
#
# Total GULP energy -397068.812314 kJ/mol
# GULP energy per Si atom -12408.400385 kJ/mol
# Density = 2.132493 g / cm^3
# Si number density = 21.373575 Si / 1000 Ang^3
#
#
#
# Elastic Constant Matrix: (Units=GPa)
#
#
# Indices 1 2 3 4 5 6 
#
# 1 112.3362 20.5363 31.8697 0.0000 0.0000 0.0000
# 2 20.5363 79.4688 46.2349 0.0000 0.0000 0.0000
# 3 31.8697 46.2349 110.3368 0.0000 0.0000 0.0000
# 4 0.0000 0.0000 0.0000 22.1928 0.0000 0.0000
# 5 0.0000 0.0000 0.0000 0.0000 53.7830 0.0000
# 6 0.0000 0.0000 0.0000 0.0000 0.0000 35.9083
#
#
#
# Elastic Compliance Matrix: (Units=1/GPa)
#
#
# Indices 1 2 3 4 5 6 
#
# 1 0.009778 -0.001169 -0.002335 0.000000 0.000000 0.000000
# 2 -0.001169 0.016780 -0.006694 0.000000 0.000000 0.000000
# 3 -0.002335 -0.006694 0.012542 0.000000 0.000000 0.000000
# 4 0.000000 0.000000 0.000000 0.045060 0.000000 0.000000
# 5 0.000000 0.000000 0.000000 0.000000 0.018593 0.000000
# 6 0.000000 0.000000 0.000000 0.000000 0.000000 0.027849
#
#
# Mechanical properties :
#
#
# Convention : Reuss Voigt Hill
#
# Bulk Modulus (GPa) = 53.45791 55.49150 54.47471
# Shear Modulus (GPa) = 31.80027 35.94353 33.87190
#
# Velocity S-wave (km/s) = 3.86143 4.10528 3.98522
# Velocity P-wave (km/s) = 6.70420 6.96348 6.83507
#
# Compressibility (1/GPa) = 0.01870630
#
# Stress axis : x y z
#
# Youngs Moduli (GPa) = 102.27265 59.59466 79.72927
#
# Poissons Ratio (x) = 0.06964 0.18613
# Poissons Ratio (y) = 0.11951 0.53370
# Poissons Ratio (z) = 0.23876 0.39892
#
# Static dielectric constant tensor:
#      x y z
#    x 4.446960 0.000000 0.000000 
#    y 0.000000 3.603210 0.000000 
#    z 0.000000 0.000000 4.005790 
# 
# 
# High freq. dielectric constant tensor:
#      x y z
#    x 1.863300 0.000000 0.000000 
#    y 0.000000 1.816230 0.000000 
#    z 0.000000 0.000000 1.851720 
# 
# From -- ./inp_files/13583.got.cif
#   From: 2010.03.12/outbox.cif.g09.slc.cpg/sg60_7_cif.got.tgz:13583.got - 2010.04.10 18:46:24.
