data_PCOD8248169
_publ_section_title
;
Structure prediction by ZEFSAII (Michael W. Deem and Ramdas Pophale) SiO2 
 PCOD8248169
Probable space group: P B C N
;
_chemical_formula_sum "Si O2"
_cell_formula_units_Z 48
_cell_length_a 8.072611
_cell_length_b 30.024255
_cell_length_c 8.673454
_cell_angle_alpha 90.000000
_cell_angle_beta 90.000000
_cell_angle_gamma 90.000000
_cell_volume 2102.220878
_symmetry_space_group_name_H-M "P B C N"
_symmetry_group_IT_number 60
_symmetry_cell_setting 'orthorhombic'
loop_
_space_group_symop_operation_xyz
x,y,z
1/2-x,1/2-y,1/2+z
1/2+x,1/2-y,-z
-x,y,1/2-z
-x,-y,-z
1/2+x,1/2+y,1/2-z
1/2-x,1/2+y,z
x,-y,1/2+z
loop_
_atom_site_type_symbol
_atom_site_label
_atom_site_fract_x
_atom_site_fract_y
_atom_site_fract_z
Si Si1 0.958178 0.712000 0.923016
Si Si2 0.102822 0.437238 0.488636
Si Si3 0.831843 0.883055 0.803550
Si Si4 0.818849 0.804792 0.003010
Si Si5 0.000000 0.139887 0.750000
Si Si6 0.712751 0.121594 0.968579
Si Si7 0.000000 0.501895 0.750000
O O1 0.825090 0.672557 0.926879
O O2 0.000000 0.725878 0.750000
O O3 0.120775 0.695584 0.011150
O O4 0.885856 0.754860 0.008053
O O5 0.248606 0.403977 0.540998
O O6 0.139431 0.467966 0.339017
O O7 0.936956 0.411729 0.430760
O O8 0.092272 0.470528 0.631223
O O9 0.717794 0.882953 0.653831
O O10 0.000000 0.908123 0.750000
O O11 0.881463 0.832920 0.855064
O O12 0.874449 0.828833 0.158508
O O13 0.882655 0.110784 0.870298
#
# Coordination Sequence:
#
# PCOD8248169 Si02
#       7
#     8   8   8   8   4   8   4
#     4  12  27  43  66  96 135 192 239 296 350 411
#     4  11  24  47  73 109 138 187 231 288 365 430
#     4  12  25  45  71 102 144 187 229 294 358 427
#     4  12  27  44  66  97 142 183 244 295 345 409
#     4  12  26  44  67 104 132 190 238 295 344 426
#     4  12  25  44  71 100 140 183 243 282 360 429
#     4  10  24  44  81 102 142 176 236 291 350 452
#
# _framework density 22.832992999999998
#
# number of rings (size 3 to 8) (size 9 to 14) (size 15 to 20)
#    0.000    0.333    6.667    1.500    5.833    0.000 
#    0.000    0.833    7.333    0.000    0.000    0.000 
#    0.000    0.000    0.000    0.000    0.000    0.000 
#
# Total GULP energy -594832.305844 kJ/mol
# GULP energy per Si atom -12392.339705 kJ/mol
# Density = 2.278102 g / cm^3
# Si number density = 22.832993 Si / 1000 Ang^3
#
#
#
# Elastic Constant Matrix: (Units=GPa)
#
#
# Indices 1 2 3 4 5 6 
#
# 1 112.9809 37.6575 16.7983 0.0000 0.0000 0.0000
# 2 37.6575 100.8811 38.3843 0.0000 0.0000 0.0000
# 3 16.7983 38.3843 81.9595 0.0000 0.0000 0.0000
# 4 0.0000 0.0000 0.0000 41.6880 0.0000 0.0000
# 5 0.0000 0.0000 0.0000 0.0000 42.2590 0.0000
# 6 0.0000 0.0000 0.0000 0.0000 0.0000 16.3850
#
#
#
# Elastic Compliance Matrix: (Units=1/GPa)
#
#
# Indices 1 2 3 4 5 6 
#
# 1 0.010118 -0.003636 -0.000371 0.000000 0.000000 0.000000
# 2 -0.003636 0.013369 -0.005516 0.000000 0.000000 0.000000
# 3 -0.000371 -0.005516 0.014860 0.000000 0.000000 0.000000
# 4 0.000000 0.000000 0.000000 0.023988 0.000000 0.000000
# 5 0.000000 0.000000 0.000000 0.000000 0.023664 0.000000
# 6 0.000000 0.000000 0.000000 0.000000 0.000000 0.061031
#
#
# Mechanical properties :
#
#
# Convention : Reuss Voigt Hill
#
# Bulk Modulus (GPa) = 51.80834 53.50019 52.65427
# Shear Modulus (GPa) = 28.98405 33.59849 31.29127
#
# Velocity S-wave (km/s) = 3.56672 3.84016 3.70596
# Velocity P-wave (km/s) = 6.30090 6.56844 6.43606
#
# Compressibility (1/GPa) = 0.01930191
#
# Stress axis : x y z
#
# Youngs Moduli (GPa) = 98.83332 74.80260 67.29300
#
# Poissons Ratio (x) = 0.27196 0.02497
# Poissons Ratio (y) = 0.35933 0.37117
# Poissons Ratio (z) = 0.03667 0.41259
#
# Static dielectric constant tensor:
#      x y z
#    x 4.142040 0.000000 0.000000 
#    y 0.000000 4.154770 0.000000 
#    z 0.000000 0.000000 4.387090 
# 
# 
# High freq. dielectric constant tensor:
#      x y z
#    x 1.888600 0.000000 0.000000 
#    y 0.000000 1.891780 0.000000 
#    z 0.000000 0.000000 1.923380 
# 
# From -- ./inp_files/4264.got.cif
#   From: 2010.03.12/outbox.cif.g09.slc.cpg/sg60_3_cif.got.tgz:4264.got - 2010.04.10 18:46:24.
