data_PCOD8248987
_publ_section_title
;
Structure prediction by ZEFSAII (Michael W. Deem and Ramdas Pophale) SiO2 
 PCOD8248987
Probable space group: P B C A
;
_chemical_formula_sum "Si O2"
_cell_formula_units_Z 48
_cell_length_a 19.892751
_cell_length_b 13.317744
_cell_length_c 9.400369
_cell_angle_alpha 90.000000
_cell_angle_beta 90.000000
_cell_angle_gamma 90.000000
_cell_volume 2490.407471
_symmetry_space_group_name_H-M "P B C A"
_symmetry_group_IT_number 61
_symmetry_cell_setting 'orthorhombic'
loop_
_space_group_symop_operation_xyz
x,y,z
1/2-x,-y,1/2+z
1/2+x,1/2-y,-z
-x,1/2+y,1/2-z
-x,-y,-z
1/2+x,y,1/2-z
1/2-x,1/2+y,z
x,1/2-y,1/2+z
loop_
_atom_site_type_symbol
_atom_site_label
_atom_site_fract_x
_atom_site_fract_y
_atom_site_fract_z
Si Si1 0.063047 0.990009 0.682710
Si Si2 0.934082 0.397609 0.124732
Si Si3 0.212186 0.951508 0.383549
Si Si4 0.197740 0.408482 0.133317
Si Si5 0.118875 0.687092 0.338600
Si Si6 0.790331 0.238579 0.426922
O O1 0.059080 0.919177 0.543672
O O2 0.079095 0.917946 0.817089
O O3 0.118628 0.077805 0.662423
O O4 0.993165 0.047214 0.711142
O O5 0.862638 0.438805 0.180645
O O6 0.935464 0.277992 0.152737
O O7 0.263260 0.969300 0.255561
O O8 0.231819 0.852964 0.473574
O O9 0.217117 0.048858 0.480054
O O10 0.222626 0.293261 0.129631
O O11 0.169592 0.697761 0.207335
O O12 0.161558 0.685215 0.484759
#
# Coordination Sequence:
#
# PCOD8248987 Si02
#       6
#     8   8   8   8   8   8
#     4  10  20  37  59  85 113 151 192 240 291 334
#     4   9  19  37  59  81 112 156 191 227 292 352
#     4  10  21  36  57  85 111 157 186 234 294 344
#     4  11  20  35  59  85 116 143 197 244 283 339
#     4  11  18  38  61  82 109 157 192 226 291 358
#     4  11  20  35  59  83 113 151 194 227 285 356
#
# _framework density 19.273952999999999
#
# number of rings (size 3 to 8) (size 9 to 14) (size 15 to 20)
#    0.000    1.667    8.333    1.000    0.000    0.000 
#    0.000    7.500    0.000    0.000    0.000    0.000 
#    0.000    0.000    0.000    0.000    0.000    0.000 
#
# Total GULP energy -595070.783853 kJ/mol
# GULP energy per Si atom -12397.307997 kJ/mol
# Density = 1.923008 g / cm^3
# Si number density = 19.273953 Si / 1000 Ang^3
#
#
#
# Elastic Constant Matrix: (Units=GPa)
#
#
# Indices 1 2 3 4 5 6 
#
# 1 88.8007 44.1569 23.7696 0.0000 0.0000 0.0000
# 2 44.1569 66.4091 -9.2149 0.0000 0.0000 0.0000
# 3 23.7696 -9.2149 40.3794 0.0000 0.0000 0.0000
# 4 0.0000 0.0000 0.0000 19.2845 0.0000 0.0000
# 5 0.0000 0.0000 0.0000 0.0000 20.8542 0.0000
# 6 0.0000 0.0000 0.0000 0.0000 0.0000 36.5767
#
#
#
# Elastic Compliance Matrix: (Units=1/GPa)
#
#
# Indices 1 2 3 4 5 6 
#
# 1 0.027337 -0.021077 -0.020902 0.000000 0.000000 0.000000
# 2 -0.021077 0.031802 0.019665 0.000000 0.000000 0.000000
# 3 -0.020902 0.019665 0.041557 0.000000 0.000000 0.000000
# 4 0.000000 0.000000 0.000000 0.051855 0.000000 0.000000
# 5 0.000000 0.000000 0.000000 0.000000 0.047952 0.000000
# 6 0.000000 0.000000 0.000000 0.000000 0.000000 0.027340
#
#
# Mechanical properties :
#
#
# Convention : Reuss Voigt Hill
#
# Bulk Modulus (GPa) = 17.83605 34.77914 26.30759
# Shear Modulus (GPa) = 17.17262 24.46826 20.82044
#
# Velocity S-wave (km/s) = 2.98816 3.56687 3.29026
# Velocity P-wave (km/s) = 4.60212 5.92007 5.30220
#
# Compressibility (1/GPa) = 0.05606622
#
# Stress axis : x y z
#
# Youngs Moduli (GPa) = 36.58032 31.44480 24.06329
#
# Poissons Ratio (x) = 0.66278 0.50298
# Poissons Ratio (y) = 0.77102 -0.47320
# Poissons Ratio (z) = 0.76461 -0.61836
#
# Static dielectric constant tensor:
#      x y z
#    x 3.526470 0.000000 0.000000 
#    y 0.000000 3.569070 0.000000 
#    z 0.000000 0.000000 3.569400 
# 
# 
# High freq. dielectric constant tensor:
#      x y z
#    x 1.733360 0.000000 0.000000 
#    y 0.000000 1.741160 0.000000 
#    z 0.000000 0.000000 1.744420 
# 
# From -- ./inp_files/3853.got.cif
#   From: 2010.03.12/outbox.cif.g09.slc.cpg/sg61_2_cif.got.tgz:3853.got - 2010.04.10 19:05:03.
