data_PCOD8248175
_publ_section_title
;
Structure prediction by ZEFSAII (Michael W. Deem and Ramdas Pophale) SiO2 
 PCOD8248175
Probable space group: P B C N
;
_chemical_formula_sum "Si O2"
_cell_formula_units_Z 32
_cell_length_a 14.300945
_cell_length_b 5.040661
_cell_length_c 16.853614
_cell_angle_alpha 90.000000
_cell_angle_beta 90.000000
_cell_angle_gamma 90.000000
_cell_volume 1214.913255
_symmetry_space_group_name_H-M "P B C N"
_symmetry_group_IT_number 60
_symmetry_cell_setting 'orthorhombic'
loop_
_space_group_symop_operation_xyz
x,y,z
1/2-x,1/2-y,1/2+z
1/2+x,1/2-y,-z
-x,y,1/2-z
-x,-y,-z
1/2+x,1/2+y,1/2-z
1/2-x,1/2+y,z
x,-y,1/2+z
loop_
_atom_site_type_symbol
_atom_site_label
_atom_site_fract_x
_atom_site_fract_y
_atom_site_fract_z
Si Si1 0.427389 0.402782 0.310141
Si Si2 0.943387 0.307036 0.943549
Si Si3 0.312908 0.056658 0.196568
Si Si4 0.189467 0.859208 0.932766
O O1 0.500000 0.548038 0.250000
O O2 0.480065 0.330937 0.389968
O O3 0.383886 0.142559 0.267272
O O4 0.348330 0.604813 0.342068
O O5 0.866108 0.442890 0.887302
O O6 0.889298 0.095190 0.999659
O O7 0.000000 0.500000 0.000000
O O8 0.224660 0.257087 0.202054
O O9 0.225044 0.560288 0.943779
#
# Coordination Sequence:
#
# PCOD8248175 Si02
#       4
#     8   8   8   8
#     4  10  24  45  72 105 145 191 240 296 360 429
#     4  11  25  46  74 107 145 188 239 298 360 426
#     4  11  25  48  73 105 144 190 239 294 357 429
#     4  12  25  45  71 103 139 183 233 290 351 420
#
# _framework density 26.339328999999999
#
# number of rings (size 3 to 8) (size 9 to 14) (size 15 to 20)
#    0.000    1.000    0.000    5.250    0.000    8.000 
#    0.000   11.250    0.000    0.000    0.000    0.000 
#    0.000    0.000    0.000    0.000    0.000    0.000 
#
# Total GULP energy -396709.798832 kJ/mol
# GULP energy per Si atom -12397.181214 kJ/mol
# Density = 2.627938 g / cm^3
# Si number density = 26.339329 Si / 1000 Ang^3
#
#
#
# Elastic Constant Matrix: (Units=GPa)
#
#
# Indices 1 2 3 4 5 6 
#
# 1 122.2182 21.5806 78.8972 0.0000 0.0000 0.0000
# 2 21.5806 46.5355 21.8118 0.0000 0.0000 0.0000
# 3 78.8972 21.8118 177.3250 0.0000 0.0000 0.0000
# 4 0.0000 0.0000 0.0000 27.7679 0.0000 0.0000
# 5 0.0000 0.0000 0.0000 0.0000 79.1706 0.0000
# 6 0.0000 0.0000 0.0000 0.0000 0.0000 34.5426
#
#
#
# Elastic Compliance Matrix: (Units=1/GPa)
#
#
# Indices 1 2 3 4 5 6 
#
# 1 0.011919 -0.003228 -0.004906 0.000000 0.000000 0.000000
# 2 -0.003228 0.023678 -0.001476 0.000000 0.000000 0.000000
# 3 -0.004906 -0.001476 0.008004 0.000000 0.000000 0.000000
# 4 0.000000 0.000000 0.000000 0.036013 0.000000 0.000000
# 5 0.000000 0.000000 0.000000 0.000000 0.012631 0.000000
# 6 0.000000 0.000000 0.000000 0.000000 0.000000 0.028950
#
#
# Mechanical properties :
#
#
# Convention : Reuss Voigt Hill
#
# Bulk Modulus (GPa) = 41.01689 65.62864 53.32277
# Shear Modulus (GPa) = 33.66053 43.21548 38.43801
#
# Velocity S-wave (km/s) = 3.57873 4.05498 3.82427
# Velocity P-wave (km/s) = 5.71688 6.84795 6.30782
#
# Compressibility (1/GPa) = 0.02438020
#
# Stress axis : x y z
#
# Youngs Moduli (GPa) = 83.89828 42.23356 124.93984
#
# Poissons Ratio (x) = 0.13633 0.61297
# Poissons Ratio (y) = 0.27081 0.18445
# Poissons Ratio (z) = 0.41162 0.06235
#
# Static dielectric constant tensor:
#      x y z
#    x 5.293810 0.000000 0.000000 
#    y 0.000000 4.162430 0.000000 
#    z 0.000000 0.000000 4.948220 
# 
# 
# High freq. dielectric constant tensor:
#      x y z
#    x 2.085510 0.000000 0.000000 
#    y 0.000000 2.018020 0.000000 
#    z 0.000000 0.000000 2.088670 
# 
# From -- ./inp_files/20336.got.cif
#   From: 2010.03.12/outbox.cif.g09.slc.cpg/sg60_11_cif.got.tgz:20336.got - 2010.04.10 18:46:24.
