data_PCOD8248193
_publ_section_title
;
Structure prediction by ZEFSAII (Michael W. Deem and Ramdas Pophale) SiO2 
 PCOD8248193
Probable space group: P B C N
;
_chemical_formula_sum "Si O2"
_cell_formula_units_Z 40
_cell_length_a 14.573572
_cell_length_b 10.616621
_cell_length_c 9.972615
_cell_angle_alpha 90.000000
_cell_angle_beta 90.000000
_cell_angle_gamma 90.000000
_cell_volume 1542.983841
_symmetry_space_group_name_H-M "P B C N"
_symmetry_group_IT_number 60
_symmetry_cell_setting 'orthorhombic'
loop_
_space_group_symop_operation_xyz
x,y,z
1/2-x,1/2-y,1/2+z
1/2+x,1/2-y,-z
-x,y,1/2-z
-x,-y,-z
1/2+x,1/2+y,1/2-z
1/2-x,1/2+y,z
x,-y,1/2+z
loop_
_atom_site_type_symbol
_atom_site_label
_atom_site_fract_x
_atom_site_fract_y
_atom_site_fract_z
Si Si1 0.000000 0.514665 0.250000
Si Si2 0.389659 0.811147 0.157986
Si Si3 0.453205 0.193716 0.034655
Si Si4 0.789556 0.496767 0.003763
Si Si5 0.173767 0.052149 0.245649
Si Si6 0.500000 0.605003 0.750000
O O1 0.906812 0.432092 0.246379
O O2 0.014646 0.591283 0.385839
O O3 0.343705 0.702755 0.246575
O O4 0.491420 0.771156 0.100965
O O5 0.330161 0.865427 0.034904
O O6 0.452129 0.315506 0.130493
O O7 0.354020 0.128412 0.011579
O O8 0.755016 0.512380 0.155351
O O9 0.701630 0.479317 0.906431
O O10 0.082751 0.982692 0.299825
#
# Coordination Sequence:
#
# PCOD8248193 Si02
#       6
#     4   8   8   8   8   4
#     4   9  19  40  72 108 139 207 266 308 384 489
#     4  11  25  44  74 112 156 212 257 335 412 484
#     4  10  24  46  79 108 158 214 270 329 399 499
#     4  11  28  48  80 118 160 204 282 339 399 483
#     4  12  29  51  77 119 164 211 272 342 416 484
#     4  11  27  52  76 110 163 219 266 324 430 495
#
# _framework density 25.923797
#
# number of rings (size 3 to 8) (size 9 to 14) (size 15 to 20)
#    0.000    1.200    0.000    4.200   16.800    6.400 
#    0.000    0.000    0.000    0.000    0.000    0.000 
#    0.000    0.000    0.000    0.000    0.000    0.000 
#
# Total GULP energy -495672.123315 kJ/mol
# GULP energy per Si atom -12391.803083 kJ/mol
# Density = 2.586479 g / cm^3
# Si number density = 25.923797 Si / 1000 Ang^3
#
#
#
# Elastic Constant Matrix: (Units=GPa)
#
#
# Indices 1 2 3 4 5 6 
#
# 1 123.5230 50.1501 30.0546 0.0000 0.0000 0.0000
# 2 50.1501 120.8970 17.8682 0.0000 0.0000 0.0000
# 3 30.0546 17.8682 77.4871 0.0000 0.0000 0.0000
# 4 0.0000 0.0000 0.0000 25.1638 0.0000 0.0000
# 5 0.0000 0.0000 0.0000 0.0000 51.7519 0.0000
# 6 0.0000 0.0000 0.0000 0.0000 0.0000 49.5668
#
#
#
# Elastic Compliance Matrix: (Units=1/GPa)
#
#
# Indices 1 2 3 4 5 6 
#
# 1 0.010431 -0.003860 -0.003156 0.000000 0.000000 0.000000
# 2 -0.003860 0.009992 -0.000807 0.000000 0.000000 0.000000
# 3 -0.003156 -0.000807 0.014315 0.000000 0.000000 0.000000
# 4 0.000000 0.000000 0.000000 0.039740 0.000000 0.000000
# 5 0.000000 0.000000 0.000000 0.000000 0.019323 0.000000
# 6 0.000000 0.000000 0.000000 0.000000 0.000000 0.020175
#
#
# Mechanical properties :
#
#
# Convention : Reuss Voigt Hill
#
# Bulk Modulus (GPa) = 52.37624 57.56145 54.96884
# Shear Modulus (GPa) = 36.76863 40.21878 38.49370
#
# Velocity S-wave (km/s) = 3.77016 3.94308 3.85759
# Velocity P-wave (km/s) = 6.26099 6.55613 6.41026
#
# Compressibility (1/GPa) = 0.01909263
#
# Stress axis : x y z
#
# Youngs Moduli (GPa) = 95.87002 100.07865 69.85515
#
# Poissons Ratio (x) = 0.38635 0.22043
# Poissons Ratio (y) = 0.37010 0.05636
# Poissons Ratio (z) = 0.30252 0.08074
#
# Static dielectric constant tensor:
#      x y z
#    x 4.567910 0.000000 0.000000 
#    y 0.000000 4.700550 0.000000 
#    z 0.000000 0.000000 4.689330 
# 
# 
# High freq. dielectric constant tensor:
#      x y z
#    x 2.036120 0.000000 0.000000 
#    y 0.000000 2.032950 0.000000 
#    z 0.000000 0.000000 2.048290 
# 
# From -- ./inp_files/11736.got.cif
#   From: 2010.03.12/outbox.cif.g09.slc.cpg/sg60_6_cif.got.tgz:11736.got - 2010.04.10 18:46:24.
