data_PCOD8248407
_publ_section_title
;
Structure prediction by ZEFSAII (Michael W. Deem and Ramdas Pophale) SiO2 
 PCOD8248407
Probable space group: P B C N
;
_chemical_formula_sum "Si O2"
_cell_formula_units_Z 56
_cell_length_a 12.705464
_cell_length_b 14.294539
_cell_length_c 13.767858
_cell_angle_alpha 90.000000
_cell_angle_beta 90.000000
_cell_angle_gamma 90.000000
_cell_volume 2500.501169
_symmetry_space_group_name_H-M "P B C N"
_symmetry_group_IT_number 60
_symmetry_cell_setting 'orthorhombic'
loop_
_space_group_symop_operation_xyz
x,y,z
1/2-x,1/2-y,1/2+z
1/2+x,1/2-y,-z
-x,y,1/2-z
-x,-y,-z
1/2+x,1/2+y,1/2-z
1/2-x,1/2+y,z
x,-y,1/2+z
loop_
_atom_site_type_symbol
_atom_site_label
_atom_site_fract_x
_atom_site_fract_y
_atom_site_fract_z
Si Si1 0.618765 0.284021 0.632629
Si Si2 0.179650 0.819227 0.451162
Si Si3 0.298582 0.925273 0.106827
Si Si4 0.786268 0.774984 0.827126
Si Si5 0.402563 0.898389 0.678624
Si Si6 0.525690 0.175985 0.005688
Si Si7 0.618494 0.518478 0.031362
O O1 0.719469 0.226100 0.597030
O O2 0.618489 0.288915 0.749942
O O3 0.519284 0.226970 0.591026
O O4 0.623294 0.390907 0.598512
O O5 0.186755 0.819793 0.569133
O O6 0.077963 0.755610 0.425804
O O7 0.161572 0.925233 0.413685
O O8 0.263116 0.834999 0.166757
O O9 0.348763 0.000136 0.180022
O O10 0.385326 0.898049 0.025525
O O11 0.193229 0.966892 0.060903
O O12 0.680886 0.822234 0.784101
O O13 0.500000 0.899676 0.750000
O O14 0.435887 0.875166 0.567552
O O15 0.500000 0.500000 0.000000
#
# Coordination Sequence:
#
# PCOD8248407 Si02
#       7
#     8   8   8   8   8   8   8
#     4  12  24  44  73 103 143 192 237 292 364 427
#     4  11  23  44  68  98 145 183 234 301 352 423
#     4  11  25  45  70 101 146 181 242 305 352 436
#     4  11  25  45  68 101 149 181 235 301 357 423
#     4  12  25  43  72 106 140 186 242 296 362 429
#     4  11  22  44  71 100 142 190 233 295 360 423
#     4  12  23  44  73 100 138 191 236 291 371 428
#
# _framework density 22.395510000000002
#
# number of rings (size 3 to 8) (size 9 to 14) (size 15 to 20)
#    0.000    0.571    7.143    1.286    2.000    2.857 
#    0.000    0.000    0.000    0.000    0.000    0.000 
#    0.000    0.000    0.000    0.000    0.000    0.000 
#
# Total GULP energy -694410.475786 kJ/mol
# GULP energy per Si atom -12400.187068 kJ/mol
# Density = 2.234454 g / cm^3
# Si number density = 22.395510 Si / 1000 Ang^3
#
#
#
# Elastic Constant Matrix: (Units=GPa)
#
#
# Indices 1 2 3 4 5 6 
#
# 1 84.9451 36.7161 -5.9796 0.0000 0.0000 0.0000
# 2 36.7161 168.7659 8.0532 0.0000 0.0000 0.0000
# 3 -5.9796 8.0532 55.4972 0.0000 0.0000 0.0000
# 4 0.0000 0.0000 0.0000 12.0646 0.0000 0.0000
# 5 0.0000 0.0000 0.0000 0.0000 25.8403 0.0000
# 6 0.0000 0.0000 0.0000 0.0000 0.0000 39.4987
#
#
#
# Elastic Compliance Matrix: (Units=1/GPa)
#
#
# Indices 1 2 3 4 5 6 
#
# 1 0.013180 -0.002956 0.001849 0.000000 0.000000 0.000000
# 2 -0.002956 0.006629 -0.001280 0.000000 0.000000 0.000000
# 3 0.001849 -0.001280 0.018404 0.000000 0.000000 0.000000
# 4 0.000000 0.000000 0.000000 0.082887 0.000000 0.000000
# 5 0.000000 0.000000 0.000000 0.000000 0.038699 0.000000
# 6 0.000000 0.000000 0.000000 0.000000 0.000000 0.025317
#
#
# Mechanical properties :
#
#
# Convention : Reuss Voigt Hill
#
# Bulk Modulus (GPa) = 29.90501 42.97639 36.44070
# Shear Modulus (GPa) = 24.87094 33.50860 29.18977
#
# Velocity S-wave (km/s) = 3.33608 3.87230 3.61415
# Velocity P-wave (km/s) = 5.31238 6.26293 5.80714
#
# Compressibility (1/GPa) = 0.03343922
#
# Stress axis : x y z
#
# Youngs Moduli (GPa) = 75.87263 150.84132 54.33617
#
# Poissons Ratio (x) = 0.44583 -0.10047
# Poissons Ratio (y) = 0.22425 0.06958
# Poissons Ratio (z) = -0.14029 0.19315
#
# Static dielectric constant tensor:
#      x y z
#    x 4.227070 0.000000 0.000000 
#    y 0.000000 4.503310 0.000000 
#    z 0.000000 0.000000 3.812050 
# 
# 
# High freq. dielectric constant tensor:
#      x y z
#    x 1.899010 0.000000 0.000000 
#    y 0.000000 1.901500 0.000000 
#    z 0.000000 0.000000 1.854070 
# 
# From -- ./inp_files/16155.got.cif
#   From: 2010.03.12/outbox.cif.g09.slc.cpg/sg60_9_cif.got.tgz:16155.got - 2010.04.10 18:46:24.
