data_PCOD8248272
_publ_section_title
;
Structure prediction by ZEFSAII (Michael W. Deem and Ramdas Pophale) SiO2 
 PCOD8248272
Probable space group: P B C N
;
_chemical_formula_sum "Si O2"
_cell_formula_units_Z 64
_cell_length_a 9.914810
_cell_length_b 29.664052
_cell_length_c 11.268859
_cell_angle_alpha 90.000000
_cell_angle_beta 90.000000
_cell_angle_gamma 90.000000
_cell_volume 3314.322879
_symmetry_space_group_name_H-M "P B C N"
_symmetry_group_IT_number 60
_symmetry_cell_setting 'orthorhombic'
loop_
_space_group_symop_operation_xyz
x,y,z
1/2-x,1/2-y,1/2+z
1/2+x,1/2-y,-z
-x,y,1/2-z
-x,-y,-z
1/2+x,1/2+y,1/2-z
1/2-x,1/2+y,z
x,-y,1/2+z
loop_
_atom_site_type_symbol
_atom_site_label
_atom_site_fract_x
_atom_site_fract_y
_atom_site_fract_z
Si Si1 0.162407 0.475543 0.387712
Si Si2 0.396567 0.738718 0.348722
Si Si3 0.507235 0.674249 0.969169
Si Si4 0.847799 0.534209 0.881055
Si Si5 0.008097 0.324102 0.464846
Si Si6 0.099804 0.735709 0.350625
Si Si7 0.234684 0.634208 0.661482
Si Si8 0.753978 0.879556 0.068618
O O1 0.198023 0.510627 0.494292
O O2 0.189915 0.490467 0.247618
O O3 0.255370 0.433380 0.422860
O O4 0.007787 0.459942 0.390988
O O5 0.500000 0.752577 0.250000
O O6 0.434748 0.690476 0.404975
O O7 0.402987 0.779433 0.441829
O O8 0.248056 0.737383 0.294360
O O9 0.436024 0.716733 0.908505
O O10 0.631684 0.655775 0.893522
O O11 0.393605 0.636102 0.992621
O O12 0.775406 0.582435 0.880009
O O13 0.119019 0.362170 0.500110
O O14 0.905171 0.308616 0.566796
O O15 0.906912 0.341276 0.363579
O O16 0.000000 0.722607 0.250000
O O17 0.250549 0.641294 0.800575
#
# Coordination Sequence:
#
# PCOD8248272 Si02
#       8
#     8   8   8   8   8   8   8   8
#     4   9  18  34  57  87 114 145 187 238 294 353
#     4  11  24  38  56  78 114 157 189 236 290 336
#     4  11  24  38  55  83 116 147 195 242 283 335
#     4   9  18  34  58  85 115 145 186 239 295 352
#     4  11  22  36  55  81 111 147 194 236 281 330
#     4  11  24  38  55  80 114 153 193 237 284 341
#     4  11  20  37  58  84 113 147 191 239 283 336
#     4  11  20  35  60  86 109 149 190 239 281 339
#
# _framework density 19.310129
#
# number of rings (size 3 to 8) (size 9 to 14) (size 15 to 20)
#    0.000    1.500    3.750    2.250    3.500    0.000 
#    0.000    3.125    0.000    0.000    0.000    0.000 
#    0.000    0.000    0.000    0.000    0.000    0.000 
#
# Total GULP energy -792893.402429 kJ/mol
# GULP energy per Si atom -12388.959413 kJ/mol
# Density = 1.926618 g / cm^3
# Si number density = 19.310129 Si / 1000 Ang^3
#
#
#
# Elastic Constant Matrix: (Units=GPa)
#
#
# Indices 1 2 3 4 5 6 
#
# 1 119.9349 28.8876 19.6905 0.0000 0.0000 0.0000
# 2 28.8876 70.1365 33.7310 0.0000 0.0000 0.0000
# 3 19.6905 33.7310 75.5008 0.0000 0.0000 0.0000
# 4 0.0000 0.0000 0.0000 35.0276 0.0000 0.0000
# 5 0.0000 0.0000 0.0000 0.0000 24.4414 0.0000
# 6 0.0000 0.0000 0.0000 0.0000 0.0000 -18.0673
#
#
#
# Elastic Compliance Matrix: (Units=1/GPa)
#
#
# Indices 1 2 3 4 5 6 
#
# 1 0.009305 -0.003395 -0.000910 0.000000 0.000000 0.000000
# 2 -0.003395 0.019398 -0.007781 0.000000 0.000000 0.000000
# 3 -0.000910 -0.007781 0.016959 0.000000 0.000000 0.000000
# 4 0.000000 0.000000 0.000000 0.028549 0.000000 0.000000
# 5 0.000000 0.000000 0.000000 0.000000 0.040914 0.000000
# 6 0.000000 0.000000 0.000000 0.000000 0.000000 -0.055349
#
#
# Mechanical properties :
#
#
# Convention : Reuss Voigt Hill
#
# Bulk Modulus (GPa) = 46.53349 47.79895 47.16622
# Shear Modulus (GPa) = 54.87779 20.49789 37.68784
#
# Velocity S-wave (km/s) = 5.33675 3.26162 4.42261
# Velocity P-wave (km/s) = 7.88193 6.24430 7.11042
#
# Compressibility (1/GPa) = 0.02148990
#
# Stress axis : x y z
#
# Youngs Moduli (GPa) = 107.46984 51.55080 58.96732
#
# Poissons Ratio (x) = 0.17501 0.05366
# Poissons Ratio (y) = 0.36484 0.45883
# Poissons Ratio (z) = 0.09780 0.40112
#
# Static dielectric constant tensor:
#      x y z
#    x 3.483210 0.000000 0.000000 
#    y 0.000000 3.439510 0.000000 
#    z 0.000000 0.000000 49.030240 
# 
# 
# High freq. dielectric constant tensor:
#      x y z
#    x 1.753340 0.000000 0.000000 
#    y 0.000000 1.736600 0.000000 
#    z 0.000000 0.000000 1.737060 
# 
# From -- ./inp_files/10400.got.cif
#   From: 2010.03.12/outbox.cif.g09.slc.cpg/sg60_6_cif.got.tgz:10400.got - 2010.04.10 18:46:24.
