data_PCOD8248838
_publ_section_title
;
Structure prediction by ZEFSAII (Michael W. Deem and Ramdas Pophale) SiO2 
 PCOD8248838
Probable space group: P B C A
;
_chemical_formula_sum "Si O2"
_cell_formula_units_Z 56
_cell_length_a 5.213266
_cell_length_b 21.977409
_cell_length_c 24.380827
_cell_angle_alpha 90.000000
_cell_angle_beta 90.000000
_cell_angle_gamma 90.000000
_cell_volume 2793.410801
_symmetry_space_group_name_H-M "P B C A"
_symmetry_group_IT_number 61
_symmetry_cell_setting 'orthorhombic'
loop_
_space_group_symop_operation_xyz
x,y,z
1/2-x,-y,1/2+z
1/2+x,1/2-y,-z
-x,1/2+y,1/2-z
-x,-y,-z
1/2+x,y,1/2-z
1/2-x,1/2+y,z
x,1/2-y,1/2+z
loop_
_atom_site_type_symbol
_atom_site_label
_atom_site_fract_x
_atom_site_fract_y
_atom_site_fract_z
Si Si1 0.218112 0.629796 0.400830
Si Si2 0.222204 0.928381 0.551020
Si Si3 0.265114 0.129430 0.272490
Si Si4 0.242062 0.247324 0.963238
Si Si5 0.762467 0.549807 0.894961
Si Si6 0.236415 0.385829 0.428357
Si Si7 0.790773 0.505990 0.774918
O O1 0.440074 0.594848 0.433363
O O2 0.281065 0.625556 0.336927
O O3 0.204849 0.699100 0.420542
O O4 0.942362 0.599286 0.410201
O O5 0.287402 0.910341 0.489628
O O6 0.226354 0.001631 0.555185
O O7 0.527893 0.164585 0.256615
O O8 0.307691 0.063811 0.244063
O O9 0.208906 0.186672 0.927636
O O10 0.481648 0.239119 0.003905
O O11 0.497006 0.586363 0.893665
O O12 0.788610 0.509991 0.840225
O O13 0.995145 0.596934 0.900545
O O14 0.543375 0.539308 0.748966
#
# Coordination Sequence:
#
# PCOD8248838 Si02
#       7
#     8   8   8   8   8   8   8
#     4  12  22  39  68  95 122 169 212 268 321 355
#     4  12  22  38  61  93 133 162 210 254 315 382
#     4  10  20  35  58  91 121 148 201 267 319 362
#     4  12  23  44  65  90 127 172 218 258 304 379
#     4  12  24  38  60  92 129 170 201 260 324 380
#     4  12  24  40  59  90 134 171 212 246 306 394
#     4  10  19  36  57  83 116 154 204 255 309 374
#
# _framework density 20.047177000000001
#
# number of rings (size 3 to 8) (size 9 to 14) (size 15 to 20)
#    0.000    0.571    2.857    8.571    0.000    0.000 
#    0.000    0.000    0.000    5.143    0.000    0.000 
#    0.000    0.000    0.000    0.000    0.000    0.000 
#
# Total GULP energy -694506.143765 kJ/mol
# GULP energy per Si atom -12401.895424 kJ/mol
# Density = 2.000155 g / cm^3
# Si number density = 20.047177 Si / 1000 Ang^3
#
#
#
# Elastic Constant Matrix: (Units=GPa)
#
#
# Indices 1 2 3 4 5 6 
#
# 1 132.8077 9.5900 6.8937 0.0000 0.0000 0.0000
# 2 9.5900 88.4086 6.1053 0.0000 0.0000 0.0000
# 3 6.8937 6.1053 59.3753 0.0000 0.0000 0.0000
# 4 0.0000 0.0000 0.0000 14.3871 0.0000 0.0000
# 5 0.0000 0.0000 0.0000 0.0000 34.6271 0.0000
# 6 0.0000 0.0000 0.0000 0.0000 0.0000 22.9875
#
#
#
# Elastic Compliance Matrix: (Units=1/GPa)
#
#
# Indices 1 2 3 4 5 6 
#
# 1 0.007627 -0.000772 -0.000806 0.000000 0.000000 0.000000
# 2 -0.000772 0.011470 -0.001090 0.000000 0.000000 0.000000
# 3 -0.000806 -0.001090 0.017048 0.000000 0.000000 0.000000
# 4 0.000000 0.000000 0.000000 0.069507 0.000000 0.000000
# 5 0.000000 0.000000 0.000000 0.000000 0.028879 0.000000
# 6 0.000000 0.000000 0.000000 0.000000 0.000000 0.043502
#
#
# Mechanical properties :
#
#
# Convention : Reuss Voigt Hill
#
# Bulk Modulus (GPa) = 32.45740 36.19661 34.32701
# Shear Modulus (GPa) = 25.82136 31.60051 28.71093
#
# Velocity S-wave (km/s) = 3.59281 3.97458 3.78851
# Velocity P-wave (km/s) = 5.78244 6.25763 6.02473
#
# Compressibility (1/GPa) = 0.03080962
#
# Stress axis : x y z
#
# Youngs Moduli (GPa) = 131.10880 87.18334 58.65894
#
# Poissons Ratio (x) = 0.06728 0.04729
# Poissons Ratio (y) = 0.10117 0.06393
# Poissons Ratio (z) = 0.10570 0.09501
#
# Static dielectric constant tensor:
#      x y z
#    x 5.009980 0.000000 0.000000 
#    y 0.000000 3.493250 0.000000 
#    z 0.000000 0.000000 3.519740 
# 
# 
# High freq. dielectric constant tensor:
#      x y z
#    x 1.820880 0.000000 0.000000 
#    y 0.000000 1.747730 0.000000 
#    z 0.000000 0.000000 1.776940 
# 
# From -- ./inp_files/9994.got.cif
#   From: 2010.03.12/outbox.cif.g09.slc.cpg/sg61_5_cif.got.tgz:9994.got - 2010.04.10 19:05:03.
