data_PCOD8248213
_publ_section_title
;
Structure prediction by ZEFSAII (Michael W. Deem and Ramdas Pophale) SiO2 
 PCOD8248213
Probable space group: P B C N
;
_chemical_formula_sum "Si O2"
_cell_formula_units_Z 32
_cell_length_a 11.936530
_cell_length_b 12.738544
_cell_length_c 9.046555
_cell_angle_alpha 90.000000
_cell_angle_beta 90.000000
_cell_angle_gamma 90.000000
_cell_volume 1375.564988
_symmetry_space_group_name_H-M "P B C N"
_symmetry_group_IT_number 60
_symmetry_cell_setting 'orthorhombic'
loop_
_space_group_symop_operation_xyz
x,y,z
1/2-x,1/2-y,1/2+z
1/2+x,1/2-y,-z
-x,y,1/2-z
-x,-y,-z
1/2+x,1/2+y,1/2-z
1/2-x,1/2+y,z
x,-y,1/2+z
loop_
_atom_site_type_symbol
_atom_site_label
_atom_site_fract_x
_atom_site_fract_y
_atom_site_fract_z
Si Si1 0.921191 0.958794 0.371868
Si Si2 0.734511 0.359732 0.746069
Si Si3 0.866438 0.251597 0.998683
Si Si4 0.045074 0.599110 0.411280
O O1 0.847312 0.864735 0.434002
O O2 0.000000 0.905959 0.250000
O O3 0.848553 0.046803 0.288516
O O4 0.000000 0.000000 0.500000
O O5 0.789542 0.328810 0.901996
O O6 0.669186 0.259828 0.671728
O O7 0.821144 0.394527 0.614320
O O8 0.994341 0.295402 0.989176
O O9 0.000000 0.586012 0.250000
O O10 0.000000 0.500000 0.500000
#
# Coordination Sequence:
#
# PCOD8248213 Si02
#       4
#     8   8   8   8
#     4  12  26  47  71 105 145 189 250 307 370 445
#     4  11  27  43  75 106 140 201 236 308 380 441
#     4  11  27  46  72 105 149 187 248 309 371 449
#     4  10  25  46  69 105 144 186 240 304 364 446
#
# _framework density 23.263168
#
# number of rings (size 3 to 8) (size 9 to 14) (size 15 to 20)
#    0.000    1.000    2.500    2.250   17.500    0.000 
#    0.000    0.000    0.000    0.000    0.000    0.000 
#    0.000    0.000    0.000    0.000    0.000    0.000 
#
# Total GULP energy -396463.044837 kJ/mol
# GULP energy per Si atom -12389.470151 kJ/mol
# Density = 2.321022 g / cm^3
# Si number density = 23.263168 Si / 1000 Ang^3
#
#
#
# Elastic Constant Matrix: (Units=GPa)
#
#
# Indices 1 2 3 4 5 6 
#
# 1 115.1173 36.0137 29.2176 0.0000 0.0000 0.0000
# 2 36.0137 100.2412 20.5660 0.0000 0.0000 0.0000
# 3 29.2176 20.5660 51.0134 0.0000 0.0000 0.0000
# 4 0.0000 0.0000 0.0000 46.1479 0.0000 0.0000
# 5 0.0000 0.0000 0.0000 0.0000 29.9668 0.0000
# 6 0.0000 0.0000 0.0000 0.0000 0.0000 29.1657
#
#
#
# Elastic Compliance Matrix: (Units=1/GPa)
#
#
# Indices 1 2 3 4 5 6 
#
# 1 0.010870 -0.002865 -0.005071 0.000000 0.000000 0.000000
# 2 -0.002865 0.011631 -0.003048 0.000000 0.000000 0.000000
# 3 -0.005071 -0.003048 0.023736 0.000000 0.000000 0.000000
# 4 0.000000 0.000000 0.000000 0.021669 0.000000 0.000000
# 5 0.000000 0.000000 0.000000 0.000000 0.033370 0.000000
# 6 0.000000 0.000000 0.000000 0.000000 0.000000 0.034287
#
#
# Mechanical properties :
#
#
# Convention : Reuss Voigt Hill
#
# Bulk Modulus (GPa) = 41.20483 48.66296 44.93389
# Shear Modulus (GPa) = 30.18958 33.09438 31.64198
#
# Velocity S-wave (km/s) = 3.60633 3.77584 3.69206
# Velocity P-wave (km/s) = 5.92383 6.32243 6.12637
#
# Compressibility (1/GPa) = 0.02426900
#
# Stress axis : x y z
#
# Youngs Moduli (GPa) = 91.99571 85.98031 42.13053
#
# Poissons Ratio (x) = 0.24633 0.21363
# Poissons Ratio (y) = 0.26356 0.12841
# Poissons Ratio (z) = 0.46649 0.26207
#
# Static dielectric constant tensor:
#      x y z
#    x 4.151100 0.000000 0.000000 
#    y 0.000000 4.079800 0.000000 
#    z 0.000000 0.000000 5.145120 
# 
# 
# High freq. dielectric constant tensor:
#      x y z
#    x 1.928970 0.000000 0.000000 
#    y 0.000000 1.910550 0.000000 
#    z 0.000000 0.000000 1.935250 
# 
# From -- ./inp_files/4628.got.cif
#   From: 2010.03.12/outbox.cif.g09.slc.cpg/sg60_3_cif.got.tgz:4628.got - 2010.04.10 18:46:24.
