data_PCOD8248633
_publ_section_title
;
Structure prediction by ZEFSAII (Michael W. Deem and Ramdas Pophale) SiO2 
 PCOD8248633
Probable space group: P B C N
;
_chemical_formula_sum "Si O2"
_cell_formula_units_Z 56
_cell_length_a 8.234550
_cell_length_b 15.051025
_cell_length_c 20.154489
_cell_angle_alpha 90.000000
_cell_angle_beta 90.000000
_cell_angle_gamma 90.000000
_cell_volume 2497.915481
_symmetry_space_group_name_H-M "P B C N"
_symmetry_group_IT_number 60
_symmetry_cell_setting 'orthorhombic'
loop_
_space_group_symop_operation_xyz
x,y,z
1/2-x,1/2-y,1/2+z
1/2+x,1/2-y,-z
-x,y,1/2-z
-x,-y,-z
1/2+x,1/2+y,1/2-z
1/2-x,1/2+y,z
x,-y,1/2+z
loop_
_atom_site_type_symbol
_atom_site_label
_atom_site_fract_x
_atom_site_fract_y
_atom_site_fract_z
Si Si1 0.780615 0.837686 0.614101
Si Si2 0.327057 0.341869 0.426074
Si Si3 0.585100 0.004544 0.071416
Si Si4 0.785611 0.501971 0.345932
Si Si5 0.433594 0.424273 0.547862
Si Si6 0.603368 0.325931 0.315700
Si Si7 0.692565 0.668306 0.262441
O O1 0.795191 0.740126 0.582186
O O2 0.649167 0.894785 0.574211
O O3 0.725503 0.826811 0.690148
O O4 0.951777 0.888642 0.606913
O O5 0.232510 0.435105 0.417010
O O6 0.389256 0.340161 0.501955
O O7 0.481726 0.326839 0.378138
O O8 0.474599 0.989984 0.136808
O O9 0.500000 0.000000 0.000000
O O10 0.718960 0.532173 0.417138
O O11 0.721382 0.408868 0.320692
O O12 0.738758 0.572082 0.289670
O O13 0.500000 0.500000 0.500000
O O14 0.500000 0.335381 0.250000
O O15 0.722869 0.240270 0.311274
O O16 0.500000 0.684201 0.250000
#
# Coordination Sequence:
#
# PCOD8248633 Si02
#       7
#     8   8   8   8   8   8   8
#     4  12  27  48  74 103 151 193 244 310 373 444
#     4  12  27  47  76 105 151 195 250 308 382 447
#     4  12  27  48  71 111 147 190 253 308 369 458
#     4  12  26  44  78 103 147 194 244 306 375 435
#     4  12  23  48  72 105 144 196 242 304 372 445
#     4  12  27  48  74 108 147 195 247 306 369 453
#     4  12  28  50  74 109 148 195 254 304 379 454
#
# _framework density 22.418693000000001
#
# number of rings (size 3 to 8) (size 9 to 14) (size 15 to 20)
#    0.000    0.000    7.143    1.286    6.000    1.143 
#    0.000    0.000    0.000    0.000    0.000    0.000 
#    0.000    0.000    0.000    0.000    0.000    0.000 
#
# Total GULP energy -694236.362661 kJ/mol
# GULP energy per Si atom -12397.077905 kJ/mol
# Density = 2.236767 g / cm^3
# Si number density = 22.418693 Si / 1000 Ang^3
#
#
#
# Elastic Constant Matrix: (Units=GPa)
#
#
# Indices 1 2 3 4 5 6 
#
# 1 93.1547 30.6140 16.6693 0.0000 0.0000 0.0000
# 2 30.6140 132.1001 31.7273 0.0000 0.0000 0.0000
# 3 16.6693 31.7273 85.4016 0.0000 0.0000 0.0000
# 4 0.0000 0.0000 0.0000 37.8045 0.0000 0.0000
# 5 0.0000 0.0000 0.0000 0.0000 47.8109 0.0000
# 6 0.0000 0.0000 0.0000 0.0000 0.0000 38.3944
#
#
#
# Elastic Compliance Matrix: (Units=1/GPa)
#
#
# Indices 1 2 3 4 5 6 
#
# 1 0.011772 -0.002390 -0.001410 0.000000 0.000000 0.000000
# 2 -0.002390 0.008797 -0.002802 0.000000 0.000000 0.000000
# 3 -0.001410 -0.002802 0.013025 0.000000 0.000000 0.000000
# 4 0.000000 0.000000 0.000000 0.026452 0.000000 0.000000
# 5 0.000000 0.000000 0.000000 0.000000 0.020916 0.000000
# 6 0.000000 0.000000 0.000000 0.000000 0.000000 0.026045
#
#
# Mechanical properties :
#
#
# Convention : Reuss Voigt Hill
#
# Bulk Modulus (GPa) = 49.03882 52.07529 50.55706
# Shear Modulus (GPa) = 39.36775 40.24502 39.80638
#
# Velocity S-wave (km/s) = 4.19504 4.24152 4.21835
# Velocity P-wave (km/s) = 6.73692 6.87505 6.80633
#
# Compressibility (1/GPa) = 0.02039201
#
# Stress axis : x y z
#
# Youngs Moduli (GPa) = 84.94405 113.67923 76.77292
#
# Poissons Ratio (x) = 0.27165 0.10826
# Poissons Ratio (y) = 0.20298 0.21509
# Poissons Ratio (z) = 0.11978 0.31848
#
# Static dielectric constant tensor:
#      x y z
#    x 4.326910 0.000000 0.000000 
#    y 0.000000 4.066080 0.000000 
#    z 0.000000 0.000000 4.161960 
# 
# 
# High freq. dielectric constant tensor:
#      x y z
#    x 1.892230 0.000000 0.000000 
#    y 0.000000 1.890600 0.000000 
#    z 0.000000 0.000000 1.894070 
# 
# From -- ./inp_files/22189.got.cif
#   From: 2010.03.12/outbox.cif.g09.slc.cpg/sg60_12_cif.got.tgz:22189.got - 2010.04.10 18:46:24.
