data_PCOD8248280
_publ_section_title
;
Structure prediction by ZEFSAII (Michael W. Deem and Ramdas Pophale) SiO2 
 PCOD8248280
Probable space group: P B C N
;
_chemical_formula_sum "Si O2"
_cell_formula_units_Z 48
_cell_length_a 17.068161
_cell_length_b 14.377449
_cell_length_c 9.295647
_cell_angle_alpha 90.000000
_cell_angle_beta 90.000000
_cell_angle_gamma 90.000000
_cell_volume 2281.120302
_symmetry_space_group_name_H-M "P B C N"
_symmetry_group_IT_number 60
_symmetry_cell_setting 'orthorhombic'
loop_
_space_group_symop_operation_xyz
x,y,z
1/2-x,1/2-y,1/2+z
1/2+x,1/2-y,-z
-x,y,1/2-z
-x,-y,-z
1/2+x,1/2+y,1/2-z
1/2-x,1/2+y,z
x,-y,1/2+z
loop_
_atom_site_type_symbol
_atom_site_label
_atom_site_fract_x
_atom_site_fract_y
_atom_site_fract_z
Si Si1 0.535221 0.269197 0.896528
Si Si2 0.226861 0.183646 0.748942
Si Si3 0.630713 0.446966 0.825530
Si Si4 0.059749 0.868540 0.130062
Si Si5 0.764533 0.995702 0.079482
Si Si6 0.173190 0.673402 0.480884
O O1 0.500000 0.224348 0.750000
O O2 0.599567 0.344872 0.853043
O O3 0.465111 0.320568 0.981082
O O4 0.579676 0.192087 0.996042
O O5 0.147715 0.158573 0.667011
O O6 0.289318 0.210148 0.628856
O O7 0.210834 0.270222 0.850493
O O8 0.262452 0.096241 0.836211
O O9 0.560560 0.518652 0.868353
O O10 0.661039 0.456979 0.661079
O O11 0.706909 0.465386 0.922821
O O12 0.000000 0.831279 0.250000
O O13 0.691194 0.065532 0.055371
#
# Coordination Sequence:
#
# PCOD8248280 Si02
#       6
#     8   8   8   8   8   8
#     4  12  24  37  62  99 134 172 212 269 335 403
#     4  11  25  41  65  96 128 170 224 273 326 390
#     4  11  20  38  61  94 135 170 212 263 342 391
#     4  11  20  39  57  93 134 170 207 267 336 394
#     4  11  21  40  61  96 131 171 219 266 324 383
#     4  12  24  42  66  96 134 176 220 270 330 395
#
# _framework density 21.042290999999999
#
# number of rings (size 3 to 8) (size 9 to 14) (size 15 to 20)
#    0.000    0.667    6.667    4.000    2.333    0.000 
#    0.000    0.000    0.000    1.000    0.000    0.000 
#    0.000    0.000    0.000    0.000    0.000    0.000 
#
# Total GULP energy -595110.267573 kJ/mol
# GULP energy per Si atom -12398.130574 kJ/mol
# Density = 2.099440 g / cm^3
# Si number density = 21.042291 Si / 1000 Ang^3
#
#
#
# Elastic Constant Matrix: (Units=GPa)
#
#
# Indices 1 2 3 4 5 6 
#
# 1 61.4498 26.2183 8.3125 0.0000 0.0000 0.0000
# 2 26.2183 38.2754 -3.5692 0.0000 0.0000 0.0000
# 3 8.3125 -3.5692 62.4636 0.0000 0.0000 0.0000
# 4 0.0000 0.0000 0.0000 1272.9756 0.0000 0.0000
# 5 0.0000 0.0000 0.0000 0.0000 26.9239 0.0000
# 6 0.0000 0.0000 0.0000 0.0000 0.0000 32.1741
#
#
#
# Elastic Compliance Matrix: (Units=1/GPa)
#
#
# Indices 1 2 3 4 5 6 
#
# 1 0.024022 -0.016843 -0.004159 0.000000 0.000000 0.000000
# 2 -0.016843 0.038076 0.004417 0.000000 0.000000 0.000000
# 3 -0.004159 0.004417 0.016815 0.000000 0.000000 0.000000
# 4 0.000000 0.000000 0.000000 0.000786 0.000000 0.000000
# 5 0.000000 0.000000 0.000000 0.000000 0.037142 0.000000
# 6 0.000000 0.000000 0.000000 0.000000 0.000000 0.031081
#
#
# Mechanical properties :
#
#
# Convention : Reuss Voigt Hill
#
# Bulk Modulus (GPa) = 21.86132 24.90134 23.38133
# Shear Modulus (GPa) = 25.46615 275.16320 150.31468
#
# Velocity S-wave (km/s) = 3.48262 11.44773 8.46107
# Velocity P-wave (km/s) = 5.15590 13.65993 10.32417
#
# Compressibility (1/GPa) = 0.04574290
#
# Stress axis : x y z
#
# Youngs Moduli (GPa) = 41.62800 26.26356 59.47001
#
# Poissons Ratio (x) = 0.44235 0.24735
# Poissons Ratio (y) = 0.70114 -0.26268
# Poissons Ratio (z) = 0.17314 -0.11601
#
# Static dielectric constant tensor:
#      x y z
#    x 3.291060 0.000000 0.000000 
#    y 0.000000 3.794750 0.000000 
#    z 0.000000 0.000000 4.193290 
# 
# 
# High freq. dielectric constant tensor:
#      x y z
#    x 1.798220 0.000000 0.000000 
#    y 0.000000 1.802080 0.000000 
#    z 0.000000 0.000000 1.846570 
# 
# From -- ./inp_files/6715.got.cif
#   From: 2010.03.12/outbox.cif.g09.slc.cpg/sg60_4_cif.got.tgz:6715.got - 2010.04.10 18:46:24.
