data_PCOD8248789
_publ_section_title
;
Structure prediction by ZEFSAII (Michael W. Deem and Ramdas Pophale) SiO2 
 PCOD8248789
Probable space group: P B C A
;
_chemical_formula_sum "Si O2"
_cell_formula_units_Z 64
_cell_length_a 8.815208
_cell_length_b 29.778892
_cell_length_c 12.852996
_cell_angle_alpha 90.000000
_cell_angle_beta 90.000000
_cell_angle_gamma 90.000000
_cell_volume 3374.003053
_symmetry_space_group_name_H-M "P B C A"
_symmetry_group_IT_number 61
_symmetry_cell_setting 'orthorhombic'
loop_
_space_group_symop_operation_xyz
x,y,z
1/2-x,-y,1/2+z
1/2+x,1/2-y,-z
-x,1/2+y,1/2-z
-x,-y,-z
1/2+x,y,1/2-z
1/2-x,1/2+y,z
x,1/2-y,1/2+z
loop_
_atom_site_type_symbol
_atom_site_label
_atom_site_fract_x
_atom_site_fract_y
_atom_site_fract_z
Si Si1 0.270554 0.311238 0.117049
Si Si2 0.931548 0.064558 0.250948
Si Si3 0.700903 0.908953 0.438035
Si Si4 0.523965 0.236345 0.752196
Si Si5 0.359258 0.497664 0.575354
Si Si6 0.225791 0.788920 0.870765
Si Si7 0.325059 0.885106 0.846296
Si Si8 0.933337 0.953597 0.965810
O O1 0.285775 0.365243 0.135089
O O2 0.407024 0.290959 0.182749
O O3 0.111181 0.295624 0.166120
O O4 0.280841 0.294347 0.996534
O O5 0.763534 0.077284 0.218317
O O6 0.999835 0.106588 0.316779
O O7 0.038138 0.055721 0.153843
O O8 0.923918 0.018680 0.315074
O O9 0.774316 0.955403 0.397484
O O10 0.805150 0.895048 0.533740
O O11 0.520852 0.915363 0.466516
O O12 0.639526 0.256665 0.667428
O O13 0.435442 0.272805 0.823869
O O14 0.500000 0.500000 0.500000
O O15 0.248384 0.459527 0.523253
O O16 0.264676 0.836210 0.817223
O O17 0.000000 0.000000 0.000000
#
# Coordination Sequence:
#
# PCOD8248789 Si02
#       8
#     8   8   8   8   8   8   8   8
#     4  10  21  40  61  85 124 155 194 251 292 354
#     4  11  19  33  53  81 112 147 185 242 284 341
#     4   9  20  38  54  77 115 152 185 237 291 337
#     4  10  21  38  62  90 115 157 200 233 303 377
#     4  11  20  35  57  82 111 150 197 236 285 342
#     4  10  20  37  62  89 118 152 193 251 304 355
#     4  10  19  32  55  81 112 142 185 238 293 334
#     4   9  20  36  54  76 109 151 192 230 286 339
#
# _framework density 18.968565000000002
#
# number of rings (size 3 to 8) (size 9 to 14) (size 15 to 20)
#    0.000    2.000    2.500    1.500    0.000    0.000 
#    4.500    2.500    0.000    0.000    0.000    0.000 
#    0.000    0.000    0.000    0.000    0.000    0.000 
#
# Total GULP energy -792858.210374 kJ/mol
# GULP energy per Si atom -12388.409537 kJ/mol
# Density = 1.892539 g / cm^3
# Si number density = 18.968565 Si / 1000 Ang^3
#
#
#
# Elastic Constant Matrix: (Units=GPa)
#
#
# Indices 1 2 3 4 5 6 
#
# 1 89.1639 29.1401 32.6560 0.0000 0.0000 0.0000
# 2 29.1401 108.0286 41.4361 0.0000 0.0000 0.0000
# 3 32.6560 41.4361 71.4577 0.0000 0.0000 0.0000
# 4 0.0000 0.0000 0.0000 29.7423 0.0000 0.0000
# 5 0.0000 0.0000 0.0000 0.0000 18.2106 0.0000
# 6 0.0000 0.0000 0.0000 0.0000 0.0000 33.4791
#
#
#
# Elastic Compliance Matrix: (Units=1/GPa)
#
#
# Indices 1 2 3 4 5 6 
#
# 1 0.013699 -0.001664 -0.005295 0.000000 0.000000 0.000000
# 2 -0.001664 0.012107 -0.006260 0.000000 0.000000 0.000000
# 3 -0.005295 -0.006260 0.020044 0.000000 0.000000 0.000000
# 4 0.000000 0.000000 0.000000 0.033622 0.000000 0.000000
# 5 0.000000 0.000000 0.000000 0.000000 0.054913 0.000000
# 6 0.000000 0.000000 0.000000 0.000000 0.000000 0.029869
#
#
# Mechanical properties :
#
#
# Convention : Reuss Voigt Hill
#
# Bulk Modulus (GPa) = 51.51705 52.79052 52.15379
# Shear Modulus (GPa) = 25.35978 27.31428 26.33703
#
# Velocity S-wave (km/s) = 3.66038 3.79882 3.73024
# Velocity P-wave (km/s) = 6.71436 6.86530 6.79025
#
# Compressibility (1/GPa) = 0.01941105
#
# Stress axis : x y z
#
# Youngs Moduli (GPa) = 73.00062 82.59855 49.88983
#
# Poissons Ratio (x) = 0.13744 0.26418
# Poissons Ratio (y) = 0.12147 0.31231
# Poissons Ratio (z) = 0.38656 0.51706
#
# Static dielectric constant tensor:
#      x y z
#    x 3.794310 0.000000 0.000000 
#    y 0.000000 3.844370 0.000000 
#    z 0.000000 0.000000 3.548240 
# 
# 
# High freq. dielectric constant tensor:
#      x y z
#    x 1.748340 0.000000 0.000000 
#    y 0.000000 1.734260 0.000000 
#    z 0.000000 0.000000 1.728370 
# 
# From -- ./inp_files/4952.got.cif
#   From: 2010.03.12/outbox.cif.g09.slc.cpg/sg61_3_cif.got.tgz:4952.got - 2010.04.10 19:05:03.
