data_PCOD8248432
_publ_section_title
;
Structure prediction by ZEFSAII (Michael W. Deem and Ramdas Pophale) SiO2 
 PCOD8248432
Probable space group: P B C N
;
_chemical_formula_sum "Si O2"
_cell_formula_units_Z 40
_cell_length_a 12.123459
_cell_length_b 13.751064
_cell_length_c 11.559970
_cell_angle_alpha 90.000000
_cell_angle_beta 90.000000
_cell_angle_gamma 90.000000
_cell_volume 1927.167923
_symmetry_space_group_name_H-M "P B C N"
_symmetry_group_IT_number 60
_symmetry_cell_setting 'orthorhombic'
loop_
_space_group_symop_operation_xyz
x,y,z
1/2-x,1/2-y,1/2+z
1/2+x,1/2-y,-z
-x,y,1/2-z
-x,-y,-z
1/2+x,1/2+y,1/2-z
1/2-x,1/2+y,z
x,-y,1/2+z
loop_
_atom_site_type_symbol
_atom_site_label
_atom_site_fract_x
_atom_site_fract_y
_atom_site_fract_z
Si Si1 0.582652 0.076973 0.439016
Si Si2 0.773115 0.575567 0.229017
Si Si3 0.756561 0.879658 0.126656
Si Si4 0.392020 0.208423 0.448490
Si Si5 0.621911 0.744310 0.291414
O O1 0.622022 0.046832 0.310143
O O2 0.693734 0.090814 0.510477
O O3 0.519533 0.180585 0.425738
O O4 0.500000 0.000000 0.500000
O O5 0.708569 0.477512 0.193500
O O6 0.814773 0.628283 0.112430
O O7 0.689454 0.644095 0.297942
O O8 0.866249 0.816470 0.100206
O O9 0.671087 0.818559 0.200718
O O10 0.370626 0.203825 0.584943
O O11 0.500000 0.717942 0.250000
#
# Coordination Sequence:
#
# PCOD8248432 Si02
#       5
#     8   8   8   8   8
#     4  12  22  40  71  96 129 167 224 273 330 388
#     4  11  25  42  64 101 131 168 221 276 322 401
#     4  11  24  40  65  94 131 169 214 275 327 390
#     4  11  23  40  65  99 128 170 221 271 333 390
#     4  11  23  42  65  91 131 176 212 262 338 392
#
# _framework density 20.755845999999998
#
# number of rings (size 3 to 8) (size 9 to 14) (size 15 to 20)
#    0.000    0.800    6.000    1.800    0.000    0.000 
#    0.000    5.000    0.000    0.000    0.000    0.000 
#    0.000    0.000    0.000    0.000    0.000    0.000 
#
# Total GULP energy -495978.959334 kJ/mol
# GULP energy per Si atom -12399.473983 kJ/mol
# Density = 2.070860 g / cm^3
# Si number density = 20.755846 Si / 1000 Ang^3
#
#
#
# Elastic Constant Matrix: (Units=GPa)
#
#
# Indices 1 2 3 4 5 6 
#
# 1 61.9183 34.0291 41.0249 0.0000 0.0000 0.0000
# 2 34.0291 118.5563 37.1085 0.0000 0.0000 0.0000
# 3 41.0249 37.1085 107.4222 0.0000 0.0000 0.0000
# 4 0.0000 0.0000 0.0000 33.5202 0.0000 0.0000
# 5 0.0000 0.0000 0.0000 0.0000 25.9638 0.0000
# 6 0.0000 0.0000 0.0000 0.0000 0.0000 34.4804
#
#
#
# Elastic Compliance Matrix: (Units=1/GPa)
#
#
# Indices 1 2 3 4 5 6 
#
# 1 0.023517 -0.004417 -0.007456 0.000000 0.000000 0.000000
# 2 -0.004417 0.010287 -0.001867 0.000000 0.000000 0.000000
# 3 -0.007456 -0.001867 0.012801 0.000000 0.000000 0.000000
# 4 0.000000 0.000000 0.000000 0.029833 0.000000 0.000000
# 5 0.000000 0.000000 0.000000 0.000000 0.038515 0.000000
# 6 0.000000 0.000000 0.000000 0.000000 0.000000 0.029002
#
#
# Mechanical properties :
#
#
# Convention : Reuss Voigt Hill
#
# Bulk Modulus (GPa) = 52.28106 56.91354 54.59730
# Shear Modulus (GPa) = 28.11999 30.50850 29.31424
#
# Velocity S-wave (km/s) = 3.68475 3.83805 3.76218
# Velocity P-wave (km/s) = 6.58380 6.86447 6.72560
#
# Compressibility (1/GPa) = 0.01912738
#
# Stress axis : x y z
#
# Youngs Moduli (GPa) = 42.52164 97.21181 78.11690
#
# Poissons Ratio (x) = 0.42934 0.58242
# Poissons Ratio (y) = 0.18780 0.14583
# Poissons Ratio (z) = 0.31703 0.18148
#
# Static dielectric constant tensor:
#      x y z
#    x 3.690590 0.000000 0.000000 
#    y 0.000000 3.969890 0.000000 
#    z 0.000000 0.000000 3.923100 
# 
# 
# High freq. dielectric constant tensor:
#      x y z
#    x 1.787840 0.000000 0.000000 
#    y 0.000000 1.814000 0.000000 
#    z 0.000000 0.000000 1.832090 
# 
# From -- ./inp_files/10816.got.cif
#   From: 2010.03.12/outbox.cif.g09.slc.cpg/sg60_6_cif.got.tgz:10816.got - 2010.04.10 18:46:24.
