data_PCOD8248405
_publ_section_title
;
Structure prediction by ZEFSAII (Michael W. Deem and Ramdas Pophale) SiO2 
 PCOD8248405
Probable space group: P B C N
;
_chemical_formula_sum "Si O2"
_cell_formula_units_Z 60
_cell_length_a 18.420561
_cell_length_b 17.640067
_cell_length_c 8.189832
_cell_angle_alpha 90.000000
_cell_angle_beta 90.000000
_cell_angle_gamma 90.000000
_cell_volume 2661.203439
_symmetry_space_group_name_H-M "P B C N"
_symmetry_group_IT_number 60
_symmetry_cell_setting 'orthorhombic'
loop_
_space_group_symop_operation_xyz
x,y,z
1/2-x,1/2-y,1/2+z
1/2+x,1/2-y,-z
-x,y,1/2-z
-x,-y,-z
1/2+x,1/2+y,1/2-z
1/2-x,1/2+y,z
x,-y,1/2+z
loop_
_atom_site_type_symbol
_atom_site_label
_atom_site_fract_x
_atom_site_fract_y
_atom_site_fract_z
Si Si1 0.844672 0.026210 0.411022
Si Si2 0.175883 0.702469 0.766304
Si Si3 0.723853 0.324759 0.967281
Si Si4 0.960438 0.761130 0.578906
Si Si5 0.500000 0.182812 0.250000
Si Si6 0.849089 0.401639 0.776636
Si Si7 0.935918 0.066858 0.130014
Si Si8 0.695618 0.051845 0.921614
O O1 0.819158 0.098793 0.515667
O O2 0.861129 0.061906 0.233246
O O3 0.920242 0.992052 0.482946
O O4 0.781250 0.964263 0.392794
O O5 0.171454 0.764876 0.623139
O O6 0.114708 0.716207 0.903472
O O7 0.168096 0.618148 0.696990
O O8 0.252304 0.711624 0.860782
O O9 0.795186 0.341880 0.859959
O O10 0.948590 0.850541 0.555267
O O11 0.000000 0.744129 0.750000
O O12 0.002572 0.732935 0.416585
O O13 0.570730 0.130652 0.252680
O O14 0.814060 0.423757 0.605928
O O15 0.852808 0.477541 0.886748
O O16 0.000000 0.041154 0.250000
#
# Coordination Sequence:
#
# PCOD8248405 Si02
#       8
#     8   8   8   8   4   8   8   8
#     4  11  22  44  69  99 138 185 233 301 361 435
#     4  12  23  43  68 103 138 186 237 308 364 426
#     4  11  23  41  70 102 137 180 248 294 369 429
#     4  11  26  49  72 104 149 191 241 302 358 436
#     4  12  26  50  78 104 150 196 248 290 368 448
#     4  11  24  44  67 106 140 188 239 296 357 443
#     4  11  24  45  67 101 143 185 241 294 363 439
#     4  11  24  41  70 102 145 181 240 305 362 426
#
# _framework density 22.546189999999999
#
# number of rings (size 3 to 8) (size 9 to 14) (size 15 to 20)
#    0.000    0.800    2.667    6.000    1.867    0.533 
#    7.200    0.000    0.000    0.000    0.000    0.000 
#    0.000    0.000    0.000    0.000    0.000    0.000 
#
# Total GULP energy -743955.354699 kJ/mol
# GULP energy per Si atom -12399.255912 kJ/mol
# Density = 2.249487 g / cm^3
# Si number density = 22.546190 Si / 1000 Ang^3
#
#
#
# Elastic Constant Matrix: (Units=GPa)
#
#
# Indices 1 2 3 4 5 6 
#
# 1 83.7988 49.8786 17.2692 0.0000 0.0000 0.0000
# 2 49.8786 122.4587 44.3855 0.0000 0.0000 0.0000
# 3 17.2692 44.3855 97.2446 0.0000 0.0000 0.0000
# 4 0.0000 0.0000 0.0000 29.1482 0.0000 0.0000
# 5 0.0000 0.0000 0.0000 0.0000 43.0655 0.0000
# 6 0.0000 0.0000 0.0000 0.0000 0.0000 30.2873
#
#
#
# Elastic Compliance Matrix: (Units=1/GPa)
#
#
# Indices 1 2 3 4 5 6 
#
# 1 0.015754 -0.006474 0.000157 0.000000 0.000000 0.000000
# 2 -0.006474 0.012445 -0.004531 0.000000 0.000000 0.000000
# 3 0.000157 -0.004531 0.012323 0.000000 0.000000 0.000000
# 4 0.000000 0.000000 0.000000 0.034307 0.000000 0.000000
# 5 0.000000 0.000000 0.000000 0.000000 0.023220 0.000000
# 6 0.000000 0.000000 0.000000 0.000000 0.000000 0.033017
#
#
# Mechanical properties :
#
#
# Convention : Reuss Voigt Hill
#
# Bulk Modulus (GPa) = 53.11234 58.50763 55.80999
# Shear Modulus (GPa) = 31.43895 33.29813 32.36854
#
# Velocity S-wave (km/s) = 3.73825 3.84720 3.79311
# Velocity P-wave (km/s) = 6.49930 6.76321 6.63257
#
# Compressibility (1/GPa) = 0.01882801
#
# Stress axis : x y z
#
# Youngs Moduli (GPa) = 63.47467 80.35348 81.14666
#
# Poissons Ratio (x) = 0.52020 -0.01275
# Poissons Ratio (y) = 0.41092 0.36765
# Poissons Ratio (z) = -0.00997 0.36405
#
# Static dielectric constant tensor:
#      x y z
#    x 3.985730 0.000000 0.000000 
#    y 0.000000 4.116180 0.000000 
#    z 0.000000 0.000000 4.195610 
# 
# 
# High freq. dielectric constant tensor:
#      x y z
#    x 1.884510 0.000000 0.000000 
#    y 0.000000 1.892700 0.000000 
#    z 0.000000 0.000000 1.900530 
# 
# From -- ./inp_files/6908.got.cif
#   From: 2010.03.12/outbox.cif.g09.slc.cpg/sg60_4_cif.got.tgz:6908.got - 2010.04.10 18:46:24.
