data_PCOD8248528
_publ_section_title
;
Structure prediction by ZEFSAII (Michael W. Deem and Ramdas Pophale) SiO2 
 PCOD8248528
Probable space group: P B C N
;
_chemical_formula_sum "Si O2"
_cell_formula_units_Z 40
_cell_length_a 6.654443
_cell_length_b 10.529224
_cell_length_c 26.194077
_cell_angle_alpha 90.000000
_cell_angle_beta 90.000000
_cell_angle_gamma 90.000000
_cell_volume 1835.317367
_symmetry_space_group_name_H-M "P B C N"
_symmetry_group_IT_number 60
_symmetry_cell_setting 'orthorhombic'
loop_
_space_group_symop_operation_xyz
x,y,z
1/2-x,1/2-y,1/2+z
1/2+x,1/2-y,-z
-x,y,1/2-z
-x,-y,-z
1/2+x,1/2+y,1/2-z
1/2-x,1/2+y,z
x,-y,1/2+z
loop_
_atom_site_type_symbol
_atom_site_label
_atom_site_fract_x
_atom_site_fract_y
_atom_site_fract_z
Si Si1 0.862487 0.098245 0.474009
Si Si2 0.830955 0.829337 0.147559
Si Si3 0.055327 0.344600 0.449282
Si Si4 0.771454 0.029060 0.879194
Si Si5 0.066997 0.442727 0.807912
O O1 0.652773 0.077627 0.503992
O O2 0.963417 0.232398 0.482600
O O3 0.867257 0.083882 0.412286
O O4 0.000000 0.000000 0.500000
O O5 0.727927 0.810615 0.092511
O O6 0.715054 0.937696 0.180787
O O7 0.830625 0.691198 0.175354
O O8 0.062233 0.873502 0.141828
O O9 0.872077 0.409171 0.421130
O O10 0.646241 0.966012 0.834420
O O11 0.000000 0.435017 0.750000
#
# Coordination Sequence:
#
# PCOD8248528 Si02
#       5
#     8   8   8   8   8
#     4  12  23  40  66  99 142 192 230 286 348 426
#     4  11  25  50  72 107 144 186 239 298 367 431
#     4  11  25  40  65 102 141 185 239 285 350 426
#     4  11  24  45  70 100 140 189 235 297 356 426
#     4  11  28  47  76 105 140 186 242 303 364 432
#
# _framework density 21.794597
#
# number of rings (size 3 to 8) (size 9 to 14) (size 15 to 20)
#    0.000    0.800    2.000    4.200    8.400    1.600 
#    0.000    0.000    0.000    0.000    0.000    0.000 
#    0.000    0.000    0.000    0.000    0.000    0.000 
#
# Total GULP energy -495608.226131 kJ/mol
# GULP energy per Si atom -12390.205653 kJ/mol
# Density = 2.174499 g / cm^3
# Si number density = 21.794597 Si / 1000 Ang^3
#
#
#
# Elastic Constant Matrix: (Units=GPa)
#
#
# Indices 1 2 3 4 5 6 
#
# 1 99.1276 27.0209 22.2037 0.0000 0.0000 0.0000
# 2 27.0209 90.1104 19.0226 0.0000 0.0000 0.0000
# 3 22.2037 19.0226 109.6302 0.0000 0.0000 0.0000
# 4 0.0000 0.0000 0.0000 32.7887 0.0000 0.0000
# 5 0.0000 0.0000 0.0000 0.0000 34.0378 0.0000
# 6 0.0000 0.0000 0.0000 0.0000 0.0000 41.2567
#
#
#
# Elastic Compliance Matrix: (Units=1/GPa)
#
#
# Indices 1 2 3 4 5 6 
#
# 1 0.011306 -0.003017 -0.001766 0.000000 0.000000 0.000000
# 2 -0.003017 0.012325 -0.001527 0.000000 0.000000 0.000000
# 3 -0.001766 -0.001527 0.009744 0.000000 0.000000 0.000000
# 4 0.000000 0.000000 0.000000 0.030498 0.000000 0.000000
# 5 0.000000 0.000000 0.000000 0.000000 0.029379 0.000000
# 6 0.000000 0.000000 0.000000 0.000000 0.000000 0.024238
#
#
# Mechanical properties :
#
#
# Convention : Reuss Voigt Hill
#
# Bulk Modulus (GPa) = 48.18591 48.37364 48.27978
# Shear Modulus (GPa) = 36.48810 36.99140 36.73975
#
# Velocity S-wave (km/s) = 4.09611 4.12427 4.11022
# Velocity P-wave (km/s) = 6.67293 6.70245 6.68771
#
# Compressibility (1/GPa) = 0.02075295
#
# Stress axis : x y z
#
# Youngs Moduli (GPa) = 88.44744 81.13751 102.62373
#
# Poissons Ratio (x) = 0.24483 0.18126
# Poissons Ratio (y) = 0.26688 0.15675
# Poissons Ratio (z) = 0.15622 0.12393
#
# Static dielectric constant tensor:
#      x y z
#    x 4.154660 0.000000 0.000000 
#    y 0.000000 3.744220 0.000000 
#    z 0.000000 0.000000 3.956610 
# 
# 
# High freq. dielectric constant tensor:
#      x y z
#    x 1.874930 0.000000 0.000000 
#    y 0.000000 1.863990 0.000000 
#    z 0.000000 0.000000 1.858840 
# 
# From -- ./inp_files/24722.got.cif
#   From: 2010.03.12/outbox.cif.g09.slc.cpg/sg60_13_cif.got.tgz:24722.got - 2010.04.10 18:46:24.
