data_PCOD8248421
_publ_section_title
;
Structure prediction by ZEFSAII (Michael W. Deem and Ramdas Pophale) SiO2 
 PCOD8248421
Probable space group: P B C N
;
_chemical_formula_sum "Si O2"
_cell_formula_units_Z 56
_cell_length_a 10.782692
_cell_length_b 21.518023
_cell_length_c 11.359472
_cell_angle_alpha 90.000000
_cell_angle_beta 90.000000
_cell_angle_gamma 90.000000
_cell_volume 2635.649849
_symmetry_space_group_name_H-M "P B C N"
_symmetry_group_IT_number 60
_symmetry_cell_setting 'orthorhombic'
loop_
_space_group_symop_operation_xyz
x,y,z
1/2-x,1/2-y,1/2+z
1/2+x,1/2-y,-z
-x,y,1/2-z
-x,-y,-z
1/2+x,1/2+y,1/2-z
1/2-x,1/2+y,z
x,-y,1/2+z
loop_
_atom_site_type_symbol
_atom_site_label
_atom_site_fract_x
_atom_site_fract_y
_atom_site_fract_z
Si Si1 0.889756 0.423419 0.062676
Si Si2 0.762172 0.829823 0.608765
Si Si3 0.085741 0.560706 0.365245
Si Si4 0.000000 0.847982 0.750000
Si Si5 0.383087 0.714082 0.829336
Si Si6 0.830407 0.854739 0.949804
Si Si7 0.712492 0.782266 0.373164
Si Si8 0.500000 0.161812 0.750000
O O1 0.864125 0.491629 0.113733
O O2 0.903907 0.380255 0.176533
O O3 0.774143 0.404490 0.980108
O O4 0.011714 0.418871 0.981801
O O5 0.708221 0.896265 0.650567
O O6 0.887596 0.810995 0.681820
O O7 0.649503 0.780949 0.617444
O O8 0.784286 0.825467 0.468591
O O9 0.000000 0.564483 0.250000
O O10 0.927773 0.884891 0.854669
O O11 0.500000 0.723136 0.750000
O O12 0.269500 0.694190 0.748763
O O13 0.404997 0.663775 0.932066
O O14 0.768279 0.791550 0.897101
O O15 0.567000 0.796050 0.350105
#
# Coordination Sequence:
#
# PCOD8248421 Si02
#       8
#     8   8   8   4   8   8   8   4
#     4  11  24  43  71 101 132 175 220 281 342 393
#     4  11  24  39  64  94 133 178 225 273 337 398
#     4  11  23  42  69 103 133 169 226 287 336 394
#     4  12  23  44  60  90 132 178 219 274 320 404
#     4  11  23  38  61  95 131 172 220 276 333 404
#     4  11  24  40  64  93 131 175 219 266 337 402
#     4  11  23  38  64  96 134 177 212 272 337 404
#     4  12  21  44  68 100 138 170 219 272 342 402
#
# _framework density 21.247133999999999
#
# number of rings (size 3 to 8) (size 9 to 14) (size 15 to 20)
#    0.000    0.857    5.000    2.571    2.000    0.000 
#    0.000    0.714    1.571    0.000    0.000    0.000 
#    0.000    0.000    0.000    0.000    0.000    0.000 
#
# Total GULP energy -693828.255712 kJ/mol
# GULP energy per Si atom -12389.790281 kJ/mol
# Density = 2.119877 g / cm^3
# Si number density = 21.247134 Si / 1000 Ang^3
#
#
#
# Elastic Constant Matrix: (Units=GPa)
#
#
# Indices 1 2 3 4 5 6 
#
# 1 82.3432 31.8381 22.8511 0.0000 0.0000 0.0000
# 2 31.8381 85.0154 22.6403 0.0000 0.0000 0.0000
# 3 22.8511 22.6403 114.5686 0.0000 0.0000 0.0000
# 4 0.0000 0.0000 0.0000 26.6135 0.0000 0.0000
# 5 0.0000 0.0000 0.0000 0.0000 49.2059 0.0000
# 6 0.0000 0.0000 0.0000 0.0000 0.0000 24.7708
#
#
#
# Elastic Compliance Matrix: (Units=1/GPa)
#
#
# Indices 1 2 3 4 5 6 
#
# 1 0.014595 -0.004951 -0.001933 0.000000 0.000000 0.000000
# 2 -0.004951 0.014096 -0.001798 0.000000 0.000000 0.000000
# 3 -0.001933 -0.001798 0.009469 0.000000 0.000000 0.000000
# 4 0.000000 0.000000 0.000000 0.037575 0.000000 0.000000
# 5 0.000000 0.000000 0.000000 0.000000 0.020323 0.000000
# 6 0.000000 0.000000 0.000000 0.000000 0.000000 0.040370
#
#
# Mechanical properties :
#
#
# Convention : Reuss Voigt Hill
#
# Bulk Modulus (GPa) = 48.08539 48.50956 48.29747
# Shear Modulus (GPa) = 31.10942 33.75788 32.43365
#
# Velocity S-wave (km/s) = 3.83060 3.99033 3.91128
# Velocity P-wave (km/s) = 6.49963 6.64161 6.57100
#
# Compressibility (1/GPa) = 0.02079634
#
# Stress axis : x y z
#
# Youngs Moduli (GPa) = 68.51678 70.94425 105.60592
#
# Poissons Ratio (x) = 0.35125 0.20409
# Poissons Ratio (y) = 0.33923 0.18988
# Poissons Ratio (z) = 0.13242 0.12756
#
# Static dielectric constant tensor:
#      x y z
#    x 4.114770 0.000000 0.000000 
#    y 0.000000 3.474640 0.000000 
#    z 0.000000 0.000000 5.162300 
# 
# 
# High freq. dielectric constant tensor:
#      x y z
#    x 1.822840 0.000000 0.000000 
#    y 0.000000 1.789940 0.000000 
#    z 0.000000 0.000000 1.869540 
# 
# From -- ./inp_files/11218.got.cif
#   From: 2010.03.12/outbox.cif.g09.slc.cpg/sg60_6_cif.got.tgz:11218.got - 2010.04.10 18:46:24.
