data_PCOD8248250
_publ_section_title
;
Structure prediction by ZEFSAII (Michael W. Deem and Ramdas Pophale) SiO2 
 PCOD8248250
Probable space group: P B C N
;
_chemical_formula_sum "Si O2"
_cell_formula_units_Z 20
_cell_length_a 7.386165
_cell_length_b 19.107639
_cell_length_c 5.171622
_cell_angle_alpha 90.000000
_cell_angle_beta 90.000000
_cell_angle_gamma 90.000000
_cell_volume 729.882258
_symmetry_space_group_name_H-M "P B C N"
_symmetry_group_IT_number 60
_symmetry_cell_setting 'orthorhombic'
loop_
_space_group_symop_operation_xyz
x,y,z
1/2-x,1/2-y,1/2+z
1/2+x,1/2-y,-z
-x,y,1/2-z
-x,-y,-z
1/2+x,1/2+y,1/2-z
1/2-x,1/2+y,z
x,-y,1/2+z
loop_
_atom_site_type_symbol
_atom_site_label
_atom_site_fract_x
_atom_site_fract_y
_atom_site_fract_z
Si Si1 0.000000 0.214978 0.750000
Si Si2 0.291376 0.543656 0.268031
Si Si3 0.139619 0.658615 0.951852
O O1 0.837592 0.163604 0.675681
O O2 0.065872 0.264215 0.516220
O O3 0.500000 0.566514 0.250000
O O4 0.245139 0.514812 0.551132
O O5 0.165109 0.611298 0.210254
O O6 0.000000 0.623427 0.750000
#
# Coordination Sequence:
#
# PCOD8248250 Si02
#       3
#     4   8   8
#     4  12  28  48  70 116 150 204 254 324 390 462
#     4  10  26  48  78 114 153 205 258 323 386 456
#     4  12  28  47  78 109 155 202 261 321 389 469
#
# _framework density 27.401682999999998
#
# number of rings (size 3 to 8) (size 9 to 14) (size 15 to 20)
#    0.000    0.800    4.000    0.000   19.600    1.600 
#    0.000    0.000    0.000    0.000    0.000    0.000 
#    0.000    0.000    0.000    0.000    0.000    0.000 
#
# Total GULP energy -248139.643627 kJ/mol
# GULP energy per Si atom -12406.982181 kJ/mol
# Density = 2.733932 g / cm^3
# Si number density = 27.401683 Si / 1000 Ang^3
#
#
#
# Elastic Constant Matrix: (Units=GPa)
#
#
# Indices 1 2 3 4 5 6 
#
# 1 166.2524 39.1900 39.9814 0.0000 0.0000 0.0000
# 2 39.1900 83.3227 6.7011 0.0000 0.0000 0.0000
# 3 39.9814 6.7011 90.1989 0.0000 0.0000 0.0000
# 4 0.0000 0.0000 0.0000 33.9025 0.0000 0.0000
# 5 0.0000 0.0000 0.0000 0.0000 43.2649 0.0000
# 6 0.0000 0.0000 0.0000 0.0000 0.0000 12.1661
#
#
#
# Elastic Compliance Matrix: (Units=1/GPa)
#
#
# Indices 1 2 3 4 5 6 
#
# 1 0.007536 -0.003296 -0.003096 0.000000 0.000000 0.000000
# 2 -0.003296 0.013515 0.000457 0.000000 0.000000 0.000000
# 3 -0.003096 0.000457 0.012425 0.000000 0.000000 0.000000
# 4 0.000000 0.000000 0.000000 0.029496 0.000000 0.000000
# 5 0.000000 0.000000 0.000000 0.000000 0.023113 0.000000
# 6 0.000000 0.000000 0.000000 0.000000 0.000000 0.082196
#
#
# Mechanical properties :
#
#
# Convention : Reuss Voigt Hill
#
# Bulk Modulus (GPa) = 46.28149 56.83544 51.55846
# Shear Modulus (GPa) = 26.68759 34.79347 30.74053
#
# Velocity S-wave (km/s) = 3.12419 3.56723 3.35303
# Velocity P-wave (km/s) = 5.47181 6.14438 5.81783
#
# Compressibility (1/GPa) = 0.02160691
#
# Stress axis : x y z
#
# Youngs Moduli (GPa) = 132.69123 73.99255 80.48375
#
# Poissons Ratio (x) = 0.24385 0.24915
# Poissons Ratio (y) = 0.43730 -0.03676
# Poissons Ratio (z) = 0.41077 -0.03380
#
# Static dielectric constant tensor:
#      x y z
#    x 5.130390 0.000000 0.000000 
#    y 0.000000 4.555010 0.000000 
#    z 0.000000 0.000000 4.921890 
# 
# 
# High freq. dielectric constant tensor:
#      x y z
#    x 2.128320 0.000000 0.000000 
#    y 0.000000 2.089680 0.000000 
#    z 0.000000 0.000000 2.106540 
# 
# From -- ./inp_files/162.got.cif
#   From: 2010.03.12/outbox.cif.g09.slc.cpg/sg60_1_cif.got.tgz:162.got - 2010.04.10 18:46:24.
