data_PCOD8248063
_publ_section_title
;
Structure prediction by ZEFSAII (Michael W. Deem and Ramdas Pophale) SiO2 
 PCOD8248063
Probable space group: P B C N
;
_chemical_formula_sum "Si O2"
_cell_formula_units_Z 56
_cell_length_a 27.165712
_cell_length_b 5.047717
_cell_length_c 15.494608
_cell_angle_alpha 90.000000
_cell_angle_beta 90.000000
_cell_angle_gamma 90.000000
_cell_volume 2124.695430
_symmetry_space_group_name_H-M "P B C N"
_symmetry_group_IT_number 60
_symmetry_cell_setting 'orthorhombic'
loop_
_space_group_symop_operation_xyz
x,y,z
1/2-x,1/2-y,1/2+z
1/2+x,1/2-y,-z
-x,y,1/2-z
-x,-y,-z
1/2+x,1/2+y,1/2-z
1/2-x,1/2+y,z
x,-y,1/2+z
loop_
_atom_site_type_symbol
_atom_site_label
_atom_site_fract_x
_atom_site_fract_y
_atom_site_fract_z
Si Si1 0.218407 0.452768 0.147750
Si Si2 0.447208 0.123463 0.778466
Si Si3 0.140655 0.822611 0.421721
Si Si4 0.642358 0.281358 0.436228
Si Si5 0.717766 0.972955 0.154569
Si Si6 0.944125 0.532509 0.530020
Si Si7 0.109629 0.103432 0.741247
O O1 0.236349 0.155468 0.130856
O O2 0.175841 0.518993 0.077690
O O3 0.199265 0.497149 0.246042
O O4 0.500000 0.018797 0.750000
O O5 0.445351 0.188200 0.879990
O O6 0.435111 0.397221 0.730262
O O7 0.408359 0.903488 0.749887
O O8 0.172746 0.551325 0.409747
O O9 0.085246 0.743760 0.452769
O O10 0.140318 0.970788 0.328092
O O11 0.164183 0.024650 0.490604
O O12 0.586385 0.197472 0.459068
O O13 0.642954 0.432389 0.343853
O O14 0.762315 0.179878 0.135823
O O15 0.000000 0.500000 0.500000
#
# Coordination Sequence:
#
# PCOD8248063 Si02
#       7
#     8   8   8   8   8   8   8
#     4  10  24  45  73 110 147 192 243 295 371 446
#     4  11  24  46  70  99 139 190 247 301 368 433
#     4  11  26  47  71 111 144 196 245 305 368 447
#     4  12  26  45  77 106 150 194 244 310 368 437
#     4  10  23  45  76 106 147 193 240 302 368 442
#     4  11  27  47  71 109 149 196 255 314 367 440
#     4  11  25  45  69 102 144 189 236 298 369 434
#
# _framework density 26.356722000000001
#
# number of rings (size 3 to 8) (size 9 to 14) (size 15 to 20)
#    0.000    1.143    2.857    1.286    8.000    2.857 
#    0.000    0.000    0.000    0.000    0.000    0.000 
#    0.000    0.000    0.000    0.000    0.000    0.000 
#
# Total GULP energy -694554.185235 kJ/mol
# GULP energy per Si atom -12402.753308 kJ/mol
# Density = 2.629673 g / cm^3
# Si number density = 26.356722 Si / 1000 Ang^3
#
#
#
# Elastic Constant Matrix: (Units=GPa)
#
#
# Indices 1 2 3 4 5 6 
#
# 1 94.7357 -16.0854 17.2174 0.0000 0.0000 0.0000
# 2 -16.0854 52.7222 11.4192 0.0000 0.0000 0.0000
# 3 17.2174 11.4192 134.4896 0.0000 0.0000 0.0000
# 4 0.0000 0.0000 0.0000 29.9389 0.0000 0.0000
# 5 0.0000 0.0000 0.0000 0.0000 36.7254 0.0000
# 6 0.0000 0.0000 0.0000 0.0000 0.0000 23.1415
#
#
#
# Elastic Compliance Matrix: (Units=1/GPa)
#
#
# Indices 1 2 3 4 5 6 
#
# 1 0.011550 0.003916 -0.001811 0.000000 0.000000 0.000000
# 2 0.003916 0.020650 -0.002255 0.000000 0.000000 0.000000
# 3 -0.001811 -0.002255 0.007859 0.000000 0.000000 0.000000
# 4 0.000000 0.000000 0.000000 0.033401 0.000000 0.000000
# 5 0.000000 0.000000 0.000000 0.000000 0.027229 0.000000
# 6 0.000000 0.000000 0.000000 0.000000 0.000000 0.043212
#
#
# Mechanical properties :
#
#
# Convention : Reuss Voigt Hill
#
# Bulk Modulus (GPa) = 25.15119 34.11664 29.63392
# Shear Modulus (GPa) = 31.75517 35.92090 33.83803
#
# Velocity S-wave (km/s) = 3.47482 3.69572 3.58697
# Velocity P-wave (km/s) = 5.06582 5.58421 5.33132
#
# Compressibility (1/GPa) = 0.03975955
#
# Stress axis : x y z
#
# Youngs Moduli (GPa) = 86.58188 48.42503 127.24553
#
# Poissons Ratio (x) = -0.18964 0.23046
# Poissons Ratio (y) = -0.33906 0.28690
# Poissons Ratio (z) = 0.15681 0.10919
#
# Static dielectric constant tensor:
#      x y z
#    x 4.592630 0.000000 0.000000 
#    y 0.000000 4.487170 0.000000 
#    z 0.000000 0.000000 5.023770 
# 
# 
# High freq. dielectric constant tensor:
#      x y z
#    x 2.048810 0.000000 0.000000 
#    y 0.000000 2.053120 0.000000 
#    z 0.000000 0.000000 2.069480 
# 
# From -- ./inp_files/18187.got.cif
#   From: 2010.03.12/outbox.cif.g09.slc.cpg/sg60_10_cif.got.tgz:18187.got - 2010.04.10 18:46:24.
