data_PCOD8248884
_publ_section_title
;
Structure prediction by ZEFSAII (Michael W. Deem and Ramdas Pophale) SiO2 
 PCOD8248884
Probable space group: P B C A
;
_chemical_formula_sum "Si O2"
_cell_formula_units_Z 64
_cell_length_a 14.302686
_cell_length_b 17.893076
_cell_length_c 10.564113
_cell_angle_alpha 90.000000
_cell_angle_beta 90.000000
_cell_angle_gamma 90.000000
_cell_volume 2703.557738
_symmetry_space_group_name_H-M "P B C A"
_symmetry_group_IT_number 61
_symmetry_cell_setting 'orthorhombic'
loop_
_space_group_symop_operation_xyz
x,y,z
1/2-x,-y,1/2+z
1/2+x,1/2-y,-z
-x,1/2+y,1/2-z
-x,-y,-z
1/2+x,y,1/2-z
1/2-x,1/2+y,z
x,1/2-y,1/2+z
loop_
_atom_site_type_symbol
_atom_site_label
_atom_site_fract_x
_atom_site_fract_y
_atom_site_fract_z
Si Si1 0.942982 0.909990 0.665871
Si Si2 0.694803 0.776400 0.101568
Si Si3 0.292483 0.597271 0.769571
Si Si4 0.774457 0.558220 0.332738
Si Si5 0.122383 0.685895 0.160877
Si Si6 0.707275 0.147078 0.003194
Si Si7 0.014465 0.038062 0.805486
Si Si8 0.629013 0.547399 0.004037
O O1 0.863358 0.899909 0.772741
O O2 0.888673 0.897213 0.533131
O O3 0.018890 0.845437 0.682830
O O4 0.984844 0.994945 0.675364
O O5 0.732444 0.860627 0.123611
O O6 0.643143 0.743859 0.225724
O O7 0.626899 0.774778 0.978206
O O8 0.788567 0.729173 0.064726
O O9 0.260343 0.511429 0.754762
O O10 0.277358 0.647573 0.645788
O O11 0.404812 0.599239 0.791476
O O12 0.692747 0.616719 0.347252
O O13 0.807160 0.525540 0.469555
O O14 0.801166 0.108544 0.062669
O O15 0.923099 0.074166 0.873271
O O16 0.050509 0.969401 0.892940
#
# Coordination Sequence:
#
# PCOD8248884 Si02
#       8
#     8   8   8   8   8   8   8   8
#     4  11  23  43  74 107 141 194 244 313 370 439
#     4  12  26  50  74 103 155 204 244 299 390 447
#     4  11  23  45  73 106 147 195 244 318 373 446
#     4  10  21  44  75 105 145 193 245 315 375 425
#     4  12  25  50  73 110 147 203 251 308 367 462
#     4  11  23  45  64  98 149 191 235 298 374 442
#     4  10  19  39  67 108 135 182 251 301 373 433
#     4   9  20  38  68 100 141 185 237 309 363 440
#
# _framework density 23.672511
#
# number of rings (size 3 to 8) (size 9 to 14) (size 15 to 20)
#    0.000    1.250    3.750    2.250    0.000    1.500 
#   13.500    0.000    0.000    0.000    0.000    0.000 
#    0.000    0.000    0.000    0.000    0.000    0.000 
#
# Total GULP energy -793258.991508 kJ/mol
# GULP energy per Si atom -12394.671742 kJ/mol
# Density = 2.361863 g / cm^3
# Si number density = 23.672511 Si / 1000 Ang^3
#
#
#
# Elastic Constant Matrix: (Units=GPa)
#
#
# Indices 1 2 3 4 5 6 
#
# 1 134.6031 42.8233 24.7078 0.0000 0.0000 0.0000
# 2 42.8233 83.9440 36.5687 0.0000 0.0000 0.0000
# 3 24.7078 36.5687 87.7918 0.0000 0.0000 0.0000
# 4 0.0000 0.0000 0.0000 33.5983 0.0000 0.0000
# 5 0.0000 0.0000 0.0000 0.0000 34.7785 0.0000
# 6 0.0000 0.0000 0.0000 0.0000 0.0000 35.0949
#
#
#
# Elastic Compliance Matrix: (Units=1/GPa)
#
#
# Indices 1 2 3 4 5 6 
#
# 1 0.008909 -0.004218 -0.000750 0.000000 0.000000 0.000000
# 2 -0.004218 0.016551 -0.005707 0.000000 0.000000 0.000000
# 3 -0.000750 -0.005707 0.013979 0.000000 0.000000 0.000000
# 4 0.000000 0.000000 0.000000 0.029763 0.000000 0.000000
# 5 0.000000 0.000000 0.000000 0.000000 0.028753 0.000000
# 6 0.000000 0.000000 0.000000 0.000000 0.000000 0.028494
#
#
# Mechanical properties :
#
#
# Convention : Reuss Voigt Hill
#
# Bulk Modulus (GPa) = 55.28516 57.17095 56.22805
# Shear Modulus (GPa) = 32.50364 34.17695 33.34029
#
# Velocity S-wave (km/s) = 3.70949 3.80378 3.75693
# Velocity P-wave (km/s) = 6.46158 6.59506 6.52866
#
# Compressibility (1/GPa) = 0.01808804
#
# Stress axis : x y z
#
# Youngs Moduli (GPa) = 112.24731 60.42100 71.53643
#
# Poissons Ratio (x) = 0.25485 0.05368
# Poissons Ratio (y) = 0.47345 0.40825
# Poissons Ratio (z) = 0.08423 0.34481
#
# Static dielectric constant tensor:
#      x y z
#    x 4.424030 0.000000 0.000000 
#    y 0.000000 3.994660 0.000000 
#    z 0.000000 0.000000 4.432150 
# 
# 
# High freq. dielectric constant tensor:
#      x y z
#    x 1.941400 0.000000 0.000000 
#    y 0.000000 1.911140 0.000000 
#    z 0.000000 0.000000 1.945650 
# 
# From -- ./inp_files/6008.got.cif
#   From: 2010.03.12/outbox.cif.g09.slc.cpg/sg61_4_cif.got.tgz:6008.got - 2010.04.10 19:05:03.
