data_PCOD8248994
_publ_section_title
;
Structure prediction by ZEFSAII (Michael W. Deem and Ramdas Pophale) SiO2 
 PCOD8248994
Probable space group: P B C A
;
_chemical_formula_sum "Si O2"
_cell_formula_units_Z 48
_cell_length_a 8.732427
_cell_length_b 15.715901
_cell_length_c 18.126242
_cell_angle_alpha 90.000000
_cell_angle_beta 90.000000
_cell_angle_gamma 90.000000
_cell_volume 2487.608442
_symmetry_space_group_name_H-M "P B C A"
_symmetry_group_IT_number 61
_symmetry_cell_setting 'orthorhombic'
loop_
_space_group_symop_operation_xyz
x,y,z
1/2-x,-y,1/2+z
1/2+x,1/2-y,-z
-x,1/2+y,1/2-z
-x,-y,-z
1/2+x,y,1/2-z
1/2-x,1/2+y,z
x,1/2-y,1/2+z
loop_
_atom_site_type_symbol
_atom_site_label
_atom_site_fract_x
_atom_site_fract_y
_atom_site_fract_z
Si Si1 0.679588 0.273166 0.032948
Si Si2 0.394424 0.654823 0.338720
Si Si3 0.563513 0.996299 0.919589
Si Si4 0.042125 0.660289 0.318389
Si Si5 0.486980 0.815666 0.085526
Si Si6 0.903012 0.562783 0.449831
O O1 0.601739 0.238779 0.108767
O O2 0.857232 0.296983 0.040286
O O3 0.655809 0.200832 0.970075
O O4 0.595739 0.356251 0.003409
O O5 0.465066 0.573175 0.377681
O O6 0.220356 0.640054 0.317114
O O7 0.491164 0.663322 0.265371
O O8 0.531844 0.088859 0.882947
O O9 0.741341 0.974700 0.925112
O O10 0.500000 0.000000 0.000000
O O11 0.987908 0.752761 0.345528
O O12 0.976551 0.586361 0.370990
O O13 0.000000 0.500000 0.500000
#
# Coordination Sequence:
#
# PCOD8248994 Si02
#       6
#     8   8   8   8   8   8
#     4  10  20  37  61  87 121 159 205 250 310 369
#     4  11  22  42  64  87 127 166 204 264 314 375
#     4  12  21  39  66  95 126 163 209 264 313 366
#     4  10  24  43  61  89 126 167 209 252 322 377
#     4  10  22  38  63  93 120 164 206 254 309 376
#     4  11  23  39  62  94 123 161 212 260 310 375
#
# _framework density 19.295642000000001
#
# number of rings (size 3 to 8) (size 9 to 14) (size 15 to 20)
#    0.000    1.333    3.333    2.000    4.667    1.333 
#    3.000    1.667    0.000    0.000    0.000    0.000 
#    0.000    0.000    0.000    0.000    0.000    0.000 
#
# Total GULP energy -594844.097433 kJ/mol
# GULP energy per Si atom -12392.585363 kJ/mol
# Density = 1.925172 g / cm^3
# Si number density = 19.295642 Si / 1000 Ang^3
#
#
#
# Elastic Constant Matrix: (Units=GPa)
#
#
# Indices 1 2 3 4 5 6 
#
# 1 111.9249 49.3845 56.9248 0.0000 0.0000 0.0000
# 2 49.3845 120.7062 53.0969 0.0000 0.0000 0.0000
# 3 56.9248 53.0969 126.0893 0.0000 0.0000 0.0000
# 4 0.0000 0.0000 0.0000 25.7638 0.0000 0.0000
# 5 0.0000 0.0000 0.0000 0.0000 33.0915 0.0000
# 6 0.0000 0.0000 0.0000 0.0000 0.0000 30.2212
#
#
#
# Elastic Compliance Matrix: (Units=1/GPa)
#
#
# Indices 1 2 3 4 5 6 
#
# 1 0.012554 -0.003244 -0.004301 0.000000 0.000000 0.000000
# 2 -0.003244 0.011006 -0.003170 0.000000 0.000000 0.000000
# 3 -0.004301 -0.003170 0.011208 0.000000 0.000000 0.000000
# 4 0.000000 0.000000 0.000000 0.038814 0.000000 0.000000
# 5 0.000000 0.000000 0.000000 0.000000 0.030219 0.000000
# 6 0.000000 0.000000 0.000000 0.000000 0.000000 0.033089
#
#
# Mechanical properties :
#
#
# Convention : Reuss Voigt Hill
#
# Bulk Modulus (GPa) = 74.98261 75.28142 75.13202
# Shear Modulus (GPa) = 30.71870 31.10293 30.91081
#
# Velocity S-wave (km/s) = 3.99432 4.01922 4.00679
# Velocity P-wave (km/s) = 7.75996 7.78706 7.77352
#
# Compressibility (1/GPa) = 0.01333642
#
# Stress axis : x y z
#
# Youngs Moduli (GPa) = 79.65855 90.85685 89.22290
#
# Poissons Ratio (x) = 0.29473 0.38379
# Poissons Ratio (y) = 0.25840 0.28287
# Poissons Ratio (z) = 0.34265 0.28805
#
# Static dielectric constant tensor:
#      x y z
#    x 1.898610 0.000000 0.000000 
#    y 0.000000 3.586930 0.000000 
#    z 0.000000 0.000000 3.532220 
# 
# 
# High freq. dielectric constant tensor:
#      x y z
#    x 1.764270 0.000000 0.000000 
#    y 0.000000 1.758910 0.000000 
#    z 0.000000 0.000000 1.746870 
# 
# From -- ./inp_files/2849.got.cif
#   From: 2010.03.12/outbox.cif.g09.slc.cpg/sg61_2_cif.got.tgz:2849.got - 2010.04.10 19:05:03.
