data_PCOD8248251
_publ_section_title
;
Structure prediction by ZEFSAII (Michael W. Deem and Ramdas Pophale) SiO2 
 PCOD8248251
Probable space group: P B C N
;
_chemical_formula_sum "Si O2"
_cell_formula_units_Z 40
_cell_length_a 4.729225
_cell_length_b 26.797475
_cell_length_c 11.356644
_cell_angle_alpha 90.000000
_cell_angle_beta 90.000000
_cell_angle_gamma 90.000000
_cell_volume 1439.242130
_symmetry_space_group_name_H-M "P B C N"
_symmetry_group_IT_number 60
_symmetry_cell_setting 'orthorhombic'
loop_
_space_group_symop_operation_xyz
x,y,z
1/2-x,1/2-y,1/2+z
1/2+x,1/2-y,-z
-x,y,1/2-z
-x,-y,-z
1/2+x,1/2+y,1/2-z
1/2-x,1/2+y,z
x,-y,1/2+z
loop_
_atom_site_type_symbol
_atom_site_label
_atom_site_fract_x
_atom_site_fract_y
_atom_site_fract_z
Si Si1 0.718572 0.282065 0.966406
Si Si2 0.288249 0.475129 0.591110
Si Si3 0.769202 0.407773 0.570724
Si Si4 0.611397 0.869354 0.128384
Si Si5 0.500000 0.828915 0.750000
Si Si6 0.500000 0.447021 0.250000
O O1 0.801249 0.293432 0.830970
O O2 0.401544 0.261260 0.970680
O O3 0.720309 0.331323 0.046530
O O4 0.500000 0.500000 0.500000
O O5 0.450294 0.421903 0.609397
O O6 0.268752 0.515243 0.695163
O O7 0.964983 0.458464 0.570428
O O8 0.828076 0.364188 0.662564
O O9 0.824863 0.387810 0.437931
O O10 0.500000 0.844901 0.250000
O O11 0.826653 0.914697 0.154194
#
# Coordination Sequence:
#
# PCOD8248251 Si02
#       6
#     8   8   8   8   4   4
#     4  11  29  50  78 108 138 181 236 303 371 443
#     4  12  24  42  67 101 148 191 247 284 333 414
#     4  11  25  47  68 103 144 197 242 289 345 416
#     4  11  27  44  72 102 144 185 234 296 363 426
#     4  10  26  49  78 104 146 186 240 295 366 436
#     4  12  26  39  70 104 146 192 230 291 354 406
#
# _framework density 27.792406
#
# number of rings (size 3 to 8) (size 9 to 14) (size 15 to 20)
#    0.000    0.800    2.000    3.000    8.400    6.400 
#    0.000    0.000    0.000    0.000    0.000    0.000 
#    0.000    0.000    0.000    0.000    0.000    0.000 
#
# Total GULP energy -495682.150030 kJ/mol
# GULP energy per Si atom -12392.053751 kJ/mol
# Density = 2.772915 g / cm^3
# Si number density = 27.792406 Si / 1000 Ang^3
#
#
#
# Elastic Constant Matrix: (Units=GPa)
#
#
# Indices 1 2 3 4 5 6 
#
# 1 76.2278 0.2320 0.5344 0.0000 0.0000 0.0000
# 2 0.2320 99.2853 33.0818 0.0000 0.0000 0.0000
# 3 0.5344 33.0818 147.8765 0.0000 0.0000 0.0000
# 4 0.0000 0.0000 0.0000 52.1791 0.0000 0.0000
# 5 0.0000 0.0000 0.0000 0.0000 18.7553 0.0000
# 6 0.0000 0.0000 0.0000 0.0000 0.0000 -41.3196
#
#
#
# Elastic Compliance Matrix: (Units=1/GPa)
#
#
# Indices 1 2 3 4 5 6 
#
# 1 0.013119 -0.000016 -0.000044 0.000000 0.000000 0.000000
# 2 -0.000016 0.010883 -0.002435 0.000000 0.000000 0.000000
# 3 -0.000044 -0.002435 0.007307 0.000000 0.000000 0.000000
# 4 0.000000 0.000000 0.000000 0.019165 0.000000 0.000000
# 5 0.000000 0.000000 0.000000 0.000000 0.053318 0.000000
# 6 0.000000 0.000000 0.000000 0.000000 0.000000 -0.024202
#
#
# Mechanical properties :
#
#
# Convention : Reuss Voigt Hill
#
# Bulk Modulus (GPa) = 37.99345 43.45402 40.72374
# Shear Modulus (GPa) = 53.55989 25.22572 39.39281
#
# Velocity S-wave (km/s) = 4.39468 3.01599 3.76891
# Velocity P-wave (km/s) = 6.28101 5.27232 5.79864
#
# Compressibility (1/GPa) = 0.02632033
#
# Stress axis : x y z
#
# Youngs Moduli (GPa) = 76.22573 91.88431 136.85090
#
# Poissons Ratio (x) = 0.00148 0.00600
# Poissons Ratio (y) = 0.00122 0.33319
# Poissons Ratio (z) = 0.00334 0.22371
#
# Static dielectric constant tensor:
#      x y z
#    x 4.297980 0.000000 0.000000 
#    y 0.000000 7.338770 0.000000 
#    z 0.000000 0.000000 5.200970 
# 
# 
# High freq. dielectric constant tensor:
#      x y z
#    x 2.126240 0.000000 0.000000 
#    y 0.000000 2.133330 0.000000 
#    z 0.000000 0.000000 2.131080 
# 
# From -- ./inp_files/9105.got.cif
#   From: 2010.03.12/outbox.cif.g09.slc.cpg/sg60_5_cif.got.tgz:9105.got - 2010.04.10 18:46:24.
