data_PCOD8248966
_publ_section_title
;
Structure prediction by ZEFSAII (Michael W. Deem and Ramdas Pophale) SiO2 
 PCOD8248966
Probable space group: P B C A
;
_chemical_formula_sum "Si O2"
_cell_formula_units_Z 40
_cell_length_a 8.185638
_cell_length_b 11.104125
_cell_length_c 18.438792
_cell_angle_alpha 90.000000
_cell_angle_beta 90.000000
_cell_angle_gamma 90.000000
_cell_volume 1675.981969
_symmetry_space_group_name_H-M "P B C A"
_symmetry_group_IT_number 61
_symmetry_cell_setting 'orthorhombic'
loop_
_space_group_symop_operation_xyz
x,y,z
1/2-x,-y,1/2+z
1/2+x,1/2-y,-z
-x,1/2+y,1/2-z
-x,-y,-z
1/2+x,y,1/2-z
1/2-x,1/2+y,z
x,1/2-y,1/2+z
loop_
_atom_site_type_symbol
_atom_site_label
_atom_site_fract_x
_atom_site_fract_y
_atom_site_fract_z
Si Si1 0.929714 0.913814 0.336399
Si Si2 0.731133 0.466378 0.724155
Si Si3 0.035377 0.348044 0.658628
Si Si4 0.124133 0.146361 0.993174
Si Si5 0.235622 0.600777 0.517767
O O1 0.022713 0.788016 0.332679
O O2 0.848806 0.928928 0.414525
O O3 0.794738 0.920883 0.272304
O O4 0.072166 0.011154 0.324834
O O5 0.682132 0.368013 0.784565
O O6 0.876046 0.428129 0.671093
O O7 0.105802 0.371300 0.579275
O O8 0.201646 0.278256 0.974176
O O9 0.230666 0.025754 0.970526
O O10 0.947073 0.136050 0.955315
#
# Coordination Sequence:
#
# PCOD8248966 Si02
#       5
#     8   8   8   8   8
#     4  10  20  38  60  90 123 161 202 254 309 363
#     4  10  20  36  60  90 121 164 196 252 302 379
#     4  10  20  38  58  89 123 159 204 251 306 369
#     4  10  22  44  63  92 126 162 211 260 312 370
#     4  10  22  44  64  91 124 164 208 262 308 373
#
# _framework density 23.866606999999998
#
# number of rings (size 3 to 8) (size 9 to 14) (size 15 to 20)
#    0.000    2.000    2.000    1.200    0.000    0.800 
#   18.000    0.000    0.000    0.000    0.000    0.000 
#    0.000    0.000    0.000    0.000    0.000    0.000 
#
# Total GULP energy -495537.819463 kJ/mol
# GULP energy per Si atom -12388.445487 kJ/mol
# Density = 2.381229 g / cm^3
# Si number density = 23.866607 Si / 1000 Ang^3
#
#
#
# Elastic Constant Matrix: (Units=GPa)
#
#
# Indices 1 2 3 4 5 6 
#
# 1 74.2643 19.7921 -10.7998 0.0000 0.0000 0.0000
# 2 19.7921 117.2535 -4.6483 0.0000 0.0000 0.0000
# 3 -10.7998 -4.6483 10.0321 0.0000 0.0000 0.0000
# 4 0.0000 0.0000 0.0000 14.0428 0.0000 0.0000
# 5 0.0000 0.0000 0.0000 0.0000 27.9813 0.0000
# 6 0.0000 0.0000 0.0000 0.0000 0.0000 32.2523
#
#
#
# Elastic Compliance Matrix: (Units=1/GPa)
#
#
# Indices 1 2 3 4 5 6 
#
# 1 0.016464 -0.002115 0.016744 0.000000 0.000000 0.000000
# 2 -0.002115 0.008960 0.001874 0.000000 0.000000 0.000000
# 3 0.016744 0.001874 0.118573 0.000000 0.000000 0.000000
# 4 0.000000 0.000000 0.000000 0.071211 0.000000 0.000000
# 5 0.000000 0.000000 0.000000 0.000000 0.035738 0.000000
# 6 0.000000 0.000000 0.000000 0.000000 0.000000 0.031006
#
#
# Mechanical properties :
#
#
# Convention : Reuss Voigt Hill
#
# Bulk Modulus (GPa) = 5.64963 23.35977 14.50470
# Shear Modulus (GPa) = 16.23655 28.00234 22.11945
#
# Velocity S-wave (km/s) = 2.61109 3.42904 3.04763
# Velocity P-wave (km/s) = 3.38566 5.04843 4.29822
#
# Compressibility (1/GPa) = 0.17700275
#
# Stress axis : x y z
#
# Youngs Moduli (GPa) = 60.73812 111.60840 8.43361
#
# Poissons Ratio (x) = 0.23609 -0.14121
# Poissons Ratio (y) = 0.12848 -0.01581
# Poissons Ratio (z) = -1.01699 -0.20919
#
# Static dielectric constant tensor:
#      x y z
#    x 4.282700 0.000000 0.000000 
#    y 0.000000 4.717570 0.000000 
#    z 0.000000 0.000000 3.964220 
# 
# 
# High freq. dielectric constant tensor:
#      x y z
#    x 1.949810 0.000000 0.000000 
#    y 0.000000 1.953150 0.000000 
#    z 0.000000 0.000000 1.922240 
# 
# From -- ./inp_files/2146.got.cif
#   From: 2010.03.12/outbox.cif.g09.slc.cpg/sg61_2_cif.got.tgz:2146.got - 2010.04.10 19:05:03.
