data_PCOD8248780
_publ_section_title
;
Structure prediction by ZEFSAII (Michael W. Deem and Ramdas Pophale) SiO2 
 PCOD8248780
Probable space group: P B C A
;
_chemical_formula_sum "Si O2"
_cell_formula_units_Z 56
_cell_length_a 5.139594
_cell_length_b 23.812907
_cell_length_c 25.886963
_cell_angle_alpha 90.000000
_cell_angle_beta 90.000000
_cell_angle_gamma 90.000000
_cell_volume 3168.271074
_symmetry_space_group_name_H-M "P B C A"
_symmetry_group_IT_number 61
_symmetry_cell_setting 'orthorhombic'
loop_
_space_group_symop_operation_xyz
x,y,z
1/2-x,-y,1/2+z
1/2+x,1/2-y,-z
-x,1/2+y,1/2-z
-x,-y,-z
1/2+x,y,1/2-z
1/2-x,1/2+y,z
x,1/2-y,1/2+z
loop_
_atom_site_type_symbol
_atom_site_label
_atom_site_fract_x
_atom_site_fract_y
_atom_site_fract_z
Si Si1 0.001571 0.786668 0.999054
Si Si2 0.710619 0.443359 0.275042
Si Si3 0.389453 0.893331 0.446311
Si Si4 0.600403 0.060374 0.894770
Si Si5 0.896979 0.609620 0.439406
Si Si6 0.587864 0.061625 0.110431
Si Si7 0.199986 0.433087 0.769677
O O1 0.964395 0.824175 0.946962
O O2 0.793539 0.736717 0.000246
O O3 0.964296 0.827138 0.049134
O O4 0.482156 0.414656 0.240861
O O5 0.647352 0.433483 0.334259
O O6 0.719024 0.509317 0.260557
O O7 0.627189 0.927783 0.422251
O O8 0.335404 0.917267 0.504156
O O9 0.127767 0.897477 0.412388
O O10 0.505433 0.998487 0.910307
O O11 0.141584 0.577591 0.415535
O O12 0.642068 0.605257 0.403255
O O13 0.633916 0.058043 0.171143
O O14 0.471400 0.399590 0.761026
#
# Coordination Sequence:
#
# PCOD8248780 Si02
#       7
#     8   8   8   8   8   8   8
#     4  10  20  42  63  72 105 140 176 248 286 314
#     4  10  19  32  49  73  99 154 203 211 248 293
#     4  10  24  36  51  86 106 143 196 208 272 349
#     4  12  21  33  54  75 123 158 174 223 254 314
#     4  10  24  36  51  86 106 143 196 208 272 349
#     4  12  21  33  54  75 123 158 174 223 254 314
#     4  10  19  32  49  73  99 154 203 211 248 293
#
# _framework density 17.675256000000001
#
# number of rings (size 3 to 8) (size 9 to 14) (size 15 to 20)
#    0.857    0.571    2.857    5.143    4.000    3.429 
#    0.000    0.000    0.000    0.000    0.000    0.000 
#    0.000   80.000    0.000    0.000    0.000    0.000 
#
# Total GULP energy -693892.022868 kJ/mol
# GULP energy per Si atom -12390.928980 kJ/mol
# Density = 1.763503 g / cm^3
# Si number density = 17.675256 Si / 1000 Ang^3
#
#
#
# Elastic Constant Matrix: (Units=GPa)
#
#
# Indices 1 2 3 4 5 6 
#
# 1 141.1232 4.1770 51.5269 0.0000 0.0000 0.0000
# 2 4.1770 37.5545 25.7725 0.0000 0.0000 0.0000
# 3 51.5269 25.7725 109.4246 0.0000 0.0000 0.0000
# 4 0.0000 0.0000 0.0000 3.3673 0.0000 0.0000
# 5 0.0000 0.0000 0.0000 0.0000 24.9326 0.0000
# 6 0.0000 0.0000 0.0000 0.0000 0.0000 29.9807
#
#
#
# Elastic Compliance Matrix: (Units=1/GPa)
#
#
# Indices 1 2 3 4 5 6 
#
# 1 0.008707 0.002201 -0.004619 0.000000 0.000000 0.000000
# 2 0.002201 0.032318 -0.008648 0.000000 0.000000 0.000000
# 3 -0.004619 -0.008648 0.013350 0.000000 0.000000 0.000000
# 4 0.000000 0.000000 0.000000 0.296971 0.000000 0.000000
# 5 0.000000 0.000000 0.000000 0.000000 0.040108 0.000000
# 6 0.000000 0.000000 0.000000 0.000000 0.000000 0.033355
#
#
# Mechanical properties :
#
#
# Convention : Reuss Voigt Hill
#
# Bulk Modulus (GPa) = 31.01315 50.11722 40.56518
# Shear Modulus (GPa) = 10.92443 25.43119 18.17781
#
# Velocity S-wave (km/s) = 2.48879 3.79727 3.21040
# Velocity P-wave (km/s) = 5.08359 6.90230 6.06154
#
# Compressibility (1/GPa) = 0.03224439
#
# Stress axis : x y z
#
# Youngs Moduli (GPa) = 114.84783 30.94227 74.90387
#
# Poissons Ratio (x) = -0.06811 0.34595
# Poissons Ratio (y) = -0.25279 0.64779
# Poissons Ratio (z) = 0.53043 0.26760
#
# Static dielectric constant tensor:
#      x y z
#    x 4.044940 0.000000 0.000000 
#    y 0.000000 2.887350 0.000000 
#    z 0.000000 0.000000 3.258080 
# 
# 
# High freq. dielectric constant tensor:
#      x y z
#    x 1.722140 0.000000 0.000000 
#    y 0.000000 1.623640 0.000000 
#    z 0.000000 0.000000 1.681670 
# 
# From -- ./inp_files/10747.got.cif
#   From: 2010.03.12/outbox.cif.g09.slc.cpg/sg61_6_cif.got.tgz:10747.got - 2010.04.10 19:05:03.
