data_PCOD8248866
_publ_section_title
;
Structure prediction by ZEFSAII (Michael W. Deem and Ramdas Pophale) SiO2 
 PCOD8248866
Probable space group: P B C A
;
_chemical_formula_sum "Si O2"
_cell_formula_units_Z 64
_cell_length_a 23.871411
_cell_length_b 14.263745
_cell_length_c 8.449095
_cell_angle_alpha 90.000000
_cell_angle_beta 90.000000
_cell_angle_gamma 90.000000
_cell_volume 2876.880679
_symmetry_space_group_name_H-M "P B C A"
_symmetry_group_IT_number 61
_symmetry_cell_setting 'orthorhombic'
loop_
_space_group_symop_operation_xyz
x,y,z
1/2-x,-y,1/2+z
1/2+x,1/2-y,-z
-x,1/2+y,1/2-z
-x,-y,-z
1/2+x,y,1/2-z
1/2-x,1/2+y,z
x,1/2-y,1/2+z
loop_
_atom_site_type_symbol
_atom_site_label
_atom_site_fract_x
_atom_site_fract_y
_atom_site_fract_z
Si Si1 0.320228 0.824278 0.085895
Si Si2 0.459526 0.365820 0.795111
Si Si3 0.831012 0.626321 0.274729
Si Si4 0.197178 0.685699 0.525215
Si Si5 0.613751 0.489593 0.362117
Si Si6 0.434484 0.980845 0.799689
Si Si7 0.573936 0.670119 0.862488
Si Si8 0.290569 0.121956 0.166662
O O1 0.336835 0.718058 0.118376
O O2 0.254299 0.851233 0.111677
O O3 0.362470 0.888176 0.192528
O O4 0.334728 0.841561 0.904922
O O5 0.416957 0.453493 0.775845
O O6 0.519345 0.402454 0.738148
O O7 0.438735 0.274090 0.701305
O O8 0.461386 0.339171 0.977685
O O9 0.879914 0.550787 0.301378
O O10 0.771881 0.579197 0.320928
O O11 0.140628 0.655303 0.615260
O O12 0.204168 0.797465 0.535238
O O13 0.191329 0.658265 0.341241
O O14 0.572831 0.482204 0.511863
O O15 0.670584 0.543093 0.408029
O O16 0.449460 0.087598 0.750861
#
# Coordination Sequence:
#
# PCOD8248866 Si02
#       8
#     8   8   8   8   8   8   8   8
#     4   9  21  37  62  90 130 170 208 261 328 387
#     4  12  26  45  66  97 129 173 218 274 321 381
#     4   9  21  42  59  93 130 170 212 263 319 382
#     4  10  19  38  60  92 124 164 210 261 320 379
#     4  11  22  41  63  96 129 168 215 263 333 382
#     4  11  27  43  66  95 132 173 224 264 322 392
#     4  12  24  43  68  93 124 167 220 270 322 382
#     4  10  20  37  63  93 130 161 211 260 323 380
#
# _framework density 22.246317999999999
#
# number of rings (size 3 to 8) (size 9 to 14) (size 15 to 20)
#    0.000    1.500    2.500    1.500    3.500    4.000 
#    0.000    0.000    0.000    0.000    0.000    0.000 
#    0.000    0.000    0.000    0.000    0.000    0.000 
#
# Total GULP energy -793176.945657 kJ/mol
# GULP energy per Si atom -12393.389776 kJ/mol
# Density = 2.219568 g / cm^3
# Si number density = 22.246318 Si / 1000 Ang^3
#
#
#
# Elastic Constant Matrix: (Units=GPa)
#
#
# Indices 1 2 3 4 5 6 
#
# 1 89.3714 25.5319 11.0883 0.0000 0.0000 0.0000
# 2 25.5319 60.6559 15.1036 0.0000 0.0000 0.0000
# 3 11.0883 15.1036 27.4844 0.0000 0.0000 0.0000
# 4 0.0000 0.0000 0.0000 24.4365 0.0000 0.0000
# 5 0.0000 0.0000 0.0000 0.0000 26.0068 0.0000
# 6 0.0000 0.0000 0.0000 0.0000 0.0000 43.6702
#
#
#
# Elastic Compliance Matrix: (Units=1/GPa)
#
#
# Indices 1 2 3 4 5 6 
#
# 1 0.012873 -0.004779 -0.002567 0.000000 0.000000 0.000000
# 2 -0.004779 0.020875 -0.009543 0.000000 0.000000 0.000000
# 3 -0.002567 -0.009543 0.042664 0.000000 0.000000 0.000000
# 4 0.000000 0.000000 0.000000 0.040922 0.000000 0.000000
# 5 0.000000 0.000000 0.000000 0.000000 0.038451 0.000000
# 6 0.000000 0.000000 0.000000 0.000000 0.000000 0.022899
#
#
# Mechanical properties :
#
#
# Convention : Reuss Voigt Hill
#
# Bulk Modulus (GPa) = 23.45616 31.21768 27.33692
# Shear Modulus (GPa) = 22.05805 27.20856 24.63331
#
# Velocity S-wave (km/s) = 3.15228 3.50102 3.33122
# Velocity P-wave (km/s) = 4.88016 5.51417 5.20682
#
# Compressibility (1/GPa) = 0.04263273
#
# Stress axis : x y z
#
# Youngs Moduli (GPa) = 77.68088 47.90532 23.43889
#
# Poissons Ratio (x) = 0.22896 0.06017
# Poissons Ratio (y) = 0.37127 0.22368
# Poissons Ratio (z) = 0.19941 0.45716
#
# Static dielectric constant tensor:
#      x y z
#    x 4.279730 0.000000 0.000000 
#    y 0.000000 4.213880 0.000000 
#    z 0.000000 0.000000 3.748720 
# 
# 
# High freq. dielectric constant tensor:
#      x y z
#    x 1.883890 0.000000 0.000000 
#    y 0.000000 1.879510 0.000000 
#    z 0.000000 0.000000 1.858680 
# 
# From -- ./inp_files/4336.got.cif
#   From: 2010.03.12/outbox.cif.g09.slc.cpg/sg61_3_cif.got.tgz:4336.got - 2010.04.10 19:05:03.
