data_PCOD8248682
_publ_section_title
;
Structure prediction by ZEFSAII (Michael W. Deem and Ramdas Pophale) SiO2 
 PCOD8248682
Probable space group: P B C N
;
_chemical_formula_sum "Si O2"
_cell_formula_units_Z 28
_cell_length_a 11.162715
_cell_length_b 10.978315
_cell_length_c 9.299551
_cell_angle_alpha 90.000000
_cell_angle_beta 90.000000
_cell_angle_gamma 90.000000
_cell_volume 1139.639530
_symmetry_space_group_name_H-M "P B C N"
_symmetry_group_IT_number 60
_symmetry_cell_setting 'orthorhombic'
loop_
_space_group_symop_operation_xyz
x,y,z
1/2-x,1/2-y,1/2+z
1/2+x,1/2-y,-z
-x,y,1/2-z
-x,-y,-z
1/2+x,1/2+y,1/2-z
1/2-x,1/2+y,z
x,-y,1/2+z
loop_
_atom_site_type_symbol
_atom_site_label
_atom_site_fract_x
_atom_site_fract_y
_atom_site_fract_z
Si Si1 0.000000 0.970947 0.250000
Si Si2 0.332613 0.284303 0.402332
Si Si3 0.763239 0.100784 0.335468
Si Si4 0.569146 0.084689 0.889612
O O1 0.933662 0.880362 0.141450
O O2 0.901235 0.058829 0.321793
O O3 0.235493 0.355930 0.500200
O O4 0.270562 0.209512 0.274775
O O5 0.392611 0.199883 0.521120
O O6 0.680093 0.984376 0.312594
O O7 0.500000 0.131906 0.750000
O O8 0.500000 0.000000 0.000000
#
# Coordination Sequence:
#
# PCOD8248682 Si02
#       4
#     4   8   8   8
#     4  12  28  54  76 122 162 204 274 330 394 490
#     4  12  27  49  81 109 157 205 262 317 407 462
#     4  12  28  51  78 116 156 207 263 334 397 480
#     4  12  26  49  76 108 154 202 261 327 395 474
#
# _framework density 24.569171999999998
#
# number of rings (size 3 to 8) (size 9 to 14) (size 15 to 20)
#    0.000    0.000    2.857    6.000    6.000    2.286 
#    0.000    0.000    0.000    0.000    0.000    0.000 
#    0.000    0.000    0.000    0.000    0.000    0.000 
#
# Total GULP energy -347054.797921 kJ/mol
# GULP energy per Si atom -12394.814211 kJ/mol
# Density = 2.451325 g / cm^3
# Si number density = 24.569172 Si / 1000 Ang^3
#
#
#
# Elastic Constant Matrix: (Units=GPa)
#
#
# Indices 1 2 3 4 5 6 
#
# 1 108.4311 38.0303 47.1016 0.0000 0.0000 0.0000
# 2 38.0303 103.3641 45.1260 0.0000 0.0000 0.0000
# 3 47.1016 45.1260 170.5488 0.0000 0.0000 0.0000
# 4 0.0000 0.0000 0.0000 55.1241 0.0000 0.0000
# 5 0.0000 0.0000 0.0000 0.0000 50.9763 0.0000
# 6 0.0000 0.0000 0.0000 0.0000 0.0000 31.7046
#
#
#
# Elastic Compliance Matrix: (Units=1/GPa)
#
#
# Indices 1 2 3 4 5 6 
#
# 1 0.011329 -0.003168 -0.002290 0.000000 0.000000 0.000000
# 2 -0.003168 0.011824 -0.002254 0.000000 0.000000 0.000000
# 3 -0.002290 -0.002254 0.007092 0.000000 0.000000 0.000000
# 4 0.000000 0.000000 0.000000 0.018141 0.000000 0.000000
# 5 0.000000 0.000000 0.000000 0.000000 0.019617 0.000000
# 6 0.000000 0.000000 0.000000 0.000000 0.000000 0.031541
#
#
# Mechanical properties :
#
#
# Convention : Reuss Voigt Hill
#
# Bulk Modulus (GPa) = 67.47377 71.42887 69.45132
# Shear Modulus (GPa) = 41.69854 44.36676 43.03265
#
# Velocity S-wave (km/s) = 4.12417 4.25407 4.18962
# Velocity P-wave (km/s) = 7.08525 7.29830 7.19256
#
# Compressibility (1/GPa) = 0.01482057
#
# Stress axis : x y z
#
# Youngs Moduli (GPa) = 88.27258 84.57355 140.99867
#
# Poissons Ratio (x) = 0.26794 0.32295
# Poissons Ratio (y) = 0.27966 0.31775
# Poissons Ratio (z) = 0.20218 0.19059
#
# Static dielectric constant tensor:
#      x y z
#    x 4.531040 0.000000 0.000000 
#    y 0.000000 4.415050 0.000000 
#    z 0.000000 0.000000 4.741100 
# 
# 
# High freq. dielectric constant tensor:
#      x y z
#    x 1.978280 0.000000 0.000000 
#    y 0.000000 2.001540 0.000000 
#    z 0.000000 0.000000 2.002240 
# 
# From -- ./inp_files/4426.got.cif
#   From: 2010.03.12/outbox.cif.g09.slc.cpg/sg60_3_cif.got.tgz:4426.got - 2010.04.10 18:46:24.
