data_PCOD8248026
_publ_section_title
;
Structure prediction by ZEFSAII (Michael W. Deem and Ramdas Pophale) SiO2 
 PCOD8248026
Probable space group: P B C N
;
_chemical_formula_sum "Si O2"
_cell_formula_units_Z 48
_cell_length_a 4.956853
_cell_length_b 16.586766
_cell_length_c 26.621418
_cell_angle_alpha 90.000000
_cell_angle_beta 90.000000
_cell_angle_gamma 90.000000
_cell_volume 2188.764026
_symmetry_space_group_name_H-M "P B C N"
_symmetry_group_IT_number 60
_symmetry_cell_setting 'orthorhombic'
loop_
_space_group_symop_operation_xyz
x,y,z
1/2-x,1/2-y,1/2+z
1/2+x,1/2-y,-z
-x,y,1/2-z
-x,-y,-z
1/2+x,1/2+y,1/2-z
1/2-x,1/2+y,z
x,-y,1/2+z
loop_
_atom_site_type_symbol
_atom_site_label
_atom_site_fract_x
_atom_site_fract_y
_atom_site_fract_z
Si Si1 0.286557 0.893780 0.872447
Si Si2 0.536012 0.357791 0.309103
Si Si3 0.532824 0.956621 0.190608
Si Si4 0.747208 0.450410 0.517275
Si Si5 0.284360 0.284470 0.629726
Si Si6 0.874372 0.283045 0.475892
O O1 0.208491 0.939387 0.923212
O O2 0.543520 0.841288 0.888220
O O3 0.038684 0.838661 0.851296
O O4 0.375368 0.957017 0.829944
O O5 0.500000 0.349529 0.250000
O O6 0.241670 0.386565 0.328090
O O7 0.651794 0.272391 0.327821
O O8 0.739313 0.428194 0.328043
O O9 0.500000 0.964934 0.250000
O O10 0.500000 0.500000 0.500000
O O11 0.738165 0.367576 0.487263
O O12 0.000000 0.500000 0.500000
O O13 0.389327 0.231282 0.583476
O O14 0.676990 0.217801 0.502135
#
# Coordination Sequence:
#
# PCOD8248026 Si02
#       6
#     8   8   8   8   8   8
#     4  12  25  43  64  99 134 170 225 270 332 395
#     4  10  23  44  68  96 126 166 220 269 329 398
#     4  10  23  44  67  93 129 169 212 272 332 390
#     4  12  26  41  63  96 133 175 222 274 320 398
#     4  12  24  42  67  97 131 175 216 277 331 394
#     4  12  23  44  63  91 137 176 214 267 334 387
#
# _framework density 21.930185000000002
#
# number of rings (size 3 to 8) (size 9 to 14) (size 15 to 20)
#    0.000    0.667    3.333    4.000    4.667    0.667 
#    0.000    1.667    0.000    0.000    0.000    0.000 
#    0.000    0.000    0.000    0.000    0.000    0.000 
#
# Total GULP energy -595073.929076 kJ/mol
# GULP energy per Si atom -12397.373522 kJ/mol
# Density = 2.188027 g / cm^3
# Si number density = 21.930185 Si / 1000 Ang^3
#
#
#
# Elastic Constant Matrix: (Units=GPa)
#
#
# Indices 1 2 3 4 5 6 
#
# 1 131.6277 38.1322 44.0838 0.0000 0.0000 0.0000
# 2 38.1322 108.9055 48.1162 0.0000 0.0000 0.0000
# 3 44.0838 48.1162 70.6689 0.0000 0.0000 0.0000
# 4 0.0000 0.0000 0.0000 28.8368 0.0000 0.0000
# 5 0.0000 0.0000 0.0000 0.0000 22.3137 0.0000
# 6 0.0000 0.0000 0.0000 0.0000 0.0000 42.8603
#
#
#
# Elastic Compliance Matrix: (Units=1/GPa)
#
#
# Indices 1 2 3 4 5 6 
#
# 1 0.009684 -0.001032 -0.005338 0.000000 0.000000 0.000000
# 2 -0.001032 0.013243 -0.008373 0.000000 0.000000 0.000000
# 3 -0.005338 -0.008373 0.023181 0.000000 0.000000 0.000000
# 4 0.000000 0.000000 0.000000 0.034678 0.000000 0.000000
# 5 0.000000 0.000000 0.000000 0.000000 0.044815 0.000000
# 6 0.000000 0.000000 0.000000 0.000000 0.000000 0.023332
#
#
# Mechanical properties :
#
#
# Convention : Reuss Voigt Hill
#
# Bulk Modulus (GPa) = 60.16177 63.54070 61.85124
# Shear Modulus (GPa) = 27.17982 30.86017 29.01999
#
# Velocity S-wave (km/s) = 3.52430 3.75534 3.64165
# Velocity P-wave (km/s) = 6.63730 6.91667 6.77843
#
# Compressibility (1/GPa) = 0.01662185
#
# Stress axis : x y z
#
# Youngs Moduli (GPa) = 103.26269 75.51194 43.13848
#
# Poissons Ratio (x) = 0.07795 0.23028
# Poissons Ratio (y) = 0.10660 0.36119
# Poissons Ratio (z) = 0.55123 0.63224
#
# Static dielectric constant tensor:
#      x y z
#    x 4.414660 0.000000 0.000000 
#    y 0.000000 4.116480 0.000000 
#    z 0.000000 0.000000 3.890260 
# 
# 
# High freq. dielectric constant tensor:
#      x y z
#    x 1.889930 0.000000 0.000000 
#    y 0.000000 1.867470 0.000000 
#    z 0.000000 0.000000 1.849620 
# 
# From -- ./inp_files/25665.got.cif
#   From: 2010.03.12/outbox.cif.g09.slc.cpg/sg60_13_cif.got.tgz:25665.got - 2010.04.10 18:46:24.
