data_PCOD8248508
_publ_section_title
;
Structure prediction by ZEFSAII (Michael W. Deem and Ramdas Pophale) SiO2 
 PCOD8248508
Probable space group: P B C N
;
_chemical_formula_sum "Si O2"
_cell_formula_units_Z 32
_cell_length_a 9.955649
_cell_length_b 12.988181
_cell_length_c 9.263485
_cell_angle_alpha 90.000000
_cell_angle_beta 90.000000
_cell_angle_gamma 90.000000
_cell_volume 1197.822072
_symmetry_space_group_name_H-M "P B C N"
_symmetry_group_IT_number 60
_symmetry_cell_setting 'orthorhombic'
loop_
_space_group_symop_operation_xyz
x,y,z
1/2-x,1/2-y,1/2+z
1/2+x,1/2-y,-z
-x,y,1/2-z
-x,-y,-z
1/2+x,1/2+y,1/2-z
1/2-x,1/2+y,z
x,-y,1/2+z
loop_
_atom_site_type_symbol
_atom_site_label
_atom_site_fract_x
_atom_site_fract_y
_atom_site_fract_z
Si Si1 0.681838 0.999982 0.958875
Si Si2 0.822123 0.282381 0.872972
Si Si3 0.958266 0.696276 0.914392
Si Si4 0.648389 0.591821 0.723871
O O1 0.654564 0.904600 0.849826
O O2 0.555518 0.078989 0.983569
O O3 0.781072 0.077852 0.878173
O O4 0.759078 0.957501 0.100782
O O5 0.669460 0.270086 0.927526
O O6 0.854040 0.218711 0.723747
O O7 0.923295 0.245650 0.000390
O O8 0.000000 0.679596 0.750000
O O9 0.500000 0.543960 0.750000
#
# Coordination Sequence:
#
# PCOD8248508 Si02
#       4
#     8   8   8   8
#     4  11  25  46  73 105 146 196 247 306 370 443
#     4  11  24  43  72 104 142 186 239 301 368 437
#     4  11  26  49  74 110 149 195 250 308 372 445
#     4  11  25  44  69 107 145 191 244 303 373 441
#
# _framework density 26.715152
#
# number of rings (size 3 to 8) (size 9 to 14) (size 15 to 20)
#    0.000    1.000    0.000    6.000    0.000   14.000 
#    0.000    0.000    0.000    0.000    0.000    0.000 
#    0.000    0.000    0.000    0.000    0.000    0.000 
#
# Total GULP energy -396426.681826 kJ/mol
# GULP energy per Si atom -12388.333807 kJ/mol
# Density = 2.665435 g / cm^3
# Si number density = 26.715152 Si / 1000 Ang^3
#
#
#
# Elastic Constant Matrix: (Units=GPa)
#
#
# Indices 1 2 3 4 5 6 
#
# 1 99.1597 29.2503 45.5373 0.0000 0.0000 0.0000
# 2 29.2503 121.7866 36.4520 0.0000 0.0000 0.0000
# 3 45.5373 36.4520 101.4751 0.0000 0.0000 0.0000
# 4 0.0000 0.0000 0.0000 125.4615 0.0000 0.0000
# 5 0.0000 0.0000 0.0000 0.0000 37.5946 0.0000
# 6 0.0000 0.0000 0.0000 0.0000 0.0000 -7.7933
#
#
#
# Elastic Compliance Matrix: (Units=1/GPa)
#
#
# Indices 1 2 3 4 5 6 
#
# 1 0.012954 -0.001537 -0.005261 0.000000 0.000000 0.000000
# 2 -0.001537 0.009383 -0.002681 0.000000 0.000000 0.000000
# 3 -0.005261 -0.002681 0.013179 0.000000 0.000000 0.000000
# 4 0.000000 0.000000 0.000000 0.007971 0.000000 0.000000
# 5 0.000000 0.000000 0.000000 0.000000 0.026600 0.000000
# 6 0.000000 0.000000 0.000000 0.000000 0.000000 -0.128315
#
#
# Mechanical properties :
#
#
# Convention : Reuss Voigt Hill
#
# Bulk Modulus (GPa) = 60.39378 60.54453 60.46915
# Shear Modulus (GPa) = -148.13549 45.13133 -51.50208
#
# Velocity S-wave (km/s) = -7.45455 4.11463 -4.39546
# Velocity P-wave (km/s) = 7.17204 6.72947 1.75391
#
# Compressibility (1/GPa) = 0.01655800
#
# Stress axis : x y z
#
# Youngs Moduli (GPa) = 77.19542 106.58103 75.88020
#
# Poissons Ratio (x) = 0.16377 0.39923
# Poissons Ratio (y) = 0.11861 0.20343
# Poissons Ratio (z) = 0.40615 0.28573
#
# Static dielectric constant tensor:
#      x y z
#    x 5.330520 0.000000 0.000000 
#    y 0.000000 5.011730 0.000000 
#    z 0.000000 0.000000 4.466170 
# 
# 
# High freq. dielectric constant tensor:
#      x y z
#    x 2.105130 0.000000 0.000000 
#    y 0.000000 2.086460 0.000000 
#    z 0.000000 0.000000 2.054210 
# 
# From -- ./inp_files/4497.got.cif
#   From: 2010.03.12/outbox.cif.g09.slc.cpg/sg60_3_cif.got.tgz:4497.got - 2010.04.10 18:46:24.
