data_PCOD8248743
_publ_section_title
;
Structure prediction by ZEFSAII (Michael W. Deem and Ramdas Pophale) SiO2 
 PCOD8248743
Probable space group: P B C A
;
_chemical_formula_sum "Si O2"
_cell_formula_units_Z 48
_cell_length_a 14.440186
_cell_length_b 8.841795
_cell_length_c 20.505717
_cell_angle_alpha 90.000000
_cell_angle_beta 90.000000
_cell_angle_gamma 90.000000
_cell_volume 2618.111800
_symmetry_space_group_name_H-M "P B C A"
_symmetry_group_IT_number 61
_symmetry_cell_setting 'orthorhombic'
loop_
_space_group_symop_operation_xyz
x,y,z
1/2-x,-y,1/2+z
1/2+x,1/2-y,-z
-x,1/2+y,1/2-z
-x,-y,-z
1/2+x,y,1/2-z
1/2-x,1/2+y,z
x,1/2-y,1/2+z
loop_
_atom_site_type_symbol
_atom_site_label
_atom_site_fract_x
_atom_site_fract_y
_atom_site_fract_z
Si Si1 0.792669 0.914111 0.831314
Si Si2 0.373160 0.403001 0.514050
Si Si3 0.424255 0.687842 0.275895
Si Si4 0.589977 0.000930 0.785491
Si Si5 0.250495 0.156122 0.576360
Si Si6 0.965417 0.972774 0.602857
O O1 0.857790 0.915029 0.768790
O O2 0.803411 0.756993 0.870180
O O3 0.687420 0.935229 0.807739
O O4 0.819006 0.048107 0.881636
O O5 0.309228 0.257341 0.526083
O O6 0.322564 0.557097 0.536123
O O7 0.395958 0.417542 0.436904
O O8 0.469853 0.380304 0.552240
O O9 0.402726 0.864804 0.267035
O O10 0.530108 0.640566 0.256840
O O11 0.406511 0.645372 0.352212
O O12 0.533775 0.066539 0.848706
#
# Coordination Sequence:
#
# PCOD8248743 Si02
#       6
#     8   8   8   8   8   8
#     4  11  19  34  58  83 111 145 192 234 274 347
#     4  10  19  36  58  75 111 146 193 223 277 336
#     4  10  21  35  58  83 114 142 190 237 285 334
#     4  10  21  36  56  85 109 152 185 230 293 336
#     4  10  18  33  58  82  99 147 194 223 272 336
#     4   9  20  36  55  77 112 152 175 232 282 336
#
# _framework density 18.333825000000001
#
# number of rings (size 3 to 8) (size 9 to 14) (size 15 to 20)
#    1.000    1.000    5.000    0.000    4.667    0.000 
#    3.000    0.000    3.667    9.000    0.000    0.000 
#    0.000    0.000    0.000    0.000    0.000    0.000 
#
# Total GULP energy -594672.795755 kJ/mol
# GULP energy per Si atom -12389.016578 kJ/mol
# Density = 1.829210 g / cm^3
# Si number density = 18.333825 Si / 1000 Ang^3
#
#
#
# Elastic Constant Matrix: (Units=GPa)
#
#
# Indices 1 2 3 4 5 6 
#
# 1 78.0216 20.2761 23.2731 0.0000 0.0000 0.0000
# 2 20.2761 72.1051 11.7761 0.0000 0.0000 0.0000
# 3 23.2731 11.7761 66.0789 0.0000 0.0000 0.0000
# 4 0.0000 0.0000 0.0000 22.3941 0.0000 0.0000
# 5 0.0000 0.0000 0.0000 0.0000 38.2868 0.0000
# 6 0.0000 0.0000 0.0000 0.0000 0.0000 17.4421
#
#
#
# Elastic Compliance Matrix: (Units=1/GPa)
#
#
# Indices 1 2 3 4 5 6 
#
# 1 0.015127 -0.003485 -0.004707 0.000000 0.000000 0.000000
# 2 -0.003485 0.015087 -0.001461 0.000000 0.000000 0.000000
# 3 -0.004707 -0.001461 0.017051 0.000000 0.000000 0.000000
# 4 0.000000 0.000000 0.000000 0.044655 0.000000 0.000000
# 5 0.000000 0.000000 0.000000 0.000000 0.026119 0.000000
# 6 0.000000 0.000000 0.000000 0.000000 0.000000 0.057332
#
#
# Mechanical properties :
#
#
# Convention : Reuss Voigt Hill
#
# Bulk Modulus (GPa) = 35.76578 36.31735 36.04157
# Shear Modulus (GPa) = 24.51022 26.34997 25.43009
#
# Velocity S-wave (km/s) = 3.66031 3.79520 3.72836
# Velocity P-wave (km/s) = 6.11672 6.24953 6.18348
#
# Compressibility (1/GPa) = 0.02795968
#
# Stress axis : x y z
#
# Youngs Moduli (GPa) = 66.10899 66.28095 58.64589
#
# Poissons Ratio (x) = 0.23099 0.27602
# Poissons Ratio (y) = 0.23039 0.08570
# Poissons Ratio (z) = 0.31114 0.09686
#
# Static dielectric constant tensor:
#      x y z
#    x 3.248740 0.000000 0.000000 
#    y 0.000000 3.231880 0.000000 
#    z 0.000000 0.000000 3.431360 
# 
# 
# High freq. dielectric constant tensor:
#      x y z
#    x 1.699530 0.000000 0.000000 
#    y 0.000000 1.696040 0.000000 
#    z 0.000000 0.000000 1.704030 
# 
# From -- ./inp_files/10413.got.cif
#   From: 2010.03.12/outbox.cif.g09.slc.cpg/sg61_6_cif.got.tgz:10413.got - 2010.04.10 19:05:03.
