data_PCOD8248408
_publ_section_title
;
Structure prediction by ZEFSAII (Michael W. Deem and Ramdas Pophale) SiO2 
 PCOD8248408
Probable space group: P B C N
;
_chemical_formula_sum "Si O2"
_cell_formula_units_Z 48
_cell_length_a 8.702610
_cell_length_b 14.641979
_cell_length_c 17.377969
_cell_angle_alpha 90.000000
_cell_angle_beta 90.000000
_cell_angle_gamma 90.000000
_cell_volume 2214.360466
_symmetry_space_group_name_H-M "P B C N"
_symmetry_group_IT_number 60
_symmetry_cell_setting 'orthorhombic'
loop_
_space_group_symop_operation_xyz
x,y,z
1/2-x,1/2-y,1/2+z
1/2+x,1/2-y,-z
-x,y,1/2-z
-x,-y,-z
1/2+x,1/2+y,1/2-z
1/2-x,1/2+y,z
x,-y,1/2+z
loop_
_atom_site_type_symbol
_atom_site_label
_atom_site_fract_x
_atom_site_fract_y
_atom_site_fract_z
Si Si1 0.322035 0.820732 0.144957
Si Si2 0.856020 0.893849 0.487609
Si Si3 0.681342 0.179561 0.250454
Si Si4 0.647485 0.240926 0.606272
Si Si5 0.818295 0.072411 0.575204
Si Si6 0.817243 0.475546 0.241077
O O1 0.242307 0.728661 0.173502
O O2 0.505057 0.807623 0.149055
O O3 0.257616 0.904497 0.195709
O O4 0.277522 0.841057 0.057231
O O5 0.908855 0.828169 0.557391
O O6 0.997967 0.913620 0.430282
O O7 0.779763 0.987376 0.519477
O O8 0.500000 0.182069 0.250000
O O9 0.737257 0.227352 0.172602
O O10 0.745650 0.076817 0.257294
O O11 0.732508 0.166520 0.550921
O O12 0.754739 0.053527 0.660106
O O13 0.000000 0.475782 0.250000
#
# Coordination Sequence:
#
# PCOD8248408 Si02
#       6
#     8   8   8   8   8   8
#     4  12  25  43  69 105 133 182 238 287 353 415
#     4  11  27  43  68 105 140 190 229 289 366 417
#     4  11  24  41  71 101 133 178 235 286 350 414
#     4  12  23  46  70  97 144 184 230 292 352 427
#     4  11  23  46  69  97 144 181 235 293 348 428
#     4  11  22  44  71  99 135 182 231 291 353 414
#
# _framework density 21.676686
#
# number of rings (size 3 to 8) (size 9 to 14) (size 15 to 20)
#    0.000    0.667    5.000    2.500    0.000    4.667 
#    3.000    0.000    0.000    0.000    0.000    0.000 
#    0.000    0.000    0.000    0.000    0.000    0.000 
#
# Total GULP energy -595211.334632 kJ/mol
# GULP energy per Si atom -12400.236138 kJ/mol
# Density = 2.162735 g / cm^3
# Si number density = 21.676686 Si / 1000 Ang^3
#
#
#
# Elastic Constant Matrix: (Units=GPa)
#
#
# Indices 1 2 3 4 5 6 
#
# 1 88.2566 36.8565 38.8335 0.0000 0.0000 0.0000
# 2 36.8565 146.3607 41.9106 0.0000 0.0000 0.0000
# 3 38.8335 41.9106 95.8876 0.0000 0.0000 0.0000
# 4 0.0000 0.0000 0.0000 30.5539 0.0000 0.0000
# 5 0.0000 0.0000 0.0000 0.0000 36.9832 0.0000
# 6 0.0000 0.0000 0.0000 0.0000 0.0000 31.4964
#
#
#
# Elastic Compliance Matrix: (Units=1/GPa)
#
#
# Indices 1 2 3 4 5 6 
#
# 1 0.014401 -0.002236 -0.004855 0.000000 0.000000 0.000000
# 2 -0.002236 0.008157 -0.002660 0.000000 0.000000 0.000000
# 3 -0.004855 -0.002660 0.013557 0.000000 0.000000 0.000000
# 4 0.000000 0.000000 0.000000 0.032729 0.000000 0.000000
# 5 0.000000 0.000000 0.000000 0.000000 0.027039 0.000000
# 6 0.000000 0.000000 0.000000 0.000000 0.000000 0.031750
#
#
# Mechanical properties :
#
#
# Convention : Reuss Voigt Hill
#
# Bulk Modulus (GPa) = 60.19009 62.85625 61.52317
# Shear Modulus (GPa) = 32.74989 34.00033 33.37511
#
# Velocity S-wave (km/s) = 3.89116 3.96475 3.92813
# Velocity P-wave (km/s) = 6.92933 7.07242 7.00124
#
# Compressibility (1/GPa) = 0.01661403
#
# Stress axis : x y z
#
# Youngs Moduli (GPa) = 69.44185 122.59165 73.76005
#
# Poissons Ratio (x) = 0.27414 0.35808
# Poissons Ratio (y) = 0.15529 0.19618
# Poissons Ratio (z) = 0.33712 0.32606
#
# Static dielectric constant tensor:
#      x y z
#    x 3.740540 0.000000 0.000000 
#    y 0.000000 4.578470 0.000000 
#    z 0.000000 0.000000 3.736890 
# 
# 
# High freq. dielectric constant tensor:
#      x y z
#    x 1.844290 0.000000 0.000000 
#    y 0.000000 1.881970 0.000000 
#    z 0.000000 0.000000 1.843150 
# 
# From -- ./inp_files/19306.got.cif
#   From: 2010.03.12/outbox.cif.g09.slc.cpg/sg60_10_cif.got.tgz:19306.got - 2010.04.10 18:46:24.
