data_PCOD8248588
_publ_section_title
;
Structure prediction by ZEFSAII (Michael W. Deem and Ramdas Pophale) SiO2 
 PCOD8248588
Probable space group: P B C N
;
_chemical_formula_sum "Si O2"
_cell_formula_units_Z 64
_cell_length_a 12.063701
_cell_length_b 9.021180
_cell_length_c 26.784586
_cell_angle_alpha 90.000000
_cell_angle_beta 90.000000
_cell_angle_gamma 90.000000
_cell_volume 2914.934840
_symmetry_space_group_name_H-M "P B C N"
_symmetry_group_IT_number 60
_symmetry_cell_setting 'orthorhombic'
loop_
_space_group_symop_operation_xyz
x,y,z
1/2-x,1/2-y,1/2+z
1/2+x,1/2-y,-z
-x,y,1/2-z
-x,-y,-z
1/2+x,1/2+y,1/2-z
1/2-x,1/2+y,z
x,-y,1/2+z
loop_
_atom_site_type_symbol
_atom_site_label
_atom_site_fract_x
_atom_site_fract_y
_atom_site_fract_z
Si Si1 0.395885 0.392976 0.495960
Si Si2 0.749731 0.272796 0.350470
Si Si3 0.979459 0.264242 0.807161
Si Si4 0.861359 0.904231 0.117650
Si Si5 0.526348 0.101954 0.954331
Si Si6 0.366668 0.242582 0.878945
Si Si7 0.472460 0.103996 0.693527
Si Si8 0.753486 0.488802 0.920116
O O1 0.500000 0.500000 0.500000
O O2 0.376632 0.347167 0.438905
O O3 0.410087 0.245863 0.527477
O O4 0.289791 0.468009 0.523223
O O5 0.652394 0.248946 0.311374
O O6 0.845523 0.360370 0.320648
O O7 0.701287 0.361078 0.398422
O O8 0.789548 0.123456 0.377464
O O9 0.009833 0.435338 0.818683
O O10 0.000000 0.218495 0.750000
O O11 0.043113 0.154666 0.845314
O O12 0.748114 0.832392 0.137330
O O13 0.854012 0.081747 0.113672
O O14 0.414138 0.155166 0.927263
O O15 0.611510 0.008980 0.919130
O O16 0.500000 0.000000 0.000000
O O17 0.453437 0.221664 0.835251
O O18 0.500000 0.140060 0.750000
#
# Coordination Sequence:
#
# PCOD8248588 Si02
#       8
#     8   8   8   8   8   8   8   8
#     4  12  26  44  69 105 144 189 242 294 357 431
#     4  12  24  46  76 106 139 190 242 304 359 438
#     4  11  27  50  76 109 143 188 244 305 373 432
#     4  12  29  46  75 105 150 189 241 303 360 446
#     4  12  27  44  70 101 143 194 245 294 360 434
#     4  12  26  50  69 106 145 192 239 295 371 428
#     4  11  26  49  76 106 145 187 239 307 372 438
#     4  12  25  44  71 104 143 187 244 294 359 433
#
# _framework density 21.955895000000002
#
# number of rings (size 3 to 8) (size 9 to 14) (size 15 to 20)
#    0.000    0.250    5.000    2.250   12.250    0.500 
#    0.000    0.000    0.000    0.000    0.000    0.000 
#    0.000    0.000    0.000    0.000    0.000    0.000 
#
# Total GULP energy -793362.287259 kJ/mol
# GULP energy per Si atom -12396.285738 kJ/mol
# Density = 2.190592 g / cm^3
# Si number density = 21.955895 Si / 1000 Ang^3
#
#
#
# Elastic Constant Matrix: (Units=GPa)
#
#
# Indices 1 2 3 4 5 6 
#
# 1 91.9176 37.1414 43.7833 0.0000 0.0000 0.0000
# 2 37.1414 73.6463 19.9840 0.0000 0.0000 0.0000
# 3 43.7833 19.9840 121.7073 0.0000 0.0000 0.0000
# 4 0.0000 0.0000 0.0000 31.9929 0.0000 0.0000
# 5 0.0000 0.0000 0.0000 0.0000 41.1135 0.0000
# 6 0.0000 0.0000 0.0000 0.0000 0.0000 37.0298
#
#
#
# Elastic Compliance Matrix: (Units=1/GPa)
#
#
# Indices 1 2 3 4 5 6 
#
# 1 0.015769 -0.006712 -0.004571 0.000000 0.000000 0.000000
# 2 -0.006712 0.017069 -0.000388 0.000000 0.000000 0.000000
# 3 -0.004571 -0.000388 0.009924 0.000000 0.000000 0.000000
# 4 0.000000 0.000000 0.000000 0.031257 0.000000 0.000000
# 5 0.000000 0.000000 0.000000 0.000000 0.024323 0.000000
# 6 0.000000 0.000000 0.000000 0.000000 0.000000 0.027005
#
#
# Mechanical properties :
#
#
# Convention : Reuss Voigt Hill
#
# Bulk Modulus (GPa) = 51.49244 54.34320 52.91782
# Shear Modulus (GPa) = 32.22443 34.45141 33.33792
#
# Velocity S-wave (km/s) = 3.83520 3.96551 3.90090
# Velocity P-wave (km/s) = 6.56622 6.76549 6.66660
#
# Compressibility (1/GPa) = 0.01942033
#
# Stress axis : x y z
#
# Youngs Moduli (GPa) = 63.41706 58.58637 100.76230
#
# Poissons Ratio (x) = 0.39325 0.46054
# Poissons Ratio (y) = 0.42567 0.03909
# Poissons Ratio (z) = 0.28985 0.02273
#
# Static dielectric constant tensor:
#      x y z
#    x 3.291260 0.000000 0.000000 
#    y 0.000000 3.890010 0.000000 
#    z 0.000000 0.000000 4.120450 
# 
# 
# High freq. dielectric constant tensor:
#      x y z
#    x 1.864960 0.000000 0.000000 
#    y 0.000000 1.877820 0.000000 
#    z 0.000000 0.000000 1.869280 
# 
# From -- ./inp_files/26104.got.cif
#   From: 2010.03.12/outbox.cif.g09.slc.cpg/sg60_14_cif.got.tgz:26104.got - 2010.04.10 18:46:24.
