data_PCOD8248710
_publ_section_title
;
Structure prediction by ZEFSAII (Michael W. Deem and Ramdas Pophale) SiO2 
 PCOD8248710
Probable space group: P B C A
;
_chemical_formula_sum "Si O2"
_cell_formula_units_Z 48
_cell_length_a 13.365088
_cell_length_b 17.414845
_cell_length_c 12.773038
_cell_angle_alpha 90.000000
_cell_angle_beta 90.000000
_cell_angle_gamma 90.000000
_cell_volume 2972.936549
_symmetry_space_group_name_H-M "P B C A"
_symmetry_group_IT_number 61
_symmetry_cell_setting 'orthorhombic'
loop_
_space_group_symop_operation_xyz
x,y,z
1/2-x,-y,1/2+z
1/2+x,1/2-y,-z
-x,1/2+y,1/2-z
-x,-y,-z
1/2+x,y,1/2-z
1/2-x,1/2+y,z
x,1/2-y,1/2+z
loop_
_atom_site_type_symbol
_atom_site_label
_atom_site_fract_x
_atom_site_fract_y
_atom_site_fract_z
Si Si1 0.370473 0.826106 0.256907
Si Si2 0.380701 0.560431 0.923786
Si Si3 0.694829 0.702708 0.883587
Si Si4 0.929791 0.248873 0.690708
Si Si5 0.261046 0.186737 0.938159
Si Si6 0.428324 0.392282 0.953238
O O1 0.411269 0.905872 0.308397
O O2 0.283369 0.844175 0.172984
O O3 0.456809 0.778647 0.201098
O O4 0.318147 0.777633 0.352579
O O5 0.272889 0.597883 0.956680
O O6 0.370946 0.469076 0.916395
O O7 0.460057 0.586478 0.011640
O O8 0.622814 0.747680 0.803401
O O9 0.747218 0.766563 0.955257
O O10 0.630345 0.642621 0.948866
O O11 0.872990 0.192114 0.609431
O O12 0.930110 0.334921 0.645030
#
# Coordination Sequence:
#
# PCOD8248710 Si02
#       6
#     8   8   8   8   8   8
#     4   9  18  31  52  74 101 133 168 207 250 305
#     4   9  18  34  49  74 105 133 166 204 262 295
#     4  10  17  33  52  75  98 133 171 209 252 291
#     4  10  18  31  54  76  96 131 178 206 246 306
#     4   8  18  31  50  73 100 131 168 209 248 298
#     4  10  19  32  54  77 103 134 168 210 253 309
#
# _framework density 16.145651999999998
#
# number of rings (size 3 to 8) (size 9 to 14) (size 15 to 20)
#    1.000    1.667    1.667    1.000    0.000    0.000 
#    3.000    0.000   14.667    1.000    0.000    0.000 
#    0.000    0.000    0.000    0.000    0.000    0.000 
#
# Total GULP energy -594684.863351 kJ/mol
# GULP energy per Si atom -12389.267986 kJ/mol
# Density = 1.610890 g / cm^3
# Si number density = 16.145652 Si / 1000 Ang^3
#
#
#
# Elastic Constant Matrix: (Units=GPa)
#
#
# Indices 1 2 3 4 5 6 
#
# 1 72.4826 35.6006 28.4699 0.0000 0.0000 0.0000
# 2 35.6006 111.1211 48.7597 0.0000 0.0000 0.0000
# 3 28.4699 48.7597 85.3819 0.0000 0.0000 0.0000
# 4 0.0000 0.0000 0.0000 24.7524 0.0000 0.0000
# 5 0.0000 0.0000 0.0000 0.0000 19.4954 0.0000
# 6 0.0000 0.0000 0.0000 0.0000 0.0000 21.9846
#
#
#
# Elastic Compliance Matrix: (Units=1/GPa)
#
#
# Indices 1 2 3 4 5 6 
#
# 1 0.017095 -0.003971 -0.003433 0.000000 0.000000 0.000000
# 2 -0.003971 0.012931 -0.006060 0.000000 0.000000 0.000000
# 3 -0.003433 -0.006060 0.016318 0.000000 0.000000 0.000000
# 4 0.000000 0.000000 0.000000 0.040400 0.000000 0.000000
# 5 0.000000 0.000000 0.000000 0.000000 0.051294 0.000000
# 6 0.000000 0.000000 0.000000 0.000000 0.000000 0.045486
#
#
# Mechanical properties :
#
#
# Convention : Reuss Voigt Hill
#
# Bulk Modulus (GPa) = 51.50435 54.96068 53.23251
# Shear Modulus (GPa) = 23.04965 23.65683 23.35324
#
# Velocity S-wave (km/s) = 3.78247 3.83196 3.80730
# Velocity P-wave (km/s) = 7.14459 7.32755 7.23665
#
# Compressibility (1/GPa) = 0.01941584
#
# Stress axis : x y z
#
# Youngs Moduli (GPa) = 58.49707 77.33620 61.28338
#
# Poissons Ratio (x) = 0.30707 0.21036
# Poissons Ratio (y) = 0.23227 0.37140
# Poissons Ratio (z) = 0.20080 0.46869
#
# Static dielectric constant tensor:
#      x y z
#    x 3.027630 0.000000 0.000000 
#    y 0.000000 2.862210 0.000000 
#    z 0.000000 0.000000 3.097190 
# 
# 
# High freq. dielectric constant tensor:
#      x y z
#    x 1.622630 0.000000 0.000000 
#    y 0.000000 1.590640 0.000000 
#    z 0.000000 0.000000 1.624940 
# 
# From -- ./inp_files/5873.got.cif
#   From: 2010.03.12/outbox.cif.g09.slc.cpg/sg61_3_cif.got.tgz:5873.got - 2010.04.10 19:05:03.
