data_PCOD8248362
_publ_section_title
;
Structure prediction by ZEFSAII (Michael W. Deem and Ramdas Pophale) SiO2 
 PCOD8248362
Probable space group: P B C N
;
_chemical_formula_sum "Si O2"
_cell_formula_units_Z 64
_cell_length_a 23.175363
_cell_length_b 15.313646
_cell_length_c 8.689296
_cell_angle_alpha 90.000000
_cell_angle_beta 90.000000
_cell_angle_gamma 90.000000
_cell_volume 3083.825111
_symmetry_space_group_name_H-M "P B C N"
_symmetry_group_IT_number 60
_symmetry_cell_setting 'orthorhombic'
loop_
_space_group_symop_operation_xyz
x,y,z
1/2-x,1/2-y,1/2+z
1/2+x,1/2-y,-z
-x,y,1/2-z
-x,-y,-z
1/2+x,1/2+y,1/2-z
1/2-x,1/2+y,z
x,-y,1/2+z
loop_
_atom_site_type_symbol
_atom_site_label
_atom_site_fract_x
_atom_site_fract_y
_atom_site_fract_z
Si Si1 0.635822 0.914674 0.081684
Si Si2 0.881541 0.098975 0.083746
Si Si3 0.142552 0.408253 0.055718
Si Si4 0.251776 0.650577 0.058097
Si Si5 0.562174 0.762198 0.940144
Si Si6 0.746214 0.659404 0.080372
Si Si7 0.571463 0.754416 0.587689
Si Si8 0.622593 0.585965 0.445092
O O1 0.640327 0.917081 0.263151
O O2 0.698844 0.902401 0.010790
O O3 0.592396 0.838844 0.034424
O O4 0.611952 0.007653 0.021234
O O5 0.817259 0.127285 0.037163
O O6 0.889873 0.092653 0.265230
O O7 0.897384 0.007740 0.005497
O O8 0.925878 0.170052 0.020117
O O9 0.208956 0.405299 0.001578
O O10 0.110993 0.320160 0.007006
O O11 0.242701 0.660566 0.238841
O O12 0.256111 0.744264 0.981371
O O13 0.309901 0.598470 0.018205
O O14 0.586741 0.762025 0.767393
O O15 0.494340 0.779311 0.943964
O O16 0.584184 0.656713 0.533300
#
# Coordination Sequence:
#
# PCOD8248362 Si02
#       8
#     8   8   8   8   8   8   8   8
#     4  12  25  42  66  96 130 170 212 261 317 378
#     4  11  24  41  65  96 129 169 211 258 316 375
#     4  12  25  42  66  96 130 170 212 261 317 378
#     4  11  22  38  64  97 132 169 209 257 315 378
#     4  11  25  45  68  93 124 165 214 268 321 377
#     4  11  22  38  64  97 132 169 209 257 315 378
#     4  11  25  45  68  93 124 165 214 268 321 377
#     4  11  24  41  65  96 129 169 211 258 316 375
#
# _framework density 20.753447000000001
#
# number of rings (size 3 to 8) (size 9 to 14) (size 15 to 20)
#    0.000    0.750    2.500    5.250    0.000    8.000 
#    0.000    0.000    0.000    0.000    0.000    0.000 
#    0.000    0.000    0.000    0.000    0.000    0.000 
#
# Total GULP energy -794110.680915 kJ/mol
# GULP energy per Si atom -12407.979389 kJ/mol
# Density = 2.070621 g / cm^3
# Si number density = 20.753447 Si / 1000 Ang^3
#
#
#
# Elastic Constant Matrix: (Units=GPa)
#
#
# Indices 1 2 3 4 5 6 
#
# 1 49.9329 -7.8886 11.2735 0.0000 0.0000 0.0000
# 2 -7.8886 91.4733 -7.3896 0.0000 0.0000 0.0000
# 3 11.2735 -7.3896 81.3519 0.0000 0.0000 0.0000
# 4 0.0000 0.0000 0.0000 39.2900 0.0000 0.0000
# 5 0.0000 0.0000 0.0000 0.0000 27.8534 0.0000
# 6 0.0000 0.0000 0.0000 0.0000 0.0000 9.5910
#
#
#
# Elastic Compliance Matrix: (Units=1/GPa)
#
#
# Indices 1 2 3 4 5 6 
#
# 1 0.020898 0.001580 -0.002752 0.000000 0.000000 0.000000
# 2 0.001580 0.011132 0.000792 0.000000 0.000000 0.000000
# 3 -0.002752 0.000792 0.012746 0.000000 0.000000 0.000000
# 4 0.000000 0.000000 0.000000 0.025452 0.000000 0.000000
# 5 0.000000 0.000000 0.000000 0.000000 0.035902 0.000000
# 6 0.000000 0.000000 0.000000 0.000000 0.000000 0.104264
#
#
# Mechanical properties :
#
#
# Convention : Reuss Voigt Hill
#
# Bulk Modulus (GPa) = 22.71934 23.86095 23.29015
# Shear Modulus (GPa) = 22.14088 30.46441 26.30265
#
# Velocity S-wave (km/s) = 3.26982 3.83550 3.56390
# Velocity P-wave (km/s) = 5.02261 5.58006 5.30866
#
# Compressibility (1/GPa) = 0.04401537
#
# Stress axis : x y z
#
# Youngs Moduli (GPa) = 47.85168 89.82783 78.45797
#
# Poissons Ratio (x) = -0.14192 0.21595
# Poissons Ratio (y) = -0.07560 -0.06216
# Poissons Ratio (z) = 0.13171 -0.07117
#
# Static dielectric constant tensor:
#      x y z
#    x 3.763410 0.000000 0.000000 
#    y 0.000000 3.861870 0.000000 
#    z 0.000000 0.000000 3.900800 
# 
# 
# High freq. dielectric constant tensor:
#      x y z
#    x 1.808160 0.000000 0.000000 
#    y 0.000000 1.829090 0.000000 
#    z 0.000000 0.000000 1.830260 
# 
# From -- ./inp_files/7975.got.cif
#   From: 2010.03.12/outbox.cif.g09.slc.cpg/sg60_4_cif.got.tgz:7975.got - 2010.04.10 18:46:24.
