data_PCOD8248507
_publ_section_title
;
Structure prediction by ZEFSAII (Michael W. Deem and Ramdas Pophale) SiO2 
 PCOD8248507
Probable space group: P B C N
;
_chemical_formula_sum "Si O2"
_cell_formula_units_Z 56
_cell_length_a 13.212164
_cell_length_b 14.034702
_cell_length_c 14.331388
_cell_angle_alpha 90.000000
_cell_angle_beta 90.000000
_cell_angle_gamma 90.000000
_cell_volume 2657.451857
_symmetry_space_group_name_H-M "P B C N"
_symmetry_group_IT_number 60
_symmetry_cell_setting 'orthorhombic'
loop_
_space_group_symop_operation_xyz
x,y,z
1/2-x,1/2-y,1/2+z
1/2+x,1/2-y,-z
-x,y,1/2-z
-x,-y,-z
1/2+x,1/2+y,1/2-z
1/2-x,1/2+y,z
x,-y,1/2+z
loop_
_atom_site_type_symbol
_atom_site_label
_atom_site_fract_x
_atom_site_fract_y
_atom_site_fract_z
Si Si1 0.269585 0.779579 0.758769
Si Si2 0.966346 0.811671 0.535533
Si Si3 0.826061 0.330036 0.941536
Si Si4 0.715311 0.562374 0.108407
Si Si5 0.110539 0.532539 0.530394
Si Si6 0.652771 0.650000 0.583935
Si Si7 0.077619 0.692074 0.678680
O O1 0.323799 0.781392 0.659145
O O2 0.237899 0.885123 0.793885
O O3 0.342226 0.725739 0.831917
O O4 0.167671 0.720534 0.746999
O O5 0.921144 0.712052 0.497733
O O6 0.876108 0.885940 0.553485
O O7 0.039533 0.856278 0.456836
O O8 0.028978 0.785744 0.629033
O O9 0.835732 0.441934 0.923808
O O10 0.724547 0.311239 0.000929
O O11 0.685277 0.452677 0.124242
O O12 0.821602 0.569724 0.054555
O O13 0.112216 0.616132 0.604109
O O14 0.000000 0.500000 0.500000
O O15 0.000000 0.642803 0.750000
#
# Coordination Sequence:
#
# PCOD8248507 Si02
#       7
#     8   8   8   8   8   8   8
#     4  12  25  44  69 105 142 180 235 294 349 420
#     4  12  22  47  70  98 139 190 226 285 362 421
#     4  11  24  43  70  99 139 184 223 289 354 409
#     4  11  25  45  70 102 137 184 239 286 347 431
#     4  11  25  44  70 102 139 183 234 288 359 418
#     4  11  25  46  70 101 140 184 232 289 354 414
#     4  12  23  41  70  98 135 184 235 281 348 424
#
# _framework density 21.072818000000002
#
# number of rings (size 3 to 8) (size 9 to 14) (size 15 to 20)
#    0.000    0.571    5.714    2.143    4.000    0.571 
#    0.000    1.429    0.000    0.000    0.000    0.000 
#    0.000    0.000    0.000    0.000    0.000    0.000 
#
# Total GULP energy -694535.156586 kJ/mol
# GULP energy per Si atom -12402.413510 kJ/mol
# Density = 2.102486 g / cm^3
# Si number density = 21.072818 Si / 1000 Ang^3
#
#
#
# Elastic Constant Matrix: (Units=GPa)
#
#
# Indices 1 2 3 4 5 6 
#
# 1 79.0866 2.4810 16.2807 0.0000 0.0000 0.0000
# 2 2.4810 81.2513 24.3776 0.0000 0.0000 0.0000
# 3 16.2807 24.3776 85.1406 0.0000 0.0000 0.0000
# 4 0.0000 0.0000 0.0000 29.6398 0.0000 0.0000
# 5 0.0000 0.0000 0.0000 0.0000 34.2122 0.0000
# 6 0.0000 0.0000 0.0000 0.0000 0.0000 33.6673
#
#
#
# Elastic Compliance Matrix: (Units=1/GPa)
#
#
# Indices 1 2 3 4 5 6 
#
# 1 0.013174 0.000387 -0.002630 0.000000 0.000000 0.000000
# 2 0.000387 0.013475 -0.003932 0.000000 0.000000 0.000000
# 3 -0.002630 -0.003932 0.013374 0.000000 0.000000 0.000000
# 4 0.000000 0.000000 0.000000 0.033738 0.000000 0.000000
# 5 0.000000 0.000000 0.000000 0.000000 0.029229 0.000000
# 6 0.000000 0.000000 0.000000 0.000000 0.000000 0.029702
#
#
# Mechanical properties :
#
#
# Convention : Reuss Voigt Hill
#
# Bulk Modulus (GPa) = 36.13698 36.86188 36.49943
# Shear Modulus (GPa) = 32.41111 32.99315 32.70213
#
# Velocity S-wave (km/s) = 3.92606 3.96115 3.94364
# Velocity P-wave (km/s) = 6.14310 6.20093 6.17209
#
# Compressibility (1/GPa) = 0.02767249
#
# Stress axis : x y z
#
# Youngs Moduli (GPa) = 75.90936 74.20886 74.77161
#
# Poissons Ratio (x) = -0.02870 0.19664
# Poissons Ratio (y) = -0.02936 0.29402
# Poissons Ratio (z) = 0.19963 0.29181
#
# Static dielectric constant tensor:
#      x y z
#    x 3.928690 0.000000 0.000000 
#    y 0.000000 3.879360 0.000000 
#    z 0.000000 0.000000 3.899480 
# 
# 
# High freq. dielectric constant tensor:
#      x y z
#    x 1.835350 0.000000 0.000000 
#    y 0.000000 1.829130 0.000000 
#    z 0.000000 0.000000 1.824110 
# 
# From -- ./inp_files/16135.got.cif
#   From: 2010.03.12/outbox.cif.g09.slc.cpg/sg60_9_cif.got.tgz:16135.got - 2010.04.10 18:46:24.
