data_PCOD8248130
_publ_section_title
;
Structure prediction by ZEFSAII (Michael W. Deem and Ramdas Pophale) SiO2 
 PCOD8248130
Probable space group: P B C N
;
_chemical_formula_sum "Si O2"
_cell_formula_units_Z 60
_cell_length_a 17.399526
_cell_length_b 10.015310
_cell_length_c 15.589459
_cell_angle_alpha 90.000000
_cell_angle_beta 90.000000
_cell_angle_gamma 90.000000
_cell_volume 2716.644797
_symmetry_space_group_name_H-M "P B C N"
_symmetry_group_IT_number 60
_symmetry_cell_setting 'orthorhombic'
loop_
_space_group_symop_operation_xyz
x,y,z
1/2-x,1/2-y,1/2+z
1/2+x,1/2-y,-z
-x,y,1/2-z
-x,-y,-z
1/2+x,1/2+y,1/2-z
1/2-x,1/2+y,z
x,-y,1/2+z
loop_
_atom_site_type_symbol
_atom_site_label
_atom_site_fract_x
_atom_site_fract_y
_atom_site_fract_z
Si Si1 0.308745 0.461447 0.843086
Si Si2 0.000000 0.327756 0.750000
Si Si3 0.132311 0.563389 0.351205
Si Si4 0.625154 0.674440 0.540006
Si Si5 0.461935 0.662033 0.581357
Si Si6 0.817748 0.943168 0.339037
Si Si7 0.866352 0.712318 0.557770
Si Si8 0.256204 0.306666 0.587617
O O1 0.220342 0.430277 0.821206
O O2 0.313388 0.574657 0.915980
O O3 0.346480 0.523382 0.756833
O O4 0.353193 0.327984 0.871404
O O5 0.926431 0.420171 0.728044
O O6 0.972725 0.237515 0.828955
O O7 0.115420 0.683718 0.415265
O O8 0.113488 0.423574 0.395103
O O9 0.542404 0.598322 0.548073
O O10 0.654683 0.708858 0.443731
O O11 0.392665 0.555550 0.597787
O O12 0.437764 0.760288 0.504669
O O13 0.773093 0.801500 0.343458
O O14 0.753177 0.048857 0.368529
O O15 0.790793 0.702008 0.499953
#
# Coordination Sequence:
#
# PCOD8248130 Si02
#       8
#     8   4   8   8   8   8   8   8
#     4  12  24  42  69  97 135 180 216 282 335 407
#     4  10  24  42  68  96 140 180 220 272 356 394
#     4  11  22  42  66  98 130 178 223 275 331 407
#     4  11  22  43  73  90 129 182 223 267 342 401
#     4  10  24  45  66  97 136 179 222 274 338 420
#     4  11  26  39  64  99 136 169 223 282 340 396
#     4  11  24  42  67  99 135 171 228 277 331 403
#     4  11  22  41  63  98 126 173 225 279 326 403
#
# _framework density 22.086067
#
# number of rings (size 3 to 8) (size 9 to 14) (size 15 to 20)
#    0.000    1.067    2.667    4.000    7.467    4.267 
#    2.400    1.333    0.000    0.000    0.000    0.000 
#    0.000    0.000    0.000    0.000    0.000    0.000 
#
# Total GULP energy -743789.076938 kJ/mol
# GULP energy per Si atom -12396.484616 kJ/mol
# Density = 2.203580 g / cm^3
# Si number density = 22.086067 Si / 1000 Ang^3
#
#
#
# Elastic Constant Matrix: (Units=GPa)
#
#
# Indices 1 2 3 4 5 6 
#
# 1 107.1284 22.1271 20.4115 0.0000 0.0000 0.0000
# 2 22.1271 89.9597 -2.9533 0.0000 0.0000 0.0000
# 3 20.4115 -2.9533 39.4595 0.0000 0.0000 0.0000
# 4 0.0000 0.0000 0.0000 20.8877 0.0000 0.0000
# 5 0.0000 0.0000 0.0000 0.0000 34.0735 0.0000
# 6 0.0000 0.0000 0.0000 0.0000 0.0000 29.9847
#
#
#
# Elastic Compliance Matrix: (Units=1/GPa)
#
#
# Indices 1 2 3 4 5 6 
#
# 1 0.011070 -0.002918 -0.005945 0.000000 0.000000 0.000000
# 2 -0.002918 0.011913 0.002401 0.000000 0.000000 0.000000
# 3 -0.005945 0.002401 0.028597 0.000000 0.000000 0.000000
# 4 0.000000 0.000000 0.000000 0.047875 0.000000 0.000000
# 5 0.000000 0.000000 0.000000 0.000000 0.029348 0.000000
# 6 0.000000 0.000000 0.000000 0.000000 0.000000 0.033350
#
#
# Mechanical properties :
#
#
# Convention : Reuss Voigt Hill
#
# Bulk Modulus (GPa) = 25.86884 35.07978 30.47431
# Shear Modulus (GPa) = 26.60110 30.12001 28.36056
#
# Velocity S-wave (km/s) = 3.47425 3.69691 3.58731
# Velocity P-wave (km/s) = 5.27561 5.84299 5.56654
#
# Compressibility (1/GPa) = 0.03865655
#
# Stress axis : x y z
#
# Youngs Moduli (GPa) = 90.33473 83.94442 34.96850
#
# Poissons Ratio (x) = 0.24495 0.20787
# Poissons Ratio (y) = 0.26360 -0.08396
# Poissons Ratio (z) = 0.53701 -0.20155
#
# Static dielectric constant tensor:
#      x y z
#    x 4.435310 0.000000 0.000000 
#    y 0.000000 3.954660 0.000000 
#    z 0.000000 0.000000 3.926140 
# 
# 
# High freq. dielectric constant tensor:
#      x y z
#    x 1.871900 0.000000 0.000000 
#    y 0.000000 1.867310 0.000000 
#    z 0.000000 0.000000 1.868730 
# 
# From -- ./inp_files/20902.got.cif
#   From: 2010.03.12/outbox.cif.g09.slc.cpg/sg60_11_cif.got.tgz:20902.got - 2010.04.10 18:46:24.
