data_PCOD8248720
_publ_section_title
;
Structure prediction by ZEFSAII (Michael W. Deem and Ramdas Pophale) SiO2 
 PCOD8248720
Probable space group: P B C A
;
_chemical_formula_sum "Si O2"
_cell_formula_units_Z 40
_cell_length_a 8.746574
_cell_length_b 14.621056
_cell_length_c 13.874571
_cell_angle_alpha 90.000000
_cell_angle_beta 90.000000
_cell_angle_gamma 90.000000
_cell_volume 1774.337695
_symmetry_space_group_name_H-M "P B C A"
_symmetry_group_IT_number 61
_symmetry_cell_setting 'orthorhombic'
loop_
_space_group_symop_operation_xyz
x,y,z
1/2-x,-y,1/2+z
1/2+x,1/2-y,-z
-x,1/2+y,1/2-z
-x,-y,-z
1/2+x,y,1/2-z
1/2-x,1/2+y,z
x,1/2-y,1/2+z
loop_
_atom_site_type_symbol
_atom_site_label
_atom_site_fract_x
_atom_site_fract_y
_atom_site_fract_z
Si Si1 0.344425 0.628372 0.790685
Si Si2 0.645057 0.180987 0.387397
Si Si3 0.762945 0.043373 0.531229
Si Si4 0.095342 0.116588 0.570849
Si Si5 0.091785 0.761556 0.738975
O O1 0.377013 0.590323 0.683235
O O2 0.192925 0.690088 0.799278
O O3 0.479523 0.696764 0.823852
O O4 0.320420 0.543915 0.864270
O O5 0.646699 0.096644 0.460083
O O6 0.632399 0.276854 0.444819
O O7 0.504582 0.174015 0.311971
O O8 0.806149 0.175905 0.330006
O O9 0.925536 0.094402 0.535242
O O10 0.784558 0.940100 0.494569
#
# Coordination Sequence:
#
# PCOD8248720 Si02
#       5
#     8   8   8   8   8
#     4  10  17  38  62  82 125 162 186 263 312 347
#     4  10  20  39  61  91 118 166 199 252 306 366
#     4  11  21  38  67  86 122 165 210 248 302 382
#     4   9  22  42  57  94 119 164 204 252 315 357
#     4   8  18  35  58  86 125 153 199 242 312 355
#
# _framework density 22.543621999999999
#
# number of rings (size 3 to 8) (size 9 to 14) (size 15 to 20)
#    0.000    2.800    4.000    0.000    2.800    0.000 
#    7.200    4.000    0.000    0.000    0.000    0.000 
#    0.000    0.000    0.000    0.000    0.000    0.000 
#
# Total GULP energy -495703.578102 kJ/mol
# GULP energy per Si atom -12392.589453 kJ/mol
# Density = 2.249231 g / cm^3
# Si number density = 22.543622 Si / 1000 Ang^3
#
#
#
# Elastic Constant Matrix: (Units=GPa)
#
#
# Indices 1 2 3 4 5 6 
#
# 1 92.6365 -4.4052 8.1448 0.0000 0.0000 0.0000
# 2 -4.4052 30.2421 -8.1240 0.0000 0.0000 0.0000
# 3 8.1448 -8.1240 60.4512 0.0000 0.0000 0.0000
# 4 0.0000 0.0000 0.0000 30.9362 0.0000 0.0000
# 5 0.0000 0.0000 0.0000 0.0000 31.4230 0.0000
# 6 0.0000 0.0000 0.0000 0.0000 0.0000 16.8268
#
#
#
# Elastic Compliance Matrix: (Units=1/GPa)
#
#
# Indices 1 2 3 4 5 6 
#
# 1 0.010969 0.001246 -0.001311 0.000000 0.000000 0.000000
# 2 0.001246 0.034446 0.004461 0.000000 0.000000 0.000000
# 3 -0.001311 0.004461 0.017318 0.000000 0.000000 0.000000
# 4 0.000000 0.000000 0.000000 0.032325 0.000000 0.000000
# 5 0.000000 0.000000 0.000000 0.000000 0.031824 0.000000
# 6 0.000000 0.000000 0.000000 0.000000 0.000000 0.059429
#
#
# Mechanical properties :
#
#
# Convention : Reuss Voigt Hill
#
# Bulk Modulus (GPa) = 13.98066 19.39569 16.68817
# Shear Modulus (GPa) = 24.83104 28.35147 26.59126
#
# Velocity S-wave (km/s) = 3.32244 3.55015 3.43818
# Velocity P-wave (km/s) = 4.57528 5.04253 4.81457
#
# Compressibility (1/GPa) = 0.07152738
#
# Stress axis : x y z
#
# Youngs Moduli (GPa) = 91.16312 29.03063 57.74206
#
# Poissons Ratio (x) = -0.03617 0.07567
# Poissons Ratio (y) = -0.11357 -0.25761
# Poissons Ratio (z) = 0.11947 -0.12952
#
# Static dielectric constant tensor:
#      x y z
#    x 4.518130 0.000000 0.000000 
#    y 0.000000 3.591460 0.000000 
#    z 0.000000 0.000000 3.997190 
# 
# 
# High freq. dielectric constant tensor:
#      x y z
#    x 1.901820 0.000000 0.000000 
#    y 0.000000 1.849780 0.000000 
#    z 0.000000 0.000000 1.880820 
# 
# From -- ./inp_files/6954.got.cif
#   From: 2010.03.12/outbox.cif.g09.slc.cpg/sg61_4_cif.got.tgz:6954.got - 2010.04.10 19:05:03.
