data_PCOD8248396
_publ_section_title
;
Structure prediction by ZEFSAII (Michael W. Deem and Ramdas Pophale) SiO2 
 PCOD8248396
Probable space group: P B C N
;
_chemical_formula_sum "Si O2"
_cell_formula_units_Z 56
_cell_length_a 15.086837
_cell_length_b 11.970607
_cell_length_c 14.514507
_cell_angle_alpha 90.000000
_cell_angle_beta 90.000000
_cell_angle_gamma 90.000000
_cell_volume 2621.299595
_symmetry_space_group_name_H-M "P B C N"
_symmetry_group_IT_number 60
_symmetry_cell_setting 'orthorhombic'
loop_
_space_group_symop_operation_xyz
x,y,z
1/2-x,1/2-y,1/2+z
1/2+x,1/2-y,-z
-x,y,1/2-z
-x,-y,-z
1/2+x,1/2+y,1/2-z
1/2-x,1/2+y,z
x,-y,1/2+z
loop_
_atom_site_type_symbol
_atom_site_label
_atom_site_fract_x
_atom_site_fract_y
_atom_site_fract_z
Si Si1 0.264742 0.028556 0.554790
Si Si2 0.774413 0.069484 0.261593
Si Si3 0.345039 0.225448 0.644965
Si Si4 0.482456 0.676610 0.011157
Si Si5 0.593785 0.961722 0.219718
Si Si6 0.928936 0.406046 0.013157
Si Si7 0.118358 0.997075 0.909450
O O1 0.292221 0.159025 0.564205
O O2 0.209853 0.009162 0.463823
O O3 0.208934 0.000733 0.645810
O O4 0.345955 0.940425 0.549953
O O5 0.784172 0.200667 0.286537
O O6 0.853036 0.024422 0.195658
O O7 0.674917 0.050165 0.222262
O O8 0.414234 0.304764 0.594143
O O9 0.394908 0.134266 0.705108
O O10 0.557672 0.600675 0.053771
O O11 0.529273 0.790079 0.976672
O O12 0.431603 0.615885 0.925701
O O13 0.500000 0.019656 0.250000
O O14 0.594906 0.901600 0.120905
O O15 0.000000 0.500000 0.000000
#
# Coordination Sequence:
#
# PCOD8248396 Si02
#       7
#     8   8   8   8   8   8   8
#     4  11  24  44  68 101 144 181 241 292 360 428
#     4  11  24  44  71  98 140 184 238 296 352 433
#     4  11  23  44  70  99 138 193 237 287 358 431
#     4  11  24  44  72 102 142 189 241 293 363 430
#     4  11  22  42  69 104 137 183 243 286 358 428
#     4  12  22  43  70 101 142 182 232 302 348 425
#     4  11  25  45  70 106 140 190 237 292 363 432
#
# _framework density 21.36345
#
# number of rings (size 3 to 8) (size 9 to 14) (size 15 to 20)
#    0.000    0.857    5.714    1.714    2.000    0.000 
#   10.286    0.000    0.000    0.000    0.000    0.000 
#    0.000    0.000    0.000    0.000    0.000    0.000 
#
# Total GULP energy -694258.956854 kJ/mol
# GULP energy per Si atom -12397.481372 kJ/mol
# Density = 2.131483 g / cm^3
# Si number density = 21.363450 Si / 1000 Ang^3
#
#
#
# Elastic Constant Matrix: (Units=GPa)
#
#
# Indices 1 2 3 4 5 6 
#
# 1 107.9132 66.4342 19.6527 0.0000 0.0000 0.0000
# 2 66.4342 143.2449 29.4533 0.0000 0.0000 0.0000
# 3 19.6527 29.4533 65.6154 0.0000 0.0000 0.0000
# 4 0.0000 0.0000 0.0000 32.9555 0.0000 0.0000
# 5 0.0000 0.0000 0.0000 0.0000 29.0042 0.0000
# 6 0.0000 0.0000 0.0000 0.0000 0.0000 33.1927
#
#
#
# Elastic Compliance Matrix: (Units=1/GPa)
#
#
# Indices 1 2 3 4 5 6 
#
# 1 0.013072 -0.005792 -0.001315 0.000000 0.000000 0.000000
# 2 -0.005792 0.010257 -0.002869 0.000000 0.000000 0.000000
# 3 -0.001315 -0.002869 0.016922 0.000000 0.000000 0.000000
# 4 0.000000 0.000000 0.000000 0.030344 0.000000 0.000000
# 5 0.000000 0.000000 0.000000 0.000000 0.034478 0.000000
# 6 0.000000 0.000000 0.000000 0.000000 0.000000 0.030127
#
#
# Mechanical properties :
#
#
# Convention : Reuss Voigt Hill
#
# Bulk Modulus (GPa) = 49.26613 60.87264 55.06938
# Shear Modulus (GPa) = 30.87942 32.44604 31.66273
#
# Velocity S-wave (km/s) = 3.80601 3.90136 3.85398
# Velocity P-wave (km/s) = 6.51347 6.98927 6.75556
#
# Compressibility (1/GPa) = 0.02029792
#
# Stress axis : x y z
#
# Youngs Moduli (GPa) = 76.49932 97.49136 59.09353
#
# Poissons Ratio (x) = 0.56468 0.07773
# Poissons Ratio (y) = 0.44309 0.16957
# Poissons Ratio (z) = 0.10062 0.27975
#
# Static dielectric constant tensor:
#      x y z
#    x 3.784360 0.000000 0.000000 
#    y 0.000000 3.977300 0.000000 
#    z 0.000000 0.000000 2.494350 
# 
# 
# High freq. dielectric constant tensor:
#      x y z
#    x 1.849940 0.000000 0.000000 
#    y 0.000000 1.831520 0.000000 
#    z 0.000000 0.000000 1.837530 
# 
# From -- ./inp_files/16863.got.cif
#   From: 2010.03.12/outbox.cif.g09.slc.cpg/sg60_9_cif.got.tgz:16863.got - 2010.04.10 18:46:24.
