data_PCOD8248141
_publ_section_title
;
Structure prediction by ZEFSAII (Michael W. Deem and Ramdas Pophale) SiO2 
 PCOD8248141
Probable space group: P B C N
;
_chemical_formula_sum "Si O2"
_cell_formula_units_Z 60
_cell_length_a 16.809413
_cell_length_b 17.280053
_cell_length_c 9.317628
_cell_angle_alpha 90.000000
_cell_angle_beta 90.000000
_cell_angle_gamma 90.000000
_cell_volume 2706.468554
_symmetry_space_group_name_H-M "P B C N"
_symmetry_group_IT_number 60
_symmetry_cell_setting 'orthorhombic'
loop_
_space_group_symop_operation_xyz
x,y,z
1/2-x,1/2-y,1/2+z
1/2+x,1/2-y,-z
-x,y,1/2-z
-x,-y,-z
1/2+x,1/2+y,1/2-z
1/2-x,1/2+y,z
x,-y,1/2+z
loop_
_atom_site_type_symbol
_atom_site_label
_atom_site_fract_x
_atom_site_fract_y
_atom_site_fract_z
Si Si1 0.500000 0.464132 0.250000
Si Si2 0.670915 0.176382 0.101160
Si Si3 0.577921 0.729793 0.150649
Si Si4 0.005919 0.675585 0.088593
Si Si5 0.593221 0.568656 0.024318
Si Si6 0.246256 0.565755 0.604306
Si Si7 0.655997 0.089071 0.391700
Si Si8 0.729477 0.823798 0.148351
O O1 0.556505 0.514815 0.147035
O O2 0.544255 0.414752 0.375111
O O3 0.583262 0.168026 0.030174
O O4 0.676664 0.119371 0.235093
O O5 0.696270 0.264446 0.137547
O O6 0.729352 0.143764 0.982750
O O7 0.500000 0.730389 0.250000
O O8 0.610679 0.645238 0.115934
O O9 0.651043 0.780448 0.215340
O O10 0.553251 0.760165 0.996200
O O11 0.060391 0.597209 0.079407
O O12 0.000000 0.706444 0.250000
O O13 0.673789 0.529515 0.963407
O O14 0.177367 0.501411 0.597089
O O15 0.255938 0.599927 0.763923
O O16 0.708488 0.143260 0.493117
#
# Coordination Sequence:
#
# PCOD8248141 Si02
#       8
#     4   8   8   8   8   8   8   8
#     4  10  26  48  64 100 138 178 226 276 360 430
#     4  11  22  42  66  98 131 177 232 284 339 410
#     4  11  22  42  65  96 137 175 225 287 341 415
#     4   9  22  41  66  95 131 177 231 276 348 401
#     4  11  25  44  68  98 134 181 226 282 348 428
#     4  12  25  41  68  99 135 179 226 282 350 409
#     4  10  24  43  63  97 137 176 229 280 345 417
#     4  11  24  42  66 100 134 178 234 288 342 416
#
# _framework density 22.169108999999999
#
# number of rings (size 3 to 8) (size 9 to 14) (size 15 to 20)
#    0.000    1.333    2.000    2.400    8.400    0.533 
#    2.400    6.000    0.000    0.000    0.000    0.000 
#    0.000    0.000    0.000    0.000    0.000    0.000 
#
# Total GULP energy -743347.104905 kJ/mol
# GULP energy per Si atom -12389.118415 kJ/mol
# Density = 2.211865 g / cm^3
# Si number density = 22.169109 Si / 1000 Ang^3
#
#
#
# Elastic Constant Matrix: (Units=GPa)
#
#
# Indices 1 2 3 4 5 6 
#
# 1 126.1367 39.3054 25.8217 0.0000 0.0000 0.0000
# 2 39.3054 95.6969 16.0399 0.0000 0.0000 0.0000
# 3 25.8217 16.0399 60.5594 0.0000 0.0000 0.0000
# 4 0.0000 0.0000 0.0000 29.5363 0.0000 0.0000
# 5 0.0000 0.0000 0.0000 0.0000 32.9086 0.0000
# 6 0.0000 0.0000 0.0000 0.0000 0.0000 28.9297
#
#
#
# Elastic Compliance Matrix: (Units=1/GPa)
#
#
# Indices 1 2 3 4 5 6 
#
# 1 0.009652 -0.003427 -0.003208 0.000000 0.000000 0.000000
# 2 -0.003427 0.012152 -0.001757 0.000000 0.000000 0.000000
# 3 -0.003208 -0.001757 0.018346 0.000000 0.000000 0.000000
# 4 0.000000 0.000000 0.000000 0.033857 0.000000 0.000000
# 5 0.000000 0.000000 0.000000 0.000000 0.030387 0.000000
# 6 0.000000 0.000000 0.000000 0.000000 0.000000 0.034567
#
#
# Mechanical properties :
#
#
# Convention : Reuss Voigt Hill
#
# Bulk Modulus (GPa) = 42.79774 49.41410 46.10592
# Shear Modulus (GPa) = 30.57475 31.68999 31.13237
#
# Velocity S-wave (km/s) = 3.71773 3.78493 3.75148
# Velocity P-wave (km/s) = 6.14620 6.43731 6.29344
#
# Compressibility (1/GPa) = 0.02336572
#
# Stress axis : x y z
#
# Youngs Moduli (GPa) = 103.60051 82.29298 54.50768
#
# Poissons Ratio (x) = 0.28200 0.17486
# Poissons Ratio (y) = 0.35502 0.09579
# Poissons Ratio (z) = 0.33235 0.14462
#
# Static dielectric constant tensor:
#      x y z
#    x 4.411520 0.000000 0.000000 
#    y 0.000000 3.702270 0.000000 
#    z 0.000000 0.000000 4.097640 
# 
# 
# High freq. dielectric constant tensor:
#      x y z
#    x 1.880260 0.000000 0.000000 
#    y 0.000000 1.854950 0.000000 
#    z 0.000000 0.000000 1.885280 
# 
# From -- ./inp_files/6928.got.cif
#   From: 2010.03.12/outbox.cif.g09.slc.cpg/sg60_4_cif.got.tgz:6928.got - 2010.04.10 18:46:24.
