data_PCOD8248189
_publ_section_title
;
Structure prediction by ZEFSAII (Michael W. Deem and Ramdas Pophale) SiO2 
 PCOD8248189
Probable space group: P B C N
;
_chemical_formula_sum "Si O2"
_cell_formula_units_Z 60
_cell_length_a 11.435655
_cell_length_b 9.235227
_cell_length_c 23.876318
_cell_angle_alpha 90.000000
_cell_angle_beta 90.000000
_cell_angle_gamma 90.000000
_cell_volume 2521.598712
_symmetry_space_group_name_H-M "P B C N"
_symmetry_group_IT_number 60
_symmetry_cell_setting 'orthorhombic'
loop_
_space_group_symop_operation_xyz
x,y,z
1/2-x,1/2-y,1/2+z
1/2+x,1/2-y,-z
-x,y,1/2-z
-x,-y,-z
1/2+x,1/2+y,1/2-z
1/2-x,1/2+y,z
x,-y,1/2+z
loop_
_atom_site_type_symbol
_atom_site_label
_atom_site_fract_x
_atom_site_fract_y
_atom_site_fract_z
Si Si1 0.963219 0.955588 0.865185
Si Si2 0.741789 0.765331 0.989428
Si Si3 0.186680 0.981841 0.934117
Si Si4 0.830186 0.464517 0.168361
Si Si5 0.079941 0.651600 0.676391
Si Si6 0.000000 0.885859 0.250000
Si Si7 0.716656 0.012199 0.914620
Si Si8 0.237098 0.733031 0.267789
O O1 0.955562 0.781935 0.864563
O O2 0.854567 0.015321 0.900845
O O3 0.077399 0.011013 0.895795
O O4 0.980680 0.010847 0.802544
O O5 0.671928 0.860394 0.942430
O O6 0.817653 0.644494 0.956294
O O7 0.668179 0.673013 0.034687
O O8 0.816623 0.888215 0.020922
O O9 0.306177 0.980821 0.895464
O O10 0.768523 0.563730 0.216697
O O11 0.763742 0.311382 0.173073
O O12 0.963609 0.441590 0.189070
O O13 0.156556 0.531254 0.645044
O O14 0.154789 0.723829 0.726816
O O15 0.110751 0.780197 0.247053
#
# Coordination Sequence:
#
# PCOD8248189 Si02
#       8
#     8   8   8   8   8   4   8   8
#     4  12  25  47  77 107 151 204 239 323 377 467
#     4  10  24  46  73 105 141 191 250 321 363 462
#     4  11  24  48  71 104 145 189 253 305 388 440
#     4  12  27  47  74 106 152 199 245 316 378 452
#     4  12  27  46  74 110 152 197 253 315 375 459
#     4  12  26  44  76 108 154 194 246 300 388 464
#     4  11  24  49  72 106 148 191 255 306 387 443
#     4  12  27  46  73 111 149 195 255 303 377 460
#
# _framework density 23.794429000000001
#
# number of rings (size 3 to 8) (size 9 to 14) (size 15 to 20)
#    0.000    0.533    4.000    3.600    3.733    3.200 
#    4.800    2.000    0.000    0.000    0.000    0.000 
#    0.000    0.000    0.000    0.000    0.000    0.000 
#
# Total GULP energy -743307.698226 kJ/mol
# GULP energy per Si atom -12388.461637 kJ/mol
# Density = 2.374027 g / cm^3
# Si number density = 23.794429 Si / 1000 Ang^3
#
#
#
# Elastic Constant Matrix: (Units=GPa)
#
#
# Indices 1 2 3 4 5 6 
#
# 1 111.1410 34.4161 40.5475 0.0000 0.0000 0.0000
# 2 34.4161 127.1300 37.9180 0.0000 0.0000 0.0000
# 3 40.5475 37.9180 108.9056 0.0000 0.0000 0.0000
# 4 0.0000 0.0000 0.0000 35.6629 0.0000 0.0000
# 5 0.0000 0.0000 0.0000 0.0000 16.1984 0.0000
# 6 0.0000 0.0000 0.0000 0.0000 0.0000 28.7724
#
#
#
# Elastic Compliance Matrix: (Units=1/GPa)
#
#
# Indices 1 2 3 4 5 6 
#
# 1 0.010819 -0.001928 -0.003357 0.000000 0.000000 0.000000
# 2 -0.001928 0.009121 -0.002458 0.000000 0.000000 0.000000
# 3 -0.003357 -0.002458 0.011288 0.000000 0.000000 0.000000
# 4 0.000000 0.000000 0.000000 0.028040 0.000000 0.000000
# 5 0.000000 0.000000 0.000000 0.000000 0.061735 0.000000
# 6 0.000000 0.000000 0.000000 0.000000 0.000000 0.034755
#
#
# Mechanical properties :
#
#
# Convention : Reuss Voigt Hill
#
# Bulk Modulus (GPa) = 63.52111 63.65998 63.59054
# Shear Modulus (GPa) = 28.32999 31.74642 30.03821
#
# Velocity S-wave (km/s) = 3.45427 3.65663 3.55689
# Velocity P-wave (km/s) = 6.53170 6.68133 6.60694
#
# Compressibility (1/GPa) = 0.01574280
#
# Stress axis : x y z
#
# Youngs Moduli (GPa) = 92.42793 109.63800 88.59011
#
# Poissons Ratio (x) = 0.21134 0.29740
# Poissons Ratio (y) = 0.17817 0.21775
# Poissons Ratio (z) = 0.31028 0.26949
#
# Static dielectric constant tensor:
#      x y z
#    x 4.136190 0.000000 0.000000 
#    y 0.000000 4.504670 0.000000 
#    z 0.000000 0.000000 4.549930 
# 
# 
# High freq. dielectric constant tensor:
#      x y z
#    x 1.919470 0.000000 0.000000 
#    y 0.000000 1.959750 0.000000 
#    z 0.000000 0.000000 1.958350 
# 
# From -- ./inp_files/25324.got.cif
#   From: 2010.03.12/outbox.cif.g09.slc.cpg/sg60_13_cif.got.tgz:25324.got - 2010.04.10 18:46:24.
