data_PCOD8248033
_publ_section_title
;
Structure prediction by ZEFSAII (Michael W. Deem and Ramdas Pophale) SiO2 
 PCOD8248033
Probable space group: P B C N
;
_chemical_formula_sum "Si O2"
_cell_formula_units_Z 48
_cell_length_a 9.903565
_cell_length_b 9.553702
_cell_length_c 25.580313
_cell_angle_alpha 90.000000
_cell_angle_beta 90.000000
_cell_angle_gamma 90.000000
_cell_volume 2420.299444
_symmetry_space_group_name_H-M "P B C N"
_symmetry_group_IT_number 60
_symmetry_cell_setting 'orthorhombic'
loop_
_space_group_symop_operation_xyz
x,y,z
1/2-x,1/2-y,1/2+z
1/2+x,1/2-y,-z
-x,y,1/2-z
-x,-y,-z
1/2+x,1/2+y,1/2-z
1/2-x,1/2+y,z
x,-y,1/2+z
loop_
_atom_site_type_symbol
_atom_site_label
_atom_site_fract_x
_atom_site_fract_y
_atom_site_fract_z
Si Si1 0.725043 0.910901 0.980155
Si Si2 0.534017 0.460752 0.907051
Si Si3 0.119676 0.284427 0.711545
Si Si4 0.517916 0.210631 0.402741
Si Si5 0.618124 0.541523 0.289480
Si Si6 0.757296 0.841525 0.552413
O O1 0.861964 0.888484 0.946955
O O2 0.596839 0.884078 0.944031
O O3 0.720134 0.813896 0.031088
O O4 0.717599 0.068189 0.001566
O O5 0.535768 0.626616 0.916680
O O6 0.573417 0.421322 0.848164
O O7 0.387077 0.399721 0.917955
O O8 0.073786 0.326060 0.653833
O O9 0.251726 0.370465 0.727057
O O10 0.000000 0.328101 0.750000
O O11 0.154341 0.121163 0.716182
O O12 0.362069 0.164752 0.405057
O O13 0.500000 0.584762 0.250000
#
# Coordination Sequence:
#
# PCOD8248033 Si02
#       6
#     8   8   8   8   8   8
#     4  12  22  41  64  88 126 168 210 253 307 357
#     4  11  23  43  62  92 130 162 204 261 310 360
#     4  10  23  44  68  93 125 159 203 260 312 370
#     4  11  23  42  63  93 125 164 209 256 308 368
#     4  10  23  44  69  93 124 161 203 258 314 367
#     4  12  24  39  62  92 126 170 206 253 303 366
#
# _framework density 19.832256000000001
#
# number of rings (size 3 to 8) (size 9 to 14) (size 15 to 20)
#    0.000    1.000    5.000    2.000    2.333    0.667 
#    3.000    0.000    0.000    0.000    0.000    0.000 
#    0.000    0.000    0.000    0.000    0.000    0.000 
#
# Total GULP energy -595502.746707 kJ/mol
# GULP energy per Si atom -12406.307223 kJ/mol
# Density = 1.978712 g / cm^3
# Si number density = 19.832256 Si / 1000 Ang^3
#
#
#
# Elastic Constant Matrix: (Units=GPa)
#
#
# Indices 1 2 3 4 5 6 
#
# 1 129.4599 37.9174 49.9666 0.0000 0.0000 0.0000
# 2 37.9174 47.6600 28.7942 0.0000 0.0000 0.0000
# 3 49.9666 28.7942 79.4997 0.0000 0.0000 0.0000
# 4 0.0000 0.0000 0.0000 2.7035 0.0000 0.0000
# 5 0.0000 0.0000 0.0000 0.0000 37.1828 0.0000
# 6 0.0000 0.0000 0.0000 0.0000 0.0000 38.5573
#
#
#
# Elastic Compliance Matrix: (Units=1/GPa)
#
#
# Indices 1 2 3 4 5 6 
#
# 1 0.011428 -0.006084 -0.004979 0.000000 0.000000 0.000000
# 2 -0.006084 0.030098 -0.007078 0.000000 0.000000 0.000000
# 3 -0.004979 -0.007078 0.018272 0.000000 0.000000 0.000000
# 4 0.000000 0.000000 0.000000 0.369889 0.000000 0.000000
# 5 0.000000 0.000000 0.000000 0.000000 0.026894 0.000000
# 6 0.000000 0.000000 0.000000 0.000000 0.000000 0.025935
#
#
# Mechanical properties :
#
#
# Convention : Reuss Voigt Hill
#
# Bulk Modulus (GPa) = 42.52298 54.44177 48.48238
# Shear Modulus (GPa) = 9.49422 25.01814 17.25618
#
# Velocity S-wave (km/s) = 2.19036 3.55560 2.95296
# Velocity P-wave (km/s) = 5.28060 6.66086 6.01048
#
# Compressibility (1/GPa) = 0.02351670
#
# Stress axis : x y z
#
# Youngs Moduli (GPa) = 87.50413 33.22475 54.72972
#
# Poissons Ratio (x) = 0.20213 0.27251
# Poissons Ratio (y) = 0.53235 0.38735
# Poissons Ratio (z) = 0.43570 0.23515
#
# Static dielectric constant tensor:
#      x y z
#    x 3.658050 0.000000 0.000000 
#    y 0.000000 3.577540 0.000000 
#    z 0.000000 0.000000 3.630610 
# 
# 
# High freq. dielectric constant tensor:
#      x y z
#    x 1.786200 0.000000 0.000000 
#    y 0.000000 1.771370 0.000000 
#    z 0.000000 0.000000 1.776520 
# 
# From -- ./inp_files/23943.got.cif
#   From: 2010.03.12/outbox.cif.g09.slc.cpg/sg60_12_cif.got.tgz:23943.got - 2010.04.10 18:46:24.
