data_PCOD8248675
_publ_section_title
;
Structure prediction by ZEFSAII (Michael W. Deem and Ramdas Pophale) SiO2 
 PCOD8248675
Probable space group: P B C N
;
_chemical_formula_sum "Si O2"
_cell_formula_units_Z 32
_cell_length_a 4.934980
_cell_length_b 24.167037
_cell_length_c 11.747707
_cell_angle_alpha 90.000000
_cell_angle_beta 90.000000
_cell_angle_gamma 90.000000
_cell_volume 1401.076698
_symmetry_space_group_name_H-M "P B C N"
_symmetry_group_IT_number 60
_symmetry_cell_setting 'orthorhombic'
loop_
_space_group_symop_operation_xyz
x,y,z
1/2-x,1/2-y,1/2+z
1/2+x,1/2-y,-z
-x,y,1/2-z
-x,-y,-z
1/2+x,1/2+y,1/2-z
1/2-x,1/2+y,z
x,-y,1/2+z
loop_
_atom_site_type_symbol
_atom_site_label
_atom_site_fract_x
_atom_site_fract_y
_atom_site_fract_z
Si Si1 0.964835 0.115766 0.119409
Si Si2 0.500000 0.884201 0.250000
Si Si3 0.032434 0.564993 0.990662
Si Si4 0.700280 0.737443 0.064472
Si Si5 0.000000 0.809972 0.250000
O O1 0.925263 0.181780 0.115259
O O2 0.000000 0.097383 0.250000
O O3 0.715942 0.088714 0.058467
O O4 0.217337 0.093838 0.050610
O O5 0.435015 0.922401 0.357439
O O6 0.245071 0.848109 0.207728
O O7 0.000000 0.500000 0.000000
O O8 0.882295 0.772112 0.151093
O O9 0.432400 0.773732 0.031841
#
# Coordination Sequence:
#
# PCOD8248675 Si02
#       5
#     8   4   8   8   4
#     4  12  28  48  75 114 150 192 248 304 374 450
#     4  12  26  48  75 108 149 190 258 300 364 452
#     4  12  28  51  78 107 144 199 247 319 375 428
#     4  12  26  44  72 107 156 197 241 293 364 446
#     4  12  26  44  71 110 145 198 234 290 366 434
#
# _framework density 22.839577999999999
#
# number of rings (size 3 to 8) (size 9 to 14) (size 15 to 20)
#    0.000    0.000    0.000   10.500   12.250    0.000 
#    0.000    0.000    0.000    0.000    0.000    0.000 
#    0.000    0.000    0.000    0.000    0.000    0.000 
#
# Total GULP energy -396662.980777 kJ/mol
# GULP energy per Si atom -12395.718149 kJ/mol
# Density = 2.278759 g / cm^3
# Si number density = 22.839578 Si / 1000 Ang^3
#
#
#
# Elastic Constant Matrix: (Units=GPa)
#
#
# Indices 1 2 3 4 5 6 
#
# 1 193.2150 61.6391 66.8075 0.0000 0.0000 0.0000
# 2 61.6391 145.9033 66.5017 0.0000 0.0000 0.0000
# 3 66.8075 66.5017 185.0542 0.0000 0.0000 0.0000
# 4 0.0000 0.0000 0.0000 -171.0272 0.0000 0.0000
# 5 0.0000 0.0000 0.0000 0.0000 46.4874 0.0000
# 6 0.0000 0.0000 0.0000 0.0000 0.0000 29.0030
#
#
#
# Elastic Compliance Matrix: (Units=1/GPa)
#
#
# Indices 1 2 3 4 5 6 
#
# 1 0.006350 -0.001958 -0.001589 0.000000 0.000000 0.000000
# 2 -0.001958 0.008800 -0.002456 0.000000 0.000000 0.000000
# 3 -0.001589 -0.002456 0.006860 0.000000 0.000000 0.000000
# 4 0.000000 0.000000 0.000000 -0.005847 0.000000 0.000000
# 5 0.000000 0.000000 0.000000 0.000000 0.021511 0.000000
# 6 0.000000 0.000000 0.000000 0.000000 0.000000 0.034479
#
#
# Mechanical properties :
#
#
# Convention : Reuss Voigt Hill
#
# Bulk Modulus (GPa) = 99.95203 101.56322 100.75763
# Shear Modulus (GPa) = 57.14733 2.84092 29.99412
#
# Velocity S-wave (km/s) = 5.00754 1.11649 3.62781
# Velocity P-wave (km/s) = 8.79157 6.79902 7.85870
#
# Compressibility (1/GPa) = 0.01000480
#
# Stress axis : x y z
#
# Youngs Moduli (GPa) = 157.48971 113.63060 145.77845
#
# Poissons Ratio (x) = 0.22254 0.23157
# Poissons Ratio (y) = 0.30844 0.35796
# Poissons Ratio (z) = 0.25017 0.27902
#
# Static dielectric constant tensor:
#      x y z
#    x 4.978980 0.000000 0.000000 
#    y 0.000000 3.734750 0.000000 
#    z 0.000000 0.000000 4.430390 
# 
# 
# High freq. dielectric constant tensor:
#      x y z
#    x 1.934710 0.000000 0.000000 
#    y 0.000000 1.902560 0.000000 
#    z 0.000000 0.000000 1.921080 
# 
# From -- ./inp_files/8931.got.cif
#   From: 2010.03.12/outbox.cif.g09.slc.cpg/sg60_5_cif.got.tgz:8931.got - 2010.04.10 18:46:24.
