data_PCOD8248830
_publ_section_title
;
Structure prediction by ZEFSAII (Michael W. Deem and Ramdas Pophale) SiO2 
 PCOD8248830
Probable space group: P B C A
;
_chemical_formula_sum "Si O2"
_cell_formula_units_Z 64
_cell_length_a 17.877314
_cell_length_b 15.015308
_cell_length_c 12.489127
_cell_angle_alpha 90.000000
_cell_angle_beta 90.000000
_cell_angle_gamma 90.000000
_cell_volume 3352.498523
_symmetry_space_group_name_H-M "P B C A"
_symmetry_group_IT_number 61
_symmetry_cell_setting 'orthorhombic'
loop_
_space_group_symop_operation_xyz
x,y,z
1/2-x,-y,1/2+z
1/2+x,1/2-y,-z
-x,1/2+y,1/2-z
-x,-y,-z
1/2+x,y,1/2-z
1/2-x,1/2+y,z
x,1/2-y,1/2+z
loop_
_atom_site_type_symbol
_atom_site_label
_atom_site_fract_x
_atom_site_fract_y
_atom_site_fract_z
Si Si1 0.506985 0.142599 0.441008
Si Si2 0.655519 0.576980 0.828741
Si Si3 0.589446 0.560694 0.407521
Si Si4 0.451411 0.707152 0.709209
Si Si5 0.433774 0.258397 0.118106
Si Si6 0.107309 0.494277 0.448684
Si Si7 0.948876 0.045063 0.641177
Si Si8 0.324525 0.570440 0.737806
O O1 0.553777 0.199008 0.354484
O O2 0.451976 0.213248 0.497330
O O3 0.452273 0.064200 0.396477
O O4 0.563761 0.096486 0.523702
O O5 0.628277 0.678080 0.831156
O O6 0.602738 0.524572 0.744361
O O7 0.738135 0.584779 0.783829
O O8 0.648816 0.530984 0.945226
O O9 0.603076 0.662113 0.374494
O O10 0.505513 0.537066 0.370602
O O11 0.601534 0.549682 0.534794
O O12 0.649989 0.500291 0.350027
O O13 0.487074 0.733158 0.821975
O O14 0.503885 0.635968 0.649266
O O15 0.369405 0.663732 0.725332
O O16 0.166436 0.470259 0.356786
#
# Coordination Sequence:
#
# PCOD8248830 Si02
#       8
#     8   8   8   8   8   8   8   8
#     4  10  19  36  64  90 113 147 203 252 291 351
#     4  10  24  40  58  82 126 164 196 242 308 373
#     4  10  20  36  64  89 113 153 205 253 297 353
#     4  10  19  35  62  89 115 149 195 253 289 346
#     4  10  19  37  60  89 114 150 201 251 296 347
#     4  10  22  39  62  88 116 163 200 247 300 359
#     4   9  20  37  58  89 117 151 198 250 300 343
#     4  11  23  40  58  87 126 159 195 245 304 372
#
# _framework density 19.090240000000001
#
# number of rings (size 3 to 8) (size 9 to 14) (size 15 to 20)
#    0.000    2.000    2.500    0.750    8.750    0.000 
#    2.250    0.000    0.000    0.000    0.000    0.000 
#    0.000    0.000    0.000    0.000    0.000    0.000 
#
# Total GULP energy -793406.918022 kJ/mol
# GULP energy per Si atom -12396.983094 kJ/mol
# Density = 1.904679 g / cm^3
# Si number density = 19.090240 Si / 1000 Ang^3
#
#
#
# Elastic Constant Matrix: (Units=GPa)
#
#
# Indices 1 2 3 4 5 6 
#
# 1 88.4190 19.2706 35.8017 0.0000 0.0000 0.0000
# 2 19.2706 92.1418 31.0497 0.0000 0.0000 0.0000
# 3 35.8017 31.0497 101.5017 0.0000 0.0000 0.0000
# 4 0.0000 0.0000 0.0000 26.7034 0.0000 0.0000
# 5 0.0000 0.0000 0.0000 0.0000 25.0511 0.0000
# 6 0.0000 0.0000 0.0000 0.0000 0.0000 13.2394
#
#
#
# Elastic Compliance Matrix: (Units=1/GPa)
#
#
# Indices 1 2 3 4 5 6 
#
# 1 0.013342 -0.001343 -0.004295 0.000000 0.000000 0.000000
# 2 -0.001343 0.012235 -0.003269 0.000000 0.000000 0.000000
# 3 -0.004295 -0.003269 0.012367 0.000000 0.000000 0.000000
# 4 0.000000 0.000000 0.000000 0.037448 0.000000 0.000000
# 5 0.000000 0.000000 0.000000 0.000000 0.039918 0.000000
# 6 0.000000 0.000000 0.000000 0.000000 0.000000 0.075532
#
#
# Mechanical properties :
#
#
# Convention : Reuss Voigt Hill
#
# Bulk Modulus (GPa) = 49.67781 50.47849 50.07815
# Shear Modulus (GPa) = 23.21621 26.06149 24.63885
#
# Velocity S-wave (km/s) = 3.49109 3.69883 3.59646
# Velocity P-wave (km/s) = 6.50610 6.68889 6.59813
#
# Compressibility (1/GPa) = 0.02012971
#
# Stress axis : x y z
#
# Youngs Moduli (GPa) = 74.95373 81.73059 80.86012
#
# Poissons Ratio (x) = 0.10976 0.34730
# Poissons Ratio (y) = 0.10066 0.26434
# Poissons Ratio (z) = 0.32193 0.26719
#
# Static dielectric constant tensor:
#      x y z
#    x 3.126970 0.000000 0.000000 
#    y 0.000000 3.543760 0.000000 
#    z 0.000000 0.000000 3.588250 
# 
# 
# High freq. dielectric constant tensor:
#      x y z
#    x 1.707000 0.000000 0.000000 
#    y 0.000000 1.747220 0.000000 
#    z 0.000000 0.000000 1.753570 
# 
# From -- ./inp_files/6311.got.cif
#   From: 2010.03.12/outbox.cif.g09.slc.cpg/sg61_4_cif.got.tgz:6311.got - 2010.04.10 19:05:03.
