data_PCOD8248314
_publ_section_title
;
Structure prediction by ZEFSAII (Michael W. Deem and Ramdas Pophale) SiO2 
 PCOD8248314
Probable space group: P B C N
;
_chemical_formula_sum "Si O2"
_cell_formula_units_Z 64
_cell_length_a 19.478297
_cell_length_b 18.385913
_cell_length_c 9.899065
_cell_angle_alpha 90.000000
_cell_angle_beta 90.000000
_cell_angle_gamma 90.000000
_cell_volume 3545.115265
_symmetry_space_group_name_H-M "P B C N"
_symmetry_group_IT_number 60
_symmetry_cell_setting 'orthorhombic'
loop_
_space_group_symop_operation_xyz
x,y,z
1/2-x,1/2-y,1/2+z
1/2+x,1/2-y,-z
-x,y,1/2-z
-x,-y,-z
1/2+x,1/2+y,1/2-z
1/2-x,1/2+y,z
x,-y,1/2+z
loop_
_atom_site_type_symbol
_atom_site_label
_atom_site_fract_x
_atom_site_fract_y
_atom_site_fract_z
Si Si1 0.920990 0.859808 0.276121
Si Si2 0.653244 0.503161 0.283451
Si Si3 0.422430 0.654908 0.224712
Si Si4 0.643779 0.714514 0.027257
Si Si5 0.356591 0.286260 0.475563
Si Si6 0.786177 0.650443 0.422886
Si Si7 0.252044 0.496079 0.466379
Si Si8 0.211629 0.647158 0.398927
O O1 0.908869 0.946299 0.267631
O O2 0.901095 0.830973 0.422431
O O3 0.871862 0.820667 0.169095
O O4 0.000000 0.842066 0.250000
O O5 0.625059 0.583945 0.261166
O O6 0.714456 0.485422 0.180328
O O7 0.684338 0.495114 0.432086
O O8 0.500000 0.630798 0.250000
O O9 0.397785 0.714781 0.332801
O O10 0.417561 0.693476 0.078500
O O11 0.716733 0.677318 0.047406
O O12 0.653704 0.797383 0.977760
O O13 0.287760 0.319761 0.536247
O O14 0.348679 0.199312 0.455451
O O15 0.795968 0.571616 0.491815
O O16 0.790271 0.644192 0.262438
O O17 0.202649 0.566833 0.461828
#
# Coordination Sequence:
#
# PCOD8248314 Si02
#       8
#     8   8   8   8   8   8   8   8
#     4  12  23  36  55  82 116 160 202 231 275 340
#     4  12  21  36  50  88 120 158 195 224 268 348
#     4  12  23  40  57  80 124 164 196 229 273 336
#     4  11  22  37  57  83 110 156 198 240 285 335
#     4  11  22  37  57  83 110 156 198 240 285 335
#     4  11  21  37  59  83 118 146 189 249 297 335
#     4  12  20  34  59  82 119 152 184 230 298 348
#     4  11  21  37  59  83 118 146 189 249 297 335
#
# _framework density 18.053008999999999
#
# number of rings (size 3 to 8) (size 9 to 14) (size 15 to 20)
#    0.000    0.500    8.750    1.125    0.000    1.000 
#    0.000    3.750    0.000    0.000    0.000    5.250 
#    0.000    0.000    0.000    0.000    0.000    0.000 
#
# Total GULP energy -793743.986655 kJ/mol
# GULP energy per Si atom -12402.249791 kJ/mol
# Density = 1.801192 g / cm^3
# Si number density = 18.053009 Si / 1000 Ang^3
#
#
#
# Elastic Constant Matrix: (Units=GPa)
#
#
# Indices 1 2 3 4 5 6 
#
# 1 38.0386 34.5318 11.8982 0.0000 0.0000 0.0000
# 2 34.5318 143.4174 36.2283 0.0000 0.0000 0.0000
# 3 11.8982 36.2283 69.9146 0.0000 0.0000 0.0000
# 4 0.0000 0.0000 0.0000 31.1646 0.0000 0.0000
# 5 0.0000 0.0000 0.0000 0.0000 20.2280 0.0000
# 6 0.0000 0.0000 0.0000 0.0000 0.0000 19.5667
#
#
#
# Elastic Compliance Matrix: (Units=1/GPa)
#
#
# Indices 1 2 3 4 5 6 
#
# 1 0.033832 -0.007699 -0.001768 0.000000 0.000000 0.000000
# 2 -0.007699 0.009775 -0.003755 0.000000 0.000000 0.000000
# 3 -0.001768 -0.003755 0.016550 0.000000 0.000000 0.000000
# 4 0.000000 0.000000 0.000000 0.032088 0.000000 0.000000
# 5 0.000000 0.000000 0.000000 0.000000 0.049436 0.000000
# 6 0.000000 0.000000 0.000000 0.000000 0.000000 0.051107
#
#
# Mechanical properties :
#
#
# Convention : Reuss Voigt Hill
#
# Bulk Modulus (GPa) = 29.66297 46.29859 37.98078
# Shear Modulus (GPa) = 21.69486 25.43935 23.56711
#
# Velocity S-wave (km/s) = 3.47036 3.75793 3.61701
# Velocity P-wave (km/s) = 5.70303 6.67316 6.20708
#
# Compressibility (1/GPa) = 0.03371207
#
# Stress axis : x y z
#
# Youngs Moduli (GPa) = 29.55819 102.30174 60.42391
#
# Poissons Ratio (x) = 0.78765 0.10682
# Poissons Ratio (y) = 0.22758 0.22689
# Poissons Ratio (z) = 0.05226 0.38414
#
# Static dielectric constant tensor:
#      x y z
#    x 3.072730 0.000000 0.000000 
#    y 0.000000 3.660520 0.000000 
#    z 0.000000 0.000000 3.554610 
# 
# 
# High freq. dielectric constant tensor:
#      x y z
#    x 1.656180 0.000000 0.000000 
#    y 0.000000 1.702070 0.000000 
#    z 0.000000 0.000000 1.722120 
# 
# From -- ./inp_files/7558.got.cif
#   From: 2010.03.12/outbox.cif.g09.slc.cpg/sg60_4_cif.got.tgz:7558.got - 2010.04.10 18:46:24.
