data_PCOD8248468
_publ_section_title
;
Structure prediction by ZEFSAII (Michael W. Deem and Ramdas Pophale) SiO2 
 PCOD8248468
Probable space group: P B C N
;
_chemical_formula_sum "Si O2"
_cell_formula_units_Z 48
_cell_length_a 8.603060
_cell_length_b 13.799853
_cell_length_c 18.393981
_cell_angle_alpha 90.000000
_cell_angle_beta 90.000000
_cell_angle_gamma 90.000000
_cell_volume 2183.751144
_symmetry_space_group_name_H-M "P B C N"
_symmetry_group_IT_number 60
_symmetry_cell_setting 'orthorhombic'
loop_
_space_group_symop_operation_xyz
x,y,z
1/2-x,1/2-y,1/2+z
1/2+x,1/2-y,-z
-x,y,1/2-z
-x,-y,-z
1/2+x,1/2+y,1/2-z
1/2-x,1/2+y,z
x,-y,1/2+z
loop_
_atom_site_type_symbol
_atom_site_label
_atom_site_fract_x
_atom_site_fract_y
_atom_site_fract_z
Si Si1 0.285085 0.208353 0.118587
Si Si2 0.634209 0.113982 0.608177
Si Si3 0.321568 0.869705 0.028346
Si Si4 0.388633 0.892649 0.867847
Si Si5 0.667916 0.275275 0.729127
Si Si6 0.657031 0.558262 0.482646
O O1 0.307189 0.298113 0.062913
O O2 0.442167 0.153021 0.135815
O O3 0.232998 0.258325 0.193190
O O4 0.152675 0.137028 0.082672
O O5 0.491698 0.154225 0.559914
O O6 0.663500 0.182755 0.676618
O O7 0.786141 0.111142 0.556555
O O8 0.596468 0.007813 0.638779
O O9 0.285346 0.981653 0.044846
O O10 0.310337 0.855790 0.942047
O O11 0.277331 0.858912 0.802760
O O12 0.500000 0.319011 0.750000
O O13 0.500000 0.500000 0.500000
#
# Coordination Sequence:
#
# PCOD8248468 Si02
#       6
#     8   8   8   8   8   8
#     4  12  25  44  71 104 147 189 243 292 371 436
#     4  11  23  50  71 101 143 190 242 295 373 428
#     4  11  23  43  76 102 135 186 240 300 360 424
#     4  11  25  47  73 101 139 194 239 297 365 447
#     4  12  28  44  67 104 145 193 233 300 361 439
#     4  11  25  42  74 114 136 180 243 308 357 429
#
# _framework density 21.980525
#
# number of rings (size 3 to 8) (size 9 to 14) (size 15 to 20)
#    0.000    0.667    5.000    2.500    9.333    2.667 
#    0.000    1.667    0.000    0.000    0.000    0.000 
#    0.000    0.000    0.000    0.000    0.000    0.000 
#
# Total GULP energy -595105.944502 kJ/mol
# GULP energy per Si atom -12398.040510 kJ/mol
# Density = 2.193050 g / cm^3
# Si number density = 21.980525 Si / 1000 Ang^3
#
#
#
# Elastic Constant Matrix: (Units=GPa)
#
#
# Indices 1 2 3 4 5 6 
#
# 1 95.7708 23.7442 36.4880 0.0000 0.0000 0.0000
# 2 23.7442 76.3298 49.4017 0.0000 0.0000 0.0000
# 3 36.4880 49.4017 128.8414 0.0000 0.0000 0.0000
# 4 0.0000 0.0000 0.0000 35.9684 0.0000 0.0000
# 5 0.0000 0.0000 0.0000 0.0000 44.1239 0.0000
# 6 0.0000 0.0000 0.0000 0.0000 0.0000 26.4241
#
#
#
# Elastic Compliance Matrix: (Units=1/GPa)
#
#
# Indices 1 2 3 4 5 6 
#
# 1 0.011936 -0.002029 -0.002602 0.000000 0.000000 0.000000
# 2 -0.002029 0.017770 -0.006239 0.000000 0.000000 0.000000
# 3 -0.002602 -0.006239 0.010891 0.000000 0.000000 0.000000
# 4 0.000000 0.000000 0.000000 0.027802 0.000000 0.000000
# 5 0.000000 0.000000 0.000000 0.000000 0.022663 0.000000
# 6 0.000000 0.000000 0.000000 0.000000 0.000000 0.037844
#
#
# Mechanical properties :
#
#
# Convention : Reuss Voigt Hill
#
# Bulk Modulus (GPa) = 53.03196 57.80109 55.41653
# Shear Modulus (GPa) = 31.86076 34.05714 32.95895
#
# Velocity S-wave (km/s) = 3.81136 3.94054 3.87649
# Velocity P-wave (km/s) = 6.59907 6.85984 6.73072
#
# Compressibility (1/GPa) = 0.01885655
#
# Stress axis : x y z
#
# Youngs Moduli (GPa) = 83.77965 56.27416 91.82099
#
# Poissons Ratio (x) = 0.11416 0.23896
# Poissons Ratio (y) = 0.16996 0.57288
# Poissons Ratio (z) = 0.21803 0.35110
#
# Static dielectric constant tensor:
#      x y z
#    x 4.122020 0.000000 0.000000 
#    y 0.000000 4.038780 0.000000 
#    z 0.000000 0.000000 4.152490 
# 
# 
# High freq. dielectric constant tensor:
#      x y z
#    x 1.861470 0.000000 0.000000 
#    y 0.000000 1.869550 0.000000 
#    z 0.000000 0.000000 1.870580 
# 
# From -- ./inp_files/19315.got.cif
#   From: 2010.03.12/outbox.cif.g09.slc.cpg/sg60_10_cif.got.tgz:19315.got - 2010.04.10 18:46:24.
