data_PCOD8248103
_publ_section_title
;
Structure prediction by ZEFSAII (Michael W. Deem and Ramdas Pophale) SiO2 
 PCOD8248103
Probable space group: P B C N
;
_chemical_formula_sum "Si O2"
_cell_formula_units_Z 48
_cell_length_a 13.467823
_cell_length_b 16.534889
_cell_length_c 9.862088
_cell_angle_alpha 90.000000
_cell_angle_beta 90.000000
_cell_angle_gamma 90.000000
_cell_volume 2196.178104
_symmetry_space_group_name_H-M "P B C N"
_symmetry_group_IT_number 60
_symmetry_cell_setting 'orthorhombic'
loop_
_space_group_symop_operation_xyz
x,y,z
1/2-x,1/2-y,1/2+z
1/2+x,1/2-y,-z
-x,y,1/2-z
-x,-y,-z
1/2+x,1/2+y,1/2-z
1/2-x,1/2+y,z
x,-y,1/2+z
loop_
_atom_site_type_symbol
_atom_site_label
_atom_site_fract_x
_atom_site_fract_y
_atom_site_fract_z
Si Si1 0.244840 0.986374 0.212429
Si Si2 0.322614 0.406254 0.473493
Si Si3 0.106899 0.621843 0.288392
Si Si4 0.027258 0.794036 0.608440
Si Si5 0.669063 0.161624 0.923803
Si Si6 0.339897 0.223860 0.039631
O O1 0.171416 0.947570 0.325169
O O2 0.308860 0.054435 0.285536
O O3 0.323819 0.921507 0.157004
O O4 0.183392 0.024348 0.088311
O O5 0.423884 0.356377 0.501148
O O6 0.225533 0.348267 0.473244
O O7 0.103913 0.653799 0.440508
O O8 0.130420 0.697249 0.190872
O O9 0.000000 0.584288 0.250000
O O10 0.110459 0.729833 0.660250
O O11 0.000000 0.839417 0.750000
O O12 0.936689 0.744381 0.545886
O O13 0.779972 0.192445 0.954398
#
# Coordination Sequence:
#
# PCOD8248103 Si02
#       6
#     8   8   8   8   8   8
#     4  11  23  43  66  94 136 177 211 277 346 397
#     4  10  24  43  69  97 134 174 225 272 340 400
#     4  11  23  42  65 100 130 169 225 279 333 404
#     4  11  24  42  68  99 130 172 231 279 328 399
#     4  11  24  41  68  94 135 173 221 275 338 396
#     4  10  24  40  68  93 129 172 225 276 330 395
#
# _framework density 21.856151000000001
#
# number of rings (size 3 to 8) (size 9 to 14) (size 15 to 20)
#    0.000    1.333    3.333    1.000   11.667    2.667 
#    0.000    3.333    0.000    0.000    0.000    0.000 
#    0.000    0.000    0.000    0.000    0.000    0.000 
#
# Total GULP energy -595225.196106 kJ/mol
# GULP energy per Si atom -12400.524919 kJ/mol
# Density = 2.180641 g / cm^3
# Si number density = 21.856151 Si / 1000 Ang^3
#
#
#
# Elastic Constant Matrix: (Units=GPa)
#
#
# Indices 1 2 3 4 5 6 
#
# 1 85.0128 36.7313 40.5988 0.0000 0.0000 0.0000
# 2 36.7313 76.5037 40.7605 0.0000 0.0000 0.0000
# 3 40.5988 40.7605 132.9447 0.0000 0.0000 0.0000
# 4 0.0000 0.0000 0.0000 26.0108 0.0000 0.0000
# 5 0.0000 0.0000 0.0000 0.0000 19.9047 0.0000
# 6 0.0000 0.0000 0.0000 0.0000 0.0000 12.5598
#
#
#
# Elastic Compliance Matrix: (Units=1/GPa)
#
#
# Indices 1 2 3 4 5 6 
#
# 1 0.015772 -0.005984 -0.002982 0.000000 0.000000 0.000000
# 2 -0.005984 0.017894 -0.003659 0.000000 0.000000 0.000000
# 3 -0.002982 -0.003659 0.009554 0.000000 0.000000 0.000000
# 4 0.000000 0.000000 0.000000 0.038446 0.000000 0.000000
# 5 0.000000 0.000000 0.000000 0.000000 0.050239 0.000000
# 6 0.000000 0.000000 0.000000 0.000000 0.000000 0.079619
#
#
# Mechanical properties :
#
#
# Convention : Reuss Voigt Hill
#
# Bulk Modulus (GPa) = 55.64493 58.96028 57.30260
# Shear Modulus (GPa) = 20.59612 23.45311 22.02462
#
# Velocity S-wave (km/s) = 3.07310 3.27932 3.17789
# Velocity P-wave (km/s) = 6.17307 6.43224 6.30399
#
# Compressibility (1/GPa) = 0.01797109
#
# Stress axis : x y z
#
# Youngs Moduli (GPa) = 63.40156 55.88562 104.66474
#
# Poissons Ratio (x) = 0.33442 0.31210
# Poissons Ratio (y) = 0.37940 0.38294
# Poissons Ratio (z) = 0.18906 0.20447
#
# Static dielectric constant tensor:
#      x y z
#    x 3.798920 0.000000 0.000000 
#    y 0.000000 3.921750 0.000000 
#    z 0.000000 0.000000 3.909420 
# 
# 
# High freq. dielectric constant tensor:
#      x y z
#    x 1.849840 0.000000 0.000000 
#    y 0.000000 1.857200 0.000000 
#    z 0.000000 0.000000 1.865790 
# 
# From -- ./inp_files/5926.got.cif
#   From: 2010.03.12/outbox.cif.g09.slc.cpg/sg60_3_cif.got.tgz:5926.got - 2010.04.10 18:46:24.
