data_PCOD8248243
_publ_section_title
;
Structure prediction by ZEFSAII (Michael W. Deem and Ramdas Pophale) SiO2 
 PCOD8248243
Probable space group: P B C N
;
_chemical_formula_sum "Si O2"
_cell_formula_units_Z 28
_cell_length_a 15.734793
_cell_length_b 9.047946
_cell_length_c 7.726467
_cell_angle_alpha 90.000000
_cell_angle_beta 90.000000
_cell_angle_gamma 90.000000
_cell_volume 1099.998234
_symmetry_space_group_name_H-M "P B C N"
_symmetry_group_IT_number 60
_symmetry_cell_setting 'orthorhombic'
loop_
_space_group_symop_operation_xyz
x,y,z
1/2-x,1/2-y,1/2+z
1/2+x,1/2-y,-z
-x,y,1/2-z
-x,-y,-z
1/2+x,1/2+y,1/2-z
1/2-x,1/2+y,z
x,-y,1/2+z
loop_
_atom_site_type_symbol
_atom_site_label
_atom_site_fract_x
_atom_site_fract_y
_atom_site_fract_z
Si Si1 0.281802 0.737521 0.559230
Si Si2 0.684278 0.539932 0.252417
Si Si3 0.500000 0.631864 0.250000
Si Si4 0.970717 0.339439 0.943124
O O1 0.206499 0.857616 0.578575
O O2 0.267241 0.624362 0.401314
O O3 0.282005 0.627284 0.727279
O O4 0.369317 0.827218 0.540952
O O5 0.582769 0.529347 0.228682
O O6 0.513840 0.727355 0.422411
O O7 0.000000 0.301710 0.750000
O O8 0.000000 0.500000 0.000000
#
# Coordination Sequence:
#
# PCOD8248243 Si02
#       4
#     8   8   4   8
#     4  11  27  44  75 104 146 191 245 306 367 443
#     4  11  26  47  72 108 143 194 243 308 371 438
#     4  10  26  46  70 106 148 186 248 300 378 444
#     4  11  25  43  73 103 143 192 240 303 368 441
#
# _framework density 25.454588999999999
#
# number of rings (size 3 to 8) (size 9 to 14) (size 15 to 20)
#    0.000    1.143    1.429    1.714   14.000    2.286 
#    0.000    0.000    0.000    0.000    0.000    0.000 
#    0.000    0.000    0.000    0.000    0.000    0.000 
#
# Total GULP energy -347224.950898 kJ/mol
# GULP energy per Si atom -12400.891104 kJ/mol
# Density = 2.539665 g / cm^3
# Si number density = 25.454589 Si / 1000 Ang^3
#
#
#
# Elastic Constant Matrix: (Units=GPa)
#
#
# Indices 1 2 3 4 5 6 
#
# 1 56.7125 28.8063 -20.3095 0.0000 0.0000 0.0000
# 2 28.8063 119.2765 -11.7296 0.0000 0.0000 0.0000
# 3 -20.3095 -11.7296 95.7801 0.0000 0.0000 0.0000
# 4 0.0000 0.0000 0.0000 26.4471 0.0000 0.0000
# 5 0.0000 0.0000 0.0000 0.0000 31.5410 0.0000
# 6 0.0000 0.0000 0.0000 0.0000 0.0000 34.6391
#
#
#
# Elastic Compliance Matrix: (Units=1/GPa)
#
#
# Indices 1 2 3 4 5 6 
#
# 1 0.021493 -0.004800 0.003969 0.000000 0.000000 0.000000
# 2 -0.004800 0.009558 0.000153 0.000000 0.000000 0.000000
# 3 0.003969 0.000153 0.011301 0.000000 0.000000 0.000000
# 4 0.000000 0.000000 0.000000 0.037811 0.000000 0.000000
# 5 0.000000 0.000000 0.000000 0.000000 0.031705 0.000000
# 6 0.000000 0.000000 0.000000 0.000000 0.000000 0.028869
#
#
# Mechanical properties :
#
#
# Convention : Reuss Voigt Hill
#
# Bulk Modulus (GPa) = 24.39291 29.47816 26.93553
# Shear Modulus (GPa) = 32.10101 36.85891 34.47996
#
# Velocity S-wave (km/s) = 3.55506 3.80942 3.68444
# Velocity P-wave (km/s) = 5.14344 5.56370 5.35769
#
# Compressibility (1/GPa) = 0.04099552
#
# Stress axis : x y z
#
# Youngs Moduli (GPa) = 46.52772 104.62219 88.48787
#
# Poissons Ratio (x) = 0.50222 -0.35125
# Poissons Ratio (y) = 0.22335 -0.01351
# Poissons Ratio (z) = -0.18469 -0.01597
#
# Static dielectric constant tensor:
#      x y z
#    x 4.219220 0.000000 0.000000 
#    y 0.000000 4.668380 0.000000 
#    z 0.000000 0.000000 4.987860 
# 
# 
# High freq. dielectric constant tensor:
#      x y z
#    x 1.998370 0.000000 0.000000 
#    y 0.000000 2.029800 0.000000 
#    z 0.000000 0.000000 2.040990 
# 
# From -- ./inp_files/6452.got.cif
#   From: 2010.03.12/outbox.cif.g09.slc.cpg/sg60_4_cif.got.tgz:6452.got - 2010.04.10 18:46:24.
