data_PCOD8248750
_publ_section_title
;
Structure prediction by ZEFSAII (Michael W. Deem and Ramdas Pophale) SiO2 
 PCOD8248750
Probable space group: P B C A
;
_chemical_formula_sum "Si O2"
_cell_formula_units_Z 64
_cell_length_a 14.732164
_cell_length_b 14.947020
_cell_length_c 16.429528
_cell_angle_alpha 90.000000
_cell_angle_beta 90.000000
_cell_angle_gamma 90.000000
_cell_volume 3617.814102
_symmetry_space_group_name_H-M "P B C A"
_symmetry_group_IT_number 61
_symmetry_cell_setting 'orthorhombic'
loop_
_space_group_symop_operation_xyz
x,y,z
1/2-x,-y,1/2+z
1/2+x,1/2-y,-z
-x,1/2+y,1/2-z
-x,-y,-z
1/2+x,y,1/2-z
1/2-x,1/2+y,z
x,1/2-y,1/2+z
loop_
_atom_site_type_symbol
_atom_site_label
_atom_site_fract_x
_atom_site_fract_y
_atom_site_fract_z
Si Si1 0.523821 0.815046 0.826820
Si Si2 0.977585 0.273184 0.646182
Si Si3 0.481552 0.102199 0.505560
Si Si4 0.640938 0.340671 0.410701
Si Si5 0.085922 0.966419 0.548405
Si Si6 0.160580 0.804864 0.093260
Si Si7 0.373040 0.731597 0.926217
Si Si8 0.824932 0.323858 0.058417
O O1 0.524684 0.828423 0.730162
O O2 0.555661 0.901407 0.877910
O O3 0.597513 0.736571 0.837452
O O4 0.421982 0.784860 0.852880
O O5 0.973797 0.353065 0.582243
O O6 0.894680 0.204158 0.629886
O O7 0.067558 0.211543 0.643387
O O8 0.388552 0.107173 0.557714
O O9 0.563920 0.149087 0.551431
O O10 0.500000 0.000000 0.500000
O O11 0.631425 0.447615 0.409981
O O12 0.739783 0.323118 0.371549
O O13 0.636255 0.303943 0.502210
O O14 0.152775 0.921619 0.480382
O O15 0.000000 0.000000 0.500000
O O16 0.161917 0.738669 0.017937
O O17 0.275896 0.687530 0.903871
#
# Coordination Sequence:
#
# PCOD8248750 Si02
#       8
#     8   8   8   8   8   8   8   8
#     4  10  20  36  53  77 113 146 177 226 280 335
#     4  10  20  35  54  74 112 148 173 222 287 330
#     4   9  18  34  52  79 107 140 184 223 264 324
#     4  10  18  34  60  81 103 139 184 229 270 322
#     4  11  18  34  60  85 105 134 195 237 263 312
#     4   8  18  34  54  74 103 141 179 220 267 326
#     4   9  18  34  56  78 103 143 182 217 273 324
#     4   9  18  33  55  80 100 138 182 225 265 321
#
# _framework density 17.690238999999998
#
# number of rings (size 3 to 8) (size 9 to 14) (size 15 to 20)
#    0.000    2.500    2.500    1.500    1.750    1.000 
#    4.500    0.000    0.000    0.000    0.000    0.000 
#    0.000    0.000    0.000    0.000    0.000    0.000 
#
# Total GULP energy -792973.602370 kJ/mol
# GULP energy per Si atom -12390.212537 kJ/mol
# Density = 1.764998 g / cm^3
# Si number density = 17.690239 Si / 1000 Ang^3
#
#
#
# Elastic Constant Matrix: (Units=GPa)
#
#
# Indices 1 2 3 4 5 6 
#
# 1 136.9456 33.7340 36.0676 0.0000 0.0000 0.0000
# 2 33.7340 108.1622 28.0570 0.0000 0.0000 0.0000
# 3 36.0676 28.0570 64.6759 0.0000 0.0000 0.0000
# 4 0.0000 0.0000 0.0000 15.2744 0.0000 0.0000
# 5 0.0000 0.0000 0.0000 0.0000 11.6571 0.0000
# 6 0.0000 0.0000 0.0000 0.0000 0.0000 19.6336
#
#
#
# Elastic Compliance Matrix: (Units=1/GPa)
#
#
# Indices 1 2 3 4 5 6 
#
# 1 0.008817 -0.001661 -0.004196 0.000000 0.000000 0.000000
# 2 -0.001661 0.010731 -0.003729 0.000000 0.000000 0.000000
# 3 -0.004196 -0.003729 0.019419 0.000000 0.000000 0.000000
# 4 0.000000 0.000000 0.000000 0.065469 0.000000 0.000000
# 5 0.000000 0.000000 0.000000 0.000000 0.085784 0.000000
# 6 0.000000 0.000000 0.000000 0.000000 0.000000 0.050933
#
#
# Mechanical properties :
#
#
# Convention : Reuss Voigt Hill
#
# Bulk Modulus (GPa) = 50.51892 56.16678 53.34285
# Shear Modulus (GPa) = 18.73201 23.44138 21.08670
#
# Velocity S-wave (km/s) = 3.25759 3.64414 3.45628
# Velocity P-wave (km/s) = 6.53978 7.03743 6.79316
#
# Compressibility (1/GPa) = 0.01979457
#
# Stress axis : x y z
#
# Youngs Moduli (GPa) = 113.42367 93.19064 51.49551
#
# Poissons Ratio (x) = 0.15482 0.21607
# Poissons Ratio (y) = 0.18843 0.19201
# Poissons Ratio (z) = 0.47592 0.34747
#
# Static dielectric constant tensor:
#      x y z
#    x -123.698860 0.000000 0.000000 
#    y 0.000000 3.395260 0.000000 
#    z 0.000000 0.000000 2.955140 
# 
# 
# High freq. dielectric constant tensor:
#      x y z
#    x 1.697160 0.000000 0.000000 
#    y 0.000000 1.677040 0.000000 
#    z 0.000000 0.000000 1.654690 
# 
# From -- ./inp_files/9592.got.cif
#   From: 2010.03.12/outbox.cif.g09.slc.cpg/sg61_5_cif.got.tgz:9592.got - 2010.04.10 19:05:03.
