data_PCOD8248616
_publ_section_title
;
Structure prediction by ZEFSAII (Michael W. Deem and Ramdas Pophale) SiO2 
 PCOD8248616
Probable space group: P B C N
;
_chemical_formula_sum "Si O2"
_cell_formula_units_Z 48
_cell_length_a 8.378764
_cell_length_b 11.845154
_cell_length_c 21.371826
_cell_angle_alpha 90.000000
_cell_angle_beta 90.000000
_cell_angle_gamma 90.000000
_cell_volume 2121.105642
_symmetry_space_group_name_H-M "P B C N"
_symmetry_group_IT_number 60
_symmetry_cell_setting 'orthorhombic'
loop_
_space_group_symop_operation_xyz
x,y,z
1/2-x,1/2-y,1/2+z
1/2+x,1/2-y,-z
-x,y,1/2-z
-x,-y,-z
1/2+x,1/2+y,1/2-z
1/2-x,1/2+y,z
x,-y,1/2+z
loop_
_atom_site_type_symbol
_atom_site_label
_atom_site_fract_x
_atom_site_fract_y
_atom_site_fract_z
Si Si1 0.078348 0.587671 0.684866
Si Si2 0.877151 0.229143 0.597130
Si Si3 0.453411 0.688693 0.361011
Si Si4 0.555749 0.953882 0.933781
Si Si5 0.110990 0.900019 0.523324
Si Si6 0.051791 0.053917 0.683084
O O1 0.993512 0.530718 0.624157
O O2 0.258787 0.547344 0.683161
O O3 0.000000 0.545935 0.750000
O O4 0.059412 0.722502 0.678148
O O5 0.730780 0.271045 0.639843
O O6 0.813206 0.168389 0.534371
O O7 0.989294 0.330175 0.576400
O O8 0.989124 0.141633 0.632615
O O9 0.508609 0.683793 0.433164
O O10 0.471749 0.567651 0.328637
O O11 0.748236 0.951748 0.934275
O O12 0.500000 0.000000 0.000000
O O13 0.000000 0.000000 0.500000
O O14 0.000000 0.100346 0.750000
#
# Coordination Sequence:
#
# PCOD8248616 Si02
#       6
#     8   8   8   8   8   8
#     4  12  27  50  76 108 150 198 254 310 384 455
#     4  12  26  44  75 110 152 195 251 309 387 449
#     4  12  26  48  74 107 153 194 252 310 381 455
#     4  12  26  45  76 111 151 197 252 313 382 453
#     4  12  22  45  73 109 150 192 246 315 375 450
#     4  12  28  49  75 107 149 196 257 314 376 457
#
# _framework density 22.629708000000001
#
# number of rings (size 3 to 8) (size 9 to 14) (size 15 to 20)
#    0.000    0.000    3.333    6.500    4.667    0.667 
#    0.000    0.000    0.000    0.000    0.000    0.000 
#    0.000    0.000    0.000    0.000    0.000    0.000 
#
# Total GULP energy -595478.692162 kJ/mol
# GULP energy per Si atom -12405.806087 kJ/mol
# Density = 2.257820 g / cm^3
# Si number density = 22.629708 Si / 1000 Ang^3
#
#
#
# Elastic Constant Matrix: (Units=GPa)
#
#
# Indices 1 2 3 4 5 6 
#
# 1 114.5818 35.8319 27.4014 0.0000 0.0000 0.0000
# 2 35.8319 132.2027 50.8627 0.0000 0.0000 0.0000
# 3 27.4014 50.8627 156.9475 0.0000 0.0000 0.0000
# 4 0.0000 0.0000 0.0000 34.7829 0.0000 0.0000
# 5 0.0000 0.0000 0.0000 0.0000 36.8083 0.0000
# 6 0.0000 0.0000 0.0000 0.0000 0.0000 34.9490
#
#
#
# Elastic Compliance Matrix: (Units=1/GPa)
#
#
# Indices 1 2 3 4 5 6 
#
# 1 0.009660 -0.002250 -0.000957 0.000000 0.000000 0.000000
# 2 -0.002250 0.009166 -0.002578 0.000000 0.000000 0.000000
# 3 -0.000957 -0.002578 0.007374 0.000000 0.000000 0.000000
# 4 0.000000 0.000000 0.000000 0.028750 0.000000 0.000000
# 5 0.000000 0.000000 0.000000 0.000000 0.027168 0.000000
# 6 0.000000 0.000000 0.000000 0.000000 0.000000 0.028613
#
#
# Mechanical properties :
#
#
# Convention : Reuss Voigt Hill
#
# Bulk Modulus (GPa) = 68.35291 70.21378 69.28335
# Shear Modulus (GPa) = 39.31545 40.61710 39.96628
#
# Velocity S-wave (km/s) = 4.17266 4.24117 4.20706
# Velocity P-wave (km/s) = 7.31337 7.42146 7.36761
#
# Compressibility (1/GPa) = 0.01462995
#
# Stress axis : x y z
#
# Youngs Moduli (GPa) = 103.52051 109.10353 135.61120
#
# Poissons Ratio (x) = 0.24547 0.12983
# Poissons Ratio (y) = 0.23291 0.34954
# Poissons Ratio (z) = 0.09911 0.28122
#
# Static dielectric constant tensor:
#      x y z
#    x 4.062170 0.000000 0.000000 
#    y 0.000000 4.095790 0.000000 
#    z 0.000000 0.000000 4.366540 
# 
# 
# High freq. dielectric constant tensor:
#      x y z
#    x 1.895560 0.000000 0.000000 
#    y 0.000000 1.900280 0.000000 
#    z 0.000000 0.000000 1.911940 
# 
# From -- ./inp_files/23929.got.cif
#   From: 2010.03.12/outbox.cif.g09.slc.cpg/sg60_12_cif.got.tgz:23929.got - 2010.04.10 18:46:24.
