data_PCOD8248180
_publ_section_title
;
Structure prediction by ZEFSAII (Michael W. Deem and Ramdas Pophale) SiO2 
 PCOD8248180
Probable space group: P B C N
;
_chemical_formula_sum "Si O2"
_cell_formula_units_Z 48
_cell_length_a 16.043440
_cell_length_b 8.832464
_cell_length_c 17.050406
_cell_angle_alpha 90.000000
_cell_angle_beta 90.000000
_cell_angle_gamma 90.000000
_cell_volume 2416.095493
_symmetry_space_group_name_H-M "P B C N"
_symmetry_group_IT_number 60
_symmetry_cell_setting 'orthorhombic'
loop_
_space_group_symop_operation_xyz
x,y,z
1/2-x,1/2-y,1/2+z
1/2+x,1/2-y,-z
-x,y,1/2-z
-x,-y,-z
1/2+x,1/2+y,1/2-z
1/2-x,1/2+y,z
x,-y,1/2+z
loop_
_atom_site_type_symbol
_atom_site_label
_atom_site_fract_x
_atom_site_fract_y
_atom_site_fract_z
Si Si1 0.838842 0.524145 0.681017
Si Si2 0.711072 0.745556 0.448979
Si Si3 0.802350 0.833136 0.600396
Si Si4 0.506684 0.173877 0.162025
Si Si5 0.170360 0.541369 0.140465
Si Si6 0.074891 0.075027 0.954163
O O1 0.829452 0.696732 0.655868
O O2 0.779566 0.412730 0.633285
O O3 0.933318 0.472490 0.664661
O O4 0.815969 0.517321 0.772063
O O5 0.781752 0.770861 0.514339
O O6 0.755327 0.658256 0.377653
O O7 0.636238 0.645273 0.481821
O O8 0.673378 0.903074 0.420015
O O9 0.878319 0.949802 0.597642
O O10 0.500000 0.241949 0.250000
O O11 0.417833 0.123303 0.128901
O O12 0.542911 0.300333 0.105726
O O13 0.000000 0.000000 0.000000
#
# Coordination Sequence:
#
# PCOD8248180 Si02
#       6
#     8   8   8   8   8   8
#     4  11  22  43  67  94 130 176 216 265 324 387
#     4  12  23  43  65  97 130 169 216 269 325 388
#     4  12  22  43  68  96 129 173 221 262 323 394
#     4  10  24  46  67  94 134 172 215 271 328 387
#     4  11  25  42  66  98 131 168 217 270 325 386
#     4  12  26  43  65  97 130 171 219 271 332 388
#
# _framework density 19.866765999999998
#
# number of rings (size 3 to 8) (size 9 to 14) (size 15 to 20)
#    0.000    0.667    5.000    2.000    2.333    2.000 
#    3.000    0.000    0.000    0.000    0.000    0.000 
#    0.000    0.000    0.000    0.000    0.000    0.000 
#
# Total GULP energy -595554.777762 kJ/mol
# GULP energy per Si atom -12407.391203 kJ/mol
# Density = 1.982155 g / cm^3
# Si number density = 19.866766 Si / 1000 Ang^3
#
#
#
# Elastic Constant Matrix: (Units=GPa)
#
#
# Indices 1 2 3 4 5 6 
#
# 1 127.9035 59.1942 57.1736 0.0000 0.0000 0.0000
# 2 59.1942 108.9489 43.1128 0.0000 0.0000 0.0000
# 3 57.1736 43.1128 94.8861 0.0000 0.0000 0.0000
# 4 0.0000 0.0000 0.0000 39.0215 0.0000 0.0000
# 5 0.0000 0.0000 0.0000 0.0000 32.1564 0.0000
# 6 0.0000 0.0000 0.0000 0.0000 0.0000 34.1795
#
#
#
# Elastic Compliance Matrix: (Units=1/GPa)
#
#
# Indices 1 2 3 4 5 6 
#
# 1 0.012329 -0.004583 -0.005347 0.000000 0.000000 0.000000
# 2 -0.004583 0.012894 -0.003097 0.000000 0.000000 0.000000
# 3 -0.005347 -0.003097 0.015168 0.000000 0.000000 0.000000
# 4 0.000000 0.000000 0.000000 0.025627 0.000000 0.000000
# 5 0.000000 0.000000 0.000000 0.000000 0.031098 0.000000
# 6 0.000000 0.000000 0.000000 0.000000 0.000000 0.029257
#
#
# Mechanical properties :
#
#
# Convention : Reuss Voigt Hill
#
# Bulk Modulus (GPa) = 69.74633 72.29997 71.02315
# Shear Modulus (GPa) = 31.80520 32.55535 32.18027
#
# Velocity S-wave (km/s) = 4.00550 4.05246 4.02905
# Velocity P-wave (km/s) = 7.52165 7.63989 7.58100
#
# Compressibility (1/GPa) = 0.01433767
#
# Stress axis : x y z
#
# Youngs Moduli (GPa) = 81.10643 77.55375 65.92884
#
# Poissons Ratio (x) = 0.35543 0.35250
# Poissons Ratio (y) = 0.37172 0.20419
# Poissons Ratio (z) = 0.43366 0.24020
#
# Static dielectric constant tensor:
#      x y z
#    x 3.815270 0.000000 0.000000 
#    y 0.000000 3.612640 0.000000 
#    z 0.000000 0.000000 3.781710 
# 
# 
# High freq. dielectric constant tensor:
#      x y z
#    x 1.785630 0.000000 0.000000 
#    y 0.000000 1.785550 0.000000 
#    z 0.000000 0.000000 1.785400 
# 
# From -- ./inp_files/20465.got.cif
#   From: 2010.03.12/outbox.cif.g09.slc.cpg/sg60_11_cif.got.tgz:20465.got - 2010.04.10 18:46:24.
