data_PCOD8248531
_publ_section_title
;
Structure prediction by ZEFSAII (Michael W. Deem and Ramdas Pophale) SiO2 
 PCOD8248531
Probable space group: P B C N
;
_chemical_formula_sum "Si O2"
_cell_formula_units_Z 56
_cell_length_a 5.112548
_cell_length_b 26.133163
_cell_length_c 18.290242
_cell_angle_alpha 90.000000
_cell_angle_beta 90.000000
_cell_angle_gamma 90.000000
_cell_volume 2443.705282
_symmetry_space_group_name_H-M "P B C N"
_symmetry_group_IT_number 60
_symmetry_cell_setting 'orthorhombic'
loop_
_space_group_symop_operation_xyz
x,y,z
1/2-x,1/2-y,1/2+z
1/2+x,1/2-y,-z
-x,y,1/2-z
-x,-y,-z
1/2+x,1/2+y,1/2-z
1/2-x,1/2+y,z
x,-y,1/2+z
loop_
_atom_site_type_symbol
_atom_site_label
_atom_site_fract_x
_atom_site_fract_y
_atom_site_fract_z
Si Si1 0.483676 0.732059 0.963241
Si Si2 0.588024 0.018193 0.167612
Si Si3 0.517076 0.382681 0.029033
Si Si4 0.500000 0.166655 0.750000
Si Si5 0.814758 0.259174 0.689940
Si Si6 0.030149 0.406522 0.116795
Si Si7 0.391140 0.421858 0.632010
Si Si8 0.000000 0.156192 0.250000
O O1 0.591415 0.674827 0.965387
O O2 0.482159 0.754189 0.882443
O O3 0.688296 0.766870 0.006743
O O4 0.500000 0.026083 0.250000
O O5 0.377631 0.047792 0.117356
O O6 0.878321 0.039828 0.156642
O O7 0.585234 0.958877 0.147735
O O8 0.297253 0.416375 0.071103
O O9 0.802063 0.384175 0.065723
O O10 0.527566 0.397407 0.944588
O O11 0.719748 0.203245 0.715594
O O12 0.396093 0.131308 0.683939
O O13 0.609878 0.305630 0.686675
O O14 0.000000 0.283166 0.750000
O O15 0.331152 0.380705 0.696757
#
# Coordination Sequence:
#
# PCOD8248531 Si02
#       8
#     8   8   8   4   8   8   8   4
#     4  12  27  47  70 104 150 192 240 292 358 428
#     4  12  25  48  74 106 139 189 240 303 359 425
#     4  12  27  46  72 108 146 193 233 304 364 422
#     4  11  24  46  70 106 138 184 234 305 342 440
#     4  11  26  44  74 102 141 186 243 293 351 420
#     4  12  26  47  77 105 142 187 244 293 372 422
#     4  12  27  47  71 104 149 182 242 293 355 438
#     4  11  26  44  72 104 136 194 236 287 350 428
#
# _framework density 22.916022999999999
#
# number of rings (size 3 to 8) (size 9 to 14) (size 15 to 20)
#    0.000    0.286    3.571    4.286    8.000    3.429 
#    0.000    0.000    0.000    0.000    0.000    0.000 
#    0.000    0.000    0.000    0.000    0.000    0.000 
#
# Total GULP energy -694230.861014 kJ/mol
# GULP energy per Si atom -12396.979661 kJ/mol
# Density = 2.286386 g / cm^3
# Si number density = 22.916023 Si / 1000 Ang^3
#
#
#
# Elastic Constant Matrix: (Units=GPa)
#
#
# Indices 1 2 3 4 5 6 
#
# 1 73.6471 16.5179 18.0070 0.0000 0.0000 0.0000
# 2 16.5179 118.9817 21.9851 0.0000 0.0000 0.0000
# 3 18.0070 21.9851 119.8098 0.0000 0.0000 0.0000
# 4 0.0000 0.0000 0.0000 20.7961 0.0000 0.0000
# 5 0.0000 0.0000 0.0000 0.0000 33.7107 0.0000
# 6 0.0000 0.0000 0.0000 0.0000 0.0000 23.4464
#
#
#
# Elastic Compliance Matrix: (Units=1/GPa)
#
#
# Indices 1 2 3 4 5 6 
#
# 1 0.014405 -0.001656 -0.001861 0.000000 0.000000 0.000000
# 2 -0.001656 0.008890 -0.001382 0.000000 0.000000 0.000000
# 3 -0.001861 -0.001382 0.008880 0.000000 0.000000 0.000000
# 4 0.000000 0.000000 0.000000 0.048086 0.000000 0.000000
# 5 0.000000 0.000000 0.000000 0.000000 0.029664 0.000000
# 6 0.000000 0.000000 0.000000 0.000000 0.000000 0.042651
#
#
# Mechanical properties :
#
#
# Convention : Reuss Voigt Hill
#
# Bulk Modulus (GPa) = 44.69118 47.27316 45.98217
# Shear Modulus (GPa) = 29.44074 32.65254 31.04664
#
# Velocity S-wave (km/s) = 3.58819 3.77885 3.68475
# Velocity P-wave (km/s) = 6.05899 6.30185 6.18161
#
# Compressibility (1/GPa) = 0.02237578
#
# Stress axis : x y z
#
# Youngs Moduli (GPa) = 69.42179 112.48626 112.61311
#
# Poissons Ratio (x) = 0.18626 0.20959
# Poissons Ratio (y) = 0.11495 0.15568
# Poissons Ratio (z) = 0.12920 0.15551
#
# Static dielectric constant tensor:
#      x y z
#    x 4.553880 0.000000 0.000000 
#    y 0.000000 4.172470 0.000000 
#    z 0.000000 0.000000 4.153100 
# 
# 
# High freq. dielectric constant tensor:
#      x y z
#    x 1.902060 0.000000 0.000000 
#    y 0.000000 1.917550 0.000000 
#    z 0.000000 0.000000 1.917420 
# 
# From -- ./inp_files/21745.got.cif
#   From: 2010.03.12/outbox.cif.g09.slc.cpg/sg60_11_cif.got.tgz:21745.got - 2010.04.10 18:46:24.
