data_PCOD8248423
_publ_section_title
;
Structure prediction by ZEFSAII (Michael W. Deem and Ramdas Pophale) SiO2 
 PCOD8248423
Probable space group: P B C N
;
_chemical_formula_sum "Si O2"
_cell_formula_units_Z 48
_cell_length_a 31.536698
_cell_length_b 9.007957
_cell_length_c 8.609014
_cell_angle_alpha 90.000000
_cell_angle_beta 90.000000
_cell_angle_gamma 90.000000
_cell_volume 2445.659196
_symmetry_space_group_name_H-M "P B C N"
_symmetry_group_IT_number 60
_symmetry_cell_setting 'orthorhombic'
loop_
_space_group_symop_operation_xyz
x,y,z
1/2-x,1/2-y,1/2+z
1/2+x,1/2-y,-z
-x,y,1/2-z
-x,-y,-z
1/2+x,1/2+y,1/2-z
1/2-x,1/2+y,z
x,-y,1/2+z
loop_
_atom_site_type_symbol
_atom_site_label
_atom_site_fract_x
_atom_site_fract_y
_atom_site_fract_z
Si Si1 0.458837 0.802658 0.806350
Si Si2 0.539787 0.117130 0.838344
Si Si3 0.288093 0.304486 0.718731
Si Si4 0.632926 0.881562 0.331182
Si Si5 0.786749 0.880373 0.142027
Si Si6 0.633956 0.194083 0.185640
O O1 0.500000 0.703152 0.750000
O O2 0.412407 0.728088 0.786451
O O3 0.460613 0.941595 0.689277
O O4 0.465435 0.855099 0.980936
O O5 0.500000 0.195230 0.750000
O O6 0.585932 0.173839 0.777562
O O7 0.332821 0.223813 0.750766
O O8 0.285673 0.444256 0.832339
O O9 0.251316 0.191377 0.762883
O O10 0.282539 0.351316 0.540397
O O11 0.637279 0.872106 0.514838
O O12 0.641452 0.054530 0.297512
O O13 0.830575 0.817975 0.213557
#
# Coordination Sequence:
#
# PCOD8248423 Si02
#       6
#     8   8   8   8   8   8
#     4   9  15  25  42  68  99 131 165 205 248 294
#     4   9  15  25  42  68  99 131 165 205 248 294
#     4  11  23  39  57  79 105 136 172 214 260 311
#     4   9  19  33  51  75 105 136 170 210 255 303
#     4  11  23  39  57  79 105 136 172 214 260 311
#     4   9  19  33  51  75 105 136 170 210 255 303
#
# _framework density 19.626611
#
# number of rings (size 3 to 8) (size 9 to 14) (size 15 to 20)
#    0.000    2.333    0.000    4.000    0.000    6.667 
#    0.000    0.000    0.000    1.000    0.000    7.000 
#    0.000    0.000    0.000    0.000    0.000    0.000 
#
# Total GULP energy -594818.043647 kJ/mol
# GULP energy per Si atom -12392.042576 kJ/mol
# Density = 1.958194 g / cm^3
# Si number density = 19.626611 Si / 1000 Ang^3
#
#
#
# Elastic Constant Matrix: (Units=GPa)
#
#
# Indices 1 2 3 4 5 6 
#
# 1 169.9873 29.5649 23.9079 0.0000 0.0000 0.0000
# 2 29.5649 46.2363 -0.9927 0.0000 0.0000 0.0000
# 3 23.9079 -0.9927 31.1080 0.0000 0.0000 0.0000
# 4 0.0000 0.0000 0.0000 20.4160 0.0000 0.0000
# 5 0.0000 0.0000 0.0000 0.0000 30.7270 0.0000
# 6 0.0000 0.0000 0.0000 0.0000 0.0000 16.2446
#
#
#
# Elastic Compliance Matrix: (Units=1/GPa)
#
#
# Indices 1 2 3 4 5 6 
#
# 1 0.007593 -0.004984 -0.005994 0.000000 0.000000 0.000000
# 2 -0.004984 0.024914 0.004625 0.000000 0.000000 0.000000
# 3 -0.005994 0.004625 0.036901 0.000000 0.000000 0.000000
# 4 0.000000 0.000000 0.000000 0.048981 0.000000 0.000000
# 5 0.000000 0.000000 0.000000 0.000000 0.032545 0.000000
# 6 0.000000 0.000000 0.000000 0.000000 0.000000 0.061559
#
#
# Mechanical properties :
#
#
# Convention : Reuss Voigt Hill
#
# Bulk Modulus (GPa) = 17.63616 39.14353 28.38985
# Shear Modulus (GPa) = 20.48356 26.46762 23.47559
#
# Velocity S-wave (km/s) = 3.23408 3.67626 3.46223
# Velocity P-wave (km/s) = 4.79073 6.16500 5.52079
#
# Compressibility (1/GPa) = 0.05670170
#
# Stress axis : x y z
#
# Youngs Moduli (GPa) = 131.70636 40.13799 27.09981
#
# Poissons Ratio (x) = 0.20003 0.16245
# Poissons Ratio (y) = 0.65638 -0.12534
# Poissons Ratio (z) = 0.78949 -0.18565
#
# Static dielectric constant tensor:
#      x y z
#    x 4.583930 0.000000 0.000000 
#    y 0.000000 3.124870 0.000000 
#    z 0.000000 0.000000 3.520490 
# 
# 
# High freq. dielectric constant tensor:
#      x y z
#    x 1.801980 0.000000 0.000000 
#    y 0.000000 1.704150 0.000000 
#    z 0.000000 0.000000 1.769320 
# 
# From -- ./inp_files/8407.got.cif
#   From: 2010.03.12/outbox.cif.g09.slc.cpg/sg60_5_cif.got.tgz:8407.got - 2010.04.10 18:46:24.
