data_PCOD8248255
_publ_section_title
;
Structure prediction by ZEFSAII (Michael W. Deem and Ramdas Pophale) SiO2 
 PCOD8248255
Probable space group: P B C N
;
_chemical_formula_sum "Si O2"
_cell_formula_units_Z 64
_cell_length_a 18.850906
_cell_length_b 14.929420
_cell_length_c 9.509478
_cell_angle_alpha 90.000000
_cell_angle_beta 90.000000
_cell_angle_gamma 90.000000
_cell_volume 2676.281807
_symmetry_space_group_name_H-M "P B C N"
_symmetry_group_IT_number 60
_symmetry_cell_setting 'orthorhombic'
loop_
_space_group_symop_operation_xyz
x,y,z
1/2-x,1/2-y,1/2+z
1/2+x,1/2-y,-z
-x,y,1/2-z
-x,-y,-z
1/2+x,1/2+y,1/2-z
1/2-x,1/2+y,z
x,-y,1/2+z
loop_
_atom_site_type_symbol
_atom_site_label
_atom_site_fract_x
_atom_site_fract_y
_atom_site_fract_z
Si Si1 0.948342 0.580828 0.128363
Si Si2 0.311542 0.588348 0.789771
Si Si3 0.788324 0.642197 0.471773
Si Si4 0.400382 0.765571 0.153992
Si Si5 0.065255 0.773411 0.355259
Si Si6 0.802662 0.892330 0.734709
Si Si7 0.261465 0.165481 0.543934
Si Si8 0.568593 0.888770 0.088427
O O1 0.908049 0.671417 0.178789
O O2 0.901442 0.490958 0.113273
O O3 0.000000 0.548514 0.250000
O O4 0.991282 0.605670 0.983982
O O5 0.241576 0.617254 0.875334
O O6 0.374764 0.654342 0.829850
O O7 0.337319 0.486301 0.817285
O O8 0.287690 0.596573 0.628622
O O9 0.751235 0.576494 0.359426
O O10 0.763336 0.736616 0.412050
O O11 0.873341 0.647734 0.478499
O O12 0.363999 0.678040 0.224036
O O13 0.438848 0.823757 0.275725
O O14 0.451349 0.727613 0.026134
O O15 0.345304 0.835999 0.080569
O O16 0.000000 0.796352 0.250000
O O17 0.751066 0.850394 0.619070
#
# Coordination Sequence:
#
# PCOD8248255 Si02
#       8
#     8   8   8   8   8   8   8   8
#     4  10  27  46  69 100 147 191 249 295 354 452
#     4  12  24  45  69 104 150 187 244 305 375 432
#     4  11  22  43  70 107 143 182 235 299 382 433
#     4  11  24  46  75 108 148 188 245 300 376 444
#     4  11  27  48  71  97 143 205 246 304 360 441
#     4  11  24  40  70 110 148 181 233 310 366 450
#     4  11  22  41  70 108 145 186 228 306 371 445
#     4  11  24  46  71 109 143 193 238 307 370 440
#
# _framework density 23.913772999999999
#
# number of rings (size 3 to 8) (size 9 to 14) (size 15 to 20)
#    0.000    1.000    5.000    1.500    7.000    3.000 
#    0.000    0.625    2.750    0.000    0.000    0.000 
#    0.000    0.000    0.000    0.000    0.000    0.000 
#
# Total GULP energy -792840.789241 kJ/mol
# GULP energy per Si atom -12388.137332 kJ/mol
# Density = 2.385934 g / cm^3
# Si number density = 23.913773 Si / 1000 Ang^3
#
#
#
# Elastic Constant Matrix: (Units=GPa)
#
#
# Indices 1 2 3 4 5 6 
#
# 1 75.4353 37.4146 35.8345 0.0000 0.0000 0.0000
# 2 37.4146 126.2965 29.5277 0.0000 0.0000 0.0000
# 3 35.8345 29.5277 134.7945 0.0000 0.0000 0.0000
# 4 0.0000 0.0000 0.0000 26.0623 0.0000 0.0000
# 5 0.0000 0.0000 0.0000 0.0000 38.6187 0.0000
# 6 0.0000 0.0000 0.0000 0.0000 0.0000 27.0970
#
#
#
# Elastic Compliance Matrix: (Units=1/GPa)
#
#
# Indices 1 2 3 4 5 6 
#
# 1 0.017061 -0.004209 -0.003613 0.000000 0.000000 0.000000
# 2 -0.004209 0.009384 -0.000937 0.000000 0.000000 0.000000
# 3 -0.003613 -0.000937 0.008584 0.000000 0.000000 0.000000
# 4 0.000000 0.000000 0.000000 0.038370 0.000000 0.000000
# 5 0.000000 0.000000 0.000000 0.000000 0.025894 0.000000
# 6 0.000000 0.000000 0.000000 0.000000 0.000000 0.036904
#
#
# Mechanical properties :
#
#
# Convention : Reuss Voigt Hill
#
# Bulk Modulus (GPa) = 57.10907 60.23110 58.67008
# Shear Modulus (GPa) = 31.33765 33.93892 32.63828
#
# Velocity S-wave (km/s) = 3.62393 3.77134 3.69837
# Velocity P-wave (km/s) = 6.43767 6.64872 6.54405
#
# Compressibility (1/GPa) = 0.01751035
#
# Stress axis : x y z
#
# Youngs Moduli (GPa) = 58.61440 106.56629 116.48941
#
# Poissons Ratio (x) = 0.44857 0.42092
# Poissons Ratio (y) = 0.24673 0.10910
# Poissons Ratio (z) = 0.21180 0.09981
#
# Static dielectric constant tensor:
#      x y z
#    x 4.027310 0.000000 0.000000 
#    y 0.000000 4.483750 0.000000 
#    z 0.000000 0.000000 4.649250 
# 
# 
# High freq. dielectric constant tensor:
#      x y z
#    x 1.919030 0.000000 0.000000 
#    y 0.000000 1.955150 0.000000 
#    z 0.000000 0.000000 1.971740 
# 
# From -- ./inp_files/12545.got.cif
#   From: 2010.03.12/outbox.cif.g09.slc.cpg/sg60_7_cif.got.tgz:12545.got - 2010.04.10 18:46:24.
