data_PCOD8248068
_publ_section_title
;
Structure prediction by ZEFSAII (Michael W. Deem and Ramdas Pophale) SiO2 
 PCOD8248068
Probable space group: P B C N
;
_chemical_formula_sum "Si O2"
_cell_formula_units_Z 60
_cell_length_a 20.382322
_cell_length_b 8.459324
_cell_length_c 16.353945
_cell_angle_alpha 90.000000
_cell_angle_beta 90.000000
_cell_angle_gamma 90.000000
_cell_volume 2819.758083
_symmetry_space_group_name_H-M "P B C N"
_symmetry_group_IT_number 60
_symmetry_cell_setting 'orthorhombic'
loop_
_space_group_symop_operation_xyz
x,y,z
1/2-x,1/2-y,1/2+z
1/2+x,1/2-y,-z
-x,y,1/2-z
-x,-y,-z
1/2+x,1/2+y,1/2-z
1/2-x,1/2+y,z
x,-y,1/2+z
loop_
_atom_site_type_symbol
_atom_site_label
_atom_site_fract_x
_atom_site_fract_y
_atom_site_fract_z
Si Si1 0.820525 0.957475 0.541507
Si Si2 0.451825 0.363411 0.423767
Si Si3 0.277740 0.721342 0.726886
Si Si4 0.107586 0.595270 0.312718
Si Si5 0.500000 0.126571 0.750000
Si Si6 0.185308 0.924732 0.635723
Si Si7 0.203840 0.362270 0.380584
Si Si8 0.538446 0.351978 0.891995
O O1 0.802118 0.986142 0.448393
O O2 0.816332 0.770642 0.554953
O O3 0.892332 0.015501 0.565037
O O4 0.771031 0.053155 0.597254
O O5 0.436063 0.222247 0.361699
O O6 0.469663 0.293338 0.513694
O O7 0.511191 0.467589 0.386110
O O8 0.338532 0.827790 0.754289
O O9 0.306984 0.549255 0.709239
O O10 0.218834 0.715715 0.792895
O O11 0.241812 0.792967 0.646928
O O12 0.063039 0.486508 0.254857
O O13 0.144875 0.487825 0.379310
O O14 0.500263 0.233912 0.831618
O O15 0.113483 0.848164 0.637495
#
# Coordination Sequence:
#
# PCOD8248068 Si02
#       8
#     8   8   8   8   4   8   8   8
#     4  11  21  40  65  96 127 172 222 274 329 391
#     4  10  23  46  70  95 130 177 232 267 334 397
#     4  12  23  41  62  97 131 172 214 268 332 395
#     4  12  26  42  66  98 133 175 223 277 328 408
#     4  12  28  44  64 102 136 172 220 274 342 388
#     4  11  25  41  66  98 133 166 212 275 333 385
#     4  12  21  41  66  95 131 176 224 269 329 398
#     4  10  25  47  71  96 132 178 221 281 328 403
#
# _framework density 21.278421999999999
#
# number of rings (size 3 to 8) (size 9 to 14) (size 15 to 20)
#    0.000    0.800    4.000    2.400    3.733    1.600 
#    2.400    0.000    0.000    0.000    0.000    0.000 
#    0.000    0.000    0.000    0.000    0.000    0.000 
#
# Total GULP energy -744242.046646 kJ/mol
# GULP energy per Si atom -12404.034111 kJ/mol
# Density = 2.122999 g / cm^3
# Si number density = 21.278422 Si / 1000 Ang^3
#
#
#
# Elastic Constant Matrix: (Units=GPa)
#
#
# Indices 1 2 3 4 5 6 
#
# 1 64.2017 19.5904 34.0252 0.0000 0.0000 0.0000
# 2 19.5904 80.6970 26.2091 0.0000 0.0000 0.0000
# 3 34.0252 26.2091 68.3814 0.0000 0.0000 0.0000
# 4 0.0000 0.0000 0.0000 37.4600 0.0000 0.0000
# 5 0.0000 0.0000 0.0000 0.0000 34.9287 0.0000
# 6 0.0000 0.0000 0.0000 0.0000 0.0000 23.7687
#
#
#
# Elastic Compliance Matrix: (Units=1/GPa)
#
#
# Indices 1 2 3 4 5 6 
#
# 1 0.021430 -0.001986 -0.009902 0.000000 0.000000 0.000000
# 2 -0.001986 0.014338 -0.004507 0.000000 0.000000 0.000000
# 3 -0.009902 -0.004507 0.021278 0.000000 0.000000 0.000000
# 4 0.000000 0.000000 0.000000 0.026695 0.000000 0.000000
# 5 0.000000 0.000000 0.000000 0.000000 0.028630 0.000000
# 6 0.000000 0.000000 0.000000 0.000000 0.000000 0.042072
#
#
# Mechanical properties :
#
#
# Convention : Reuss Voigt Hill
#
# Bulk Modulus (GPa) = 41.22750 41.43662 41.33206
# Shear Modulus (GPa) = 25.59925 28.12851 26.86388
#
# Velocity S-wave (km/s) = 3.47228 3.63978 3.55701
# Velocity P-wave (km/s) = 5.95760 6.09752 6.02797
#
# Compressibility (1/GPa) = 0.02425565
#
# Stress axis : x y z
#
# Youngs Moduli (GPa) = 46.66445 69.74427 46.99667
#
# Poissons Ratio (x) = 0.13855 0.46534
# Poissons Ratio (y) = 0.09270 0.21182
# Poissons Ratio (z) = 0.46205 0.31434
#
# Static dielectric constant tensor:
#      x y z
#    x 3.666220 0.000000 0.000000 
#    y 0.000000 3.859590 0.000000 
#    z 0.000000 0.000000 3.930970 
# 
# 
# High freq. dielectric constant tensor:
#      x y z
#    x 1.842310 0.000000 0.000000 
#    y 0.000000 1.838450 0.000000 
#    z 0.000000 0.000000 1.833930 
# 
# From -- ./inp_files/20882.got.cif
#   From: 2010.03.12/outbox.cif.g09.slc.cpg/sg60_11_cif.got.tgz:20882.got - 2010.04.10 18:46:24.
