data_PCOD8248650
_publ_section_title
;
Structure prediction by ZEFSAII (Michael W. Deem and Ramdas Pophale) SiO2 
 PCOD8248650
Probable space group: P B C N
;
_chemical_formula_sum "Si O2"
_cell_formula_units_Z 28
_cell_length_a 7.111504
_cell_length_b 11.887851
_cell_length_c 14.627757
_cell_angle_alpha 90.000000
_cell_angle_beta 90.000000
_cell_angle_gamma 90.000000
_cell_volume 1236.637890
_symmetry_space_group_name_H-M "P B C N"
_symmetry_group_IT_number 60
_symmetry_cell_setting 'orthorhombic'
loop_
_space_group_symop_operation_xyz
x,y,z
1/2-x,1/2-y,1/2+z
1/2+x,1/2-y,-z
-x,y,1/2-z
-x,-y,-z
1/2+x,1/2+y,1/2-z
1/2-x,1/2+y,z
x,-y,1/2+z
loop_
_atom_site_type_symbol
_atom_site_label
_atom_site_fract_x
_atom_site_fract_y
_atom_site_fract_z
Si Si1 0.500000 0.859242 0.750000
Si Si2 0.416190 0.380865 0.023873
Si Si3 0.952593 0.457499 0.398989
Si Si4 0.751562 0.729997 0.626389
O O1 0.678793 0.781540 0.722198
O O2 0.567757 0.934326 0.834930
O O3 0.244489 0.391779 0.095531
O O4 0.568766 0.301616 0.068899
O O5 0.500000 0.500000 0.000000
O O6 0.358537 0.326911 0.927937
O O7 0.000000 0.500000 0.500000
O O8 0.114238 0.377131 0.357054
#
# Coordination Sequence:
#
# PCOD8248650 Si02
#       4
#     4   8   8   8
#     4  12  28  46  72 118 152 194 262 310 382 462
#     4  12  24  46  80 104 144 200 253 308 380 454
#     4  12  25  51  73 108 155 196 251 317 379 458
#     4  12  25  47  75 111 147 200 251 310 386 450
#
# _framework density 22.642036999999998
#
# number of rings (size 3 to 8) (size 9 to 14) (size 15 to 20)
#    0.000    0.000    8.571    0.000    4.000    0.000 
#    0.000    2.857    0.000    0.000    0.000    0.000 
#    0.000    0.000    0.000    0.000    0.000    0.000 
#
# Total GULP energy -347377.970776 kJ/mol
# GULP energy per Si atom -12406.356099 kJ/mol
# Density = 2.259050 g / cm^3
# Si number density = 22.642037 Si / 1000 Ang^3
#
#
#
# Elastic Constant Matrix: (Units=GPa)
#
#
# Indices 1 2 3 4 5 6 
#
# 1 141.1457 64.2666 45.2340 0.0000 0.0000 0.0000
# 2 64.2666 145.9271 64.9122 0.0000 0.0000 0.0000
# 3 45.2340 64.9122 118.4797 0.0000 0.0000 0.0000
# 4 0.0000 0.0000 0.0000 57.0853 0.0000 0.0000
# 5 0.0000 0.0000 0.0000 0.0000 41.5778 0.0000
# 6 0.0000 0.0000 0.0000 0.0000 0.0000 58.1327
#
#
#
# Elastic Compliance Matrix: (Units=1/GPa)
#
#
# Indices 1 2 3 4 5 6 
#
# 1 0.009112 -0.003260 -0.001693 0.000000 0.000000 0.000000
# 2 -0.003260 0.010227 -0.004359 0.000000 0.000000 0.000000
# 3 -0.001693 -0.004359 0.011475 0.000000 0.000000 0.000000
# 4 0.000000 0.000000 0.000000 0.017518 0.000000 0.000000
# 5 0.000000 0.000000 0.000000 0.000000 0.024051 0.000000
# 6 0.000000 0.000000 0.000000 0.000000 0.000000 0.017202
#
#
# Mechanical properties :
#
#
# Convention : Reuss Voigt Hill
#
# Bulk Modulus (GPa) = 82.02822 83.81981 82.92401
# Shear Modulus (GPa) = 44.53530 46.76847 45.65188
#
# Velocity S-wave (km/s) = 4.43982 4.54977 4.49513
# Velocity P-wave (km/s) = 7.91136 8.04366 7.97778
#
# Compressibility (1/GPa) = 0.01219093
#
# Stress axis : x y z
#
# Youngs Moduli (GPa) = 109.75004 97.77820 87.14932
#
# Poissons Ratio (x) = 0.31874 0.14752
# Poissons Ratio (y) = 0.35776 0.37986
# Poissons Ratio (z) = 0.18578 0.42619
#
# Static dielectric constant tensor:
#      x y z
#    x 4.462130 0.000000 0.000000 
#    y 0.000000 4.468040 0.000000 
#    z 0.000000 0.000000 3.000230 
# 
# 
# High freq. dielectric constant tensor:
#      x y z
#    x 1.904770 0.000000 0.000000 
#    y 0.000000 1.914880 0.000000 
#    z 0.000000 0.000000 1.883250 
# 
# From -- ./inp_files/14240.got.cif
#   From: 2010.03.12/outbox.cif.g09.slc.cpg/sg60_8_cif.got.tgz:14240.got - 2010.04.10 18:46:24.
