data_PCOD8248306
_publ_section_title
;
Structure prediction by ZEFSAII (Michael W. Deem and Ramdas Pophale) SiO2 
 PCOD8248306
Probable space group: P B C N
;
_chemical_formula_sum "Si O2"
_cell_formula_units_Z 56
_cell_length_a 11.372401
_cell_length_b 22.419744
_cell_length_c 10.528014
_cell_angle_alpha 90.000000
_cell_angle_beta 90.000000
_cell_angle_gamma 90.000000
_cell_volume 2684.288977
_symmetry_space_group_name_H-M "P B C N"
_symmetry_group_IT_number 60
_symmetry_cell_setting 'orthorhombic'
loop_
_space_group_symop_operation_xyz
x,y,z
1/2-x,1/2-y,1/2+z
1/2+x,1/2-y,-z
-x,y,1/2-z
-x,-y,-z
1/2+x,1/2+y,1/2-z
1/2-x,1/2+y,z
x,-y,1/2+z
loop_
_atom_site_type_symbol
_atom_site_label
_atom_site_fract_x
_atom_site_fract_y
_atom_site_fract_z
Si Si1 0.875096 0.450622 0.300430
Si Si2 0.112561 0.767478 0.162083
Si Si3 0.198957 0.179636 0.098666
Si Si4 0.214437 0.335223 0.320391
Si Si5 0.324708 0.919676 0.693647
Si Si6 0.006560 0.735828 0.920627
Si Si7 0.946600 0.385195 0.550814
O O1 0.822779 0.403535 0.199232
O O2 0.795383 0.509947 0.302131
O O3 0.888804 0.424046 0.439860
O O4 0.000000 0.473594 0.250000
O O5 0.182407 0.705221 0.163586
O O6 0.200732 0.819813 0.203339
O O7 0.000000 0.761275 0.250000
O O8 0.076495 0.779807 0.016287
O O9 0.200849 0.112379 0.154438
O O10 0.089578 0.220301 0.143332
O O11 0.210552 0.177317 0.946429
O O12 0.094923 0.294603 0.317677
O O13 0.365047 0.893480 0.827895
O O14 0.420745 0.906355 0.582260
O O15 0.945912 0.683702 0.004514
#
# Coordination Sequence:
#
# PCOD8248306 Si02
#       7
#     8   8   8   8   8   8   8
#     4  12  22  37  61  93 134 167 224 284 324 383
#     4  11  21  38  62  93 127 169 209 269 330 397
#     4  11  23  38  63  92 132 170 209 262 334 404
#     4  11  24  38  62  96 129 169 219 270 335 393
#     4  11  23  36  60  90 131 173 216 263 333 392
#     4  11  22  40  64  94 136 165 212 269 331 407
#     4  11  21  36  58  90 125 171 203 269 336 388
#
# _framework density 20.862134999999999
#
# number of rings (size 3 to 8) (size 9 to 14) (size 15 to 20)
#    0.000    0.857    7.143    2.143    2.000    0.000 
#    0.000    0.000    0.000    0.857    3.714    0.000 
#    0.000    0.143    0.000    0.000    0.000    0.000 
#
# Total GULP energy -694202.074732 kJ/mol
# GULP energy per Si atom -12396.465620 kJ/mol
# Density = 2.081465 g / cm^3
# Si number density = 20.862135 Si / 1000 Ang^3
#
#
#
# Elastic Constant Matrix: (Units=GPa)
#
#
# Indices 1 2 3 4 5 6 
#
# 1 86.6380 60.9894 31.4564 0.0000 0.0000 0.0000
# 2 60.9894 146.2525 45.4530 0.0000 0.0000 0.0000
# 3 31.4564 45.4530 64.2786 0.0000 0.0000 0.0000
# 4 0.0000 0.0000 0.0000 23.7049 0.0000 0.0000
# 5 0.0000 0.0000 0.0000 0.0000 20.9497 0.0000
# 6 0.0000 0.0000 0.0000 0.0000 0.0000 31.8984
#
#
#
# Elastic Compliance Matrix: (Units=1/GPa)
#
#
# Indices 1 2 3 4 5 6 
#
# 1 0.017215 -0.005845 -0.004291 0.000000 0.000000 0.000000
# 2 -0.005845 0.010748 -0.004740 0.000000 0.000000 0.000000
# 3 -0.004291 -0.004740 0.021009 0.000000 0.000000 0.000000
# 4 0.000000 0.000000 0.000000 0.042185 0.000000 0.000000
# 5 0.000000 0.000000 0.000000 0.000000 0.047733 0.000000
# 6 0.000000 0.000000 0.000000 0.000000 0.000000 0.031350
#
#
# Mechanical properties :
#
#
# Convention : Reuss Voigt Hill
#
# Bulk Modulus (GPa) = 52.03042 63.66297 57.84670
# Shear Modulus (GPa) = 24.22486 25.92864 25.07675
#
# Velocity S-wave (km/s) = 3.41132 3.52924 3.47078
# Velocity P-wave (km/s) = 6.36478 6.86947 6.62194
#
# Compressibility (1/GPa) = 0.01921952
#
# Stress axis : x y z
#
# Youngs Moduli (GPa) = 58.08813 93.03978 47.59889
#
# Poissons Ratio (x) = 0.54385 0.20426
# Poissons Ratio (y) = 0.33954 0.22560
# Poissons Ratio (z) = 0.24928 0.44098
#
# Static dielectric constant tensor:
#      x y z
#    x 3.541770 0.000000 0.000000 
#    y 0.000000 3.804390 0.000000 
#    z 0.000000 0.000000 3.942960 
# 
# 
# High freq. dielectric constant tensor:
#      x y z
#    x 1.775550 0.000000 0.000000 
#    y 0.000000 1.805790 0.000000 
#    z 0.000000 0.000000 1.837650 
# 
# From -- ./inp_files/11187.got.cif
#   From: 2010.03.12/outbox.cif.g09.slc.cpg/sg60_6_cif.got.tgz:11187.got - 2010.04.10 18:46:24.
