data_PCOD8248590
_publ_section_title
;
Structure prediction by ZEFSAII (Michael W. Deem and Ramdas Pophale) SiO2 
 PCOD8248590
Probable space group: P B C N
;
_chemical_formula_sum "Si O2"
_cell_formula_units_Z 20
_cell_length_a 5.371121
_cell_length_b 9.255923
_cell_length_c 13.592402
_cell_angle_alpha 90.000000
_cell_angle_beta 90.000000
_cell_angle_gamma 90.000000
_cell_volume 675.741948
_symmetry_space_group_name_H-M "P B C N"
_symmetry_group_IT_number 60
_symmetry_cell_setting 'orthorhombic'
loop_
_space_group_symop_operation_xyz
x,y,z
1/2-x,1/2-y,1/2+z
1/2+x,1/2-y,-z
-x,y,1/2-z
-x,-y,-z
1/2+x,1/2+y,1/2-z
1/2-x,1/2+y,z
x,-y,1/2+z
loop_
_atom_site_type_symbol
_atom_site_label
_atom_site_fract_x
_atom_site_fract_y
_atom_site_fract_z
Si Si1 0.500000 0.217471 0.250000
Si Si2 0.925611 0.837415 0.877087
Si Si3 0.270042 0.599376 0.908078
O O1 0.245533 0.129008 0.220443
O O2 0.518078 0.313643 0.151261
O O3 0.004287 0.666957 0.874504
O O4 0.777721 0.879984 0.974880
O O5 0.187156 0.930960 0.880580
#
# Coordination Sequence:
#
# PCOD8248590 Si02
#       3
#     4   8   8
#     4  12  26  48  80 120 164 220 276 338 416 506
#     4  11  26  52  82 119 168 217 275 346 419 494
#     4  11  26  49  79 122 165 215 274 348 414 501
#
# _framework density 29.597100000000001
#
# number of rings (size 3 to 8) (size 9 to 14) (size 15 to 20)
#    0.000    0.800    4.000    1.200    5.600    4.800 
#    0.000    0.000    0.000    2.400    0.000    0.000 
#    0.000    0.000    0.000    0.000    0.000    0.000 
#
# Total GULP energy -247763.997559 kJ/mol
# GULP energy per Si atom -12388.199878 kJ/mol
# Density = 2.952974 g / cm^3
# Si number density = 29.597100 Si / 1000 Ang^3
#
#
#
# Elastic Constant Matrix: (Units=GPa)
#
#
# Indices 1 2 3 4 5 6 
#
# 1 146.9124 51.3079 35.3199 0.0000 0.0000 0.0000
# 2 51.3079 103.0118 52.8671 0.0000 0.0000 0.0000
# 3 35.3199 52.8671 201.5983 0.0000 0.0000 0.0000
# 4 0.0000 0.0000 0.0000 30.9105 0.0000 0.0000
# 5 0.0000 0.0000 0.0000 0.0000 58.4863 0.0000
# 6 0.0000 0.0000 0.0000 0.0000 0.0000 26.0643
#
#
#
# Elastic Compliance Matrix: (Units=1/GPa)
#
#
# Indices 1 2 3 4 5 6 
#
# 1 0.008272 -0.003901 -0.000426 0.000000 0.000000 0.000000
# 2 -0.003901 0.013057 -0.002741 0.000000 0.000000 0.000000
# 3 -0.000426 -0.002741 0.005754 0.000000 0.000000 0.000000
# 4 0.000000 0.000000 0.000000 0.032351 0.000000 0.000000
# 5 0.000000 0.000000 0.000000 0.000000 0.017098 0.000000
# 6 0.000000 0.000000 0.000000 0.000000 0.000000 0.038367
#
#
# Mechanical properties :
#
#
# Convention : Reuss Voigt Hill
#
# Bulk Modulus (GPa) = 77.24001 81.16802 79.20401
# Shear Modulus (GPa) = 37.49517 43.89405 40.69461
#
# Velocity S-wave (km/s) = 3.56315 3.85522 3.71206
# Velocity P-wave (km/s) = 6.56368 6.87756 6.72245
#
# Compressibility (1/GPa) = 0.01294666
#
# Stress axis : x y z
#
# Youngs Moduli (GPa) = 120.89409 76.58555 173.80045
#
# Poissons Ratio (x) = 0.29878 0.07406
# Poissons Ratio (y) = 0.47164 0.47633
# Poissons Ratio (z) = 0.05152 0.20989
#
# Static dielectric constant tensor:
#      x y z
#    x 4.962490 0.000000 0.000000 
#    y 0.000000 5.269580 0.000000 
#    z 0.000000 0.000000 5.662860 
# 
# 
# High freq. dielectric constant tensor:
#      x y z
#    x 2.196020 0.000000 0.000000 
#    y 0.000000 2.180220 0.000000 
#    z 0.000000 0.000000 2.252680 
# 
# From -- ./inp_files/13430.got.cif
#   From: 2010.03.12/outbox.cif.g09.slc.cpg/sg60_7_cif.got.tgz:13430.got - 2010.04.10 18:46:24.
