data_PCOD8248036
_publ_section_title
;
Structure prediction by ZEFSAII (Michael W. Deem and Ramdas Pophale) SiO2 
 PCOD8248036
Probable space group: P B C N
;
_chemical_formula_sum "Si O2"
_cell_formula_units_Z 24
_cell_length_a 10.636291
_cell_length_b 14.200117
_cell_length_c 7.460914
_cell_angle_alpha 90.000000
_cell_angle_beta 90.000000
_cell_angle_gamma 90.000000
_cell_volume 1126.870909
_symmetry_space_group_name_H-M "P B C N"
_symmetry_group_IT_number 60
_symmetry_cell_setting 'orthorhombic'
loop_
_space_group_symop_operation_xyz
x,y,z
1/2-x,1/2-y,1/2+z
1/2+x,1/2-y,-z
-x,y,1/2-z
-x,-y,-z
1/2+x,1/2+y,1/2-z
1/2-x,1/2+y,z
x,-y,1/2+z
loop_
_atom_site_type_symbol
_atom_site_label
_atom_site_fract_x
_atom_site_fract_y
_atom_site_fract_z
Si Si1 0.850556 0.396228 0.079580
Si Si2 0.054738 0.900347 0.441846
Si Si3 0.000000 0.756552 0.750000
Si Si4 0.500000 0.059805 0.250000
O O1 0.703793 0.405743 0.053228
O O2 0.879701 0.311725 0.218755
O O3 0.894925 0.496526 0.154097
O O4 0.925938 0.375521 0.893755
O O5 0.000000 0.872030 0.250000
O O6 0.014514 0.819551 0.576484
O O7 0.000000 0.000000 0.500000
#
# Coordination Sequence:
#
# PCOD8248036 Si02
#       4
#     8   8   4   4
#     4  10  23  44  69 101 137 178 240 288 351 426
#     4  12  26  46  69 100 143 188 231 294 361 423
#     4  11  28  42  65 108 128 188 237 286 356 403
#     4   9  20  42  73  98 132 182 227 292 356 411
#
# _framework density 21.297913999999999
#
# number of rings (size 3 to 8) (size 9 to 14) (size 15 to 20)
#    0.000    1.333    1.667    2.000    7.000    0.000 
#    0.000    0.000    0.000    0.000    0.000    0.000 
#    0.000    0.000    0.000    0.000    0.000    0.000 
#
# Total GULP energy -297644.134238 kJ/mol
# GULP energy per Si atom -12401.838927 kJ/mol
# Density = 2.124944 g / cm^3
# Si number density = 21.297914 Si / 1000 Ang^3
#
#
#
# Elastic Constant Matrix: (Units=GPa)
#
#
# Indices 1 2 3 4 5 6 
#
# 1 137.8968 57.2030 40.6854 0.0000 0.0000 0.0000
# 2 57.2030 117.9517 54.7189 0.0000 0.0000 0.0000
# 3 40.6854 54.7189 151.4510 0.0000 0.0000 0.0000
# 4 0.0000 0.0000 0.0000 50.2449 0.0000 0.0000
# 5 0.0000 0.0000 0.0000 0.0000 28.1206 0.0000
# 6 0.0000 0.0000 0.0000 0.0000 0.0000 87.6248
#
#
#
# Elastic Compliance Matrix: (Units=1/GPa)
#
#
# Indices 1 2 3 4 5 6 
#
# 1 0.009211 -0.003987 -0.001034 0.000000 0.000000 0.000000
# 2 -0.003987 0.011911 -0.003232 0.000000 0.000000 0.000000
# 3 -0.001034 -0.003232 0.008048 0.000000 0.000000 0.000000
# 4 0.000000 0.000000 0.000000 0.019903 0.000000 0.000000
# 5 0.000000 0.000000 0.000000 0.000000 0.035561 0.000000
# 6 0.000000 0.000000 0.000000 0.000000 0.000000 0.011412
#
#
# Mechanical properties :
#
#
# Convention : Reuss Voigt Hill
#
# Bulk Modulus (GPa) = 78.96713 79.16822 79.06767
# Shear Modulus (GPa) = 42.81748 50.17754 46.49751
#
# Velocity S-wave (km/s) = 4.48862 4.85911 4.67754
# Velocity P-wave (km/s) = 8.00134 8.29059 8.14725
#
# Compressibility (1/GPa) = 0.01266350
#
# Stress axis : x y z
#
# Youngs Moduli (GPa) = 108.56724 83.95350 124.24921
#
# Poissons Ratio (x) = 0.33476 0.12844
# Poissons Ratio (y) = 0.43291 0.40162
# Poissons Ratio (z) = 0.11223 0.27137
#
# Static dielectric constant tensor:
#      x y z
#    x 3.701260 0.000000 0.000000 
#    y 0.000000 3.855670 0.000000 
#    z 0.000000 0.000000 4.290090 
# 
# 
# High freq. dielectric constant tensor:
#      x y z
#    x 1.835150 0.000000 0.000000 
#    y 0.000000 1.836120 0.000000 
#    z 0.000000 0.000000 1.854500 
# 
# From -- ./inp_files/3321.got.cif
#   From: 2010.03.12/outbox.cif.g09.slc.cpg/sg60_2_cif.got.tgz:3321.got - 2010.04.10 18:46:24.
