data_PCOD8248263
_publ_section_title
;
Structure prediction by ZEFSAII (Michael W. Deem and Ramdas Pophale) SiO2 
 PCOD8248263
Probable space group: P B C N
;
_chemical_formula_sum "Si O2"
_cell_formula_units_Z 48
_cell_length_a 8.510628
_cell_length_b 19.157626
_cell_length_c 13.680621
_cell_angle_alpha 90.000000
_cell_angle_beta 90.000000
_cell_angle_gamma 90.000000
_cell_volume 2230.535348
_symmetry_space_group_name_H-M "P B C N"
_symmetry_group_IT_number 60
_symmetry_cell_setting 'orthorhombic'
loop_
_space_group_symop_operation_xyz
x,y,z
1/2-x,1/2-y,1/2+z
1/2+x,1/2-y,-z
-x,y,1/2-z
-x,-y,-z
1/2+x,1/2+y,1/2-z
1/2-x,1/2+y,z
x,-y,1/2+z
loop_
_atom_site_type_symbol
_atom_site_label
_atom_site_fract_x
_atom_site_fract_y
_atom_site_fract_z
Si Si1 0.686828 0.054006 0.091426
Si Si2 0.325873 0.559160 0.776688
Si Si3 0.373791 0.075478 0.017376
Si Si4 0.700250 0.690770 0.003476
Si Si5 0.914840 0.366331 0.347321
Si Si6 0.150741 0.173683 0.943169
O O1 0.503981 0.079825 0.103445
O O2 0.793289 0.120855 0.068495
O O3 0.749446 0.012204 0.183399
O O4 0.690350 0.003372 0.995436
O O5 0.500000 0.536233 0.750000
O O6 0.221044 0.579096 0.683763
O O7 0.339758 0.625444 0.848210
O O8 0.453320 0.094928 0.911530
O O9 0.229091 0.129191 0.033512
O O10 0.742213 0.757196 0.071177
O O11 0.825894 0.691424 0.913596
O O12 0.525149 0.697909 0.963319
O O13 0.000000 0.334995 0.250000
#
# Coordination Sequence:
#
# PCOD8248263 Si02
#       6
#     8   8   8   8   8   8
#     4   9  19  36  59  87 121 154 204 254 298 370
#     4  11  22  40  65  90 124 164 212 256 315 377
#     4   9  19  36  60  90 117 159 205 251 311 373
#     4  11  23  37  62  91 122 166 211 257 309 371
#     4  11  19  36  61  90 115 164 202 253 315 372
#     4  11  22  39  63  91 124 164 211 253 309 383
#
# _framework density 21.519497999999999
#
# number of rings (size 3 to 8) (size 9 to 14) (size 15 to 20)
#    0.000    1.667    5.000    2.000    0.000    2.667 
#    3.000    0.000   11.000    0.000    0.000    0.000 
#    0.000    0.000    0.000    0.000    0.000    0.000 
#
# Total GULP energy -594727.552811 kJ/mol
# GULP energy per Si atom -12390.157350 kJ/mol
# Density = 2.147052 g / cm^3
# Si number density = 21.519498 Si / 1000 Ang^3
#
#
#
# Elastic Constant Matrix: (Units=GPa)
#
#
# Indices 1 2 3 4 5 6 
#
# 1 99.7503 21.0094 12.9910 0.0000 0.0000 0.0000
# 2 21.0094 113.1701 19.5804 0.0000 0.0000 0.0000
# 3 12.9910 19.5804 53.2247 0.0000 0.0000 0.0000
# 4 0.0000 0.0000 0.0000 19.2561 0.0000 0.0000
# 5 0.0000 0.0000 0.0000 0.0000 31.4340 0.0000
# 6 0.0000 0.0000 0.0000 0.0000 0.0000 37.1021
#
#
#
# Elastic Compliance Matrix: (Units=1/GPa)
#
#
# Indices 1 2 3 4 5 6 
#
# 1 0.010628 -0.001628 -0.001995 0.000000 0.000000 0.000000
# 2 -0.001628 0.009686 -0.003166 0.000000 0.000000 0.000000
# 3 -0.001995 -0.003166 0.020440 0.000000 0.000000 0.000000
# 4 0.000000 0.000000 0.000000 0.051932 0.000000 0.000000
# 5 0.000000 0.000000 0.000000 0.000000 0.031813 0.000000
# 6 0.000000 0.000000 0.000000 0.000000 0.000000 0.026953
#
#
# Mechanical properties :
#
#
# Convention : Reuss Voigt Hill
#
# Bulk Modulus (GPa) = 36.79733 41.47852 39.13792
# Shear Modulus (GPa) = 28.72119 31.72941 30.22530
#
# Velocity S-wave (km/s) = 3.65726 3.84402 3.75180
# Velocity P-wave (km/s) = 5.91361 6.24650 6.08233
#
# Compressibility (1/GPa) = 0.02717589
#
# Stress axis : x y z
#
# Youngs Moduli (GPa) = 94.09361 103.23937 48.92375
#
# Poissons Ratio (x) = 0.16805 0.09761
# Poissons Ratio (y) = 0.15316 0.15490
# Poissons Ratio (z) = 0.18773 0.32686
#
# Static dielectric constant tensor:
#      x y z
#    x 4.442010 0.000000 0.000000 
#    y 0.000000 3.842180 0.000000 
#    z 0.000000 0.000000 3.532740 
# 
# 
# High freq. dielectric constant tensor:
#      x y z
#    x 1.869920 0.000000 0.000000 
#    y 0.000000 1.837550 0.000000 
#    z 0.000000 0.000000 1.797510 
# 
# From -- ./inp_files/15116.got.cif
#   From: 2010.03.12/outbox.cif.g09.slc.cpg/sg60_8_cif.got.tgz:15116.got - 2010.04.10 18:46:24.
