data_PCOD8248339
_publ_section_title
;
Structure prediction by ZEFSAII (Michael W. Deem and Ramdas Pophale) SiO2 
 PCOD8248339
Probable space group: P B C N
;
_chemical_formula_sum "Si O2"
_cell_formula_units_Z 40
_cell_length_a 5.393492
_cell_length_b 18.620037
_cell_length_c 17.575811
_cell_angle_alpha 90.000000
_cell_angle_beta 90.000000
_cell_angle_gamma 90.000000
_cell_volume 1765.086333
_symmetry_space_group_name_H-M "P B C N"
_symmetry_group_IT_number 60
_symmetry_cell_setting 'orthorhombic'
loop_
_space_group_symop_operation_xyz
x,y,z
1/2-x,1/2-y,1/2+z
1/2+x,1/2-y,-z
-x,y,1/2-z
-x,-y,-z
1/2+x,1/2+y,1/2-z
1/2-x,1/2+y,z
x,-y,1/2+z
loop_
_atom_site_type_symbol
_atom_site_label
_atom_site_fract_x
_atom_site_fract_y
_atom_site_fract_z
Si Si1 0.910041 0.131203 0.831619
Si Si2 0.064464 0.587824 0.076389
Si Si3 0.241416 0.509319 0.207299
Si Si4 0.804953 0.027210 0.561123
Si Si5 0.893719 0.745551 0.452377
O O1 0.836373 0.194604 0.888639
O O2 0.000000 0.163198 0.750000
O O3 0.110845 0.078392 0.870655
O O4 0.686484 0.074845 0.814793
O O5 0.281927 0.556696 0.130667
O O6 0.031641 0.672442 0.090462
O O7 0.819059 0.542899 0.099580
O O8 0.108574 0.574925 0.986718
O O9 0.500000 0.516758 0.250000
O O10 0.000000 0.540159 0.250000
O O11 0.000000 0.000000 0.500000
O O12 0.634789 0.732660 0.497607
#
# Coordination Sequence:
#
# PCOD8248339 Si02
#       5
#     8   8   8   8   8
#     4  11  24  46  72 103 144 185 235 293 361 424
#     4  11  24  40  72 100 139 182 241 292 348 422
#     4  11  25  43  70 104 141 182 238 296 354 419
#     4  11  21  42  73 104 134 184 238 293 352 423
#     4  12  28  46  69 104 145 189 234 292 357 431
#
# _framework density 22.661778999999999
#
# number of rings (size 3 to 8) (size 9 to 14) (size 15 to 20)
#    0.000    0.800    4.000    3.600    2.800    4.000 
#    0.000    1.000    0.000    0.000    0.000    0.000 
#    0.000    0.000    0.000    0.000    0.000    0.000 
#
# Total GULP energy -495590.079606 kJ/mol
# GULP energy per Si atom -12389.751990 kJ/mol
# Density = 2.261020 g / cm^3
# Si number density = 22.661779 Si / 1000 Ang^3
#
#
#
# Elastic Constant Matrix: (Units=GPa)
#
#
# Indices 1 2 3 4 5 6 
#
# 1 94.2997 17.4702 37.7434 0.0000 0.0000 0.0000
# 2 17.4702 133.6560 39.4381 0.0000 0.0000 0.0000
# 3 37.7434 39.4381 133.6463 0.0000 0.0000 0.0000
# 4 0.0000 0.0000 0.0000 48.4084 0.0000 0.0000
# 5 0.0000 0.0000 0.0000 0.0000 27.2307 0.0000
# 6 0.0000 0.0000 0.0000 0.0000 0.0000 31.1663
#
#
#
# Elastic Compliance Matrix: (Units=1/GPa)
#
#
# Indices 1 2 3 4 5 6 
#
# 1 0.012003 -0.000623 -0.003206 0.000000 0.000000 0.000000
# 2 -0.000623 0.008228 -0.002252 0.000000 0.000000 0.000000
# 3 -0.003206 -0.002252 0.009052 0.000000 0.000000 0.000000
# 4 0.000000 0.000000 0.000000 0.020658 0.000000 0.000000
# 5 0.000000 0.000000 0.000000 0.000000 0.036723 0.000000
# 6 0.000000 0.000000 0.000000 0.000000 0.000000 0.032086
#
#
# Mechanical properties :
#
#
# Convention : Reuss Voigt Hill
#
# Bulk Modulus (GPa) = 58.40651 61.21171 59.80911
# Shear Modulus (GPa) = 36.59808 39.15777 37.87792
#
# Velocity S-wave (km/s) = 4.02303 4.16134 4.09277
# Velocity P-wave (km/s) = 6.88540 7.08227 6.98453
#
# Compressibility (1/GPa) = 0.01712138
#
# Stress axis : x y z
#
# Youngs Moduli (GPa) = 83.31189 121.53863 110.46774
#
# Poissons Ratio (x) = 0.07571 0.35416
# Poissons Ratio (y) = 0.05190 0.24878
# Poissons Ratio (z) = 0.26710 0.27371
#
# Static dielectric constant tensor:
#      x y z
#    x 4.278770 0.000000 0.000000 
#    y 0.000000 4.233330 0.000000 
#    z 0.000000 0.000000 5.018250 
# 
# 
# High freq. dielectric constant tensor:
#      x y z
#    x 1.889040 0.000000 0.000000 
#    y 0.000000 1.878050 0.000000 
#    z 0.000000 0.000000 1.914040 
# 
# From -- ./inp_files/18505.got.cif
#   From: 2010.03.12/outbox.cif.g09.slc.cpg/sg60_10_cif.got.tgz:18505.got - 2010.04.10 18:46:24.
