data_PCOD8248716
_publ_section_title
;
Structure prediction by ZEFSAII (Michael W. Deem and Ramdas Pophale) SiO2 
 PCOD8248716
Probable space group: P B C A
;
_chemical_formula_sum "Si O2"
_cell_formula_units_Z 64
_cell_length_a 16.341405
_cell_length_b 19.317133
_cell_length_c 10.589289
_cell_angle_alpha 90.000000
_cell_angle_beta 90.000000
_cell_angle_gamma 90.000000
_cell_volume 3342.711263
_symmetry_space_group_name_H-M "P B C A"
_symmetry_group_IT_number 61
_symmetry_cell_setting 'orthorhombic'
loop_
_space_group_symop_operation_xyz
x,y,z
1/2-x,-y,1/2+z
1/2+x,1/2-y,-z
-x,1/2+y,1/2-z
-x,-y,-z
1/2+x,y,1/2-z
1/2-x,1/2+y,z
x,1/2-y,1/2+z
loop_
_atom_site_type_symbol
_atom_site_label
_atom_site_fract_x
_atom_site_fract_y
_atom_site_fract_z
Si Si1 0.524108 0.110542 0.398221
Si Si2 0.585266 0.513004 0.262308
Si Si3 0.331921 0.397292 0.546060
Si Si4 0.330721 0.964741 0.480505
Si Si5 0.470729 0.098024 0.848330
Si Si6 0.373499 0.249807 0.062895
Si Si7 0.619029 0.601074 0.903580
Si Si8 0.974052 0.250554 0.187258
O O1 0.484453 0.062921 0.291390
O O2 0.613509 0.082051 0.428848
O O3 0.466383 0.108197 0.520848
O O4 0.536637 0.188586 0.345644
O O5 0.656167 0.558594 0.326688
O O6 0.629195 0.467293 0.156361
O O7 0.541885 0.459134 0.357666
O O8 0.257836 0.430054 0.467427
O O9 0.419216 0.402294 0.476620
O O10 0.312556 0.316131 0.575899
O O11 0.323145 0.042098 0.538060
O O12 0.405638 0.081363 0.737930
O O13 0.513716 0.173043 0.824748
O O14 0.332513 0.325061 0.091289
O O15 0.443625 0.239223 0.169259
O O16 0.402163 0.252375 0.917268
#
# Coordination Sequence:
#
# PCOD8248716 Si02
#       8
#     8   8   8   8   8   8   8   8
#     4  10  17  35  60  82 102 148 198 236 266 342
#     4  11  20  37  59  80 114 149 198 235 280 343
#     4  11  24  35  55  87 120 149 184 241 306 338
#     4  11  22  35  58  87 115 149 188 242 292 346
#     4  10  19  36  57  85 112 151 193 237 279 348
#     4   9  18  35  56  84 108 151 194 231 279 350
#     4   9  17  34  60  82 105 147 202 224 269 345
#     4   9  18  32  61  83 109 145 202 235 279 332
#
# _framework density 19.146134
#
# number of rings (size 3 to 8) (size 9 to 14) (size 15 to 20)
#    0.000    2.000    3.750    1.125    1.750    0.000 
#    0.000    1.250    0.000    0.000    0.000    0.000 
#    0.000    0.000    0.000    0.000    0.000    0.000 
#
# Total GULP energy -793230.065253 kJ/mol
# GULP energy per Si atom -12394.219770 kJ/mol
# Density = 1.910256 g / cm^3
# Si number density = 19.146134 Si / 1000 Ang^3
#
#
#
# Elastic Constant Matrix: (Units=GPa)
#
#
# Indices 1 2 3 4 5 6 
#
# 1 56.2860 50.6809 7.7867 0.0000 0.0000 0.0000
# 2 50.6809 153.5599 16.1254 0.0000 0.0000 0.0000
# 3 7.7867 16.1254 56.6555 0.0000 0.0000 0.0000
# 4 0.0000 0.0000 0.0000 28.5360 0.0000 0.0000
# 5 0.0000 0.0000 0.0000 0.0000 14.2278 0.0000
# 6 0.0000 0.0000 0.0000 0.0000 0.0000 22.1174
#
#
#
# Elastic Compliance Matrix: (Units=1/GPa)
#
#
# Indices 1 2 3 4 5 6 
#
# 1 0.025349 -0.008247 -0.001137 0.000000 0.000000 0.000000
# 2 -0.008247 0.009396 -0.001541 0.000000 0.000000 0.000000
# 3 -0.001137 -0.001541 0.018245 0.000000 0.000000 0.000000
# 4 0.000000 0.000000 0.000000 0.035043 0.000000 0.000000
# 5 0.000000 0.000000 0.000000 0.000000 0.070285 0.000000
# 6 0.000000 0.000000 0.000000 0.000000 0.000000 0.045213
#
#
# Mechanical properties :
#
#
# Convention : Reuss Voigt Hill
#
# Bulk Modulus (GPa) = 32.11149 46.18750 39.14950
# Shear Modulus (GPa) = 21.20789 25.77015 23.48902
#
# Velocity S-wave (km/s) = 3.33180 3.67273 3.50641
# Velocity P-wave (km/s) = 5.62222 6.49317 6.07333
#
# Compressibility (1/GPa) = 0.03114150
#
# Stress axis : x y z
#
# Youngs Moduli (GPa) = 39.44872 106.43124 54.80862
#
# Poissons Ratio (x) = 0.87773 0.06230
# Poissons Ratio (y) = 0.32533 0.08445
# Poissons Ratio (z) = 0.04484 0.16399
#
# Static dielectric constant tensor:
#      x y z
#    x 2.886710 0.000000 0.000000 
#    y 0.000000 4.103540 0.000000 
#    z 0.000000 0.000000 3.523860 
# 
# 
# High freq. dielectric constant tensor:
#      x y z
#    x 1.671340 0.000000 0.000000 
#    y 0.000000 1.774060 0.000000 
#    z 0.000000 0.000000 1.753100 
# 
# From -- ./inp_files/6347.got.cif
#   From: 2010.03.12/outbox.cif.g09.slc.cpg/sg61_4_cif.got.tgz:6347.got - 2010.04.10 19:05:03.
