data_PCOD8248597
_publ_section_title
;
Structure prediction by ZEFSAII (Michael W. Deem and Ramdas Pophale) SiO2 
 PCOD8248597
Probable space group: P B C N
;
_chemical_formula_sum "Si O2"
_cell_formula_units_Z 52
_cell_length_a 18.699019
_cell_length_b 8.908134
_cell_length_c 14.313743
_cell_angle_alpha 90.000000
_cell_angle_beta 90.000000
_cell_angle_gamma 90.000000
_cell_volume 2384.288365
_symmetry_space_group_name_H-M "P B C N"
_symmetry_group_IT_number 60
_symmetry_cell_setting 'orthorhombic'
loop_
_space_group_symop_operation_xyz
x,y,z
1/2-x,1/2-y,1/2+z
1/2+x,1/2-y,-z
-x,y,1/2-z
-x,-y,-z
1/2+x,1/2+y,1/2-z
1/2-x,1/2+y,z
x,-y,1/2+z
loop_
_atom_site_type_symbol
_atom_site_label
_atom_site_fract_x
_atom_site_fract_y
_atom_site_fract_z
Si Si1 0.000000 0.091291 0.750000
Si Si2 0.789627 0.851807 0.692436
Si Si3 0.260913 0.608118 0.689027
Si Si4 0.597222 0.295288 0.406306
Si Si5 0.191610 0.770718 0.448077
Si Si6 0.411107 0.466580 0.914824
Si Si7 0.815917 0.540748 0.458094
O O1 0.054157 0.198115 0.691567
O O2 0.034139 0.982382 0.828504
O O3 0.794928 0.738719 0.780524
O O4 0.712633 0.812971 0.647987
O O5 0.796466 0.027942 0.720695
O O6 0.853169 0.839466 0.616619
O O7 0.320529 0.656375 0.613512
O O8 0.216657 0.469160 0.645901
O O9 0.559077 0.400136 0.485879
O O10 0.607547 0.127015 0.448295
O O11 0.120733 0.869501 0.437111
O O12 0.258730 0.876161 0.475708
O O13 0.172612 0.634994 0.517792
#
# Coordination Sequence:
#
# PCOD8248597 Si02
#       7
#     4   8   8   8   8   8   8
#     4  12  28  48  64  90 132 194 238 270 304 396
#     4  12  20  34  61 103 137 167 204 270 345 400
#     4  12  21  34  63 104 139 163 208 276 349 397
#     4  12  24  44  66  97 135 181 227 272 330 401
#     4  12  20  38  65 102 135 160 207 276 351 398
#     4  12  25  43  69  96 134 180 229 272 332 400
#     4  12  21  37  65 103 136 160 208 276 349 401
#
# _framework density 21.809441
#
# number of rings (size 3 to 8) (size 9 to 14) (size 15 to 20)
#    0.000    0.000   10.769    0.462    0.000    0.000 
#    0.000    0.769    0.000    4.615    0.000    0.000 
#    0.000    0.000    0.000    0.000    0.000    0.000 
#
# Total GULP energy -644315.307078 kJ/mol
# GULP energy per Si atom -12390.678982 kJ/mol
# Density = 2.175980 g / cm^3
# Si number density = 21.809441 Si / 1000 Ang^3
#
#
#
# Elastic Constant Matrix: (Units=GPa)
#
#
# Indices 1 2 3 4 5 6 
#
# 1 47.2134 26.9236 29.3303 0.0000 0.0000 0.0000
# 2 26.9236 100.2526 37.0614 0.0000 0.0000 0.0000
# 3 29.3303 37.0614 105.8503 0.0000 0.0000 0.0000
# 4 0.0000 0.0000 0.0000 37.7083 0.0000 0.0000
# 5 0.0000 0.0000 0.0000 0.0000 45.0203 0.0000
# 6 0.0000 0.0000 0.0000 0.0000 0.0000 16.9260
#
#
#
# Elastic Compliance Matrix: (Units=1/GPa)
#
#
# Indices 1 2 3 4 5 6 
#
# 1 0.027849 -0.005314 -0.005856 0.000000 0.000000 0.000000
# 2 -0.005314 0.012472 -0.002894 0.000000 0.000000 0.000000
# 3 -0.005856 -0.002894 0.012083 0.000000 0.000000 0.000000
# 4 0.000000 0.000000 0.000000 0.026519 0.000000 0.000000
# 5 0.000000 0.000000 0.000000 0.000000 0.022212 0.000000
# 6 0.000000 0.000000 0.000000 0.000000 0.000000 0.059081
#
#
# Mechanical properties :
#
#
# Convention : Reuss Voigt Hill
#
# Bulk Modulus (GPa) = 41.19446 48.88298 45.03872
# Shear Modulus (GPa) = 25.45344 30.59764 28.02554
#
# Velocity S-wave (km/s) = 3.41997 3.74967 3.58860
# Velocity P-wave (km/s) = 5.87573 6.41942 6.15359
#
# Compressibility (1/GPa) = 0.02427511
#
# Stress axis : x y z
#
# Youngs Moduli (GPa) = 35.90819 80.18011 82.75843
#
# Poissons Ratio (x) = 0.42609 0.48464
# Poissons Ratio (y) = 0.19082 0.23953
# Poissons Ratio (z) = 0.21028 0.23206
#
# Static dielectric constant tensor:
#      x y z
#    x 3.542040 0.000000 0.000000 
#    y 0.000000 3.965660 0.000000 
#    z 0.000000 0.000000 4.205730 
# 
# 
# High freq. dielectric constant tensor:
#      x y z
#    x 1.802090 0.000000 0.000000 
#    y 0.000000 1.859750 0.000000 
#    z 0.000000 0.000000 1.888980 
# 
# From -- ./inp_files/17658.got.cif
#   From: 2010.03.12/outbox.cif.g09.slc.cpg/sg60_9_cif.got.tgz:17658.got - 2010.04.10 18:46:24.
