data_PCOD8248269
_publ_section_title
;
Structure prediction by ZEFSAII (Michael W. Deem and Ramdas Pophale) SiO2 
 PCOD8248269
Probable space group: P B C N
;
_chemical_formula_sum "Si O2"
_cell_formula_units_Z 64
_cell_length_a 29.679573
_cell_length_b 12.518299
_cell_length_c 9.913069
_cell_angle_alpha 90.000000
_cell_angle_beta 90.000000
_cell_angle_gamma 90.000000
_cell_volume 3683.079540
_symmetry_space_group_name_H-M "P B C N"
_symmetry_group_IT_number 60
_symmetry_cell_setting 'orthorhombic'
loop_
_space_group_symop_operation_xyz
x,y,z
1/2-x,1/2-y,1/2+z
1/2+x,1/2-y,-z
-x,y,1/2-z
-x,-y,-z
1/2+x,1/2+y,1/2-z
1/2-x,1/2+y,z
x,-y,1/2+z
loop_
_atom_site_type_symbol
_atom_site_label
_atom_site_fract_x
_atom_site_fract_y
_atom_site_fract_z
Si Si1 0.876228 0.664052 0.395652
Si Si2 0.318069 0.803634 0.354421
Si Si3 0.177746 0.693996 0.362646
Si Si4 0.273413 0.398616 0.459037
Si Si5 0.468410 0.112310 0.630855
Si Si6 0.477024 0.859030 0.617110
Si Si7 0.728956 0.405734 0.728709
Si Si8 0.367316 0.088917 0.614588
O O1 0.856672 0.709653 0.534529
O O2 0.928640 0.696007 0.400057
O O3 0.869760 0.537780 0.384547
O O4 0.852882 0.719995 0.267261
O O5 0.276235 0.858827 0.426042
O O6 0.306323 0.688340 0.296282
O O7 0.332668 0.877251 0.229917
O O8 0.190920 0.804170 0.435285
O O9 0.221170 0.628924 0.313818
O O10 0.149636 0.622892 0.467313
O O11 0.273325 0.437671 0.613897
O O12 0.287007 0.495169 0.361378
O O13 0.500000 0.155171 0.750000
O O14 0.488405 0.171061 0.500664
O O15 0.415859 0.142849 0.646913
O O16 0.470998 0.985569 0.621039
O O17 0.500000 0.813057 0.750000
#
# Coordination Sequence:
#
# PCOD8248269 Si02
#       8
#     8   8   8   8   8   8   8   8
#     4  11  20  32  53  78 107 149 175 214 256 311
#     4  11  23  36  52  79 108 136 185 219 252 315
#     4  11  23  36  52  79 108 138 183 218 257 312
#     4  11  24  39  57  75 105 142 177 223 270 306
#     4   9  17  29  47  69 102 142 173 209 252 307
#     4   9  17  29  45  71 104 138 177 204 251 308
#     4  11  24  39  57  75 105 142 176 223 270 306
#     4  11  20  34  51  76 111 145 179 215 257 307
#
# _framework density 17.376763
#
# number of rings (size 3 to 8) (size 9 to 14) (size 15 to 20)
#    0.000    1.500    2.500    3.750    3.500    4.000 
#    0.000    0.000    0.000    0.000    0.000    0.000 
#    0.000   20.000    0.000    0.000    0.000    0.000 
#
# Total GULP energy -793741.794084 kJ/mol
# GULP energy per Si atom -12402.215533 kJ/mol
# Density = 1.733721 g / cm^3
# Si number density = 17.376763 Si / 1000 Ang^3
#
#
#
# Elastic Constant Matrix: (Units=GPa)
#
#
# Indices 1 2 3 4 5 6 
#
# 1 89.5264 20.9605 26.2281 0.0000 0.0000 0.0000
# 2 20.9605 48.5165 25.3511 0.0000 0.0000 0.0000
# 3 26.2281 25.3511 122.9074 0.0000 0.0000 0.0000
# 4 0.0000 0.0000 0.0000 25.8022 0.0000 0.0000
# 5 0.0000 0.0000 0.0000 0.0000 27.7693 0.0000
# 6 0.0000 0.0000 0.0000 0.0000 0.0000 15.9484
#
#
#
# Elastic Compliance Matrix: (Units=1/GPa)
#
#
# Indices 1 2 3 4 5 6 
#
# 1 0.012764 -0.004585 -0.001778 0.000000 0.000000 0.000000
# 2 -0.004585 0.024749 -0.004126 0.000000 0.000000 0.000000
# 3 -0.001778 -0.004126 0.009367 0.000000 0.000000 0.000000
# 4 0.000000 0.000000 0.000000 0.038756 0.000000 0.000000
# 5 0.000000 0.000000 0.000000 0.000000 0.036011 0.000000
# 6 0.000000 0.000000 0.000000 0.000000 0.000000 0.062702
#
#
# Mechanical properties :
#
#
# Convention : Reuss Voigt Hill
#
# Bulk Modulus (GPa) = 38.60964 45.11442 41.86203
# Shear Modulus (GPa) = 23.36861 26.46468 24.91664
#
# Velocity S-wave (km/s) = 3.67116 3.90679 3.79080
# Velocity P-wave (km/s) = 6.34328 6.80952 6.58053
#
# Compressibility (1/GPa) = 0.02590027
#
# Stress axis : x y z
#
# Youngs Moduli (GPa) = 78.34299 40.40629 106.76100
#
# Poissons Ratio (x) = 0.18528 0.18983
# Poissons Ratio (y) = 0.35924 0.44051
# Poissons Ratio (z) = 0.13930 0.16672
#
# Static dielectric constant tensor:
#      x y z
#    x 3.415520 0.000000 0.000000 
#    y 0.000000 2.892040 0.000000 
#    z 0.000000 0.000000 3.497800 
# 
# 
# High freq. dielectric constant tensor:
#      x y z
#    x 1.674890 0.000000 0.000000 
#    y 0.000000 1.618490 0.000000 
#    z 0.000000 0.000000 1.696580 
# 
# From -- ./inp_files/8494.got.cif
#   From: 2010.03.12/outbox.cif.g09.slc.cpg/sg60_5_cif.got.tgz:8494.got - 2010.04.10 18:46:24.
