data_PCOD8248931
_publ_section_title
;
Structure prediction by ZEFSAII (Michael W. Deem and Ramdas Pophale) SiO2 
 PCOD8248931
Probable space group: P B C A
;
_chemical_formula_sum "Si O2"
_cell_formula_units_Z 48
_cell_length_a 15.846406
_cell_length_b 4.950687
_cell_length_c 29.919387
_cell_angle_alpha 90.000000
_cell_angle_beta 90.000000
_cell_angle_gamma 90.000000
_cell_volume 2347.193748
_symmetry_space_group_name_H-M "P B C A"
_symmetry_group_IT_number 61
_symmetry_cell_setting 'orthorhombic'
loop_
_space_group_symop_operation_xyz
x,y,z
1/2-x,-y,1/2+z
1/2+x,1/2-y,-z
-x,1/2+y,1/2-z
-x,-y,-z
1/2+x,y,1/2-z
1/2-x,1/2+y,z
x,1/2-y,1/2+z
loop_
_atom_site_type_symbol
_atom_site_label
_atom_site_fract_x
_atom_site_fract_y
_atom_site_fract_z
Si Si1 0.194754 0.041381 0.768984
Si Si2 0.528595 0.749703 0.028429
Si Si3 0.194375 0.421954 0.167065
Si Si4 0.479560 0.925911 0.124757
Si Si5 0.422236 0.542297 0.848687
Si Si6 0.193866 0.903247 0.927995
O O1 0.273069 0.239859 0.778498
O O2 0.162561 0.061895 0.718195
O O3 0.117096 0.118358 0.801009
O O4 0.484456 0.785034 0.076324
O O5 0.628752 0.700520 0.034411
O O6 0.500000 0.500000 0.000000
O O7 0.500000 0.000000 0.000000
O O8 0.271448 0.623765 0.157059
O O9 0.116900 0.499534 0.135091
O O10 0.508092 0.691431 0.159455
O O11 0.537855 0.192774 0.127947
O O12 0.351341 0.399728 0.879762
O O13 0.224943 0.211150 0.932701
#
# Coordination Sequence:
#
# PCOD8248931 Si02
#       6
#     8   8   8   8   8   8
#     4  10  20  35  56  85 121 159 193 232 284 335
#     4  11  23  42  62  84 118 153 189 243 300 353
#     4  10  22  40  59  82 117 157 199 242 280 334
#     4  11  23  39  60  86 113 154 197 238 300 349
#     4  11  21  35  59  89 120 152 189 236 289 353
#     4  11  21  37  60  88 117 147 186 233 288 348
#
# _framework density 20.449953000000001
#
# number of rings (size 3 to 8) (size 9 to 14) (size 15 to 20)
#    0.000    1.333    0.000    8.000    0.000    1.333 
#    0.000    5.000    0.000    0.000    0.000    0.000 
#    0.000    0.000    0.000    0.000    0.000    0.000 
#
# Total GULP energy -595121.864378 kJ/mol
# GULP energy per Si atom -12398.372175 kJ/mol
# Density = 2.040341 g / cm^3
# Si number density = 20.449953 Si / 1000 Ang^3
#
#
#
# Elastic Constant Matrix: (Units=GPa)
#
#
# Indices 1 2 3 4 5 6 
#
# 1 102.7949 32.9209 58.6804 0.0000 0.0000 0.0000
# 2 32.9209 122.1880 34.5307 0.0000 0.0000 0.0000
# 3 58.6804 34.5307 86.1535 0.0000 0.0000 0.0000
# 4 0.0000 0.0000 0.0000 29.5290 0.0000 0.0000
# 5 0.0000 0.0000 0.0000 0.0000 31.0965 0.0000
# 6 0.0000 0.0000 0.0000 0.0000 0.0000 38.4483
#
#
#
# Elastic Compliance Matrix: (Units=1/GPa)
#
#
# Indices 1 2 3 4 5 6 
#
# 1 0.016126 -0.001399 -0.010423 0.000000 0.000000 0.000000
# 2 -0.001399 0.009351 -0.002795 0.000000 0.000000 0.000000
# 3 -0.010423 -0.002795 0.019827 0.000000 0.000000 0.000000
# 4 0.000000 0.000000 0.000000 0.033865 0.000000 0.000000
# 5 0.000000 0.000000 0.000000 0.000000 0.032158 0.000000
# 6 0.000000 0.000000 0.000000 0.000000 0.000000 0.026009
#
#
# Mechanical properties :
#
#
# Convention : Reuss Voigt Hill
#
# Bulk Modulus (GPa) = 62.22928 62.60004 62.41466
# Shear Modulus (GPa) = 29.08224 32.14838 30.61531
#
# Velocity S-wave (km/s) = 3.77519 3.96921 3.87342
# Velocity P-wave (km/s) = 7.03554 7.18916 7.11276
#
# Compressibility (1/GPa) = 0.01606961
#
# Stress axis : x y z
#
# Youngs Moduli (GPa) = 62.01105 106.94102 50.43734
#
# Poissons Ratio (x) = 0.14964 0.52570
# Poissons Ratio (y) = 0.08677 0.14096
# Poissons Ratio (z) = 0.64634 0.29888
#
# Static dielectric constant tensor:
#      x y z
#    x 58.012840 0.000000 0.000000 
#    y 0.000000 3.079550 0.000000 
#    z 0.000000 0.000000 1.710090 
# 
# 
# High freq. dielectric constant tensor:
#      x y z
#    x 1.792350 0.000000 0.000000 
#    y 0.000000 1.823140 0.000000 
#    z 0.000000 0.000000 1.783830 
# 
# From -- ./inp_files/11493.got.cif
#   From: 2010.03.12/outbox.cif.g09.slc.cpg/sg61_6_cif.got.tgz:11493.got - 2010.04.10 19:05:03.
