data_PCOD8248050
_publ_section_title
;
Structure prediction by ZEFSAII (Michael W. Deem and Ramdas Pophale) SiO2 
 PCOD8248050
Probable space group: P B C N
;
_chemical_formula_sum "Si O2"
_cell_formula_units_Z 52
_cell_length_a 8.033277
_cell_length_b 19.526584
_cell_length_c 14.768132
_cell_angle_alpha 90.000000
_cell_angle_beta 90.000000
_cell_angle_gamma 90.000000
_cell_volume 2316.565488
_symmetry_space_group_name_H-M "P B C N"
_symmetry_group_IT_number 60
_symmetry_cell_setting 'orthorhombic'
loop_
_space_group_symop_operation_xyz
x,y,z
1/2-x,1/2-y,1/2+z
1/2+x,1/2-y,-z
-x,y,1/2-z
-x,-y,-z
1/2+x,1/2+y,1/2-z
1/2-x,1/2+y,z
x,-y,1/2+z
loop_
_atom_site_type_symbol
_atom_site_label
_atom_site_fract_x
_atom_site_fract_y
_atom_site_fract_z
Si Si1 0.544097 0.892782 0.015224
Si Si2 0.752206 0.978445 0.486406
Si Si3 0.000000 0.196045 0.750000
Si Si4 0.849667 0.327927 0.192009
Si Si5 0.510591 0.456172 0.642947
Si Si6 0.001601 0.797243 0.896763
Si Si7 0.872086 0.258919 0.924006
O O1 0.350701 0.909367 0.037872
O O2 0.653882 0.868359 0.098992
O O3 0.556130 0.833762 0.941820
O O4 0.628195 0.958961 0.973657
O O5 0.815025 0.970354 0.591115
O O6 0.891251 0.991230 0.410530
O O7 0.173204 0.154521 0.760557
O O8 0.015637 0.240608 0.660892
O O9 0.000000 0.359181 0.250000
O O10 0.884520 0.246063 0.174180
O O11 0.500000 0.474859 0.750000
O O12 0.470363 0.375401 0.632456
O O13 0.824444 0.757833 0.901980
O O14 0.089420 0.794549 0.994954
#
# Coordination Sequence:
#
# PCOD8248050 Si02
#       7
#     8   8   4   8   8   8   8
#     4  10  23  45  67  93 133 185 229 289 351 420
#     4  10  24  46  66  95 135 180 242 287 346 415
#     4  12  26  40  66 112 138 178 228 288 362 428
#     4  11  24  43  66 104 141 177 226 287 357 430
#     4  11  25  43  70  98 133 183 232 297 351 422
#     4  11  23  42  66  98 138 176 225 283 355 427
#     4  11  23  40  67  99 136 177 224 286 359 421
#
# _framework density 22.447025
#
# number of rings (size 3 to 8) (size 9 to 14) (size 15 to 20)
#    0.000    1.231    3.077    2.308    6.462    1.231 
#    4.154    1.538    0.000    0.000    0.000    0.000 
#    0.000    0.000    0.000    0.000    0.000    0.000 
#
# Total GULP energy -644455.423589 kJ/mol
# GULP energy per Si atom -12393.373531 kJ/mol
# Density = 2.239593 g / cm^3
# Si number density = 22.447025 Si / 1000 Ang^3
#
#
#
# Elastic Constant Matrix: (Units=GPa)
#
#
# Indices 1 2 3 4 5 6 
#
# 1 138.2510 17.9899 27.4618 0.0000 0.0000 0.0000
# 2 17.9899 39.8599 7.9523 0.0000 0.0000 0.0000
# 3 27.4618 7.9523 112.2947 0.0000 0.0000 0.0000
# 4 0.0000 0.0000 0.0000 6.7829 0.0000 0.0000
# 5 0.0000 0.0000 0.0000 0.0000 38.6639 0.0000
# 6 0.0000 0.0000 0.0000 0.0000 0.0000 18.0532
#
#
#
# Elastic Compliance Matrix: (Units=1/GPa)
#
#
# Indices 1 2 3 4 5 6 
#
# 1 0.008001 -0.003267 -0.001725 0.000000 0.000000 0.000000
# 2 -0.003267 0.026781 -0.001098 0.000000 0.000000 0.000000
# 3 -0.001725 -0.001098 0.009405 0.000000 0.000000 0.000000
# 4 0.000000 0.000000 0.000000 0.147429 0.000000 0.000000
# 5 0.000000 0.000000 0.000000 0.000000 0.025864 0.000000
# 6 0.000000 0.000000 0.000000 0.000000 0.000000 0.055392
#
#
# Mechanical properties :
#
#
# Convention : Reuss Voigt Hill
#
# Bulk Modulus (GPa) = 31.24272 44.13485 37.68878
# Shear Modulus (GPa) = 16.90786 28.50012 22.70399
#
# Velocity S-wave (km/s) = 2.74749 3.56710 3.18378
# Velocity P-wave (km/s) = 4.90036 6.05558 5.50834
#
# Compressibility (1/GPa) = 0.03200746
#
# Stress axis : x y z
#
# Youngs Moduli (GPa) = 124.98382 37.33950 106.32868
#
# Poissons Ratio (x) = 0.12198 0.18345
# Poissons Ratio (y) = 0.40831 0.11671
# Poissons Ratio (z) = 0.21564 0.04099
#
# Static dielectric constant tensor:
#      x y z
#    x 4.330080 0.000000 0.000000 
#    y 0.000000 3.954800 0.000000 
#    z 0.000000 0.000000 4.169180 
# 
# 
# High freq. dielectric constant tensor:
#      x y z
#    x 1.896380 0.000000 0.000000 
#    y 0.000000 1.873550 0.000000 
#    z 0.000000 0.000000 1.883330 
# 
# From -- ./inp_files/15191.got.cif
#   From: 2010.03.12/outbox.cif.g09.slc.cpg/sg60_8_cif.got.tgz:15191.got - 2010.04.10 18:46:24.
