data_PCOD8248563
_publ_section_title
;
Structure prediction by ZEFSAII (Michael W. Deem and Ramdas Pophale) SiO2 
 PCOD8248563
Probable space group: P B C N
;
_chemical_formula_sum "Si O2"
_cell_formula_units_Z 36
_cell_length_a 13.151043
_cell_length_b 10.168398
_cell_length_c 12.350773
_cell_angle_alpha 90.000000
_cell_angle_beta 90.000000
_cell_angle_gamma 90.000000
_cell_volume 1651.607605
_symmetry_space_group_name_H-M "P B C N"
_symmetry_group_IT_number 60
_symmetry_cell_setting 'orthorhombic'
loop_
_space_group_symop_operation_xyz
x,y,z
1/2-x,1/2-y,1/2+z
1/2+x,1/2-y,-z
-x,y,1/2-z
-x,-y,-z
1/2+x,1/2+y,1/2-z
1/2-x,1/2+y,z
x,-y,1/2+z
loop_
_atom_site_type_symbol
_atom_site_label
_atom_site_fract_x
_atom_site_fract_y
_atom_site_fract_z
Si Si1 0.500000 0.315497 0.750000
Si Si2 0.215075 0.071609 0.225570
Si Si3 0.640503 0.067321 0.075887
Si Si4 0.713843 0.684601 0.903243
Si Si5 0.543634 0.194749 0.527328
O O1 0.397504 0.397719 0.770135
O O2 0.484687 0.234690 0.638000
O O3 0.303356 0.096692 0.312507
O O4 0.247739 0.170253 0.129871
O O5 0.207520 0.917849 0.195773
O O6 0.626666 0.911847 0.064270
O O7 0.704188 0.121501 0.978864
O O8 0.531139 0.138600 0.065628
O O9 0.606209 0.689816 0.967228
#
# Coordination Sequence:
#
# PCOD8248563 Si02
#       5
#     4   8   8   8   8
#     4  12  24  44  70 106 142 188 238 298 358 424
#     4  12  27  44  74 104 145 187 238 295 362 422
#     4  11  25  46  75 105 145 187 239 296 360 432
#     4  12  25  48  70 106 142 188 236 297 356 428
#     4  11  25  46  76 105 141 191 243 292 360 434
#
# _framework density 21.796942999999999
#
# number of rings (size 3 to 8) (size 9 to 14) (size 15 to 20)
#    0.000    0.444    6.667    1.333    0.000    3.556 
#    0.000    0.000    0.000    0.000    0.000    0.000 
#    0.000    0.000    0.000    0.000    0.000    0.000 
#
# Total GULP energy -446289.112984 kJ/mol
# GULP energy per Si atom -12396.919805 kJ/mol
# Density = 2.174733 g / cm^3
# Si number density = 21.796943 Si / 1000 Ang^3
#
#
#
# Elastic Constant Matrix: (Units=GPa)
#
#
# Indices 1 2 3 4 5 6 
#
# 1 111.8213 34.2495 45.2692 0.0000 0.0000 0.0000
# 2 34.2495 83.2546 16.4064 0.0000 0.0000 0.0000
# 3 45.2692 16.4064 79.6370 0.0000 0.0000 0.0000
# 4 0.0000 0.0000 0.0000 43.0020 0.0000 0.0000
# 5 0.0000 0.0000 0.0000 0.0000 50.9860 0.0000
# 6 0.0000 0.0000 0.0000 0.0000 0.0000-1847.0489
#
#
#
# Elastic Compliance Matrix: (Units=1/GPa)
#
#
# Indices 1 2 3 4 5 6 
#
# 1 0.012770 -0.003984 -0.006438 0.000000 0.000000 0.000000
# 2 -0.003984 0.013763 -0.000570 0.000000 0.000000 0.000000
# 3 -0.006438 -0.000570 0.016334 0.000000 0.000000 0.000000
# 4 0.000000 0.000000 0.000000 0.023255 0.000000 0.000000
# 5 0.000000 0.000000 0.000000 0.000000 0.019613 0.000000
# 6 0.000000 0.000000 0.000000 0.000000 0.000000 -0.000541
#
#
# Mechanical properties :
#
#
# Convention : Reuss Voigt Hill
#
# Bulk Modulus (GPa) = 47.89060 51.84033 49.86546
# Shear Modulus (GPa) = 43.80626 -338.69299 -147.44336
#
# Velocity S-wave (km/s) = 4.48788 -12.47890 -8.23352
# Velocity P-wave (km/s) = 6.99097 13.55712 8.21346
#
# Compressibility (1/GPa) = 0.02088093
#
# Stress axis : x y z
#
# Youngs Moduli (GPa) = 78.31145 72.65908 61.22174
#
# Poissons Ratio (x) = 0.28951 0.39414
# Poissons Ratio (y) = 0.31203 0.03492
# Poissons Ratio (z) = 0.50416 0.04145
#
# Static dielectric constant tensor:
#      x y z
#    x 4.137500 0.000000 0.000000 
#    y 0.000000 4.297400 0.000000 
#    z 0.000000 0.000000 4.465110 
# 
# 
# High freq. dielectric constant tensor:
#      x y z
#    x 1.873880 0.000000 0.000000 
#    y 0.000000 1.851060 0.000000 
#    z 0.000000 0.000000 1.856320 
# 
# From -- ./inp_files/10647.got.cif
#   From: 2010.03.12/outbox.cif.g09.slc.cpg/sg60_6_cif.got.tgz:10647.got - 2010.04.10 18:46:24.
