data_PCOD8248506
_publ_section_title
;
Structure prediction by ZEFSAII (Michael W. Deem and Ramdas Pophale) SiO2 
 PCOD8248506
Probable space group: P B C N
;
_chemical_formula_sum "Si O2"
_cell_formula_units_Z 32
_cell_length_a 4.944624
_cell_length_b 10.248460
_cell_length_c 26.162133
_cell_angle_alpha 90.000000
_cell_angle_beta 90.000000
_cell_angle_gamma 90.000000
_cell_volume 1325.760368
_symmetry_space_group_name_H-M "P B C N"
_symmetry_group_IT_number 60
_symmetry_cell_setting 'orthorhombic'
loop_
_space_group_symop_operation_xyz
x,y,z
1/2-x,1/2-y,1/2+z
1/2+x,1/2-y,-z
-x,y,1/2-z
-x,-y,-z
1/2+x,1/2+y,1/2-z
1/2-x,1/2+y,z
x,-y,1/2+z
loop_
_atom_site_type_symbol
_atom_site_label
_atom_site_fract_x
_atom_site_fract_y
_atom_site_fract_z
Si Si1 0.892482 0.469117 0.917105
Si Si2 0.130336 0.315750 0.007682
Si Si3 0.888404 0.063823 0.151286
Si Si4 0.759006 0.186124 0.716014
O O1 0.818647 0.611208 0.938962
O O2 0.685026 0.424077 0.873640
O O3 0.186345 0.475936 0.893039
O O4 0.913087 0.378127 0.967147
O O5 0.421931 0.303348 0.979532
O O6 0.877527 0.947680 0.192512
O O7 0.820604 0.204831 0.174710
O O8 0.500000 0.150430 0.750000
O O9 0.000000 0.246679 0.750000
#
# Coordination Sequence:
#
# PCOD8248506 Si02
#       4
#     8   8   8   8
#     4  11  26  43  66 109 135 188 234 286 348 404
#     4  11  24  43  70  96 150 183 230 289 344 413
#     4  12  26  44  76 103 141 182 238 289 342 437
#     4  12  26  48  72 104 140 184 230 296 366 414
#
# _framework density 24.137093
#
# number of rings (size 3 to 8) (size 9 to 14) (size 15 to 20)
#    0.000    0.500    0.000    7.500   10.500    4.000 
#    0.000    0.000    0.000    0.000    0.000    0.000 
#    0.000    0.000    0.000    0.000    0.000    0.000 
#
# Total GULP energy -396675.770354 kJ/mol
# GULP energy per Si atom -12396.117824 kJ/mol
# Density = 2.408216 g / cm^3
# Si number density = 24.137093 Si / 1000 Ang^3
#
#
#
# Elastic Constant Matrix: (Units=GPa)
#
#
# Indices 1 2 3 4 5 6 
#
# 1 120.9658 -12.5805 21.3442 0.0000 0.0000 0.0000
# 2 -12.5805 50.2895 7.7493 0.0000 0.0000 0.0000
# 3 21.3442 7.7493 90.4603 0.0000 0.0000 0.0000
# 4 0.0000 0.0000 0.0000 30.5448 0.0000 0.0000
# 5 0.0000 0.0000 0.0000 0.0000 60.7650 0.0000
# 6 0.0000 0.0000 0.0000 0.0000 0.0000 29.7549
#
#
#
# Elastic Compliance Matrix: (Units=1/GPa)
#
#
# Indices 1 2 3 4 5 6 
#
# 1 0.008949 0.002598 -0.002334 0.000000 0.000000 0.000000
# 2 0.002598 0.020905 -0.002404 0.000000 0.000000 0.000000
# 3 -0.002334 -0.002404 0.011811 0.000000 0.000000 0.000000
# 4 0.000000 0.000000 0.000000 0.032739 0.000000 0.000000
# 5 0.000000 0.000000 0.000000 0.000000 0.016457 0.000000
# 6 0.000000 0.000000 0.000000 0.000000 0.000000 0.033608
#
#
# Mechanical properties :
#
#
# Convention : Reuss Voigt Hill
#
# Bulk Modulus (GPa) = 26.74795 32.74907 29.74851
# Shear Modulus (GPa) = 35.40818 40.55979 37.98398
#
# Velocity S-wave (km/s) = 3.83425 4.10371 3.97126
# Velocity P-wave (km/s) = 5.54145 6.00427 5.77750
#
# Compressibility (1/GPa) = 0.03738604
#
# Stress axis : x y z
#
# Youngs Moduli (GPa) = 111.74598 47.83473 84.66510
#
# Poissons Ratio (x) = -0.12429 0.19762
# Poissons Ratio (y) = -0.29035 0.20353
# Poissons Ratio (z) = 0.26082 0.11499
#
# Static dielectric constant tensor:
#      x y z
#    x 4.845220 0.000000 0.000000 
#    y 0.000000 4.445570 0.000000 
#    z 0.000000 0.000000 4.337790 
# 
# 
# High freq. dielectric constant tensor:
#      x y z
#    x 1.984470 0.000000 0.000000 
#    y 0.000000 1.956040 0.000000 
#    z 0.000000 0.000000 1.965470 
# 
# From -- ./inp_files/21387.got.cif
#   From: 2010.03.12/outbox.cif.g09.slc.cpg/sg60_11_cif.got.tgz:21387.got - 2010.04.10 18:46:24.
