data_PCOD8248465
_publ_section_title
;
Structure prediction by ZEFSAII (Michael W. Deem and Ramdas Pophale) SiO2 
 PCOD8248465
Probable space group: P B C N
;
_chemical_formula_sum "Si O2"
_cell_formula_units_Z 48
_cell_length_a 8.546616
_cell_length_b 17.266883
_cell_length_c 13.274788
_cell_angle_alpha 90.000000
_cell_angle_beta 90.000000
_cell_angle_gamma 90.000000
_cell_volume 1959.005845
_symmetry_space_group_name_H-M "P B C N"
_symmetry_group_IT_number 60
_symmetry_cell_setting 'orthorhombic'
loop_
_space_group_symop_operation_xyz
x,y,z
1/2-x,1/2-y,1/2+z
1/2+x,1/2-y,-z
-x,y,1/2-z
-x,-y,-z
1/2+x,1/2+y,1/2-z
1/2-x,1/2+y,z
x,-y,1/2+z
loop_
_atom_site_type_symbol
_atom_site_label
_atom_site_fract_x
_atom_site_fract_y
_atom_site_fract_z
Si Si1 0.259638 0.586037 0.128764
Si Si2 0.348002 0.937173 0.017366
Si Si3 0.452524 0.356323 0.962586
Si Si4 0.881427 0.124852 0.663781
Si Si5 0.645479 0.993936 0.694331
Si Si6 0.104694 0.320313 0.454185
O O1 0.443709 0.608731 0.128772
O O2 0.190621 0.584823 0.242803
O O3 0.238964 0.498001 0.088451
O O4 0.173861 0.650744 0.060835
O O5 0.224931 0.883692 0.955717
O O6 0.425645 0.980254 0.919376
O O7 0.467333 0.880642 0.076724
O O8 0.467972 0.263820 0.965985
O O9 0.519007 0.392450 0.065342
O O10 0.802147 0.044633 0.696781
O O11 0.737477 0.182215 0.633743
O O12 0.000000 0.157073 0.750000
O O13 0.500000 0.035184 0.750000
#
# Coordination Sequence:
#
# PCOD8248465 Si02
#       6
#     8   8   8   8   8   8
#     4  11  23  43  72 106 141 193 252 305 371 444
#     4  12  22  43  75 101 145 194 249 308 365 446
#     4  11  25  45  71 103 152 198 241 306 386 449
#     4  11  25  46  74 107 142 187 250 312 372 445
#     4  12  24  41  75 112 141 186 254 313 368 441
#     4  11  23  47  71 102 150 198 239 302 387 447
#
# _framework density 24.502222
#
# number of rings (size 3 to 8) (size 9 to 14) (size 15 to 20)
#    0.000    0.667    5.000    5.000    2.333    0.000 
#    6.000    0.000    7.333    0.000    0.000    0.000 
#    0.000    0.000    0.000    0.000    0.000    0.000 
#
# Total GULP energy -594988.583809 kJ/mol
# GULP energy per Si atom -12395.595496 kJ/mol
# Density = 2.444645 g / cm^3
# Si number density = 24.502222 Si / 1000 Ang^3
#
#
#
# Elastic Constant Matrix: (Units=GPa)
#
#
# Indices 1 2 3 4 5 6 
#
# 1 114.0929 31.6084 15.5170 0.0000 0.0000 0.0000
# 2 31.6084 103.5234 4.6528 0.0000 0.0000 0.0000
# 3 15.5170 4.6528 102.2893 0.0000 0.0000 0.0000
# 4 0.0000 0.0000 0.0000 14.1440 0.0000 0.0000
# 5 0.0000 0.0000 0.0000 0.0000 42.3957 0.0000
# 6 0.0000 0.0000 0.0000 0.0000 0.0000 35.6609
#
#
#
# Elastic Compliance Matrix: (Units=1/GPa)
#
#
# Indices 1 2 3 4 5 6 
#
# 1 0.009757 -0.002918 -0.001347 0.000000 0.000000 0.000000
# 2 -0.002918 0.010552 -0.000037 0.000000 0.000000 0.000000
# 3 -0.001347 -0.000037 0.009982 0.000000 0.000000 0.000000
# 4 0.000000 0.000000 0.000000 0.070702 0.000000 0.000000
# 5 0.000000 0.000000 0.000000 0.000000 0.023587 0.000000
# 6 0.000000 0.000000 0.000000 0.000000 0.000000 0.028042
#
#
# Mechanical properties :
#
#
# Convention : Reuss Voigt Hill
#
# Bulk Modulus (GPa) = 46.11421 47.05133 46.58277
# Shear Modulus (GPa) = 29.68131 36.31528 32.99829
#
# Velocity S-wave (km/s) = 3.48425 3.85401 3.67379
# Velocity P-wave (km/s) = 5.92013 6.24893 6.08675
#
# Compressibility (1/GPa) = 0.02168529
#
# Stress axis : x y z
#
# Youngs Moduli (GPa) = 102.49544 94.76532 100.17766
#
# Poissons Ratio (x) = 0.27656 0.13497
# Poissons Ratio (y) = 0.29912 0.00374
# Poissons Ratio (z) = 0.13809 0.00353
#
# Static dielectric constant tensor:
#      x y z
#    x 5.111030 0.000000 0.000000 
#    y 0.000000 4.022650 0.000000 
#    z 0.000000 0.000000 4.478570 
# 
# 
# High freq. dielectric constant tensor:
#      x y z
#    x 2.005030 0.000000 0.000000 
#    y 0.000000 1.942080 0.000000 
#    z 0.000000 0.000000 1.966640 
# 
# From -- ./inp_files/15003.got.cif
#   From: 2010.03.12/outbox.cif.g09.slc.cpg/sg60_8_cif.got.tgz:15003.got - 2010.04.10 18:46:24.
