data_PCOD8248557
_publ_section_title
;
Structure prediction by ZEFSAII (Michael W. Deem and Ramdas Pophale) SiO2 
 PCOD8248557
Probable space group: P B C N
;
_chemical_formula_sum "Si O2"
_cell_formula_units_Z 32
_cell_length_a 14.571580
_cell_length_b 9.096525
_cell_length_c 8.699568
_cell_angle_alpha 90.000000
_cell_angle_beta 90.000000
_cell_angle_gamma 90.000000
_cell_volume 1153.134191
_symmetry_space_group_name_H-M "P B C N"
_symmetry_group_IT_number 60
_symmetry_cell_setting 'orthorhombic'
loop_
_space_group_symop_operation_xyz
x,y,z
1/2-x,1/2-y,1/2+z
1/2+x,1/2-y,-z
-x,y,1/2-z
-x,-y,-z
1/2+x,1/2+y,1/2-z
1/2-x,1/2+y,z
x,-y,1/2+z
loop_
_atom_site_type_symbol
_atom_site_label
_atom_site_fract_x
_atom_site_fract_y
_atom_site_fract_z
Si Si1 0.250127 0.351451 0.020880
Si Si2 0.067738 0.194388 0.047498
Si Si3 0.818268 0.614577 0.303798
Si Si4 0.000000 0.936988 0.250000
Si Si5 0.500000 0.065403 0.750000
O O1 0.166588 0.256043 0.087696
O O2 0.241224 0.515941 0.080152
O O3 0.338101 0.266295 0.098208
O O4 0.250324 0.351581 0.837508
O O5 0.997428 0.325119 0.101285
O O6 0.060098 0.166969 0.863224
O O7 0.059599 0.041337 0.138752
O O8 0.911216 0.539487 0.242852
#
# Coordination Sequence:
#
# PCOD8248557 Si02
#       5
#     8   8   8   4   4
#     4  11  25  45  70 101 141 187 238 294 358 425
#     4   9  20  38  66 105 141 185 234 288 354 421
#     4  11  25  47  73 105 144 187 238 295 357 426
#     4   9  18  37  66 102 148 184 228 288 354 424
#     4   9  22  45  72 104 140 184 240 296 352 420
#
# _framework density 27.750454000000001
#
# number of rings (size 3 to 8) (size 9 to 14) (size 15 to 20)
#    0.000    2.000    0.000    1.500    0.000   11.000 
#    0.000   10.000    0.000    6.000    0.000    0.000 
#    0.000    0.000    0.000    0.000    0.000    0.000 
#
# Total GULP energy -396730.564727 kJ/mol
# GULP energy per Si atom -12397.830148 kJ/mol
# Density = 2.768729 g / cm^3
# Si number density = 27.750454 Si / 1000 Ang^3
#
#
#
# Elastic Constant Matrix: (Units=GPa)
#
#
# Indices 1 2 3 4 5 6 
#
# 1 27.8759 8.0617 12.6555 0.0000 0.0000 0.0000
# 2 8.0617 126.8606 42.8496 0.0000 0.0000 0.0000
# 3 12.6555 42.8496 187.1492 0.0000 0.0000 0.0000
# 4 0.0000 0.0000 0.0000 41.5085 0.0000 0.0000
# 5 0.0000 0.0000 0.0000 0.0000 34.8632 0.0000
# 6 0.0000 0.0000 0.0000 0.0000 0.0000 43.0275
#
#
#
# Elastic Compliance Matrix: (Units=1/GPa)
#
#
# Indices 1 2 3 4 5 6 
#
# 1 0.037324 -0.001647 -0.002147 0.000000 0.000000 0.000000
# 2 -0.001647 0.008616 -0.001861 0.000000 0.000000 0.000000
# 3 -0.002147 -0.001861 0.005915 0.000000 0.000000 0.000000
# 4 0.000000 0.000000 0.000000 0.024091 0.000000 0.000000
# 5 0.000000 0.000000 0.000000 0.000000 0.028684 0.000000
# 6 0.000000 0.000000 0.000000 0.000000 0.000000 0.023241
#
#
# Mechanical properties :
#
#
# Convention : Reuss Voigt Hill
#
# Bulk Modulus (GPa) = 24.66401 52.11325 38.38863
# Shear Modulus (GPa) = 32.74484 42.43443 37.58964
#
# Velocity S-wave (km/s) = 3.43880 3.91467 3.68443
# Velocity P-wave (km/s) = 4.96732 6.26521 5.65363
#
# Compressibility (1/GPa) = 0.04054490
#
# Stress axis : x y z
#
# Youngs Moduli (GPa) = 26.79228 116.06280 169.07062
#
# Poissons Ratio (x) = 0.19112 0.36298
# Poissons Ratio (y) = 0.04412 0.31470
# Poissons Ratio (z) = 0.05752 0.21604
#
# Static dielectric constant tensor:
#      x y z
#    x 4.582120 0.000000 0.000000 
#    y 0.000000 5.554800 0.000000 
#    z 0.000000 0.000000 5.611520 
# 
# 
# High freq. dielectric constant tensor:
#      x y z
#    x 2.093950 0.000000 0.000000 
#    y 0.000000 2.154330 0.000000 
#    z 0.000000 0.000000 2.128440 
# 
# From -- ./inp_files/6490.got.cif
#   From: 2010.03.12/outbox.cif.g09.slc.cpg/sg60_4_cif.got.tgz:6490.got - 2010.04.10 18:46:24.
