data_PCOD8248023
_publ_section_title
;
Structure prediction by ZEFSAII (Michael W. Deem and Ramdas Pophale) SiO2 
 PCOD8248023
Probable space group: P B C N
;
_chemical_formula_sum "Si O2"
_cell_formula_units_Z 56
_cell_length_a 12.533315
_cell_length_b 13.912205
_cell_length_c 15.162775
_cell_angle_alpha 90.000000
_cell_angle_beta 90.000000
_cell_angle_gamma 90.000000
_cell_volume 2643.873148
_symmetry_space_group_name_H-M "P B C N"
_symmetry_group_IT_number 60
_symmetry_cell_setting 'orthorhombic'
loop_
_space_group_symop_operation_xyz
x,y,z
1/2-x,1/2-y,1/2+z
1/2+x,1/2-y,-z
-x,y,1/2-z
-x,-y,-z
1/2+x,1/2+y,1/2-z
1/2-x,1/2+y,z
x,-y,1/2+z
loop_
_atom_site_type_symbol
_atom_site_label
_atom_site_fract_x
_atom_site_fract_y
_atom_site_fract_z
Si Si1 0.115517 0.647861 0.508882
Si Si2 0.969250 0.845850 0.157269
Si Si3 0.751441 0.307914 0.082452
Si Si4 0.969019 0.757134 0.649097
Si Si5 0.212234 0.451734 0.561457
Si Si6 0.527061 0.853202 0.853204
Si Si7 0.456314 0.537648 0.092447
O O1 0.201351 0.728721 0.482595
O O2 0.182504 0.562813 0.553870
O O3 0.035452 0.690166 0.582632
O O4 0.057244 0.599376 0.422713
O O5 0.842684 0.852961 0.142490
O O6 0.000000 0.800859 0.250000
O O7 0.021044 0.756456 0.102967
O O8 0.025919 0.948161 0.156218
O O9 0.842639 0.262792 0.143326
O O10 0.804857 0.395509 0.029780
O O11 0.000000 0.736725 0.750000
O O12 0.981399 0.869248 0.625001
O O13 0.142387 0.400193 0.636628
O O14 0.333217 0.437150 0.590591
O O15 0.500000 0.868386 0.750000
O O16 0.500000 0.500000 0.000000
#
# Coordination Sequence:
#
# PCOD8248023 Si02
#       7
#     8   8   8   8   8   8   8
#     4  11  24  45  66  99 140 185 229 292 350 419
#     4  10  23  44  66  97 135 177 225 283 341 419
#     4  11  24  45  70  96 137 189 229 285 361 410
#     4  12  27  45  70 107 145 179 241 299 345 414
#     4  12  24  40  72  97 134 188 231 280 356 420
#     4  10  23  44  69  98 138 183 240 286 339 419
#     4  12  23  42  68 102 135 180 230 285 350 417
#
# _framework density 21.181047
#
# number of rings (size 3 to 8) (size 9 to 14) (size 15 to 20)
#    0.000    0.857    4.286    2.571    2.000    5.143 
#    2.571    0.000    0.000    0.000    0.000    0.000 
#    0.000    0.000    0.000    0.000    0.000    0.000 
#
# Total GULP energy -693934.120634 kJ/mol
# GULP energy per Si atom -12391.680726 kJ/mol
# Density = 2.113284 g / cm^3
# Si number density = 21.181047 Si / 1000 Ang^3
#
#
#
# Elastic Constant Matrix: (Units=GPa)
#
#
# Indices 1 2 3 4 5 6 
#
# 1 103.1206 47.8498 48.1331 0.0000 0.0000 0.0000
# 2 47.8498 97.8630 26.7575 0.0000 0.0000 0.0000
# 3 48.1331 26.7575 122.2399 0.0000 0.0000 0.0000
# 4 0.0000 0.0000 0.0000 13.3128 0.0000 0.0000
# 5 0.0000 0.0000 0.0000 0.0000 35.8356 0.0000
# 6 0.0000 0.0000 0.0000 0.0000 0.0000 36.1970
#
#
#
# Elastic Compliance Matrix: (Units=1/GPa)
#
#
# Indices 1 2 3 4 5 6 
#
# 1 0.014485 -0.005875 -0.004418 0.000000 0.000000 0.000000
# 2 -0.005875 0.013251 -0.000587 0.000000 0.000000 0.000000
# 3 -0.004418 -0.000587 0.010049 0.000000 0.000000 0.000000
# 4 0.000000 0.000000 0.000000 0.075115 0.000000 0.000000
# 5 0.000000 0.000000 0.000000 0.000000 0.027905 0.000000
# 6 0.000000 0.000000 0.000000 0.000000 0.000000 0.027627
#
#
# Mechanical properties :
#
#
# Convention : Reuss Voigt Hill
#
# Bulk Modulus (GPa) = 62.39982 63.18937 62.79460
# Shear Modulus (GPa) = 25.57090 30.43462 28.00276
#
# Velocity S-wave (km/s) = 3.47833 3.79473 3.63997
# Velocity P-wave (km/s) = 6.75691 7.00698 6.88308
#
# Compressibility (1/GPa) = 0.01602569
#
# Stress axis : x y z
#
# Youngs Moduli (GPa) = 69.03484 75.46379 99.51447
#
# Poissons Ratio (x) = 0.44333 0.43964
# Poissons Ratio (y) = 0.40556 0.05846
# Poissons Ratio (z) = 0.30499 0.04433
#
# Static dielectric constant tensor:
#      x y z
#    x 3.828130 0.000000 0.000000 
#    y 0.000000 2.568910 0.000000 
#    z 0.000000 0.000000 3.857770 
# 
# 
# High freq. dielectric constant tensor:
#      x y z
#    x 1.834680 0.000000 0.000000 
#    y 0.000000 1.845870 0.000000 
#    z 0.000000 0.000000 1.825270 
# 
# From -- ./inp_files/16153.got.cif
#   From: 2010.03.12/outbox.cif.g09.slc.cpg/sg60_9_cif.got.tgz:16153.got - 2010.04.10 18:46:24.
