data_PCOD8248313
_publ_section_title
;
Structure prediction by ZEFSAII (Michael W. Deem and Ramdas Pophale) SiO2 
 PCOD8248313
Probable space group: P B C N
;
_chemical_formula_sum "Si O2"
_cell_formula_units_Z 48
_cell_length_a 14.699010
_cell_length_b 9.884495
_cell_length_c 17.289279
_cell_angle_alpha 90.000000
_cell_angle_beta 90.000000
_cell_angle_gamma 90.000000
_cell_volume 2511.998953
_symmetry_space_group_name_H-M "P B C N"
_symmetry_group_IT_number 60
_symmetry_cell_setting 'orthorhombic'
loop_
_space_group_symop_operation_xyz
x,y,z
1/2-x,1/2-y,1/2+z
1/2+x,1/2-y,-z
-x,y,1/2-z
-x,-y,-z
1/2+x,1/2+y,1/2-z
1/2-x,1/2+y,z
x,-y,1/2+z
loop_
_atom_site_type_symbol
_atom_site_label
_atom_site_fract_x
_atom_site_fract_y
_atom_site_fract_z
Si Si1 0.450472 0.147884 0.828121
Si Si2 0.173397 0.135426 0.270259
Si Si3 0.467644 0.417950 0.327993
Si Si4 0.831763 0.187954 0.553496
Si Si5 0.308264 0.030372 0.387154
Si Si6 0.092147 0.138233 0.113586
O O1 0.500000 0.100304 0.750000
O O2 0.354719 0.221789 0.807941
O O3 0.518251 0.241049 0.878013
O O4 0.413252 0.018043 0.875906
O O5 0.268778 0.082244 0.304024
O O6 0.173477 0.151359 0.177057
O O7 0.092054 0.037333 0.292705
O O8 0.500000 0.337319 0.250000
O O9 0.413259 0.319344 0.384176
O O10 0.547089 0.489968 0.377523
O O11 0.802097 0.344657 0.552990
O O12 0.864156 0.144714 0.469731
O O13 0.750443 0.089362 0.576277
#
# Coordination Sequence:
#
# PCOD8248313 Si02
#       6
#     8   8   8   8   8   8
#     4   9  18  36  61  80 110 148 190 233 283 336
#     4   8  16  35  58  79 106 148 187 221 275 346
#     4   8  16  33  58  81 105 144 192 226 275 348
#     4  11  22  35  56  82 119 146 184 239 292 337
#     4  11  21  37  57  82 113 152 188 227 288 343
#     4   9  18  36  59  84 109 149 190 233 287 340
#
# _framework density 19.108288999999999
#
# number of rings (size 3 to 8) (size 9 to 14) (size 15 to 20)
#    0.000    2.667    1.667    2.500    0.000    1.333 
#    6.000    0.000    0.000    0.000    0.000    0.000 
#    0.000    0.000    0.000    0.000    0.000    0.000 
#
# Total GULP energy -594841.869277 kJ/mol
# GULP energy per Si atom -12392.538943 kJ/mol
# Density = 1.906480 g / cm^3
# Si number density = 19.108289 Si / 1000 Ang^3
#
#
#
# Elastic Constant Matrix: (Units=GPa)
#
#
# Indices 1 2 3 4 5 6 
#
# 1 62.9815 22.2780 36.7920 0.0000 0.0000 0.0000
# 2 22.2780 72.5589 20.7221 0.0000 0.0000 0.0000
# 3 36.7920 20.7221 118.1746 0.0000 0.0000 0.0000
# 4 0.0000 0.0000 0.0000 15.6492 0.0000 0.0000
# 5 0.0000 0.0000 0.0000 0.0000 23.2541 0.0000
# 6 0.0000 0.0000 0.0000 0.0000 0.0000 20.1711
#
#
#
# Elastic Compliance Matrix: (Units=1/GPa)
#
#
# Indices 1 2 3 4 5 6 
#
# 1 0.020880 -0.004794 -0.005660 0.000000 0.000000 0.000000
# 2 -0.004794 0.015609 -0.001244 0.000000 0.000000 0.000000
# 3 -0.005660 -0.001244 0.010442 0.000000 0.000000 0.000000
# 4 0.000000 0.000000 0.000000 0.063901 0.000000 0.000000
# 5 0.000000 0.000000 0.000000 0.000000 0.043003 0.000000
# 6 0.000000 0.000000 0.000000 0.000000 0.000000 0.049576
#
#
# Mechanical properties :
#
#
# Convention : Reuss Voigt Hill
#
# Bulk Modulus (GPa) = 42.49159 45.92213 44.20686
# Shear Modulus (GPa) = 21.30796 23.40975 22.35886
#
# Velocity S-wave (km/s) = 3.34296 3.50395 3.42440
# Velocity P-wave (km/s) = 6.09803 6.36042 6.23061
#
# Compressibility (1/GPa) = 0.02353407
#
# Stress axis : x y z
#
# Youngs Moduli (GPa) = 47.89278 64.06416 95.76323
#
# Poissons Ratio (x) = 0.30715 0.54202
# Poissons Ratio (y) = 0.22962 0.11917
# Poissons Ratio (z) = 0.27107 0.07972
#
# Static dielectric constant tensor:
#      x y z
#    x 3.419070 0.000000 0.000000 
#    y 0.000000 3.389580 0.000000 
#    z 0.000000 0.000000 3.450540 
# 
# 
# High freq. dielectric constant tensor:
#      x y z
#    x 1.725580 0.000000 0.000000 
#    y 0.000000 1.731250 0.000000 
#    z 0.000000 0.000000 1.734560 
# 
# From -- ./inp_files/20482.got.cif
#   From: 2010.03.12/outbox.cif.g09.slc.cpg/sg60_11_cif.got.tgz:20482.got - 2010.04.10 18:46:24.
