data_PCOD8248888
_publ_section_title
;
Structure prediction by ZEFSAII (Michael W. Deem and Ramdas Pophale) SiO2 
 PCOD8248888
Probable space group: P B C A
;
_chemical_formula_sum "Si O2"
_cell_formula_units_Z 32
_cell_length_a 13.074358
_cell_length_b 5.279332
_cell_length_c 20.394604
_cell_angle_alpha 90.000000
_cell_angle_beta 90.000000
_cell_angle_gamma 90.000000
_cell_volume 1407.714629
_symmetry_space_group_name_H-M "P B C A"
_symmetry_group_IT_number 61
_symmetry_cell_setting 'orthorhombic'
loop_
_space_group_symop_operation_xyz
x,y,z
1/2-x,-y,1/2+z
1/2+x,1/2-y,-z
-x,1/2+y,1/2-z
-x,-y,-z
1/2+x,y,1/2-z
1/2-x,1/2+y,z
x,1/2-y,1/2+z
loop_
_atom_site_type_symbol
_atom_site_label
_atom_site_fract_x
_atom_site_fract_y
_atom_site_fract_z
Si Si1 0.856572 0.690199 0.033335
Si Si2 0.505635 0.741011 0.707683
Si Si3 0.367044 0.310606 0.910983
Si Si4 0.689536 0.287281 0.381293
O O1 0.916301 0.427333 0.048275
O O2 0.753676 0.663285 0.077131
O O3 0.919743 0.932622 0.060124
O O4 0.827561 0.725866 0.958539
O O5 0.510635 0.469295 0.742078
O O6 0.610180 0.783043 0.666562
O O7 0.416982 0.742890 0.654422
O O8 0.738973 0.553262 0.359940
#
# Coordination Sequence:
#
# PCOD8248888 Si02
#       4
#     8   8   8   8
#     4  10  19  40  69 104 125 163 224 274 364 371
#     4  12  28  48  63 101 140 188 235 261 330 413
#     4  10  20  40  67  95 137 164 219 286 316 409
#     4  12  23  46  71 100 138 173 222 291 344 405
#
# _framework density 22.73188
#
# number of rings (size 3 to 8) (size 9 to 14) (size 15 to 20)
#    0.000    1.000    5.000    3.000    0.000    2.000 
#   27.000    0.000    0.000    0.000    0.000    0.000 
#    0.000    0.000    0.000    0.000    0.000    0.000 
#
# Total GULP energy -396736.903107 kJ/mol
# GULP energy per Si atom -12398.028222 kJ/mol
# Density = 2.268014 g / cm^3
# Si number density = 22.731880 Si / 1000 Ang^3
#
#
#
# Elastic Constant Matrix: (Units=GPa)
#
#
# Indices 1 2 3 4 5 6 
#
# 1 38.5012 -13.3179 41.7724 0.0000 0.0000 0.0000
# 2 -13.3179 174.8571 13.5906 0.0000 0.0000 0.0000
# 3 41.7724 13.5906 85.9337 0.0000 0.0000 0.0000
# 4 0.0000 0.0000 0.0000 32.2814 0.0000 0.0000
# 5 0.0000 0.0000 0.0000 0.0000 35.8761 0.0000
# 6 0.0000 0.0000 0.0000 0.0000 0.0000 22.0081
#
#
#
# Elastic Compliance Matrix: (Units=1/GPa)
#
#
# Indices 1 2 3 4 5 6 
#
# 1 0.062905 0.007257 -0.031726 0.000000 0.000000 0.000000
# 2 0.007257 0.006627 -0.004576 0.000000 0.000000 0.000000
# 3 -0.031726 -0.004576 0.027782 0.000000 0.000000 0.000000
# 4 0.000000 0.000000 0.000000 0.030978 0.000000 0.000000
# 5 0.000000 0.000000 0.000000 0.000000 0.027874 0.000000
# 6 0.000000 0.000000 0.000000 0.000000 0.000000 0.045438
#
#
# Mechanical properties :
#
#
# Convention : Reuss Voigt Hill
#
# Bulk Modulus (GPa) = 25.49367 42.59804 34.04586
# Shear Modulus (GPa) = 18.33063 35.18292 26.75678
#
# Velocity S-wave (km/s) = 2.84277 3.93839 3.43455
# Velocity P-wave (km/s) = 4.69195 6.28182 5.54417
#
# Compressibility (1/GPa) = 0.03922542
#
# Stress axis : x y z
#
# Youngs Moduli (GPa) = 15.89709 150.89051 35.99400
#
# Poissons Ratio (x) = -1.09500 1.14193
# Poissons Ratio (y) = -0.11536 0.16470
# Poissons Ratio (z) = 0.50435 0.69043
#
# Static dielectric constant tensor:
#      x y z
#    x 3.967060 0.000000 0.000000 
#    y 0.000000 5.895560 0.000000 
#    z 0.000000 0.000000 4.042840 
# 
# 
# High freq. dielectric constant tensor:
#      x y z
#    x 1.869850 0.000000 0.000000 
#    y 0.000000 1.939940 0.000000 
#    z 0.000000 0.000000 1.890270 
# 
# From -- ./inp_files/666.got.cif
#   From: 2010.03.12/outbox.cif.g09.slc.cpg/sg61_1_cif.got.tgz:666.got - 2010.04.10 19:05:03.
