data_PCOD8248965
_publ_section_title
;
Structure prediction by ZEFSAII (Michael W. Deem and Ramdas Pophale) SiO2 
 PCOD8248965
Probable space group: P B C A
;
_chemical_formula_sum "Si O2"
_cell_formula_units_Z 64
_cell_length_a 20.454851
_cell_length_b 5.109382
_cell_length_c 26.193336
_cell_angle_alpha 90.000000
_cell_angle_beta 90.000000
_cell_angle_gamma 90.000000
_cell_volume 2737.508699
_symmetry_space_group_name_H-M "P B C A"
_symmetry_group_IT_number 61
_symmetry_cell_setting 'orthorhombic'
loop_
_space_group_symop_operation_xyz
x,y,z
1/2-x,-y,1/2+z
1/2+x,1/2-y,-z
-x,1/2+y,1/2-z
-x,-y,-z
1/2+x,y,1/2-z
1/2-x,1/2+y,z
x,1/2-y,1/2+z
loop_
_atom_site_type_symbol
_atom_site_label
_atom_site_fract_x
_atom_site_fract_y
_atom_site_fract_z
Si Si1 0.415022 0.222413 0.613962
Si Si2 0.451164 0.761610 0.340857
Si Si3 0.281832 0.063096 0.238089
Si Si4 0.443901 0.781475 0.051851
Si Si5 0.616346 0.773804 0.194866
Si Si6 0.726532 0.945298 0.372553
Si Si7 0.416011 0.514958 0.445739
Si Si8 0.706761 0.707799 0.600384
O O1 0.469990 0.239600 0.657901
O O2 0.408149 0.507021 0.588262
O O3 0.433688 0.014069 0.570305
O O4 0.347811 0.129414 0.639768
O O5 0.424986 0.543234 0.300457
O O6 0.421390 0.701039 0.396378
O O7 0.431789 0.052565 0.325795
O O8 0.230148 0.276324 0.261944
O O9 0.354138 0.175026 0.250744
O O10 0.267562 0.051260 0.177548
O O11 0.521692 0.824544 0.051183
O O12 0.412985 0.803455 0.995638
O O13 0.677530 0.813363 0.157239
O O14 0.733772 0.218695 0.403744
O O15 0.350692 0.339869 0.441072
O O16 0.763939 0.495719 0.592398
#
# Coordination Sequence:
#
# PCOD8248965 Si02
#       8
#     8   8   8   8   8   8   8   8
#     4  11  21  39  60  90 114 153 207 251 308 341
#     4  10  21  34  59  86 120 154 193 253 294 353
#     4  10  20  36  60  87 114 149 194 241 285 354
#     4  10  22  37  64  83 113 158 208 258 289 357
#     4  11  20  35  56  87 119 154 196 231 294 368
#     4  10  22  40  64  87 116 155 198 252 302 360
#     4   9  21  39  55  85 119 158 204 245 301 349
#     4  11  21  32  50  77 117 157 186 231 291 354
#
# _framework density 23.378920000000001
#
# number of rings (size 3 to 8) (size 9 to 14) (size 15 to 20)
#    0.000    1.750    0.000    6.000    0.000    8.500 
#    0.000    3.750    0.000   12.000    0.000    0.000 
#    0.000    0.000    0.000    0.000    0.000    0.000 
#
# Total GULP energy -793172.185191 kJ/mol
# GULP energy per Si atom -12393.315394 kJ/mol
# Density = 2.332571 g / cm^3
# Si number density = 23.378920 Si / 1000 Ang^3
#
#
#
# Elastic Constant Matrix: (Units=GPa)
#
#
# Indices 1 2 3 4 5 6 
#
# 1 116.9966 32.6038 14.2662 0.0000 0.0000 0.0000
# 2 32.6038 127.8824 -4.2450 0.0000 0.0000 0.0000
# 3 14.2662 -4.2450 27.2512 0.0000 0.0000 0.0000
# 4 0.0000 0.0000 0.0000 18.6749 0.0000 0.0000
# 5 0.0000 0.0000 0.0000 0.0000 30.6240 0.0000
# 6 0.0000 0.0000 0.0000 0.0000 0.0000 37.7594
#
#
#
# Elastic Compliance Matrix: (Units=1/GPa)
#
#
# Indices 1 2 3 4 5 6 
#
# 1 0.010001 -0.002738 -0.005662 0.000000 0.000000 0.000000
# 2 -0.002738 0.008610 0.002774 0.000000 0.000000 0.000000
# 3 -0.005662 0.002774 0.040092 0.000000 0.000000 0.000000
# 4 0.000000 0.000000 0.000000 0.053548 0.000000 0.000000
# 5 0.000000 0.000000 0.000000 0.000000 0.032654 0.000000
# 6 0.000000 0.000000 0.000000 0.000000 0.000000 0.026483
#
#
# Mechanical properties :
#
#
# Convention : Reuss Voigt Hill
#
# Bulk Modulus (GPa) = 21.07396 39.70891 30.39144
# Shear Modulus (GPa) = 25.19465 32.71202 28.95333
#
# Velocity S-wave (km/s) = 3.28634 3.74466 3.52296
# Velocity P-wave (km/s) = 4.84084 5.97649 5.43839
#
# Compressibility (1/GPa) = 0.04745192
#
# Stress axis : x y z
#
# Youngs Moduli (GPa) = 99.99469 116.14768 24.94274
#
# Poissons Ratio (x) = 0.31796 0.14122
# Poissons Ratio (y) = 0.27374 -0.06920
# Poissons Ratio (z) = 0.56615 -0.32223
#
# Static dielectric constant tensor:
#      x y z
#    x 4.295180 0.000000 0.000000 
#    y 0.000000 4.756870 0.000000 
#    z 0.000000 0.000000 3.881770 
# 
# 
# High freq. dielectric constant tensor:
#      x y z
#    x 1.923820 0.000000 0.000000 
#    y 0.000000 1.951800 0.000000 
#    z 0.000000 0.000000 1.881390 
# 
# From -- ./inp_files/11839.got.cif
#   From: 2010.03.12/outbox.cif.g09.slc.cpg/sg61_6_cif.got.tgz:11839.got - 2010.04.10 19:05:03.
