data_PCOD8248709
_publ_section_title
;
Structure prediction by ZEFSAII (Michael W. Deem and Ramdas Pophale) SiO2 
 PCOD8248709
Probable space group: P B C A
;
_chemical_formula_sum "Si O2"
_cell_formula_units_Z 40
_cell_length_a 18.070115
_cell_length_b 4.975598
_cell_length_c 24.915271
_cell_angle_alpha 90.000000
_cell_angle_beta 90.000000
_cell_angle_gamma 90.000000
_cell_volume 2240.122748
_symmetry_space_group_name_H-M "P B C A"
_symmetry_group_IT_number 61
_symmetry_cell_setting 'orthorhombic'
loop_
_space_group_symop_operation_xyz
x,y,z
1/2-x,-y,1/2+z
1/2+x,1/2-y,-z
-x,1/2+y,1/2-z
-x,-y,-z
1/2+x,y,1/2-z
1/2-x,1/2+y,z
x,1/2-y,1/2+z
loop_
_atom_site_type_symbol
_atom_site_label
_atom_site_fract_x
_atom_site_fract_y
_atom_site_fract_z
Si Si1 0.478498 0.291132 0.433253
Si Si2 0.926847 0.208513 0.955298
Si Si3 0.425026 0.171701 0.205382
Si Si4 0.519089 0.671747 0.181945
Si Si5 0.200519 0.723495 0.625981
O O1 0.508813 0.593984 0.434192
O O2 0.417811 0.246294 0.480206
O O3 0.441656 0.232455 0.375151
O O4 0.548691 0.094686 0.442228
O O5 0.849910 0.273085 0.926364
O O6 0.485757 0.373094 0.180645
O O7 0.421393 0.206941 0.270135
O O8 0.344890 0.229498 0.180834
O O9 0.449779 0.871509 0.190461
O O10 0.229784 0.420587 0.624788
#
# Coordination Sequence:
#
# PCOD8248709 Si02
#       5
#     8   8   8   8   8
#     4  10  17  32  54  73 103 121 160 228 249 292
#     4  10  20  31  49  78  98 131 169 197 263 290
#     4  10  20  31  49  78  98 131 169 197 263 290
#     4  10  17  32  54  73 103 121 160 228 249 292
#     4  12  22  34  50  70 110 140 166 200 236 312
#
# _framework density 17.856164
#
# number of rings (size 3 to 8) (size 9 to 14) (size 15 to 20)
#    0.000    1.600    4.000    2.400    0.000    0.000 
#    0.000    0.000    0.000    2.400    0.000    0.000 
#    0.000    0.000    0.000    0.000    0.000    0.000 
#
# Total GULP energy -495998.698158 kJ/mol
# GULP energy per Si atom -12399.967454 kJ/mol
# Density = 1.781552 g / cm^3
# Si number density = 17.856164 Si / 1000 Ang^3
#
#
#
# Elastic Constant Matrix: (Units=GPa)
#
#
# Indices 1 2 3 4 5 6 
#
# 1 59.3932 5.1852 39.3447 0.0000 0.0000 0.0000
# 2 5.1852 65.5548 6.3393 0.0000 0.0000 0.0000
# 3 39.3447 6.3393 164.9929 0.0000 0.0000 0.0000
# 4 0.0000 0.0000 0.0000 22.9503 0.0000 0.0000
# 5 0.0000 0.0000 0.0000 0.0000 28.2042 0.0000
# 6 0.0000 0.0000 0.0000 0.0000 0.0000 23.3439
#
#
#
# Elastic Compliance Matrix: (Units=1/GPa)
#
#
# Indices 1 2 3 4 5 6 
#
# 1 0.020079 -0.001129 -0.004745 0.000000 0.000000 0.000000
# 2 -0.001129 0.015375 -0.000321 0.000000 0.000000 0.000000
# 3 -0.004745 -0.000321 0.007205 0.000000 0.000000 0.000000
# 4 0.000000 0.000000 0.000000 0.043572 0.000000 0.000000
# 5 0.000000 0.000000 0.000000 0.000000 0.035456 0.000000
# 6 0.000000 0.000000 0.000000 0.000000 0.000000 0.042838
#
#
# Mechanical properties :
#
#
# Convention : Reuss Voigt Hill
#
# Bulk Modulus (GPa) = 33.03897 43.51992 38.27945
# Shear Modulus (GPa) = 26.73743 30.83780 28.78762
#
# Velocity S-wave (km/s) = 3.87380 4.16024 4.01957
# Velocity P-wave (km/s) = 6.20898 6.89218 6.55948
#
# Compressibility (1/GPa) = 0.03026728
#
# Stress axis : x y z
#
# Youngs Moduli (GPa) = 49.80434 65.04143 138.79967
#
# Poissons Ratio (x) = 0.07345 0.65855
# Poissons Ratio (y) = 0.05625 0.04461
# Poissons Ratio (z) = 0.23630 0.02091
#
# Static dielectric constant tensor:
#      x y z
#    x 2.724870 0.000000 0.000000 
#    y 0.000000 3.499140 0.000000 
#    z 0.000000 0.000000 3.826300 
# 
# 
# High freq. dielectric constant tensor:
#      x y z
#    x 1.618920 0.000000 0.000000 
#    y 0.000000 1.718620 0.000000 
#    z 0.000000 0.000000 1.710480 
# 
# From -- ./inp_files/9603.got.cif
#   From: 2010.03.12/outbox.cif.g09.slc.cpg/sg61_5_cif.got.tgz:9603.got - 2010.04.10 19:05:03.
