data_PCOD8248715
_publ_section_title
;
Structure prediction by ZEFSAII (Michael W. Deem and Ramdas Pophale) SiO2 
 PCOD8248715
Probable space group: P B C A
;
_chemical_formula_sum "Si O2"
_cell_formula_units_Z 64
_cell_length_a 15.444780
_cell_length_b 13.299648
_cell_length_c 17.388521
_cell_angle_alpha 90.000000
_cell_angle_beta 90.000000
_cell_angle_gamma 90.000000
_cell_volume 3571.778488
_symmetry_space_group_name_H-M "P B C A"
_symmetry_group_IT_number 61
_symmetry_cell_setting 'orthorhombic'
loop_
_space_group_symop_operation_xyz
x,y,z
1/2-x,-y,1/2+z
1/2+x,1/2-y,-z
-x,1/2+y,1/2-z
-x,-y,-z
1/2+x,y,1/2-z
1/2-x,1/2+y,z
x,1/2-y,1/2+z
loop_
_atom_site_type_symbol
_atom_site_label
_atom_site_fract_x
_atom_site_fract_y
_atom_site_fract_z
Si Si1 0.933941 0.018646 0.591992
Si Si2 0.819995 0.089682 0.454554
Si Si3 0.095741 0.709242 0.826918
Si Si4 0.249054 0.614314 0.577866
Si Si5 0.433222 0.825257 0.087874
Si Si6 0.744321 0.742879 0.063195
Si Si7 0.929427 0.711598 0.087071
Si Si8 0.104233 0.741848 0.650109
O O1 0.888180 0.035448 0.510054
O O2 0.888830 0.088928 0.658479
O O3 0.032561 0.059000 0.582277
O O4 0.934301 0.903466 0.616678
O O5 0.761566 0.164706 0.504265
O O6 0.867200 0.152651 0.387320
O O7 0.758344 0.006071 0.415190
O O8 0.164158 0.768461 0.879513
O O9 0.112333 0.745487 0.741354
O O10 0.996843 0.736434 0.854123
O O11 0.333422 0.670491 0.615539
O O12 0.246538 0.640599 0.487046
O O13 0.162301 0.649353 0.620341
O O14 0.442522 0.775935 0.004059
O O15 0.834601 0.753773 0.110040
O O16 0.003753 0.777243 0.128312
#
# Coordination Sequence:
#
# PCOD8248715 Si02
#       8
#     8   8   8   8   8   8   8   8
#     4   9  16  32  62  80  95 130 195 243 244 287
#     4  10  17  35  58  83 103 138 189 231 263 308
#     4   9  21  35  49  79 118 135 170 225 284 319
#     4  10  19  33  58  83 106 139 187 230 265 309
#     4   9  16  30  58  80  95 129 187 238 253 287
#     4   9  19  33  56  84 102 137 184 234 269 308
#     4  11  17  32  62  81  99 137 195 225 263 308
#     4  11  22  34  50  82 118 146 171 218 277 347
#
# _framework density 17.918244999999999
#
# number of rings (size 3 to 8) (size 9 to 14) (size 15 to 20)
#    0.750    1.500    3.750    1.875    0.000    1.000 
#    2.250    0.625    2.750    0.000    0.000    0.000 
#    0.000    0.000    0.000    0.000    0.000    0.000 
#
# Total GULP energy -792998.500590 kJ/mol
# GULP energy per Si atom -12390.601572 kJ/mol
# Density = 1.787746 g / cm^3
# Si number density = 17.918245 Si / 1000 Ang^3
#
#
#
# Elastic Constant Matrix: (Units=GPa)
#
#
# Indices 1 2 3 4 5 6 
#
# 1 98.2646 23.2744 33.4494 0.0000 0.0000 0.0000
# 2 23.2744 41.9925 26.8373 0.0000 0.0000 0.0000
# 3 33.4494 26.8373 78.5500 0.0000 0.0000 0.0000
# 4 0.0000 0.0000 0.0000 9.6155 0.0000 0.0000
# 5 0.0000 0.0000 0.0000 0.0000 13.1317 0.0000
# 6 0.0000 0.0000 0.0000 0.0000 0.0000 24.5636
#
#
#
# Elastic Compliance Matrix: (Units=1/GPa)
#
#
# Indices 1 2 3 4 5 6 
#
# 1 0.012540 -0.004526 -0.003794 0.000000 0.000000 0.000000
# 2 -0.004526 0.032100 -0.009040 0.000000 0.000000 0.000000
# 3 -0.003794 -0.009040 0.017435 0.000000 0.000000 0.000000
# 4 0.000000 0.000000 0.000000 0.103999 0.000000 0.000000
# 5 0.000000 0.000000 0.000000 0.000000 0.076152 0.000000
# 6 0.000000 0.000000 0.000000 0.000000 0.000000 0.040711
#
#
# Mechanical properties :
#
#
# Convention : Reuss Voigt Hill
#
# Bulk Modulus (GPa) = 36.55550 42.88103 39.71827
# Shear Modulus (GPa) = 15.30118 18.47857 16.88987
#
# Velocity S-wave (km/s) = 2.92540 3.21482 3.07352
# Velocity P-wave (km/s) = 5.64413 6.14521 5.89999
#
# Compressibility (1/GPa) = 0.02735566
#
# Stress axis : x y z
#
# Youngs Moduli (GPa) = 79.74531 31.15309 57.35654
#
# Poissons Ratio (x) = 0.14099 0.21759
# Poissons Ratio (y) = 0.36090 0.51850
# Poissons Ratio (z) = 0.30253 0.28162
#
# Static dielectric constant tensor:
#      x y z
#    x 3.539280 0.000000 0.000000 
#    y 0.000000 3.157290 0.000000 
#    z 0.000000 0.000000 2.971210 
# 
# 
# High freq. dielectric constant tensor:
#      x y z
#    x 1.705450 0.000000 0.000000 
#    y 0.000000 1.666760 0.000000 
#    z 0.000000 0.000000 1.662180 
# 
# From -- ./inp_files/9596.got.cif
#   From: 2010.03.12/outbox.cif.g09.slc.cpg/sg61_5_cif.got.tgz:9596.got - 2010.04.10 19:05:03.
