data_PCOD8248778
_publ_section_title
;
Structure prediction by ZEFSAII (Michael W. Deem and Ramdas Pophale) SiO2 
 PCOD8248778
Probable space group: P B C A
;
_chemical_formula_sum "Si O2"
_cell_formula_units_Z 48
_cell_length_a 26.486556
_cell_length_b 5.272749
_cell_length_c 14.732699
_cell_angle_alpha 90.000000
_cell_angle_beta 90.000000
_cell_angle_gamma 90.000000
_cell_volume 2057.523979
_symmetry_space_group_name_H-M "P B C A"
_symmetry_group_IT_number 61
_symmetry_cell_setting 'orthorhombic'
loop_
_space_group_symop_operation_xyz
x,y,z
1/2-x,-y,1/2+z
1/2+x,1/2-y,-z
-x,1/2+y,1/2-z
-x,-y,-z
1/2+x,y,1/2-z
1/2-x,1/2+y,z
x,1/2-y,1/2+z
loop_
_atom_site_type_symbol
_atom_site_label
_atom_site_fract_x
_atom_site_fract_y
_atom_site_fract_z
Si Si1 0.613200 0.495892 0.113634
Si Si2 0.058280 0.997377 0.605028
Si Si3 0.726091 0.472690 0.172713
Si Si4 0.731059 0.982422 0.372807
Si Si5 0.616165 0.002653 0.397776
Si Si6 0.944860 0.496122 0.110734
O O1 0.666595 0.496847 0.162425
O O2 0.583013 0.247557 0.146814
O O3 0.582929 0.744195 0.146826
O O4 0.620944 0.496879 0.005985
O O5 0.088097 0.246412 0.638554
O O6 0.055055 0.996844 0.497271
O O7 0.086264 0.743062 0.638501
O O8 0.002205 0.003130 0.647150
O O9 0.753379 0.714683 0.126065
O O10 0.738621 0.457747 0.278833
O O11 0.747242 0.726905 0.427416
O O12 0.671670 0.997813 0.355143
#
# Coordination Sequence:
#
# PCOD8248778 Si02
#       6
#     8   8   8   8   8   8
#     4  10  19  31  51  79 107 135 171 212 250 298
#     4   9  17  30  49  77 111 139 164 202 255 310
#     4  10  21  36  52  73  99 138 179 213 257 303
#     4  10  21  36  52  73  99 138 179 213 257 303
#     4  10  19  31  51  79 107 135 171 212 250 298
#     4   9  17  30  49  77 111 139 164 202 255 310
#
# _framework density 23.329011000000001
#
# number of rings (size 3 to 8) (size 9 to 14) (size 15 to 20)
#    0.000    2.333    0.000    3.000    0.000    5.333 
#    0.000    0.000    0.000    0.000    0.000   93.333 
#    0.000    0.000    0.000    0.000    0.000    2.000 
#
# Total GULP energy -595146.385661 kJ/mol
# GULP energy per Si atom -12398.883035 kJ/mol
# Density = 2.327591 g / cm^3
# Si number density = 23.329011 Si / 1000 Ang^3
#
#
#
# Elastic Constant Matrix: (Units=GPa)
#
#
# Indices 1 2 3 4 5 6 
#
# 1 206.2225 90.1519 0.6190 0.0000 0.0000 0.0000
# 2 90.1519 233.1563 -14.8525 0.0000 0.0000 0.0000
# 3 0.6190 -14.8525 21.1812 0.0000 0.0000 0.0000
# 4 0.0000 0.0000 0.0000 -4.6016 0.0000 0.0000
# 5 0.0000 0.0000 0.0000 0.0000 -115.4977 0.0000
# 6 0.0000 0.0000 0.0000 0.0000 0.0000 55.9792
#
#
#
# Elastic Compliance Matrix: (Units=1/GPa)
#
#
# Indices 1 2 3 4 5 6 
#
# 1 0.005904 -0.002401 -0.001856 0.000000 0.000000 0.000000
# 2 -0.002401 0.005466 0.003903 0.000000 0.000000 0.000000
# 3 -0.001856 0.003903 0.050003 0.000000 0.000000 0.000000
# 4 0.000000 0.000000 0.000000 -0.217317 0.000000 0.000000
# 5 0.000000 0.000000 0.000000 0.000000 -0.008658 0.000000
# 6 0.000000 0.000000 0.000000 0.000000 0.000000 0.017864
#
#
# Mechanical properties :
#
#
# Convention : Reuss Voigt Hill
#
# Bulk Modulus (GPa) = 16.48417 68.04407 42.26412
# Shear Modulus (GPa) = -39.74321 12.81876 -13.46223
#
# Velocity S-wave (km/s) = -4.13194 2.34664 -2.40481
# Velocity P-wave (km/s) = 3.96013 6.04754 3.23188
#
# Compressibility (1/GPa) = 0.06066428
#
# Stress axis : x y z
#
# Youngs Moduli (GPa) = 169.36441 182.94706 19.99886
#
# Poissons Ratio (x) = 0.43930 0.03712
# Poissons Ratio (y) = 0.40669 -0.07806
# Poissons Ratio (z) = 0.31440 -0.71405
#
# Static dielectric constant tensor:
#      x y z
#    x 4.202120 0.000000 0.000000 
#    y 0.000000 6.554110 0.000000 
#    z 0.000000 0.000000 3.479050 
# 
# 
# High freq. dielectric constant tensor:
#      x y z
#    x 1.933210 0.000000 0.000000 
#    y 0.000000 1.953220 0.000000 
#    z 0.000000 0.000000 1.878020 
# 
# From -- ./inp_files/9816.got.cif
#   From: 2010.03.12/outbox.cif.g09.slc.cpg/sg61_5_cif.got.tgz:9816.got - 2010.04.10 19:05:03.
