data_PCOD8248016
_publ_section_title
;
Structure prediction by ZEFSAII (Michael W. Deem and Ramdas Pophale) SiO2 
 PCOD8248016
Probable space group: P B C N
;
_chemical_formula_sum "Si O2"
_cell_formula_units_Z 32
_cell_length_a 8.524098
_cell_length_b 14.572639
_cell_length_c 11.868364
_cell_angle_alpha 90.000000
_cell_angle_beta 90.000000
_cell_angle_gamma 90.000000
_cell_volume 1474.271595
_symmetry_space_group_name_H-M "P B C N"
_symmetry_group_IT_number 60
_symmetry_cell_setting 'orthorhombic'
loop_
_space_group_symop_operation_xyz
x,y,z
1/2-x,1/2-y,1/2+z
1/2+x,1/2-y,-z
-x,y,1/2-z
-x,-y,-z
1/2+x,1/2+y,1/2-z
1/2-x,1/2+y,z
x,-y,1/2+z
loop_
_atom_site_type_symbol
_atom_site_label
_atom_site_fract_x
_atom_site_fract_y
_atom_site_fract_z
Si Si1 0.328503 0.706539 0.385956
Si Si2 0.337257 0.628661 0.804250
Si Si3 0.827208 0.831326 0.951072
Si Si4 0.182991 0.556063 0.243695
O O1 0.282509 0.784797 0.293253
O O2 0.514761 0.693968 0.384912
O O3 0.265173 0.738611 0.509422
O O4 0.243423 0.612235 0.352101
O O5 0.500000 0.659748 0.750000
O O6 0.271014 0.540828 0.739922
O O7 0.365022 0.607969 0.937493
O O8 0.716456 0.890370 0.871220
O O9 0.000000 0.537125 0.250000
#
# Coordination Sequence:
#
# PCOD8248016 Si02
#       4
#     8   8   8   8
#     4  10  23  43  70  99 135 183 230 296 346 418
#     4  10  25  44  68 102 135 182 231 291 349 423
#     4  10  24  45  70 100 140 184 232 293 353 415
#     4  12  25  44  66 100 143 180 241 293 343 428
#
# _framework density 21.705632999999999
#
# number of rings (size 3 to 8) (size 9 to 14) (size 15 to 20)
#    1.500    0.000    0.000    4.500    3.500    7.000 
#    0.000    0.000    0.000    0.000    0.000    0.000 
#    0.000    0.000    0.000    0.000    0.000    0.000 
#
# Total GULP energy -396764.112383 kJ/mol
# GULP energy per Si atom -12398.878512 kJ/mol
# Density = 2.165623 g / cm^3
# Si number density = 21.705633 Si / 1000 Ang^3
#
#
#
# Elastic Constant Matrix: (Units=GPa)
#
#
# Indices 1 2 3 4 5 6 
#
# 1 103.8178 19.3394 20.1658 0.0000 0.0000 0.0000
# 2 19.3394 68.4507 -12.8635 0.0000 0.0000 0.0000
# 3 20.1658 -12.8635 60.5770 0.0000 0.0000 0.0000
# 4 0.0000 0.0000 0.0000 23.5451 0.0000 0.0000
# 5 0.0000 0.0000 0.0000 0.0000 41.9685 0.0000
# 6 0.0000 0.0000 0.0000 0.0000 0.0000 27.9317
#
#
#
# Elastic Compliance Matrix: (Units=1/GPa)
#
#
# Indices 1 2 3 4 5 6 
#
# 1 0.011285 -0.004056 -0.004618 0.000000 0.000000 0.000000
# 2 -0.004056 0.016674 0.004891 0.000000 0.000000 0.000000
# 3 -0.004618 0.004891 0.019084 0.000000 0.000000 0.000000
# 4 0.000000 0.000000 0.000000 0.042472 0.000000 0.000000
# 5 0.000000 0.000000 0.000000 0.000000 0.023827 0.000000
# 6 0.000000 0.000000 0.000000 0.000000 0.000000 0.035802
#
#
# Mechanical properties :
#
#
# Convention : Reuss Voigt Hill
#
# Bulk Modulus (GPa) = 25.33145 31.79211 28.56178
# Shear Modulus (GPa) = 29.43450 32.43598 30.93524
#
# Velocity S-wave (km/s) = 3.68649 3.86989 3.77930
# Velocity P-wave (km/s) = 5.46041 5.88615 5.67727
#
# Compressibility (1/GPa) = 0.03947662
#
# Stress axis : x y z
#
# Youngs Moduli (GPa) = 88.61437 59.97302 52.40036
#
# Poissons Ratio (x) = 0.24326 0.24198
# Poissons Ratio (y) = 0.35943 -0.25629
# Poissons Ratio (z) = 0.40922 -0.29333
#
# Static dielectric constant tensor:
#      x y z
#    x 3.739860 0.000000 0.000000 
#    y 0.000000 3.737000 0.000000 
#    z 0.000000 0.000000 3.868580 
# 
# 
# High freq. dielectric constant tensor:
#      x y z
#    x 1.859450 0.000000 0.000000 
#    y 0.000000 1.845110 0.000000 
#    z 0.000000 0.000000 1.853010 
# 
# From -- ./inp_files/9600.got.cif
#   From: 2010.03.12/outbox.cif.g09.slc.cpg/sg60_5_cif.got.tgz:9600.got - 2010.04.10 18:46:24.
