data_PCOD8248686
_publ_section_title
;
Structure prediction by ZEFSAII (Michael W. Deem and Ramdas Pophale) SiO2 
 PCOD8248686
Probable space group: P B C N
;
_chemical_formula_sum "Si O2"
_cell_formula_units_Z 36
_cell_length_a 8.518116
_cell_length_b 19.641801
_cell_length_c 8.877349
_cell_angle_alpha 90.000000
_cell_angle_beta 90.000000
_cell_angle_gamma 90.000000
_cell_volume 1485.279376
_symmetry_space_group_name_H-M "P B C N"
_symmetry_group_IT_number 60
_symmetry_cell_setting 'orthorhombic'
loop_
_space_group_symop_operation_xyz
x,y,z
1/2-x,1/2-y,1/2+z
1/2+x,1/2-y,-z
-x,y,1/2-z
-x,-y,-z
1/2+x,1/2+y,1/2-z
1/2-x,1/2+y,z
x,-y,1/2+z
loop_
_atom_site_type_symbol
_atom_site_label
_atom_site_fract_x
_atom_site_fract_y
_atom_site_fract_z
Si Si1 0.249610 0.929308 0.036027
Si Si2 0.955768 0.696590 0.911850
Si Si3 0.325753 0.944905 0.712512
Si Si4 0.000000 0.121760 0.750000
Si Si5 0.789878 0.171827 0.490842
O O1 0.333647 0.856326 0.016579
O O2 0.082951 0.922772 0.120203
O O3 0.353830 0.983005 0.129514
O O4 0.226041 0.955956 0.865614
O O5 0.887896 0.772485 0.899226
O O6 0.000000 0.667352 0.750000
O O7 0.114740 0.701075 0.005969
O O8 0.500000 0.915623 0.750000
O O9 0.220364 0.898000 0.602850
O O10 0.866312 0.164367 0.659040
#
# Coordination Sequence:
#
# PCOD8248686 Si02
#       5
#     8   8   8   4   8
#     4  12  27  49  80 112 153 200 256 319 379 461
#     4  12  27  48  77 111 154 202 254 312 387 451
#     4  12  27  49  82 113 150 200 260 316 392 451
#     4  12  28  50  74 114 158 202 258 312 384 454
#     4  12  29  48  78 113 154 203 253 319 380 463
#
# _framework density 24.237866
#
# number of rings (size 3 to 8) (size 9 to 14) (size 15 to 20)
#    0.000    0.000    4.444    4.000    6.222    3.556 
#    2.000    0.000    0.000    0.000    0.000    0.000 
#    0.000    0.000    0.000    0.000    0.000    0.000 
#
# Total GULP energy -446451.581024 kJ/mol
# GULP energy per Si atom -12401.432806 kJ/mol
# Density = 2.418270 g / cm^3
# Si number density = 24.237866 Si / 1000 Ang^3
#
#
#
# Elastic Constant Matrix: (Units=GPa)
#
#
# Indices 1 2 3 4 5 6 
#
# 1 124.5373 37.9361 45.2278 0.0000 0.0000 0.0000
# 2 37.9361 113.0243 37.7010 0.0000 0.0000 0.0000
# 3 45.2278 37.7010 124.7216 0.0000 0.0000 0.0000
# 4 0.0000 0.0000 0.0000 31.3918 0.0000 0.0000
# 5 0.0000 0.0000 0.0000 0.0000 43.6527 0.0000
# 6 0.0000 0.0000 0.0000 0.0000 0.0000 30.6575
#
#
#
# Elastic Compliance Matrix: (Units=1/GPa)
#
#
# Indices 1 2 3 4 5 6 
#
# 1 0.009771 -0.002333 -0.002838 0.000000 0.000000 0.000000
# 2 -0.002333 0.010397 -0.002297 0.000000 0.000000 0.000000
# 3 -0.002838 -0.002297 0.009741 0.000000 0.000000 0.000000
# 4 0.000000 0.000000 0.000000 0.031855 0.000000 0.000000
# 5 0.000000 0.000000 0.000000 0.000000 0.022908 0.000000
# 6 0.000000 0.000000 0.000000 0.000000 0.000000 0.032618
#
#
# Mechanical properties :
#
#
# Convention : Reuss Voigt Hill
#
# Bulk Modulus (GPa) = 66.78412 67.11255 66.94834
# Shear Modulus (GPa) = 36.43839 37.23496 36.83668
#
# Velocity S-wave (km/s) = 3.88153 3.92373 3.90269
# Velocity P-wave (km/s) = 6.90665 6.94815 6.92743
#
# Compressibility (1/GPa) = 0.01497362
#
# Stress axis : x y z
#
# Youngs Moduli (GPa) = 102.34290 96.18334 102.65564
#
# Poissons Ratio (x) = 0.22439 0.29135
# Poissons Ratio (y) = 0.23876 0.23578
# Poissons Ratio (z) = 0.29046 0.22091
#
# Static dielectric constant tensor:
#      x y z
#    x 4.353100 0.000000 0.000000 
#    y 0.000000 4.052860 0.000000 
#    z 0.000000 0.000000 4.429930 
# 
# 
# High freq. dielectric constant tensor:
#      x y z
#    x 1.965810 0.000000 0.000000 
#    y 0.000000 1.953380 0.000000 
#    z 0.000000 0.000000 1.972700 
# 
# From -- ./inp_files/3682.got.cif
#   From: 2010.03.12/outbox.cif.g09.slc.cpg/sg60_2_cif.got.tgz:3682.got - 2010.04.10 18:46:24.
