data_PCOD8248692
_publ_section_title
;
Structure prediction by ZEFSAII (Michael W. Deem and Ramdas Pophale) SiO2 
 PCOD8248692
Probable space group: P B C N
;
_chemical_formula_sum "Si O2"
_cell_formula_units_Z 36
_cell_length_a 5.402838
_cell_length_b 18.811373
_cell_length_c 14.514596
_cell_angle_alpha 90.000000
_cell_angle_beta 90.000000
_cell_angle_gamma 90.000000
_cell_volume 1475.188074
_symmetry_space_group_name_H-M "P B C N"
_symmetry_group_IT_number 60
_symmetry_cell_setting 'orthorhombic'
loop_
_space_group_symop_operation_xyz
x,y,z
1/2-x,1/2-y,1/2+z
1/2+x,1/2-y,-z
-x,y,1/2-z
-x,-y,-z
1/2+x,1/2+y,1/2-z
1/2-x,1/2+y,z
x,-y,1/2+z
loop_
_atom_site_type_symbol
_atom_site_label
_atom_site_fract_x
_atom_site_fract_y
_atom_site_fract_z
Si Si1 0.135005 0.311322 0.383044
Si Si2 0.062256 0.952563 0.651631
Si Si3 0.500000 0.244809 0.250000
Si Si4 0.718905 0.691198 0.410936
Si Si5 0.052029 0.474565 0.398017
O O1 0.316813 0.301872 0.297215
O O2 0.232556 0.288375 0.483891
O O3 0.921869 0.255496 0.362011
O O4 0.030030 0.390535 0.386570
O O5 0.083763 0.885352 0.583317
O O6 0.000000 0.919098 0.750000
O O7 0.325090 0.993865 0.661839
O O8 0.833849 0.002585 0.623064
O O9 0.440584 0.189966 0.164500
O O10 0.000000 0.500000 0.500000
#
# Coordination Sequence:
#
# PCOD8248692 Si02
#       5
#     8   8   4   8   8
#     4  12  28  49  82 114 160 209 268 331 404 479
#     4  12  29  50  79 115 158 207 266 327 397 480
#     4  12  28  50  78 116 156 206 276 332 400 472
#     4  12  28  49  81 113 156 210 269 331 398 479
#     4  12  29  50  79 115 159 209 262 327 404 475
#
# _framework density 24.403666999999999
#
# number of rings (size 3 to 8) (size 9 to 14) (size 15 to 20)
#    0.000    0.000    4.444    3.333   14.000    1.778 
#    0.000    0.000    0.000    0.000    0.000    0.000 
#    0.000    0.000    0.000    0.000    0.000    0.000 
#
# Total GULP energy -446045.879257 kJ/mol
# GULP energy per Si atom -12390.163313 kJ/mol
# Density = 2.434812 g / cm^3
# Si number density = 24.403667 Si / 1000 Ang^3
#
#
#
# Elastic Constant Matrix: (Units=GPa)
#
#
# Indices 1 2 3 4 5 6 
#
# 1 106.4301 46.0285 4.8279 0.0000 0.0000 0.0000
# 2 46.0285 166.7733 -6.0263 0.0000 0.0000 0.0000
# 3 4.8279 -6.0263 121.9202 0.0000 0.0000 0.0000
# 4 0.0000 0.0000 0.0000 41.4029 0.0000 0.0000
# 5 0.0000 0.0000 0.0000 0.0000 45.3817 0.0000
# 6 0.0000 0.0000 0.0000 0.0000 0.0000 37.8479
#
#
#
# Elastic Compliance Matrix: (Units=1/GPa)
#
#
# Indices 1 2 3 4 5 6 
#
# 1 0.010709 -0.002976 -0.000571 0.000000 0.000000 0.000000
# 2 -0.002976 0.006834 0.000456 0.000000 0.000000 0.000000
# 3 -0.000571 0.000456 0.008247 0.000000 0.000000 0.000000
# 4 0.000000 0.000000 0.000000 0.024153 0.000000 0.000000
# 5 0.000000 0.000000 0.000000 0.000000 0.022035 0.000000
# 6 0.000000 0.000000 0.000000 0.000000 0.000000 0.026422
#
#
# Mechanical properties :
#
#
# Convention : Reuss Voigt Hill
#
# Bulk Modulus (GPa) = 51.00306 53.86486 52.43396
# Shear Modulus (GPa) = 44.99680 48.27940 46.63810
#
# Velocity S-wave (km/s) = 4.29867 4.45271 4.37637
# Velocity P-wave (km/s) = 6.75153 6.96820 6.86072
#
# Compressibility (1/GPa) = 0.01960667
#
# Stress axis : x y z
#
# Youngs Moduli (GPa) = 93.38025 146.32608 121.25294
#
# Poissons Ratio (x) = 0.43550 0.06926
# Poissons Ratio (y) = 0.27792 -0.05525
# Poissons Ratio (z) = 0.05334 -0.06667
#
# Static dielectric constant tensor:
#      x y z
#    x 4.778950 0.000000 0.000000 
#    y 0.000000 4.327920 0.000000 
#    z 0.000000 0.000000 4.647780 
# 
# 
# High freq. dielectric constant tensor:
#      x y z
#    x 1.969500 0.000000 0.000000 
#    y 0.000000 1.973890 0.000000 
#    z 0.000000 0.000000 1.996770 
# 
# From -- ./inp_files/13701.got.cif
#   From: 2010.03.12/outbox.cif.g09.slc.cpg/sg60_7_cif.got.tgz:13701.got - 2010.04.10 18:46:24.
