data_PCOD8248144
_publ_section_title
;
Structure prediction by ZEFSAII (Michael W. Deem and Ramdas Pophale) SiO2 
 PCOD8248144
Probable space group: P B C N
;
_chemical_formula_sum "Si O2"
_cell_formula_units_Z 64
_cell_length_a 14.527137
_cell_length_b 9.488228
_cell_length_c 21.002744
_cell_angle_alpha 90.000000
_cell_angle_beta 90.000000
_cell_angle_gamma 90.000000
_cell_volume 2894.950773
_symmetry_space_group_name_H-M "P B C N"
_symmetry_group_IT_number 60
_symmetry_cell_setting 'orthorhombic'
loop_
_space_group_symop_operation_xyz
x,y,z
1/2-x,1/2-y,1/2+z
1/2+x,1/2-y,-z
-x,y,1/2-z
-x,-y,-z
1/2+x,1/2+y,1/2-z
1/2-x,1/2+y,z
x,-y,1/2+z
loop_
_atom_site_type_symbol
_atom_site_label
_atom_site_fract_x
_atom_site_fract_y
_atom_site_fract_z
Si Si1 0.486917 0.695571 0.921311
Si Si2 0.168173 0.803788 0.005208
Si Si3 0.628326 0.257364 0.635720
Si Si4 0.137843 0.486797 0.710018
Si Si5 0.302904 0.703423 0.230542
Si Si6 0.449804 0.964558 0.846824
Si Si7 0.050534 0.921889 0.646804
Si Si8 0.342765 0.385104 0.525385
O O1 0.433701 0.823496 0.887299
O O2 0.525569 0.584735 0.869007
O O3 0.570785 0.750355 0.965981
O O4 0.408674 0.622680 0.963994
O O5 0.165743 0.821819 0.929083
O O6 0.251369 0.705112 0.024158
O O7 0.191163 0.955556 0.033730
O O8 0.702547 0.282507 0.692319
O O9 0.540166 0.336224 0.663130
O O10 0.602497 0.094966 0.620156
O O11 0.185586 0.638840 0.704253
O O12 0.210528 0.361118 0.700233
O O13 0.090726 0.455111 0.776874
O O14 0.060413 0.483456 0.655532
O O15 0.384589 0.596959 0.208568
O O16 0.098408 0.844012 0.587081
#
# Coordination Sequence:
#
# PCOD8248144 Si02
#       8
#     8   8   8   8   8   8   8   8
#     4  11  24  45  67  96 133 174 220 271 333 393
#     4  11  25  43  67 100 132 173 223 275 330 397
#     4  11  22  45  67  91 131 175 215 264 330 398
#     4  10  24  44  60  96 132 166 213 276 322 385
#     4  11  25  39  70  94 127 170 221 265 328 382
#     4  10  24  43  65  91 136 169 214 268 329 387
#     4  11  22  45  67  91 131 175 215 266 327 397
#     4  11  25  43  66  96 135 170 219 277 333 390
#
# _framework density 22.107458000000001
#
# number of rings (size 3 to 8) (size 9 to 14) (size 15 to 20)
#    0.000    1.250    3.750    1.125    7.000    4.500 
#    2.250    0.000    0.000    0.000    0.000    0.000 
#    0.000    0.000    0.000    0.000    0.000    0.000 
#
# Total GULP energy -793546.294876 kJ/mol
# GULP energy per Si atom -12399.160857 kJ/mol
# Density = 2.205714 g / cm^3
# Si number density = 22.107458 Si / 1000 Ang^3
#
#
#
# Elastic Constant Matrix: (Units=GPa)
#
#
# Indices 1 2 3 4 5 6 
#
# 1 67.1498 30.0420 -21.2485 0.0000 0.0000 0.0000
# 2 30.0420 94.9989 20.6023 0.0000 0.0000 0.0000
# 3 -21.2485 20.6023 42.5063 0.0000 0.0000 0.0000
# 4 0.0000 0.0000 0.0000 27.5924 0.0000 0.0000
# 5 0.0000 0.0000 0.0000 0.0000 21.0624 0.0000
# 6 0.0000 0.0000 0.0000 0.0000 0.0000 35.3855
#
#
#
# Elastic Compliance Matrix: (Units=1/GPa)
#
#
# Indices 1 2 3 4 5 6 
#
# 1 0.026749 -0.012693 0.019523 0.000000 0.000000 0.000000
# 2 -0.012693 0.017786 -0.014966 0.000000 0.000000 0.000000
# 3 0.019523 -0.014966 0.040539 0.000000 0.000000 0.000000
# 4 0.000000 0.000000 0.000000 0.036242 0.000000 0.000000
# 5 0.000000 0.000000 0.000000 0.000000 0.047478 0.000000
# 6 0.000000 0.000000 0.000000 0.000000 0.000000 0.028260
#
#
# Mechanical properties :
#
#
# Convention : Reuss Voigt Hill
#
# Bulk Modulus (GPa) = 14.53412 29.27184 21.90298
# Shear Modulus (GPa) = 21.16325 28.49201 24.82763
#
# Velocity S-wave (km/s) = 3.09737 3.59388 3.35482
# Velocity P-wave (km/s) = 4.40229 5.52184 4.99354
#
# Compressibility (1/GPa) = 0.06880364
#
# Stress axis : x y z
#
# Youngs Moduli (GPa) = 37.38511 56.22410 24.66744
#
# Poissons Ratio (x) = 0.71365 -0.48159
# Poissons Ratio (y) = 0.47452 0.36917
# Poissons Ratio (z) = -0.72989 0.84143
#
# Static dielectric constant tensor:
#      x y z
#    x 4.034150 0.000000 0.000000 
#    y 0.000000 3.922230 0.000000 
#    z 0.000000 0.000000 3.886850 
# 
# 
# High freq. dielectric constant tensor:
#      x y z
#    x 1.872030 0.000000 0.000000 
#    y 0.000000 1.868090 0.000000 
#    z 0.000000 0.000000 1.866210 
# 
# From -- ./inp_files/24454.got.cif
#   From: 2010.03.12/outbox.cif.g09.slc.cpg/sg60_13_cif.got.tgz:24454.got - 2010.04.10 18:46:24.
