data_PCOD8248981
_publ_section_title
;
Structure prediction by ZEFSAII (Michael W. Deem and Ramdas Pophale) SiO2 
 PCOD8248981
Probable space group: P B C A
;
_chemical_formula_sum "Si O2"
_cell_formula_units_Z 64
_cell_length_a 18.084993
_cell_length_b 9.499035
_cell_length_c 17.457928
_cell_angle_alpha 90.000000
_cell_angle_beta 90.000000
_cell_angle_gamma 90.000000
_cell_volume 2999.097128
_symmetry_space_group_name_H-M "P B C A"
_symmetry_group_IT_number 61
_symmetry_cell_setting 'orthorhombic'
loop_
_space_group_symop_operation_xyz
x,y,z
1/2-x,-y,1/2+z
1/2+x,1/2-y,-z
-x,1/2+y,1/2-z
-x,-y,-z
1/2+x,y,1/2-z
1/2-x,1/2+y,z
x,1/2-y,1/2+z
loop_
_atom_site_type_symbol
_atom_site_label
_atom_site_fract_x
_atom_site_fract_y
_atom_site_fract_z
Si Si1 0.702427 0.294366 0.147294
Si Si2 0.452344 0.069627 0.239493
Si Si3 0.958049 0.286623 0.990472
Si Si4 0.969008 0.813284 0.160369
Si Si5 0.217537 0.566503 0.260704
Si Si6 0.701636 0.733307 0.998995
Si Si7 0.273512 0.508886 0.595319
Si Si8 0.432737 0.575811 0.586747
O O1 0.614827 0.269726 0.139868
O O2 0.719771 0.454432 0.170261
O O3 0.742242 0.257460 0.068200
O O4 0.733229 0.197762 0.215074
O O5 0.475140 0.976192 0.313152
O O6 0.366469 0.115056 0.243517
O O7 0.466559 0.965856 0.168196
O O8 0.501803 0.209112 0.227902
O O9 0.940160 0.447518 0.971963
O O10 0.981340 0.199509 0.915403
O O11 0.883378 0.222835 0.028030
O O12 0.023448 0.287797 0.053983
O O13 0.253527 0.504080 0.183060
O O14 0.713724 0.583584 0.958096
O O15 0.709412 0.853535 0.935398
O O16 0.345947 0.610149 0.594097
#
# Coordination Sequence:
#
# PCOD8248981 Si02
#       8
#     8   8   8   8   8   8   8   8
#     4  11  23  38  60  90 124 156 194 247 302 352
#     4   9  20  36  57  83 114 150 193 238 284 348
#     4   9  18  33  55  81 106 144 196 234 271 331
#     4  10  21  38  59  86 117 152 192 239 292 349
#     4  10  22  39  59  88 121 155 197 244 295 357
#     4  11  22  36  58  87 117 152 195 244 292 348
#     4  10  20  37  58  81 115 154 193 238 291 350
#     4   8  16  33  54  75 104 147 192 227 269 340
#
# _framework density 21.339755
#
# number of rings (size 3 to 8) (size 9 to 14) (size 15 to 20)
#    0.000    2.250    0.000    3.000    0.000    7.000 
#    0.000    0.000    0.000    8.250    0.000    0.000 
#    0.000    0.000    0.000    0.000    0.000    0.000 
#
# Total GULP energy -793525.595475 kJ/mol
# GULP energy per Si atom -12398.837429 kJ/mol
# Density = 2.129119 g / cm^3
# Si number density = 21.339755 Si / 1000 Ang^3
#
#
#
# Elastic Constant Matrix: (Units=GPa)
#
#
# Indices 1 2 3 4 5 6 
#
# 1 95.3018 21.3709 19.7831 0.0000 0.0000 0.0000
# 2 21.3709 38.6424 -0.2132 0.0000 0.0000 0.0000
# 3 19.7831 -0.2132 56.4195 0.0000 0.0000 0.0000
# 4 0.0000 0.0000 0.0000 30.3413 0.0000 0.0000
# 5 0.0000 0.0000 0.0000 0.0000 33.1224 0.0000
# 6 0.0000 0.0000 0.0000 0.0000 0.0000 29.5804
#
#
#
# Elastic Compliance Matrix: (Units=1/GPa)
#
#
# Indices 1 2 3 4 5 6 
#
# 1 0.013078 -0.007258 -0.004613 0.000000 0.000000 0.000000
# 2 -0.007258 0.029907 0.002658 0.000000 0.000000 0.000000
# 3 -0.004613 0.002658 0.019352 0.000000 0.000000 0.000000
# 4 0.000000 0.000000 0.000000 0.032958 0.000000 0.000000
# 5 0.000000 0.000000 0.000000 0.000000 0.030191 0.000000
# 6 0.000000 0.000000 0.000000 0.000000 0.000000 0.033806
#
#
# Mechanical properties :
#
#
# Convention : Reuss Voigt Hill
#
# Bulk Modulus (GPa) = 22.77358 30.24948 26.51153
# Shear Modulus (GPa) = 25.99337 28.57034 27.28185
#
# Velocity S-wave (km/s) = 3.49388 3.66297 3.57942
# Velocity P-wave (km/s) = 5.19339 5.66531 5.43448
#
# Compressibility (1/GPa) = 0.04391053
#
# Stress axis : x y z
#
# Youngs Moduli (GPa) = 76.46284 33.43682 51.67428
#
# Poissons Ratio (x) = 0.24269 0.23838
# Poissons Ratio (y) = 0.55499 -0.13735
# Poissons Ratio (z) = 0.35274 -0.08888
#
# Static dielectric constant tensor:
#      x y z
#    x 4.016170 0.000000 0.000000 
#    y 0.000000 3.661800 0.000000 
#    z 0.000000 0.000000 3.790010 
# 
# 
# High freq. dielectric constant tensor:
#      x y z
#    x 1.837620 0.000000 0.000000 
#    y 0.000000 1.814910 0.000000 
#    z 0.000000 0.000000 1.838490 
# 
# From -- ./inp_files/9777.got.cif
#   From: 2010.03.12/outbox.cif.g09.slc.cpg/sg61_5_cif.got.tgz:9777.got - 2010.04.10 19:05:03.
