data_PCOD8248366
_publ_section_title
;
Structure prediction by ZEFSAII (Michael W. Deem and Ramdas Pophale) SiO2 
 PCOD8248366
Probable space group: P B C N
;
_chemical_formula_sum "Si O2"
_cell_formula_units_Z 56
_cell_length_a 6.590347
_cell_length_b 21.130059
_cell_length_c 19.400796
_cell_angle_alpha 90.000000
_cell_angle_beta 90.000000
_cell_angle_gamma 90.000000
_cell_volume 2701.646613
_symmetry_space_group_name_H-M "P B C N"
_symmetry_group_IT_number 60
_symmetry_cell_setting 'orthorhombic'
loop_
_space_group_symop_operation_xyz
x,y,z
1/2-x,1/2-y,1/2+z
1/2+x,1/2-y,-z
-x,y,1/2-z
-x,-y,-z
1/2+x,1/2+y,1/2-z
1/2-x,1/2+y,z
x,-y,1/2+z
loop_
_atom_site_type_symbol
_atom_site_label
_atom_site_fract_x
_atom_site_fract_y
_atom_site_fract_z
Si Si1 0.098692 0.621039 0.916959
Si Si2 0.647050 0.168942 0.038138
Si Si3 0.000000 0.796999 0.750000
Si Si4 0.216924 0.306256 0.165841
Si Si5 0.343614 0.873867 0.811531
Si Si6 0.843300 0.477727 0.188491
Si Si7 0.009717 0.193077 0.957434
Si Si8 0.000000 0.100561 0.750000
O O1 0.082080 0.550417 0.885025
O O2 0.328917 0.643336 0.928124
O O3 0.998025 0.666669 0.859897
O O4 0.982254 0.622371 0.989461
O O5 0.579773 0.153901 0.115801
O O6 0.611222 0.242159 0.017432
O O7 0.886871 0.159636 0.020691
O O8 0.165584 0.755593 0.709739
O O9 0.125613 0.842321 0.800248
O O10 0.353187 0.286764 0.101709
O O11 0.337310 0.356960 0.210744
O O12 0.500000 0.857552 0.750000
O O13 0.311967 0.948144 0.819522
O O14 0.625789 0.445120 0.199983
O O15 0.000000 0.462248 0.250000
#
# Coordination Sequence:
#
# PCOD8248366 Si02
#       8
#     8   8   4   8   8   8   8   4
#     4  11  22  42  63  98 131 172 221 271 330 397
#     4  11  24  40  65  98 131 176 217 270 345 402
#     4  12  25  40  62 100 133 166 220 270 336 404
#     4  11  24  35  67  98 131 167 212 279 337 399
#     4  11  27  46  67  94 133 183 223 272 335 399
#     4  11  23  44  67  93 136 179 228 277 320 392
#     4  11  22  39  63  95 133 168 209 275 339 393
#     4  12  21  38  68 102 127 172 224 278 334 382
#
# _framework density 20.728100000000001
#
# number of rings (size 3 to 8) (size 9 to 14) (size 15 to 20)
#    0.000    0.857    4.286    3.000    5.000    1.714 
#    0.000    0.714    0.000    0.000    0.000    0.000 
#    0.000    0.000    0.000    0.000    0.000    0.000 
#
# Total GULP energy -694414.264564 kJ/mol
# GULP energy per Si atom -12400.254724 kJ/mol
# Density = 2.068092 g / cm^3
# Si number density = 20.728100 Si / 1000 Ang^3
#
#
#
# Elastic Constant Matrix: (Units=GPa)
#
#
# Indices 1 2 3 4 5 6 
#
# 1 114.5964 48.8083 45.4217 0.0000 0.0000 0.0000
# 2 48.8083 103.6237 50.0903 0.0000 0.0000 0.0000
# 3 45.4217 50.0903 131.4836 0.0000 0.0000 0.0000
# 4 0.0000 0.0000 0.0000 32.1476 0.0000 0.0000
# 5 0.0000 0.0000 0.0000 0.0000 36.0485 0.0000
# 6 0.0000 0.0000 0.0000 0.0000 0.0000 39.5469
#
#
#
# Elastic Compliance Matrix: (Units=1/GPa)
#
#
# Indices 1 2 3 4 5 6 
#
# 1 0.011472 -0.004275 -0.002335 0.000000 0.000000 0.000000
# 2 -0.004275 0.013422 -0.003636 0.000000 0.000000 0.000000
# 3 -0.002335 -0.003636 0.009797 0.000000 0.000000 0.000000
# 4 0.000000 0.000000 0.000000 0.031107 0.000000 0.000000
# 5 0.000000 0.000000 0.000000 0.000000 0.027740 0.000000
# 6 0.000000 0.000000 0.000000 0.000000 0.000000 0.025286
#
#
# Mechanical properties :
#
#
# Convention : Reuss Voigt Hill
#
# Bulk Modulus (GPa) = 70.42542 70.92714 70.67628
# Shear Modulus (GPa) = 34.71016 35.24082 34.97549
#
# Velocity S-wave (km/s) = 4.09656 4.12776 4.11219
# Velocity P-wave (km/s) = 7.51168 7.55050 7.53111
#
# Compressibility (1/GPa) = 0.01419942
#
# Stress axis : x y z
#
# Youngs Moduli (GPa) = 87.16510 74.50608 102.06932
#
# Poissons Ratio (x) = 0.31853 0.23828
# Poissons Ratio (y) = 0.37265 0.37115
# Poissons Ratio (z) = 0.20349 0.27092
#
# Static dielectric constant tensor:
#      x y z
#    x 3.911430 0.000000 0.000000 
#    y 0.000000 3.579560 0.000000 
#    z 0.000000 0.000000 3.833570 
# 
# 
# High freq. dielectric constant tensor:
#      x y z
#    x 1.823090 0.000000 0.000000 
#    y 0.000000 1.796750 0.000000 
#    z 0.000000 0.000000 1.816330 
# 
# From -- ./inp_files/21747.got.cif
#   From: 2010.03.12/outbox.cif.g09.slc.cpg/sg60_11_cif.got.tgz:21747.got - 2010.04.10 18:46:24.
