data_PCOD8248195
_publ_section_title
;
Structure prediction by ZEFSAII (Michael W. Deem and Ramdas Pophale) SiO2 
 PCOD8248195
Probable space group: P B C N
;
_chemical_formula_sum "Si O2"
_cell_formula_units_Z 60
_cell_length_a 23.898080
_cell_length_b 9.125538
_cell_length_c 12.677059
_cell_angle_alpha 90.000000
_cell_angle_beta 90.000000
_cell_angle_gamma 90.000000
_cell_volume 2764.648994
_symmetry_space_group_name_H-M "P B C N"
_symmetry_group_IT_number 60
_symmetry_cell_setting 'orthorhombic'
loop_
_space_group_symop_operation_xyz
x,y,z
1/2-x,1/2-y,1/2+z
1/2+x,1/2-y,-z
-x,y,1/2-z
-x,-y,-z
1/2+x,1/2+y,1/2-z
1/2-x,1/2+y,z
x,-y,1/2+z
loop_
_atom_site_type_symbol
_atom_site_label
_atom_site_fract_x
_atom_site_fract_y
_atom_site_fract_z
Si Si1 0.951932 0.979019 0.584115
Si Si2 0.717183 0.543169 0.280363
Si Si3 0.183972 0.611813 0.062784
Si Si4 0.000000 0.255725 0.250000
Si Si5 0.873558 0.095973 0.905632
Si Si6 0.793317 0.667802 0.672950
Si Si7 0.060920 0.755418 0.266292
Si Si8 0.604259 0.958398 0.292523
O O1 0.894724 0.941896 0.522594
O O2 0.970305 0.848924 0.663616
O O3 0.936362 0.134239 0.636075
O O4 0.000000 0.000000 0.500000
O O5 0.762273 0.577519 0.369011
O O6 0.657113 0.533146 0.339715
O O7 0.713967 0.658331 0.183939
O O8 0.736387 0.395005 0.223365
O O9 0.172793 0.780866 0.083827
O O10 0.129731 0.510156 0.093418
O O11 0.199243 0.596170 0.941036
O O12 0.952602 0.361278 0.303253
O O13 0.926269 0.149547 0.837765
O O14 0.849352 0.636625 0.736893
O O15 0.098017 0.608568 0.276986
O O16 0.000000 0.689706 0.250000
#
# Coordination Sequence:
#
# PCOD8248195 Si02
#       8
#     8   8   8   4   8   8   8   8
#     4  12  25  41  68 103 137 183 238 278 345 416
#     4  11  25  46  70  99 138 176 231 294 356 424
#     4  10  24  47  67 102 137 177 237 289 354 421
#     4  12  24  44  74 104 144 192 230 290 344 422
#     4  11  24  43  68 100 135 183 230 289 342 423
#     4  11  25  44  71 100 135 180 229 291 352 420
#     4  11  22  46  64  91 144 180 224 289 345 401
#     4  10  25  45  69 100 140 184 232 285 344 420
#
# _framework density 21.702575
#
# number of rings (size 3 to 8) (size 9 to 14) (size 15 to 20)
#    0.000    1.067    4.000    0.800    7.467    1.067 
#    2.400    2.667    0.000    0.000    0.000    0.000 
#    0.000    0.000    0.000    0.000    0.000    0.000 
#
# Total GULP energy -743521.613134 kJ/mol
# GULP energy per Si atom -12392.026886 kJ/mol
# Density = 2.165318 g / cm^3
# Si number density = 21.702575 Si / 1000 Ang^3
#
#
#
# Elastic Constant Matrix: (Units=GPa)
#
#
# Indices 1 2 3 4 5 6 
#
# 1 94.4983 30.8381 33.6222 0.0000 0.0000 0.0000
# 2 30.8381 95.0066 31.6389 0.0000 0.0000 0.0000
# 3 33.6222 31.6389 110.1354 0.0000 0.0000 0.0000
# 4 0.0000 0.0000 0.0000 27.0119 0.0000 0.0000
# 5 0.0000 0.0000 0.0000 0.0000 36.6265 0.0000
# 6 0.0000 0.0000 0.0000 0.0000 0.0000 19.4167
#
#
#
# Elastic Compliance Matrix: (Units=1/GPa)
#
#
# Indices 1 2 3 4 5 6 
#
# 1 0.012656 -0.003120 -0.002967 0.000000 0.000000 0.000000
# 2 -0.003120 0.012408 -0.002612 0.000000 0.000000 0.000000
# 3 -0.002967 -0.002612 0.010736 0.000000 0.000000 0.000000
# 4 0.000000 0.000000 0.000000 0.037021 0.000000 0.000000
# 5 0.000000 0.000000 0.000000 0.000000 0.027303 0.000000
# 6 0.000000 0.000000 0.000000 0.000000 0.000000 0.051502
#
#
# Mechanical properties :
#
#
# Convention : Reuss Voigt Hill
#
# Bulk Modulus (GPa) = 54.34321 54.64872 54.49597
# Shear Modulus (GPa) = 28.54561 30.18042 29.36302
#
# Velocity S-wave (km/s) = 3.63065 3.73317 3.68227
# Velocity P-wave (km/s) = 6.53222 6.61948 6.57599
#
# Compressibility (1/GPa) = 0.01840156
#
# Stress axis : x y z
#
# Youngs Moduli (GPa) = 79.01326 80.59239 93.14443
#
# Poissons Ratio (x) = 0.25143 0.27640
# Poissons Ratio (y) = 0.24651 0.24330
# Poissons Ratio (z) = 0.23447 0.21051
#
# Static dielectric constant tensor:
#      x y z
#    x 4.099390 0.000000 0.000000 
#    y 0.000000 4.036630 0.000000 
#    z 0.000000 0.000000 4.010770 
# 
# 
# High freq. dielectric constant tensor:
#      x y z
#    x 1.866290 0.000000 0.000000 
#    y 0.000000 1.859900 0.000000 
#    z 0.000000 0.000000 1.842360 
# 
# From -- ./inp_files/13274.got.cif
#   From: 2010.03.12/outbox.cif.g09.slc.cpg/sg60_7_cif.got.tgz:13274.got - 2010.04.10 18:46:24.
