data_PCOD8248139
_publ_section_title
;
Structure prediction by ZEFSAII (Michael W. Deem and Ramdas Pophale) SiO2 
 PCOD8248139
Probable space group: P B C N
;
_chemical_formula_sum "Si O2"
_cell_formula_units_Z 60
_cell_length_a 29.580616
_cell_length_b 10.244462
_cell_length_c 8.791166
_cell_angle_alpha 90.000000
_cell_angle_beta 90.000000
_cell_angle_gamma 90.000000
_cell_volume 2664.052936
_symmetry_space_group_name_H-M "P B C N"
_symmetry_group_IT_number 60
_symmetry_cell_setting 'orthorhombic'
loop_
_space_group_symop_operation_xyz
x,y,z
1/2-x,1/2-y,1/2+z
1/2+x,1/2-y,-z
-x,y,1/2-z
-x,-y,-z
1/2+x,1/2+y,1/2-z
1/2-x,1/2+y,z
x,-y,1/2+z
loop_
_atom_site_type_symbol
_atom_site_label
_atom_site_fract_x
_atom_site_fract_y
_atom_site_fract_z
Si Si1 0.274969 0.635174 0.921959
Si Si2 0.621272 0.349872 0.556528
Si Si3 0.500000 0.033031 0.250000
Si Si4 0.364447 0.398930 0.600338
Si Si5 0.192348 0.486874 0.796423
Si Si6 0.292061 0.252638 0.107833
Si Si7 0.632797 0.889681 0.443489
Si Si8 0.440372 0.893060 0.486824
O O1 0.232431 0.540880 0.899409
O O2 0.293940 0.654881 0.753166
O O3 0.313774 0.577861 0.031297
O O4 0.253462 0.766158 0.002828
O O5 0.635953 0.405028 0.718981
O O6 0.606561 0.477648 0.459167
O O7 0.663646 0.272981 0.489659
O O8 0.580421 0.247122 0.554295
O O9 0.523526 0.124971 0.376586
O O10 0.463402 0.940832 0.331840
O O11 0.385817 0.259390 0.550908
O O12 0.210271 0.397794 0.660145
O O13 0.160660 0.597207 0.715886
O O14 0.162978 0.396149 0.906526
O O15 0.594384 0.998555 0.451665
#
# Coordination Sequence:
#
# PCOD8248139 Si02
#       8
#     8   8   4   8   8   8   8   8
#     4  12  26  40  60  91 142 176 257 301 344 400
#     4  12  27  48  67  99 141 186 236 291 351 432
#     4  10  24  42  82 122 134 178 208 280 362 420
#     4  12  28  42  68  98 136 194 242 289 355 399
#     4  12  24  40  63  95 129 193 241 298 354 382
#     4  12  25  42  61  91 129 192 236 303 355 389
#     4  12  23  45  69 101 136 185 236 292 343 424
#     4  11  23  47  79 110 149 167 226 281 346 448
#
# _framework density 22.522072999999999
#
# number of rings (size 3 to 8) (size 9 to 14) (size 15 to 20)
#    0.000    0.267    4.000    5.600    5.600    0.000 
#    0.000    0.000    0.000   13.600    0.000    0.000 
#    0.000    0.000    0.000    0.000    0.000    0.000 
#
# Total GULP energy -743867.187368 kJ/mol
# GULP energy per Si atom -12397.786456 kJ/mol
# Density = 2.247081 g / cm^3
# Si number density = 22.522073 Si / 1000 Ang^3
#
#
#
# Elastic Constant Matrix: (Units=GPa)
#
#
# Indices 1 2 3 4 5 6 
#
# 1 65.2138 36.3081 37.0386 0.0000 0.0000 0.0000
# 2 36.3081 107.1345 36.9390 0.0000 0.0000 0.0000
# 3 37.0386 36.9390 155.0834 0.0000 0.0000 0.0000
# 4 0.0000 0.0000 0.0000 32.3051 0.0000 0.0000
# 5 0.0000 0.0000 0.0000 0.0000 29.9100 0.0000
# 6 0.0000 0.0000 0.0000 0.0000 0.0000 21.6274
#
#
#
# Elastic Compliance Matrix: (Units=1/GPa)
#
#
# Indices 1 2 3 4 5 6 
#
# 1 0.020540 -0.005741 -0.003538 0.000000 0.000000 0.000000
# 2 -0.005741 0.011774 -0.001433 0.000000 0.000000 0.000000
# 3 -0.003538 -0.001433 0.007635 0.000000 0.000000 0.000000
# 4 0.000000 0.000000 0.000000 0.030955 0.000000 0.000000
# 5 0.000000 0.000000 0.000000 0.000000 0.033434 0.000000
# 6 0.000000 0.000000 0.000000 0.000000 0.000000 0.046238
#
#
# Mechanical properties :
#
#
# Convention : Reuss Voigt Hill
#
# Bulk Modulus (GPa) = 53.98551 60.88926 57.43738
# Shear Modulus (GPa) = 28.06240 31.24489 29.65364
#
# Velocity S-wave (km/s) = 3.53370 3.72869 3.63250
# Velocity P-wave (km/s) = 6.37741 6.75511 6.56898
#
# Compressibility (1/GPa) = 0.01852349
#
# Stress axis : x y z
#
# Youngs Moduli (GPa) = 48.68525 84.93347 130.98372
#
# Poissons Ratio (x) = 0.48762 0.46344
# Poissons Ratio (y) = 0.27951 0.18773
# Poissons Ratio (z) = 0.17225 0.12173
#
# Static dielectric constant tensor:
#      x y z
#    x 3.944490 0.000000 0.000000 
#    y 0.000000 4.039980 0.000000 
#    z 0.000000 0.000000 4.487580 
# 
# 
# High freq. dielectric constant tensor:
#      x y z
#    x 1.849870 0.000000 0.000000 
#    y 0.000000 1.886530 0.000000 
#    z 0.000000 0.000000 1.924430 
# 
# From -- ./inp_files/8178.got.cif
#   From: 2010.03.12/outbox.cif.g09.slc.cpg/sg60_5_cif.got.tgz:8178.got - 2010.04.10 18:46:24.
