data_PCOD8248643
_publ_section_title
;
Structure prediction by ZEFSAII (Michael W. Deem and Ramdas Pophale) SiO2 
 PCOD8248643
Probable space group: P B C N
;
_chemical_formula_sum "Si O2"
_cell_formula_units_Z 32
_cell_length_a 4.899439
_cell_length_b 21.767136
_cell_length_c 12.783048
_cell_angle_alpha 90.000000
_cell_angle_beta 90.000000
_cell_angle_gamma 90.000000
_cell_volume 1363.270589
_symmetry_space_group_name_H-M "P B C N"
_symmetry_group_IT_number 60
_symmetry_cell_setting 'orthorhombic'
loop_
_space_group_symop_operation_xyz
x,y,z
1/2-x,1/2-y,1/2+z
1/2+x,1/2-y,-z
-x,y,1/2-z
-x,-y,-z
1/2+x,1/2+y,1/2-z
1/2-x,1/2+y,z
x,-y,1/2+z
loop_
_atom_site_type_symbol
_atom_site_label
_atom_site_fract_x
_atom_site_fract_y
_atom_site_fract_z
Si Si1 0.000000 0.447384 0.250000
Si Si2 0.703101 0.380289 0.921479
Si Si3 0.500000 0.472749 0.750000
Si Si4 0.736398 0.748927 0.321928
Si Si5 0.782673 0.630982 0.941557
O O1 0.747960 0.486739 0.202899
O O2 0.876970 0.406116 0.341349
O O3 0.651981 0.433569 0.838444
O O4 0.635945 0.315424 0.868351
O O5 0.509750 0.393451 0.020597
O O6 0.013887 0.378555 0.960891
O O7 0.500000 0.776464 0.250000
O O8 0.768836 0.797367 0.415799
O O9 0.000000 0.740726 0.250000
#
# Coordination Sequence:
#
# PCOD8248643 Si02
#       5
#     4   8   4   8   8
#     4  12  28  47  72 103 144 196 246 298 348 420
#     4  12  26  46  74 107 142 186 237 294 361 427
#     4  12  28  47  72 103 144 196 246 298 348 420
#     4  12  24  44  76 105 143 184 226 294 368 427
#     4  12  26  46  74 107 142 186 237 294 361 427
#
# _framework density 23.472963
#
# number of rings (size 3 to 8) (size 9 to 14) (size 15 to 20)
#    0.000    0.000    2.500    7.500    3.500    6.000 
#    0.000    0.000    0.000    0.000    0.000    0.000 
#    0.000    0.000    0.000    0.000    0.000    0.000 
#
# Total GULP energy -396940.812688 kJ/mol
# GULP energy per Si atom -12404.400397 kJ/mol
# Density = 2.341954 g / cm^3
# Si number density = 23.472963 Si / 1000 Ang^3
#
#
#
# Elastic Constant Matrix: (Units=GPa)
#
#
# Indices 1 2 3 4 5 6 
#
# 1 120.1763 27.7552 26.4076 0.0000 0.0000 0.0000
# 2 27.7552 113.2169 34.3796 0.0000 0.0000 0.0000
# 3 26.4076 34.3796 93.0458 0.0000 0.0000 0.0000
# 4 0.0000 0.0000 0.0000 1.2020 0.0000 0.0000
# 5 0.0000 0.0000 0.0000 0.0000 59.0329 0.0000
# 6 0.0000 0.0000 0.0000 0.0000 0.0000 34.0831
#
#
#
# Elastic Compliance Matrix: (Units=1/GPa)
#
#
# Indices 1 2 3 4 5 6 
#
# 1 0.009136 -0.001636 -0.001988 0.000000 0.000000 0.000000
# 2 -0.001636 0.010242 -0.003320 0.000000 0.000000 0.000000
# 3 -0.001988 -0.003320 0.012538 0.000000 0.000000 0.000000
# 4 0.000000 0.000000 0.000000 0.831923 0.000000 0.000000
# 5 0.000000 0.000000 0.000000 0.000000 0.016940 0.000000
# 6 0.000000 0.000000 0.000000 0.000000 0.000000 0.029340
#
#
# Mechanical properties :
#
#
# Convention : Reuss Voigt Hill
#
# Bulk Modulus (GPa) = 55.47065 55.94709 55.70887
# Shear Modulus (GPa) = 5.37625 34.72338 20.04981
#
# Velocity S-wave (km/s) = 1.51505 3.85033 2.92578
# Velocity P-wave (km/s) = 5.17141 6.60705 5.93282
#
# Compressibility (1/GPa) = 0.01802755
#
# Stress axis : x y z
#
# Youngs Moduli (GPa) = 109.45882 97.63926 79.75471
#
# Poissons Ratio (x) = 0.15972 0.15859
# Poissons Ratio (y) = 0.17906 0.26478
# Poissons Ratio (z) = 0.21765 0.32416
#
# Static dielectric constant tensor:
#      x y z
#    x 4.395690 0.000000 0.000000 
#    y 0.000000 4.303510 0.000000 
#    z 0.000000 0.000000 4.160010 
# 
# 
# High freq. dielectric constant tensor:
#      x y z
#    x 1.948230 0.000000 0.000000 
#    y 0.000000 1.937870 0.000000 
#    z 0.000000 0.000000 1.932210 
# 
# From -- ./inp_files/8853.got.cif
#   From: 2010.03.12/outbox.cif.g09.slc.cpg/sg60_5_cif.got.tgz:8853.got - 2010.04.10 18:46:24.
