data_PCOD8248089
_publ_section_title
;
Structure prediction by ZEFSAII (Michael W. Deem and Ramdas Pophale) SiO2 
 PCOD8248089
Probable space group: P B C N
;
_chemical_formula_sum "Si O2"
_cell_formula_units_Z 36
_cell_length_a 10.022117
_cell_length_b 18.172943
_cell_length_c 9.139989
_cell_angle_alpha 90.000000
_cell_angle_beta 90.000000
_cell_angle_gamma 90.000000
_cell_volume 1664.678636
_symmetry_space_group_name_H-M "P B C N"
_symmetry_group_IT_number 60
_symmetry_cell_setting 'orthorhombic'
loop_
_space_group_symop_operation_xyz
x,y,z
1/2-x,1/2-y,1/2+z
1/2+x,1/2-y,-z
-x,y,1/2-z
-x,-y,-z
1/2+x,1/2+y,1/2-z
1/2-x,1/2+y,z
x,-y,1/2+z
loop_
_atom_site_type_symbol
_atom_site_label
_atom_site_fract_x
_atom_site_fract_y
_atom_site_fract_z
Si Si1 0.495496 0.921832 0.921842
Si Si2 0.949599 0.096548 0.477758
Si Si3 0.500000 0.488738 0.250000
Si Si4 0.224726 0.692332 0.101166
Si Si5 0.268323 0.338169 0.933717
O O1 0.500000 0.936786 0.750000
O O2 0.617869 0.866945 0.958937
O O3 0.361530 0.883331 0.981812
O O4 0.500000 0.000000 0.000000
O O5 0.919408 0.063439 0.638004
O O6 0.868795 0.171573 0.464916
O O7 0.105609 0.107529 0.440538
O O8 0.901172 0.038689 0.351435
O O9 0.236246 0.695672 0.275502
O O10 0.192800 0.773636 0.046001
#
# Coordination Sequence:
#
# PCOD8248089 Si02
#       5
#     8   8   4   8   8
#     4  10  25  41  62  93 129 159 203 258 312 364
#     4  11  23  41  66  90 122 159 214 252 309 371
#     4  10  24  38  64  94 122 154 206 268 308 352
#     4  11  24  42  63  92 127 165 207 255 308 374
#     4  11  24  42  63  92 127 165 207 255 308 374
#
# _framework density 21.625795
#
# number of rings (size 3 to 8) (size 9 to 14) (size 15 to 20)
#    0.000    1.333    2.222    1.333    9.333    1.778 
#    0.000    0.000    0.000    0.000    0.000    0.000 
#    0.000    0.000    0.000    0.000    0.000    0.000 
#
# Total GULP energy -446307.690031 kJ/mol
# GULP energy per Si atom -12397.435834 kJ/mol
# Density = 2.157657 g / cm^3
# Si number density = 21.625795 Si / 1000 Ang^3
#
#
#
# Elastic Constant Matrix: (Units=GPa)
#
#
# Indices 1 2 3 4 5 6 
#
# 1 119.5655 41.5902 22.1268 0.0000 0.0000 0.0000
# 2 41.5902 129.3644 54.7025 0.0000 0.0000 0.0000
# 3 22.1268 54.7025 111.3749 0.0000 0.0000 0.0000
# 4 0.0000 0.0000 0.0000 45.4041 0.0000 0.0000
# 5 0.0000 0.0000 0.0000 0.0000 20.2610 0.0000
# 6 0.0000 0.0000 0.0000 0.0000 0.0000 32.2476
#
#
#
# Elastic Compliance Matrix: (Units=1/GPa)
#
#
# Indices 1 2 3 4 5 6 
#
# 1 0.009437 -0.002829 -0.000486 0.000000 0.000000 0.000000
# 2 -0.002829 0.010604 -0.004646 0.000000 0.000000 0.000000
# 3 -0.000486 -0.004646 0.011357 0.000000 0.000000 0.000000
# 4 0.000000 0.000000 0.000000 0.022024 0.000000 0.000000
# 5 0.000000 0.000000 0.000000 0.000000 0.049356 0.000000
# 6 0.000000 0.000000 0.000000 0.000000 0.000000 0.031010
#
#
# Mechanical properties :
#
#
# Convention : Reuss Voigt Hill
#
# Bulk Modulus (GPa) = 64.60967 66.34930 65.47949
# Shear Modulus (GPa) = 32.28515 35.70824 33.99670
#
# Velocity S-wave (km/s) = 3.86800 4.06789 3.96920
# Velocity P-wave (km/s) = 7.06326 7.26711 7.16591
#
# Compressibility (1/GPa) = 0.01547756
#
# Stress axis : x y z
#
# Youngs Moduli (GPa) = 105.96077 94.30144 88.04947
#
# Poissons Ratio (x) = 0.26676 0.04275
# Poissons Ratio (y) = 0.29974 0.40911
# Poissons Ratio (z) = 0.05145 0.43816
#
# Static dielectric constant tensor:
#      x y z
#    x 3.836200 0.000000 0.000000 
#    y 0.000000 3.810120 0.000000 
#    z 0.000000 0.000000 3.939470 
# 
# 
# High freq. dielectric constant tensor:
#      x y z
#    x 1.838610 0.000000 0.000000 
#    y 0.000000 1.860160 0.000000 
#    z 0.000000 0.000000 1.853490 
# 
# From -- ./inp_files/3717.got.cif
#   From: 2010.03.12/outbox.cif.g09.slc.cpg/sg60_2_cif.got.tgz:3717.got - 2010.04.10 18:46:24.
