data_PCOD8248900
_publ_section_title
;
Structure prediction by ZEFSAII (Michael W. Deem and Ramdas Pophale) SiO2 
 PCOD8248900
Probable space group: P B C A
;
_chemical_formula_sum "Si O2"
_cell_formula_units_Z 64
_cell_length_a 16.471113
_cell_length_b 15.750226
_cell_length_c 12.461056
_cell_angle_alpha 90.000000
_cell_angle_beta 90.000000
_cell_angle_gamma 90.000000
_cell_volume 3232.693904
_symmetry_space_group_name_H-M "P B C A"
_symmetry_group_IT_number 61
_symmetry_cell_setting 'orthorhombic'
loop_
_space_group_symop_operation_xyz
x,y,z
1/2-x,-y,1/2+z
1/2+x,1/2-y,-z
-x,1/2+y,1/2-z
-x,-y,-z
1/2+x,y,1/2-z
1/2-x,1/2+y,z
x,1/2-y,1/2+z
loop_
_atom_site_type_symbol
_atom_site_label
_atom_site_fract_x
_atom_site_fract_y
_atom_site_fract_z
Si Si1 0.176267 0.677671 0.882078
Si Si2 0.974418 0.407685 0.040954
Si Si3 0.254617 0.695426 0.664603
Si Si4 0.871392 0.339765 0.507983
Si Si5 0.414182 0.980775 0.449799
Si Si6 0.172943 0.170005 0.030945
Si Si7 0.920572 0.862307 0.255238
Si Si8 0.023711 0.246320 0.922304
O O1 0.121148 0.599398 0.926802
O O2 0.186306 0.684594 0.754766
O O3 0.129219 0.764352 0.906797
O O4 0.265171 0.671375 0.931750
O O5 0.018585 0.385202 0.150885
O O6 0.000000 0.500000 0.000000
O O7 0.993394 0.342306 0.942937
O O8 0.212126 0.660463 0.558418
O O9 0.283642 0.793576 0.638970
O O10 0.331592 0.638855 0.693786
O O11 0.871076 0.429174 0.569441
O O12 0.952666 0.323861 0.438193
O O13 0.500000 0.000000 0.500000
O O14 0.361855 0.925836 0.537188
O O15 0.421553 0.933555 0.336885
O O16 0.097446 0.231977 0.005365
O O17 0.944693 0.771503 0.199630
#
# Coordination Sequence:
#
# PCOD8248900 Si02
#       8
#     8   8   8   8   8   8   8   8
#     4  10  22  42  64  93 129 173 217 267 334 405
#     4  11  25  45  67 100 137 170 227 284 331 399
#     4  11  21  41  65  91 127 176 212 268 332 397
#     4  10  22  39  64  90 128 169 215 270 325 393
#     4  11  21  41  64  94 127 165 221 275 322 396
#     4  10  20  39  66  90 127 166 218 272 329 390
#     4  11  22  41  67  93 131 173 215 264 340 398
#     4  10  19  43  67  89 125 179 216 270 331 407
#
# _framework density 19.797730000000001
#
# number of rings (size 3 to 8) (size 9 to 14) (size 15 to 20)
#    0.000    1.500    6.250    0.750    0.000    1.000 
#   15.750    0.000    0.000    0.000    0.000    0.000 
#    0.000    0.000    0.000    0.000    0.000    0.000 
#
# Total GULP energy -793098.947402 kJ/mol
# GULP energy per Si atom -12392.171053 kJ/mol
# Density = 1.975267 g / cm^3
# Si number density = 19.797730 Si / 1000 Ang^3
#
#
#
# Elastic Constant Matrix: (Units=GPa)
#
#
# Indices 1 2 3 4 5 6 
#
# 1 99.7495 32.3380 26.6896 0.0000 0.0000 0.0000
# 2 32.3380 125.0457 35.0708 0.0000 0.0000 0.0000
# 3 26.6896 35.0708 76.1072 0.0000 0.0000 0.0000
# 4 0.0000 0.0000 0.0000 26.4490 0.0000 0.0000
# 5 0.0000 0.0000 0.0000 0.0000 35.6360 0.0000
# 6 0.0000 0.0000 0.0000 0.0000 0.0000 33.6934
#
#
#
# Elastic Compliance Matrix: (Units=1/GPa)
#
#
# Indices 1 2 3 4 5 6 
#
# 1 0.011534 -0.002123 -0.003067 0.000000 0.000000 0.000000
# 2 -0.002123 0.009575 -0.003668 0.000000 0.000000 0.000000
# 3 -0.003067 -0.003668 0.015905 0.000000 0.000000 0.000000
# 4 0.000000 0.000000 0.000000 0.037809 0.000000 0.000000
# 5 0.000000 0.000000 0.000000 0.000000 0.028062 0.000000
# 6 0.000000 0.000000 0.000000 0.000000 0.000000 0.029679
#
#
# Mechanical properties :
#
#
# Convention : Reuss Voigt Hill
#
# Bulk Modulus (GPa) = 51.81500 54.34436 53.07968
# Shear Modulus (GPa) = 31.90609 32.94261 32.42435
#
# Velocity S-wave (km/s) = 4.01883 4.08359 4.05134
# Velocity P-wave (km/s) = 6.91113 7.05292 6.98238
#
# Compressibility (1/GPa) = 0.01929943
#
# Stress axis : x y z
#
# Youngs Moduli (GPa) = 86.70189 104.44216 62.87387
#
# Poissons Ratio (x) = 0.22170 0.19281
# Poissons Ratio (y) = 0.18404 0.23060
# Poissons Ratio (z) = 0.26588 0.38306
#
# Static dielectric constant tensor:
#      x y z
#    x 3.953820 0.000000 0.000000 
#    y 0.000000 3.668540 0.000000 
#    z 0.000000 0.000000 3.565040 
# 
# 
# High freq. dielectric constant tensor:
#      x y z
#    x 1.796040 0.000000 0.000000 
#    y 0.000000 1.753500 0.000000 
#    z 0.000000 0.000000 1.757460 
# 
# From -- ./inp_files/6284.got.cif
#   From: 2010.03.12/outbox.cif.g09.slc.cpg/sg61_4_cif.got.tgz:6284.got - 2010.04.10 19:05:03.
