data_PCOD8248677
_publ_section_title
;
Structure prediction by ZEFSAII (Michael W. Deem and Ramdas Pophale) SiO2 
 PCOD8248677
Probable space group: P B C N
;
_chemical_formula_sum "Si O2"
_cell_formula_units_Z 48
_cell_length_a 7.115679
_cell_length_b 9.596058
_cell_length_c 29.702750
_cell_angle_alpha 90.000000
_cell_angle_beta 90.000000
_cell_angle_gamma 90.000000
_cell_volume 2028.177088
_symmetry_space_group_name_H-M "P B C N"
_symmetry_group_IT_number 60
_symmetry_cell_setting 'orthorhombic'
loop_
_space_group_symop_operation_xyz
x,y,z
1/2-x,1/2-y,1/2+z
1/2+x,1/2-y,-z
-x,y,1/2-z
-x,-y,-z
1/2+x,1/2+y,1/2-z
1/2-x,1/2+y,z
x,-y,1/2+z
loop_
_atom_site_type_symbol
_atom_site_label
_atom_site_fract_x
_atom_site_fract_y
_atom_site_fract_z
Si Si1 0.165493 0.817649 0.919023
Si Si2 0.474441 0.967146 0.448357
Si Si3 0.144047 0.010878 0.608475
Si Si4 0.376003 0.721304 0.840723
Si Si5 0.683213 0.873427 0.808032
Si Si6 0.290506 0.128708 0.749562
O O1 0.136186 0.680175 0.949115
O O2 0.354416 0.903586 0.929604
O O3 0.188283 0.759086 0.868081
O O4 0.987092 0.918961 0.924227
O O5 0.668690 0.948632 0.419702
O O6 0.500000 0.000000 0.500000
O O7 0.182297 0.914248 0.651538
O O8 0.026263 0.143651 0.626202
O O9 0.468182 0.870211 0.826087
O O10 0.315248 0.633306 0.796982
O O11 0.698680 0.713503 0.791440
O O12 0.711148 0.967621 0.764339
O O13 0.500000 0.189552 0.750000
#
# Coordination Sequence:
#
# PCOD8248677 Si02
#       6
#     8   8   8   8   8   8
#     4  12  28  52  82 115 158 208 263 331 407 501
#     4  12  31  52  85 122 157 203 264 341 421 502
#     4  12  27  49  80 113 157 207 267 327 409 474
#     4  12  26  49  74 112 156 211 270 321 402 473
#     4  12  26  45  68 103 152 200 262 321 379 458
#     4  12  28  40  69 105 150 204 263 322 379 452
#
# _framework density 23.666573
#
# number of rings (size 3 to 8) (size 9 to 14) (size 15 to 20)
#    0.000    0.000    5.000    3.500   11.667    0.667 
#    0.000    0.000    0.000    0.000    0.000    0.000 
#    0.000    0.000    0.000    0.000    0.000    0.000 
#
# Total GULP energy -594950.924307 kJ/mol
# GULP energy per Si atom -12394.810923 kJ/mol
# Density = 2.361271 g / cm^3
# Si number density = 23.666573 Si / 1000 Ang^3
#
#
#
# Elastic Constant Matrix: (Units=GPa)
#
#
# Indices 1 2 3 4 5 6 
#
# 1 118.1729 36.3171 37.6262 0.0000 0.0000 0.0000
# 2 36.3171 110.4786 28.6988 0.0000 0.0000 0.0000
# 3 37.6262 28.6988 106.6997 0.0000 0.0000 0.0000
# 4 0.0000 0.0000 0.0000 31.7450 0.0000 0.0000
# 5 0.0000 0.0000 0.0000 0.0000 35.7080 0.0000
# 6 0.0000 0.0000 0.0000 0.0000 0.0000 41.6771
#
#
#
# Elastic Compliance Matrix: (Units=1/GPa)
#
#
# Indices 1 2 3 4 5 6 
#
# 1 0.010181 -0.002595 -0.002892 0.000000 0.000000 0.000000
# 2 -0.002595 0.010393 -0.001880 0.000000 0.000000 0.000000
# 3 -0.002892 -0.001880 0.010898 0.000000 0.000000 0.000000
# 4 0.000000 0.000000 0.000000 0.031501 0.000000 0.000000
# 5 0.000000 0.000000 0.000000 0.000000 0.028005 0.000000
# 6 0.000000 0.000000 0.000000 0.000000 0.000000 0.023994
#
#
# Mechanical properties :
#
#
# Convention : Reuss Voigt Hill
#
# Bulk Modulus (GPa) = 59.75055 60.07060 59.91057
# Shear Modulus (GPa) = 36.95899 37.33997 37.14948
#
# Velocity S-wave (km/s) = 3.95606 3.97640 3.96625
# Velocity P-wave (km/s) = 6.79477 6.82052 6.80766
#
# Compressibility (1/GPa) = 0.01673625
#
# Stress axis : x y z
#
# Youngs Moduli (GPa) = 98.22614 96.21770 91.76320
#
# Poissons Ratio (x) = 0.24972 0.26538
# Poissons Ratio (y) = 0.25493 0.17253
# Poissons Ratio (z) = 0.28407 0.18091
#
# Static dielectric constant tensor:
#      x y z
#    x 4.563850 0.000000 0.000000 
#    y 0.000000 4.335680 0.000000 
#    z 0.000000 0.000000 4.211950 
# 
# 
# High freq. dielectric constant tensor:
#      x y z
#    x 1.951320 0.000000 0.000000 
#    y 0.000000 1.943930 0.000000 
#    z 0.000000 0.000000 1.932490 
# 
# From -- ./inp_files/25935.got.cif
#   From: 2010.03.12/outbox.cif.g09.slc.cpg/sg60_13_cif.got.tgz:25935.got - 2010.04.10 18:46:24.
