data_PCOD8248490
_publ_section_title
;
Structure prediction by ZEFSAII (Michael W. Deem and Ramdas Pophale) SiO2 
 PCOD8248490
Probable space group: P B C N
;
_chemical_formula_sum "Si O2"
_cell_formula_units_Z 32
_cell_length_a 6.681057
_cell_length_b 13.625735
_cell_length_c 15.471252
_cell_angle_alpha 90.000000
_cell_angle_beta 90.000000
_cell_angle_gamma 90.000000
_cell_volume 1408.414785
_symmetry_space_group_name_H-M "P B C N"
_symmetry_group_IT_number 60
_symmetry_cell_setting 'orthorhombic'
loop_
_space_group_symop_operation_xyz
x,y,z
1/2-x,1/2-y,1/2+z
1/2+x,1/2-y,-z
-x,y,1/2-z
-x,-y,-z
1/2+x,1/2+y,1/2-z
1/2-x,1/2+y,z
x,-y,1/2+z
loop_
_atom_site_type_symbol
_atom_site_label
_atom_site_fract_x
_atom_site_fract_y
_atom_site_fract_z
Si Si1 0.796672 0.470529 0.795040
Si Si2 0.000000 0.867104 0.250000
Si Si3 0.000000 0.818269 0.750000
Si Si4 0.258854 0.240651 0.891998
Si Si5 0.045661 0.607006 0.034097
O O1 0.661898 0.567509 0.800972
O O2 0.694750 0.386413 0.738171
O O3 0.815303 0.414848 0.884843
O O4 0.000000 0.504036 0.750000
O O5 0.901495 0.800987 0.176221
O O6 0.031266 0.757314 0.838777
O O7 0.156757 0.334146 0.939607
O O8 0.317665 0.163384 0.965158
O O9 0.000000 0.500000 0.000000
#
# Coordination Sequence:
#
# PCOD8248490 Si02
#       5
#     8   4   4   8   8
#     4  11  23  48  75 108 150 200 255 318 389 456
#     4  11  28  44  81 108 150 210 255 312 395 480
#     4  11  24  46  77 102 146 202 259 312 375 474
#     4  12  27  48  75 115 154 211 258 323 393 466
#     4  12  28  46  75 111 159 195 259 327 385 462
#
# _framework density 22.720580999999999
#
# number of rings (size 3 to 8) (size 9 to 14) (size 15 to 20)
#    0.000    0.500    2.500    4.500   12.250    1.000 
#    0.000    0.000    0.000    0.000    0.000    0.000 
#    0.000    0.000    0.000    0.000    0.000    0.000 
#
# Total GULP energy -396568.552369 kJ/mol
# GULP energy per Si atom -12392.767262 kJ/mol
# Density = 2.266887 g / cm^3
# Si number density = 22.720581 Si / 1000 Ang^3
#
#
#
# Elastic Constant Matrix: (Units=GPa)
#
#
# Indices 1 2 3 4 5 6 
#
# 1 112.4296 58.5671 42.5601 0.0000 0.0000 0.0000
# 2 58.5671 150.0576 61.7642 0.0000 0.0000 0.0000
# 3 42.5601 61.7642 123.3605 0.0000 0.0000 0.0000
# 4 0.0000 0.0000 0.0000 50.1488 0.0000 0.0000
# 5 0.0000 0.0000 0.0000 0.0000 53.8687 0.0000
# 6 0.0000 0.0000 0.0000 0.0000 0.0000 28.7693
#
#
#
# Elastic Compliance Matrix: (Units=1/GPa)
#
#
# Indices 1 2 3 4 5 6 
#
# 1 0.011615 -0.003633 -0.002189 0.000000 0.000000 0.000000
# 2 -0.003633 0.009530 -0.003518 0.000000 0.000000 0.000000
# 3 -0.002189 -0.003518 0.010623 0.000000 0.000000 0.000000
# 4 0.000000 0.000000 0.000000 0.019941 0.000000 0.000000
# 5 0.000000 0.000000 0.000000 0.000000 0.018564 0.000000
# 6 0.000000 0.000000 0.000000 0.000000 0.000000 0.034759
#
#
# Mechanical properties :
#
#
# Convention : Reuss Voigt Hill
#
# Bulk Modulus (GPa) = 76.39771 79.07007 77.73389
# Shear Modulus (GPa) = 39.04007 41.42112 40.23059
#
# Velocity S-wave (km/s) = 4.14970 4.27437 4.21250
# Velocity P-wave (km/s) = 7.52714 7.69655 7.61232
#
# Compressibility (1/GPa) = 0.01308940
#
# Stress axis : x y z
#
# Youngs Moduli (GPa) = 86.09395 104.93171 94.13628
#
# Poissons Ratio (x) = 0.38117 0.20602
# Poissons Ratio (y) = 0.31274 0.33119
# Poissons Ratio (z) = 0.18842 0.36917
#
# Static dielectric constant tensor:
#      x y z
#    x 4.277940 0.000000 0.000000 
#    y 0.000000 4.289070 0.000000 
#    z 0.000000 0.000000 4.129420 
# 
# 
# High freq. dielectric constant tensor:
#      x y z
#    x 1.898150 0.000000 0.000000 
#    y 0.000000 1.916680 0.000000 
#    z 0.000000 0.000000 1.907660 
# 
# From -- ./inp_files/18467.got.cif
#   From: 2010.03.12/outbox.cif.g09.slc.cpg/sg60_10_cif.got.tgz:18467.got - 2010.04.10 18:46:24.
