data_PCOD8248129
_publ_section_title
;
Structure prediction by ZEFSAII (Michael W. Deem and Ramdas Pophale) SiO2 
 PCOD8248129
Probable space group: P B C N
;
_chemical_formula_sum "Si O2"
_cell_formula_units_Z 40
_cell_length_a 9.604144
_cell_length_b 8.984123
_cell_length_c 20.858141
_cell_angle_alpha 90.000000
_cell_angle_beta 90.000000
_cell_angle_gamma 90.000000
_cell_volume 1799.740754
_symmetry_space_group_name_H-M "P B C N"
_symmetry_group_IT_number 60
_symmetry_cell_setting 'orthorhombic'
loop_
_space_group_symop_operation_xyz
x,y,z
1/2-x,1/2-y,1/2+z
1/2+x,1/2-y,-z
-x,y,1/2-z
-x,-y,-z
1/2+x,1/2+y,1/2-z
1/2-x,1/2+y,z
x,-y,1/2+z
loop_
_atom_site_type_symbol
_atom_site_label
_atom_site_fract_x
_atom_site_fract_y
_atom_site_fract_z
Si Si1 0.000000 0.158104 0.750000
Si Si2 0.179774 0.401225 0.677321
Si Si3 0.500000 0.866731 0.250000
Si Si4 0.877497 0.095199 0.024421
Si Si5 0.015764 0.106414 0.335156
Si Si6 0.127279 0.417507 0.529739
O O1 0.115220 0.253692 0.711017
O O2 0.071948 0.045033 0.801467
O O3 0.126891 0.537607 0.720838
O O4 0.346355 0.392564 0.668298
O O5 0.121821 0.432256 0.606317
O O6 0.571375 0.755778 0.198777
O O7 0.907104 0.123316 0.098241
O O8 0.867179 0.244520 0.984429
O O9 0.746927 0.996048 0.009512
O O10 0.000000 0.000000 0.000000
O O11 0.000000 0.500000 0.500000
#
# Coordination Sequence:
#
# PCOD8248129 Si02
#       6
#     4   8   4   8   8   8
#     4  10  24  42  68 108 132 196 232 298 362 430
#     4  11  23  46  74  97 149 184 242 297 369 424
#     4  10  24  42  68 110 134 196 234 296 364 436
#     4  12  25  48  77 107 143 196 248 298 373 441
#     4  11  23  47  72 100 146 183 248 295 361 433
#     4  12  27  46  75 112 147 195 244 307 371 436
#
# _framework density 22.225422999999999
#
# number of rings (size 3 to 8) (size 9 to 14) (size 15 to 20)
#    0.000    0.800    2.000    4.800    2.800    0.000 
#   36.000    0.000    0.000    0.000    0.000    0.000 
#    0.000    0.000    0.000    0.000    0.000    0.000 
#
# Total GULP energy -495565.103257 kJ/mol
# GULP energy per Si atom -12389.127581 kJ/mol
# Density = 2.217484 g / cm^3
# Si number density = 22.225423 Si / 1000 Ang^3
#
#
#
# Elastic Constant Matrix: (Units=GPa)
#
#
# Indices 1 2 3 4 5 6 
#
# 1 131.8372 51.2127 49.0034 0.0000 0.0000 0.0000
# 2 51.2127 162.7845 48.5149 0.0000 0.0000 0.0000
# 3 49.0034 48.5149 160.3276 0.0000 0.0000 0.0000
# 4 0.0000 0.0000 0.0000 19.1439 0.0000 0.0000
# 5 0.0000 0.0000 0.0000 0.0000 43.3681 0.0000
# 6 0.0000 0.0000 0.0000 0.0000 0.0000 25.2571
#
#
#
# Elastic Compliance Matrix: (Units=1/GPa)
#
#
# Indices 1 2 3 4 5 6 
#
# 1 0.009266 -0.002276 -0.002143 0.000000 0.000000 0.000000
# 2 -0.002276 0.007311 -0.001517 0.000000 0.000000 0.000000
# 3 -0.002143 -0.001517 0.007351 0.000000 0.000000 0.000000
# 4 0.000000 0.000000 0.000000 0.052236 0.000000 0.000000
# 5 0.000000 0.000000 0.000000 0.000000 0.023058 0.000000
# 6 0.000000 0.000000 0.000000 0.000000 0.000000 0.039593
#
#
# Mechanical properties :
#
#
# Convention : Reuss Voigt Hill
#
# Bulk Modulus (GPa) = 82.94640 83.60123 83.27382
# Shear Modulus (GPa) = 32.31918 37.96838 35.14378
#
# Velocity S-wave (km/s) = 3.81747 4.13768 3.98080
# Velocity P-wave (km/s) = 7.53872 7.77972 7.66017
#
# Compressibility (1/GPa) = 0.01205598
#
# Stress axis : x y z
#
# Youngs Moduli (GPa) = 107.92106 136.77568 136.03143
#
# Poissons Ratio (x) = 0.31135 0.29156
# Poissons Ratio (y) = 0.24567 0.20631
# Poissons Ratio (z) = 0.23131 0.20744
#
# Static dielectric constant tensor:
#      x y z
#    x 3.973700 0.000000 0.000000 
#    y 0.000000 4.464190 0.000000 
#    z 0.000000 0.000000 4.347800 
# 
# 
# High freq. dielectric constant tensor:
#      x y z
#    x 1.871080 0.000000 0.000000 
#    y 0.000000 1.905000 0.000000 
#    z 0.000000 0.000000 1.894870 
# 
# From -- ./inp_files/22555.got.cif
#   From: 2010.03.12/outbox.cif.g09.slc.cpg/sg60_12_cif.got.tgz:22555.got - 2010.04.10 18:46:24.
