data_PCOD8248872
_publ_section_title
;
Structure prediction by ZEFSAII (Michael W. Deem and Ramdas Pophale) SiO2 
 PCOD8248872
Probable space group: P B C A
;
_chemical_formula_sum "Si O2"
_cell_formula_units_Z 40
_cell_length_a 22.352452
_cell_length_b 8.590038
_cell_length_c 8.788541
_cell_angle_alpha 90.000000
_cell_angle_beta 90.000000
_cell_angle_gamma 90.000000
_cell_volume 1687.473802
_symmetry_space_group_name_H-M "P B C A"
_symmetry_group_IT_number 61
_symmetry_cell_setting 'orthorhombic'
loop_
_space_group_symop_operation_xyz
x,y,z
1/2-x,-y,1/2+z
1/2+x,1/2-y,-z
-x,1/2+y,1/2-z
-x,-y,-z
1/2+x,y,1/2-z
1/2-x,1/2+y,z
x,1/2-y,1/2+z
loop_
_atom_site_type_symbol
_atom_site_label
_atom_site_fract_x
_atom_site_fract_y
_atom_site_fract_z
Si Si1 0.473525 0.266553 0.216011
Si Si2 0.312080 0.880487 0.558845
Si Si3 0.211918 0.059557 0.409343
Si Si4 0.944222 0.810291 0.963873
Si Si5 0.588861 0.550357 0.516663
O O1 0.524934 0.166854 0.300951
O O2 0.440264 0.378698 0.332319
O O3 0.509515 0.371529 0.092189
O O4 0.427393 0.150821 0.132158
O O5 0.292400 0.903038 0.731929
O O6 0.296089 0.706960 0.515620
O O7 0.383062 0.909799 0.535811
O O8 0.277551 0.993702 0.444069
O O9 0.160316 0.938776 0.459330
O O10 0.933230 0.625944 0.994241
#
# Coordination Sequence:
#
# PCOD8248872 Si02
#       5
#     8   8   8   8   8
#     4  10  19  38  64  91 128 170 212 264 319 388
#     4  11  24  45  72  97 131 175 222 277 332 398
#     4  11  25  47  69  98 132 173 224 276 336 395
#     4  10  21  41  64  93 130 172 215 265 331 395
#     4  10  23  41  62  93 133 170 218 272 329 396
#
# _framework density 23.704072
#
# number of rings (size 3 to 8) (size 9 to 14) (size 15 to 20)
#    0.000    1.600    0.000    6.000    0.000    4.800 
#    0.000   37.000    0.000    0.000    0.000    0.000 
#    0.000    0.000    0.000    0.000    0.000    0.000 
#
# Total GULP energy -496011.670917 kJ/mol
# GULP energy per Si atom -12400.291773 kJ/mol
# Density = 2.365012 g / cm^3
# Si number density = 23.704072 Si / 1000 Ang^3
#
#
#
# Elastic Constant Matrix: (Units=GPa)
#
#
# Indices 1 2 3 4 5 6 
#
# 1 80.1573 13.5408 50.0296 0.0000 0.0000 0.0000
# 2 13.5408 40.1025 30.0358 0.0000 0.0000 0.0000
# 3 50.0296 30.0358 160.3149 0.0000 0.0000 0.0000
# 4 0.0000 0.0000 0.0000 38.0467 0.0000 0.0000
# 5 0.0000 0.0000 0.0000 0.0000 36.6691 0.0000
# 6 0.0000 0.0000 0.0000 0.0000 0.0000-1776.6406
#
#
#
# Elastic Compliance Matrix: (Units=1/GPa)
#
#
# Indices 1 2 3 4 5 6 
#
# 1 0.015615 -0.001888 -0.004519 0.000000 0.000000 0.000000
# 2 -0.001888 0.029235 -0.004888 0.000000 0.000000 0.000000
# 3 -0.004519 -0.004888 0.008564 0.000000 0.000000 0.000000
# 4 0.000000 0.000000 0.000000 0.026284 0.000000 0.000000
# 5 0.000000 0.000000 0.000000 0.000000 0.027271 0.000000
# 6 0.000000 0.000000 0.000000 0.000000 0.000000 -0.000563
#
#
# Mechanical properties :
#
#
# Convention : Reuss Voigt Hill
#
# Bulk Modulus (GPa) = 32.44304 51.97635 42.20970
# Shear Modulus (GPa) = 35.90153 -327.92041 -146.00944
#
# Velocity S-wave (km/s) = 3.89597 -11.77453 -7.85688
# Velocity P-wave (km/s) = 5.82705 12.76237 8.02881
#
# Compressibility (1/GPa) = 0.03082326
#
# Stress axis : x y z
#
# Youngs Moduli (GPa) = 64.04068 34.20607 116.76907
#
# Poissons Ratio (x) = 0.06457 0.52772
# Poissons Ratio (y) = 0.12088 0.57079
# Poissons Ratio (z) = 0.28942 0.16721
#
# Static dielectric constant tensor:
#      x y z
#    x 4.981590 0.000000 0.000000 
#    y 0.000000 4.018000 0.000000 
#    z 0.000000 0.000000 4.448050 
# 
# 
# High freq. dielectric constant tensor:
#      x y z
#    x 1.948660 0.000000 0.000000 
#    y 0.000000 1.929290 0.000000 
#    z 0.000000 0.000000 1.960880 
# 
# From -- ./inp_files/1735.got.cif
#   From: 2010.03.12/outbox.cif.g09.slc.cpg/sg61_1_cif.got.tgz:1735.got - 2010.04.10 19:05:03.
