data_PCOD8248291
_publ_section_title
;
Structure prediction by ZEFSAII (Michael W. Deem and Ramdas Pophale) SiO2 
 PCOD8248291
Probable space group: P B C N
;
_chemical_formula_sum "Si O2"
_cell_formula_units_Z 56
_cell_length_a 5.695149
_cell_length_b 15.332617
_cell_length_c 28.558109
_cell_angle_alpha 90.000000
_cell_angle_beta 90.000000
_cell_angle_gamma 90.000000
_cell_volume 2493.738011
_symmetry_space_group_name_H-M "P B C N"
_symmetry_group_IT_number 60
_symmetry_cell_setting 'orthorhombic'
loop_
_space_group_symop_operation_xyz
x,y,z
1/2-x,1/2-y,1/2+z
1/2+x,1/2-y,-z
-x,y,1/2-z
-x,-y,-z
1/2+x,1/2+y,1/2-z
1/2-x,1/2+y,z
x,-y,1/2+z
loop_
_atom_site_type_symbol
_atom_site_label
_atom_site_fract_x
_atom_site_fract_y
_atom_site_fract_z
Si Si1 0.000000 0.024189 0.750000
Si Si2 0.811212 0.613481 0.822507
Si Si3 0.000000 0.738163 0.750000
Si Si4 0.610778 0.031564 0.127196
Si Si5 0.157588 0.800368 0.490343
Si Si6 0.501281 0.405357 0.408169
Si Si7 0.693461 0.114638 0.214763
Si Si8 0.177568 0.532271 0.039015
O O1 0.110379 0.960781 0.788822
O O2 0.178821 0.085933 0.724143
O O3 0.637630 0.641377 0.865012
O O4 0.962805 0.691299 0.800185
O O5 0.976872 0.538748 0.841478
O O6 0.226903 0.795492 0.762254
O O7 0.628132 0.118874 0.159659
O O8 0.467850 0.066688 0.083225
O O9 0.850258 0.986288 0.110760
O O10 0.410594 0.750096 0.497125
O O11 0.147152 0.831044 0.435707
O O12 0.161670 0.887540 0.522058
O O13 0.675112 0.447282 0.446468
O O14 0.500000 0.076684 0.250000
O O15 0.000000 0.500000 0.000000
#
# Coordination Sequence:
#
# PCOD8248291 Si02
#       8
#     4   8   4   8   8   8   8   8
#     4  11  20  40  72  89 130 182 240 285 346 430
#     4  11  24  44  69 106 131 191 243 306 357 451
#     4  11  28  42  66 101 158 180 232 295 400 436
#     4  11  23  44  76 103 133 187 263 297 347 450
#     4  12  28  50  73 113 157 198 238 319 401 451
#     4  11  25  46  78 101 141 193 258 300 363 455
#     4  11  23  44  65 101 141 184 229 301 366 432
#     4  11  24  47  77 105 143 198 259 305 370 456
#
# _framework density 22.456247000000001
#
# number of rings (size 3 to 8) (size 9 to 14) (size 15 to 20)
#    0.000    0.857    4.286    2.143    5.000    0.000 
#    7.714    0.000    0.000    0.000    0.000    0.000 
#    0.000    0.000    0.000    0.000    0.000    0.000 
#
# Total GULP energy -693865.488041 kJ/mol
# GULP energy per Si atom -12390.455144 kJ/mol
# Density = 2.240514 g / cm^3
# Si number density = 22.456247 Si / 1000 Ang^3
#
#
#
# Elastic Constant Matrix: (Units=GPa)
#
#
# Indices 1 2 3 4 5 6 
#
# 1 100.1477 21.8559 44.6456 0.0000 0.0000 0.0000
# 2 21.8559 61.5875 47.0049 0.0000 0.0000 0.0000
# 3 44.6456 47.0049 159.5655 0.0000 0.0000 0.0000
# 4 0.0000 0.0000 0.0000 51.0607 0.0000 0.0000
# 5 0.0000 0.0000 0.0000 0.0000 50.5363 0.0000
# 6 0.0000 0.0000 0.0000 0.0000 0.0000 16.8658
#
#
#
# Elastic Compliance Matrix: (Units=1/GPa)
#
#
# Indices 1 2 3 4 5 6 
#
# 1 0.011619 -0.002118 -0.002627 0.000000 0.000000 0.000000
# 2 -0.002118 0.021333 -0.005691 0.000000 0.000000 0.000000
# 3 -0.002627 -0.005691 0.008679 0.000000 0.000000 0.000000
# 4 0.000000 0.000000 0.000000 0.019585 0.000000 0.000000
# 5 0.000000 0.000000 0.000000 0.000000 0.019788 0.000000
# 6 0.000000 0.000000 0.000000 0.000000 0.000000 0.059292
#
#
# Mechanical properties :
#
#
# Convention : Reuss Voigt Hill
#
# Bulk Modulus (GPa) = 48.17742 60.92369 54.55056
# Shear Modulus (GPa) = 29.74671 37.54553 33.64612
#
# Velocity S-wave (km/s) = 3.64353 4.09337 3.87498
# Velocity P-wave (km/s) = 6.26106 7.03774 6.66073
#
# Compressibility (1/GPa) = 0.02075661
#
# Stress axis : x y z
#
# Youngs Moduli (GPa) = 86.06916 46.87649 115.22617
#
# Poissons Ratio (x) = 0.09930 0.30268
# Poissons Ratio (y) = 0.18232 0.65581
# Poissons Ratio (z) = 0.22609 0.26680
#
# Static dielectric constant tensor:
#      x y z
#    x 4.374210 0.000000 0.000000 
#    y 0.000000 3.863050 0.000000 
#    z 0.000000 0.000000 3.792630 
# 
# 
# High freq. dielectric constant tensor:
#      x y z
#    x 1.898900 0.000000 0.000000 
#    y 0.000000 1.863250 0.000000 
#    z 0.000000 0.000000 1.905370 
# 
# From -- ./inp_files/25726.got.cif
#   From: 2010.03.12/outbox.cif.g09.slc.cpg/sg60_13_cif.got.tgz:25726.got - 2010.04.10 18:46:24.
