data_PCOD8248087
_publ_section_title
;
Structure prediction by ZEFSAII (Michael W. Deem and Ramdas Pophale) SiO2 
 PCOD8248087
Probable space group: P B C N
;
_chemical_formula_sum "Si O2"
_cell_formula_units_Z 60
_cell_length_a 27.550728
_cell_length_b 8.877445
_cell_length_c 11.961121
_cell_angle_alpha 90.000000
_cell_angle_beta 90.000000
_cell_angle_gamma 90.000000
_cell_volume 2925.451842
_symmetry_space_group_name_H-M "P B C N"
_symmetry_group_IT_number 60
_symmetry_cell_setting 'orthorhombic'
loop_
_space_group_symop_operation_xyz
x,y,z
1/2-x,1/2-y,1/2+z
1/2+x,1/2-y,-z
-x,y,1/2-z
-x,-y,-z
1/2+x,1/2+y,1/2-z
1/2-x,1/2+y,z
x,-y,1/2+z
loop_
_atom_site_type_symbol
_atom_site_label
_atom_site_fract_x
_atom_site_fract_y
_atom_site_fract_z
Si Si1 0.500000 0.127581 0.250000
Si Si2 0.464799 0.159898 0.656496
Si Si3 0.905287 0.845735 0.700388
Si Si4 0.688292 0.254457 0.334213
Si Si5 0.258884 0.009856 0.782938
Si Si6 0.420245 0.320476 0.223204
Si Si7 0.305206 0.718144 0.401486
Si Si8 0.022448 0.836098 0.998610
O O1 0.455599 0.225977 0.308105
O O2 0.527512 0.020231 0.341262
O O3 0.500000 0.238673 0.750000
O O4 0.412333 0.219111 0.701258
O O5 0.478418 0.222734 0.534348
O O6 0.849681 0.849823 0.666656
O O7 0.934416 0.813833 0.588633
O O8 0.920099 0.005496 0.750681
O O9 0.718558 0.393441 0.283059
O O10 0.711935 0.093049 0.305766
O O11 0.633839 0.255273 0.284678
O O12 0.685521 0.272935 0.466992
O O13 0.237688 0.899267 0.877490
O O14 0.294611 0.117592 0.851422
O O15 0.453558 0.290461 0.114424
O O16 0.000000 0.000000 0.000000
#
# Coordination Sequence:
#
# PCOD8248087 Si02
#       8
#     4   8   8   8   8   8   8   8
#     4  10  24  38  58  86 132 166 204 266 306 366
#     4   8  20  38  56  78 120 165 198 249 305 348
#     4  11  21  39  61  88 121 163 207 257 310 366
#     4  11  23  42  66  98 124 163 216 256 330 392
#     4  10  24  42  68  92 130 163 201 276 330 381
#     4  12  23  38  63  93 124 167 215 256 306 378
#     4  11  22  42  68  93 128 163 209 266 325 388
#     4  11  20  36  63  86 117 165 210 253 299 364
#
# _framework density 20.509651999999999
#
# number of rings (size 3 to 8) (size 9 to 14) (size 15 to 20)
#    0.400    1.067    4.000    1.600    2.800    0.533 
#    0.000    0.000    2.933    0.000    0.000    0.000 
#    0.000    0.000    0.000    0.000    0.000    0.000 
#
# Total GULP energy -743426.566674 kJ/mol
# GULP energy per Si atom -12390.442778 kJ/mol
# Density = 2.046297 g / cm^3
# Si number density = 20.509652 Si / 1000 Ang^3
#
#
#
# Elastic Constant Matrix: (Units=GPa)
#
#
# Indices 1 2 3 4 5 6 
#
# 1 88.9667 43.5805 18.5250 0.0000 0.0000 0.0000
# 2 43.5805 137.3051 24.2064 0.0000 0.0000 0.0000
# 3 18.5250 24.2064 62.7693 0.0000 0.0000 0.0000
# 4 0.0000 0.0000 0.0000 26.6294 0.0000 0.0000
# 5 0.0000 0.0000 0.0000 0.0000 30.5932 0.0000
# 6 0.0000 0.0000 0.0000 0.0000 0.0000 29.4933
#
#
#
# Elastic Compliance Matrix: (Units=1/GPa)
#
#
# Indices 1 2 3 4 5 6 
#
# 1 0.013675 -0.003894 -0.002534 0.000000 0.000000 0.000000
# 2 -0.003894 0.008923 -0.002292 0.000000 0.000000 0.000000
# 3 -0.002534 -0.002292 0.017563 0.000000 0.000000 0.000000
# 4 0.000000 0.000000 0.000000 0.037552 0.000000 0.000000
# 5 0.000000 0.000000 0.000000 0.000000 0.032687 0.000000
# 6 0.000000 0.000000 0.000000 0.000000 0.000000 0.033906
#
#
# Mechanical properties :
#
#
# Convention : Reuss Voigt Hill
#
# Bulk Modulus (GPa) = 44.01143 51.29611 47.65377
# Shear Modulus (GPa) = 29.52976 30.85844 30.19410
#
# Velocity S-wave (km/s) = 3.79858 3.88310 3.84108
# Velocity P-wave (km/s) = 6.38314 6.72084 6.55416
#
# Compressibility (1/GPa) = 0.02272137
#
# Stress axis : x y z
#
# Youngs Moduli (GPa) = 73.12497 112.07034 56.93724
#
# Poissons Ratio (x) = 0.43637 0.14430
# Poissons Ratio (y) = 0.28473 0.13050
# Poissons Ratio (z) = 0.18533 0.25686
#
# Static dielectric constant tensor:
#      x y z
#    x 3.829750 0.000000 0.000000 
#    y 0.000000 3.807250 0.000000 
#    z 0.000000 0.000000 3.668030 
# 
# 
# High freq. dielectric constant tensor:
#      x y z
#    x 1.801380 0.000000 0.000000 
#    y 0.000000 1.816680 0.000000 
#    z 0.000000 0.000000 1.793460 
# 
# From -- ./inp_files/18101.got.cif
#   From: 2010.03.12/outbox.cif.g09.slc.cpg/sg60_10_cif.got.tgz:18101.got - 2010.04.10 18:46:24.
