data_PCOD8248546
_publ_section_title
;
Structure prediction by ZEFSAII (Michael W. Deem and Ramdas Pophale) SiO2 
 PCOD8248546
Probable space group: P B C N
;
_chemical_formula_sum "Si O2"
_cell_formula_units_Z 40
_cell_length_a 8.103867
_cell_length_b 23.839063
_cell_length_c 8.820558
_cell_angle_alpha 90.000000
_cell_angle_beta 90.000000
_cell_angle_gamma 90.000000
_cell_volume 1704.031216
_symmetry_space_group_name_H-M "P B C N"
_symmetry_group_IT_number 60
_symmetry_cell_setting 'orthorhombic'
loop_
_space_group_symop_operation_xyz
x,y,z
1/2-x,1/2-y,1/2+z
1/2+x,1/2-y,-z
-x,y,1/2-z
-x,-y,-z
1/2+x,1/2+y,1/2-z
1/2-x,1/2+y,z
x,-y,1/2+z
loop_
_atom_site_type_symbol
_atom_site_label
_atom_site_fract_x
_atom_site_fract_y
_atom_site_fract_z
Si Si1 0.859157 0.111121 0.538179
Si Si2 0.636593 0.812889 0.536112
Si Si3 0.119220 0.474839 0.621111
Si Si4 0.285108 0.410586 0.131936
Si Si5 0.767951 0.289724 0.871829
O O1 0.737678 0.072767 0.440566
O O2 0.797341 0.122059 0.709025
O O3 0.867356 0.170744 0.453282
O O4 0.041058 0.084444 0.543858
O O5 0.660691 0.877107 0.479277
O O6 0.443925 0.802868 0.553915
O O7 0.731868 0.800539 0.692565
O O8 0.714947 0.773881 0.405326
O O9 0.227762 0.527226 0.678662
O O10 0.000000 0.448773 0.750000
O O11 0.000000 0.500000 0.500000
#
# Coordination Sequence:
#
# PCOD8248546 Si02
#       5
#     8   8   8   8   8
#     4  11  25  44  69  97 136 177 227 280 339 407
#     4  11  25  43  68  98 135 174 224 279 340 406
#     4  12  25  44  69  98 135 179 226 277 338 400
#     4  11  25  45  67  98 136 178 225 281 339 403
#     4  11  25  43  67  99 133 176 223 278 340 406
#
# _framework density 23.473751
#
# number of rings (size 3 to 8) (size 9 to 14) (size 15 to 20)
#    0.000    0.800    2.000    4.200    5.600    8.000 
#    0.000    0.000    0.000    0.000    0.000    0.000 
#    0.000    0.000    0.000    0.000    0.000    0.000 
#
# Total GULP energy -496165.562578 kJ/mol
# GULP energy per Si atom -12404.139064 kJ/mol
# Density = 2.342032 g / cm^3
# Si number density = 23.473751 Si / 1000 Ang^3
#
#
#
# Elastic Constant Matrix: (Units=GPa)
#
#
# Indices 1 2 3 4 5 6 
#
# 1 88.1888 26.9517 22.9348 0.0000 0.0000 0.0000
# 2 26.9517 82.1546 28.5061 0.0000 0.0000 0.0000
# 3 22.9348 28.5061 87.7217 0.0000 0.0000 0.0000
# 4 0.0000 0.0000 0.0000 37.2041 0.0000 0.0000
# 5 0.0000 0.0000 0.0000 0.0000 46.0142 0.0000
# 6 0.0000 0.0000 0.0000 0.0000 0.0000 35.7712
#
#
#
# Elastic Compliance Matrix: (Units=1/GPa)
#
#
# Indices 1 2 3 4 5 6 
#
# 1 0.012991 -0.003475 -0.002267 0.000000 0.000000 0.000000
# 2 -0.003475 0.014649 -0.003852 0.000000 0.000000 0.000000
# 3 -0.002267 -0.003852 0.013244 0.000000 0.000000 0.000000
# 4 0.000000 0.000000 0.000000 0.026879 0.000000 0.000000
# 5 0.000000 0.000000 0.000000 0.000000 0.021732 0.000000
# 6 0.000000 0.000000 0.000000 0.000000 0.000000 0.027955
#
#
# Mechanical properties :
#
#
# Convention : Reuss Voigt Hill
#
# Bulk Modulus (GPa) = 46.09205 46.09448 46.09327
# Shear Modulus (GPa) = 34.75352 35.77607 35.26479
#
# Velocity S-wave (km/s) = 3.85194 3.90819 3.88017
# Velocity P-wave (km/s) = 6.28183 6.32807 6.30500
#
# Compressibility (1/GPa) = 0.02169571
#
# Stress axis : x y z
#
# Youngs Moduli (GPa) = 76.97648 68.26555 75.50536
#
# Poissons Ratio (x) = 0.23723 0.17119
# Poissons Ratio (y) = 0.26750 0.29082
# Poissons Ratio (z) = 0.17452 0.26294
#
# Static dielectric constant tensor:
#      x y z
#    x 3.694860 0.000000 0.000000 
#    y 0.000000 4.193240 0.000000 
#    z 0.000000 0.000000 4.043720 
# 
# 
# High freq. dielectric constant tensor:
#      x y z
#    x 1.936180 0.000000 0.000000 
#    y 0.000000 1.931440 0.000000 
#    z 0.000000 0.000000 1.938510 
# 
# From -- ./inp_files/3792.got.cif
#   From: 2010.03.12/outbox.cif.g09.slc.cpg/sg60_2_cif.got.tgz:3792.got - 2010.04.10 18:46:24.
