data_PCOD8248574
_publ_section_title
;
Structure prediction by ZEFSAII (Michael W. Deem and Ramdas Pophale) SiO2 
 PCOD8248574
Probable space group: P B C N
;
_chemical_formula_sum "Si O2"
_cell_formula_units_Z 32
_cell_length_a 10.925032
_cell_length_b 14.456338
_cell_length_c 7.222326
_cell_angle_alpha 90.000000
_cell_angle_beta 90.000000
_cell_angle_gamma 90.000000
_cell_volume 1140.664956
_symmetry_space_group_name_H-M "P B C N"
_symmetry_group_IT_number 60
_symmetry_cell_setting 'orthorhombic'
loop_
_space_group_symop_operation_xyz
x,y,z
1/2-x,1/2-y,1/2+z
1/2+x,1/2-y,-z
-x,y,1/2-z
-x,-y,-z
1/2+x,1/2+y,1/2-z
1/2-x,1/2+y,z
x,-y,1/2+z
loop_
_atom_site_type_symbol
_atom_site_label
_atom_site_fract_x
_atom_site_fract_y
_atom_site_fract_z
Si Si1 0.235783 0.138250 0.281863
Si Si2 0.855142 0.512440 0.518372
Si Si3 0.202301 0.848218 0.285460
Si Si4 0.990767 0.106394 0.026711
O O1 0.320117 0.087052 0.135491
O O2 0.241043 0.247532 0.284511
O O3 0.087439 0.119372 0.276318
O O4 0.287053 0.088724 0.474790
O O5 0.806783 0.568936 0.706267
O O6 0.000000 0.500000 0.500000
O O7 0.126144 0.851257 0.483721
O O8 0.104410 0.852848 0.121880
O O9 0.000000 0.000000 0.000000
#
# Coordination Sequence:
#
# PCOD8248574 Si02
#       4
#     8   8   8   8
#     4  12  27  49  80 116 161 213 265 324 403 476
#     4  12  28  48  79 119 163 207 261 335 406 475
#     4  11  27  49  83 118 159 212 271 329 402 477
#     4  11  25  49  82 112 160 206 271 337 388 469
#
# _framework density 28.053812000000001
#
# number of rings (size 3 to 8) (size 9 to 14) (size 15 to 20)
#    0.000    0.500    2.500    3.750   14.000    1.000 
#    0.000    0.000    0.000    0.000    0.000    0.000 
#    0.000    0.000    0.000    0.000    0.000    0.000 
#
# Total GULP energy -396554.012655 kJ/mol
# GULP energy per Si atom -12392.312895 kJ/mol
# Density = 2.798996 g / cm^3
# Si number density = 28.053812 Si / 1000 Ang^3
#
#
#
# Elastic Constant Matrix: (Units=GPa)
#
#
# Indices 1 2 3 4 5 6 
#
# 1 279.7922 84.6881 25.3148 0.0000 0.0000 0.0000
# 2 84.6881 223.8610 -26.1228 0.0000 0.0000 0.0000
# 3 25.3148 -26.1228 68.5494 0.0000 0.0000 0.0000
# 4 0.0000 0.0000 0.0000 42.1169 0.0000 0.0000
# 5 0.0000 0.0000 0.0000 0.0000 40.2606 0.0000
# 6 0.0000 0.0000 0.0000 0.0000 0.0000 50.8447
#
#
#
# Elastic Compliance Matrix: (Units=1/GPa)
#
#
# Indices 1 2 3 4 5 6 
#
# 1 0.004370 -0.001927 -0.002348 0.000000 0.000000 0.000000
# 2 -0.001927 0.005525 0.002817 0.000000 0.000000 0.000000
# 3 -0.002348 0.002817 0.016529 0.000000 0.000000 0.000000
# 4 0.000000 0.000000 0.000000 0.023743 0.000000 0.000000
# 5 0.000000 0.000000 0.000000 0.000000 0.024838 0.000000
# 6 0.000000 0.000000 0.000000 0.000000 0.000000 0.019668
#
#
# Mechanical properties :
#
#
# Convention : Reuss Voigt Hill
#
# Bulk Modulus (GPa) = 42.54055 82.21806 62.37930
# Shear Modulus (GPa) = 47.42716 59.19928 53.31322
#
# Velocity S-wave (km/s) = 4.11612 4.59868 4.36408
# Velocity P-wave (km/s) = 6.14710 7.58736 6.90488
#
# Compressibility (1/GPa) = 0.02350699
#
# Stress axis : x y z
#
# Youngs Moduli (GPa) = 228.84076 181.00048 60.50078
#
# Poissons Ratio (x) = 0.34882 0.14207
# Poissons Ratio (y) = 0.44101 -0.17044
# Poissons Ratio (z) = 0.53735 -0.50990
#
# Static dielectric constant tensor:
#      x y z
#    x 5.090420 0.000000 0.000000 
#    y 0.000000 5.253850 0.000000 
#    z 0.000000 0.000000 7.864370 
# 
# 
# High freq. dielectric constant tensor:
#      x y z
#    x 2.175200 0.000000 0.000000 
#    y 0.000000 2.118380 0.000000 
#    z 0.000000 0.000000 2.229390 
# 
# From -- ./inp_files/4547.got.cif
#   From: 2010.03.12/outbox.cif.g09.slc.cpg/sg60_3_cif.got.tgz:4547.got - 2010.04.10 18:46:24.
