data_PCOD8248290
_publ_section_title
;
Structure prediction by ZEFSAII (Michael W. Deem and Ramdas Pophale) SiO2 
 PCOD8248290
Probable space group: P B C N
;
_chemical_formula_sum "Si O2"
_cell_formula_units_Z 60
_cell_length_a 11.480742
_cell_length_b 16.825385
_cell_length_c 14.577474
_cell_angle_alpha 90.000000
_cell_angle_beta 90.000000
_cell_angle_gamma 90.000000
_cell_volume 2815.900102
_symmetry_space_group_name_H-M "P B C N"
_symmetry_group_IT_number 60
_symmetry_cell_setting 'orthorhombic'
loop_
_space_group_symop_operation_xyz
x,y,z
1/2-x,1/2-y,1/2+z
1/2+x,1/2-y,-z
-x,y,1/2-z
-x,-y,-z
1/2+x,1/2+y,1/2-z
1/2-x,1/2+y,z
x,-y,1/2+z
loop_
_atom_site_type_symbol
_atom_site_label
_atom_site_fract_x
_atom_site_fract_y
_atom_site_fract_z
Si Si1 0.500000 0.238361 0.250000
Si Si2 0.268055 0.431295 0.523362
Si Si3 0.684385 0.897968 0.483921
Si Si4 0.883582 0.332317 0.302599
Si Si5 0.439894 0.348557 0.657182
Si Si6 0.708115 0.674093 0.654511
Si Si7 0.960955 0.350931 0.923276
Si Si8 0.367794 0.716062 0.456174
O O1 0.415646 0.292778 0.311852
O O2 0.565305 0.179875 0.320627
O O3 0.266000 0.524991 0.504268
O O4 0.346258 0.408261 0.611727
O O5 0.310206 0.386093 0.430905
O O6 0.134621 0.414825 0.548925
O O7 0.613335 0.890923 0.389714
O O8 0.590621 0.888884 0.566788
O O9 0.774594 0.824799 0.477668
O O10 0.881407 0.238339 0.328375
O O11 0.772581 0.362113 0.243197
O O12 0.000000 0.353629 0.250000
O O13 0.500000 0.382328 0.750000
O O14 0.546226 0.347947 0.586368
O O15 0.795233 0.744192 0.625751
O O16 0.950250 0.277070 0.991660
#
# Coordination Sequence:
#
# PCOD8248290 Si02
#       8
#     4   8   8   8   8   8   8   8
#     4  12  22  38  70 104 126 164 246 284 320 380
#     4  11  26  43  64  98 146 182 214 272 363 424
#     4  12  24  44  65  99 138 181 216 277 358 416
#     4  11  20  40  71  96 122 173 234 279 325 393
#     4  11  21  41  71  95 128 176 230 279 335 402
#     4  11  21  41  65 101 131 172 228 287 327 394
#     4  11  23  40  69  97 133 174 228 285 336 398
#     4  11  21  40  71  91 127 177 230 276 331 400
#
# _framework density 21.307575
#
# number of rings (size 3 to 8) (size 9 to 14) (size 15 to 20)
#    0.000    0.800    5.333    5.200    0.000    0.533 
#    6.000    0.000    1.467    0.000    0.000    0.000 
#    0.000    0.000    0.000    0.000    0.000    0.000 
#
# Total GULP energy -743820.509463 kJ/mol
# GULP energy per Si atom -12397.008491 kJ/mol
# Density = 2.125908 g / cm^3
# Si number density = 21.307575 Si / 1000 Ang^3
#
#
#
# Elastic Constant Matrix: (Units=GPa)
#
#
# Indices 1 2 3 4 5 6 
#
# 1 72.7894 27.4312 37.3372 0.0000 0.0000 0.0000
# 2 27.4312 65.4366 31.1983 0.0000 0.0000 0.0000
# 3 37.3372 31.1983 103.8303 0.0000 0.0000 0.0000
# 4 0.0000 0.0000 0.0000 16.7692 0.0000 0.0000
# 5 0.0000 0.0000 0.0000 0.0000 46.6969 0.0000
# 6 0.0000 0.0000 0.0000 0.0000 0.0000 22.2381
#
#
#
# Elastic Compliance Matrix: (Units=1/GPa)
#
#
# Indices 1 2 3 4 5 6 
#
# 1 0.018290 -0.005289 -0.004988 0.000000 0.000000 0.000000
# 2 -0.005289 0.019367 -0.003917 0.000000 0.000000 0.000000
# 3 -0.004988 -0.003917 0.012602 0.000000 0.000000 0.000000
# 4 0.000000 0.000000 0.000000 0.059633 0.000000 0.000000
# 5 0.000000 0.000000 0.000000 0.000000 0.021415 0.000000
# 6 0.000000 0.000000 0.000000 0.000000 0.000000 0.044968
#
#
# Mechanical properties :
#
#
# Convention : Reuss Voigt Hill
#
# Bulk Modulus (GPa) = 45.72446 48.22107 46.97277
# Shear Modulus (GPa) = 23.59014 26.88014 25.23514
#
# Velocity S-wave (km/s) = 3.33096 3.55566 3.44514
# Velocity P-wave (km/s) = 6.02491 6.28784 6.15778
#
# Compressibility (1/GPa) = 0.02187013
#
# Stress axis : x y z
#
# Youngs Moduli (GPa) = 54.67457 51.63461 79.35416
#
# Poissons Ratio (x) = 0.27311 0.39580
# Poissons Ratio (y) = 0.28919 0.31085
# Poissons Ratio (z) = 0.27271 0.20226
#
# Static dielectric constant tensor:
#      x y z
#    x 3.936290 0.000000 0.000000 
#    y 0.000000 3.468890 0.000000 
#    z 0.000000 0.000000 4.125430 
# 
# 
# High freq. dielectric constant tensor:
#      x y z
#    x 1.846570 0.000000 0.000000 
#    y 0.000000 1.794930 0.000000 
#    z 0.000000 0.000000 1.848290 
# 
# From -- ./inp_files/16346.got.cif
#   From: 2010.03.12/outbox.cif.g09.slc.cpg/sg60_9_cif.got.tgz:16346.got - 2010.04.10 18:46:24.
