data_PCOD8248241
_publ_section_title
;
Structure prediction by ZEFSAII (Michael W. Deem and Ramdas Pophale) SiO2 
 PCOD8248241
Probable space group: P B C N
;
_chemical_formula_sum "Si O2"
_cell_formula_units_Z 32
_cell_length_a 5.325206
_cell_length_b 34.159608
_cell_length_c 7.585249
_cell_angle_alpha 90.000000
_cell_angle_beta 90.000000
_cell_angle_gamma 90.000000
_cell_volume 1379.809507
_symmetry_space_group_name_H-M "P B C N"
_symmetry_group_IT_number 60
_symmetry_cell_setting 'orthorhombic'
loop_
_space_group_symop_operation_xyz
x,y,z
1/2-x,1/2-y,1/2+z
1/2+x,1/2-y,-z
-x,y,1/2-z
-x,-y,-z
1/2+x,1/2+y,1/2-z
1/2-x,1/2+y,z
x,-y,1/2+z
loop_
_atom_site_type_symbol
_atom_site_label
_atom_site_fract_x
_atom_site_fract_y
_atom_site_fract_z
Si Si1 0.000000 0.005951 0.750000
Si Si2 0.806919 0.300521 0.398150
Si Si3 0.000000 0.731071 0.250000
Si Si4 0.500000 0.635974 0.750000
Si Si5 0.000000 0.455547 0.750000
Si Si6 0.311485 0.067766 0.899710
O O1 0.077149 0.036200 0.911212
O O2 0.248067 0.980508 0.725294
O O3 0.712818 0.257939 0.336705
O O4 0.602666 0.335198 0.402952
O O5 0.000000 0.314873 0.250000
O O6 0.903567 0.297361 0.596711
O O7 0.709507 0.610298 0.651348
O O8 0.016797 0.428646 0.575726
O O9 0.500000 0.051828 0.750000
#
# Coordination Sequence:
#
# PCOD8248241 Si02
#       6
#     4   8   4   4   4   8
#     4  11  24  43  72 114 138 183 244 313 370 424
#     4  11  22  43  69 105 139 175 236 285 364 421
#     4  11  22  39  77 104 132 174 224 300 346 424
#     4  10  26  46  68  95 146 196 228 294 356 443
#     4  12  26  42  75 109 138 187 248 307 364 429
#     4  11  25  46  71  98 146 187 239 294 364 433
#
# _framework density 23.191606
#
# number of rings (size 3 to 8) (size 9 to 14) (size 15 to 20)
#    0.000    1.000    3.750    2.250    7.000    0.000 
#    0.000    7.500    0.000    0.000    3.250    0.000 
#    0.000    0.000    0.000    0.000    0.000    0.000 
#
# Total GULP energy -396487.245815 kJ/mol
# GULP energy per Si atom -12390.226432 kJ/mol
# Density = 2.313882 g / cm^3
# Si number density = 23.191606 Si / 1000 Ang^3
#
#
#
# Elastic Constant Matrix: (Units=GPa)
#
#
# Indices 1 2 3 4 5 6 
#
# 1 125.4118 53.3823 64.2073 0.0000 0.0000 0.0000
# 2 53.3823 121.4549 56.4492 0.0000 0.0000 0.0000
# 3 64.2073 56.4492 202.5808 0.0000 0.0000 0.0000
# 4 0.0000 0.0000 0.0000 7.2307 0.0000 0.0000
# 5 0.0000 0.0000 0.0000 0.0000 44.5928 0.0000
# 6 0.0000 0.0000 0.0000 0.0000 0.0000 83.7061
#
#
#
# Elastic Compliance Matrix: (Units=1/GPa)
#
#
# Indices 1 2 3 4 5 6 
#
# 1 0.010736 -0.003604 -0.002398 0.000000 0.000000 0.000000
# 2 -0.003604 0.010668 -0.001830 0.000000 0.000000 0.000000
# 3 -0.002398 -0.001830 0.006207 0.000000 0.000000 0.000000
# 4 0.000000 0.000000 0.000000 0.138299 0.000000 0.000000
# 5 0.000000 0.000000 0.000000 0.000000 0.022425 0.000000
# 6 0.000000 0.000000 0.000000 0.000000 0.000000 0.011947
#
#
# Mechanical properties :
#
#
# Convention : Reuss Voigt Hill
#
# Bulk Modulus (GPa) = 83.71744 88.61390 86.16567
# Shear Modulus (GPa) = 22.73469 45.46652 34.10060
#
# Velocity S-wave (km/s) = 3.13437 4.43253 3.83872
# Velocity P-wave (km/s) = 7.01965 8.03049 7.54203
#
# Compressibility (1/GPa) = 0.01194494
#
# Stress axis : x y z
#
# Youngs Moduli (GPa) = 93.14757 93.73608 161.12050
#
# Poissons Ratio (x) = 0.33781 0.38643
# Poissons Ratio (y) = 0.33569 0.29493
# Poissons Ratio (z) = 0.22341 0.17158
#
# Static dielectric constant tensor:
#      x y z
#    x 4.852070 0.000000 0.000000 
#    y 0.000000 3.997270 0.000000 
#    z 0.000000 0.000000 4.084580 
# 
# 
# High freq. dielectric constant tensor:
#      x y z
#    x 1.928880 0.000000 0.000000 
#    y 0.000000 1.910030 0.000000 
#    z 0.000000 0.000000 1.908780 
# 
# From -- ./inp_files/3090.got.cif
#   From: 2010.03.12/outbox.cif.g09.slc.cpg/sg60_2_cif.got.tgz:3090.got - 2010.04.10 18:46:24.
