data_PCOD8248420
_publ_section_title
;
Structure prediction by ZEFSAII (Michael W. Deem and Ramdas Pophale) SiO2 
 PCOD8248420
Probable space group: P B C N
;
_chemical_formula_sum "Si O2"
_cell_formula_units_Z 64
_cell_length_a 28.165657
_cell_length_b 12.107878
_cell_length_c 7.931534
_cell_angle_alpha 90.000000
_cell_angle_beta 90.000000
_cell_angle_gamma 90.000000
_cell_volume 2704.862001
_symmetry_space_group_name_H-M "P B C N"
_symmetry_group_IT_number 60
_symmetry_cell_setting 'orthorhombic'
loop_
_space_group_symop_operation_xyz
x,y,z
1/2-x,1/2-y,1/2+z
1/2+x,1/2-y,-z
-x,y,1/2-z
-x,-y,-z
1/2+x,1/2+y,1/2-z
1/2-x,1/2+y,z
x,-y,1/2+z
loop_
_atom_site_type_symbol
_atom_site_label
_atom_site_fract_x
_atom_site_fract_y
_atom_site_fract_z
Si Si1 0.636256 0.257699 0.792177
Si Si2 0.645257 0.459372 0.572160
Si Si3 0.553712 0.133508 0.301610
Si Si4 0.445506 0.891937 0.304765
Si Si5 0.304270 0.801604 0.886669
Si Si6 0.747245 0.968381 0.439998
Si Si7 0.218909 0.340880 0.389279
Si Si8 0.378146 0.672801 0.739039
O O1 0.637854 0.387533 0.743176
O O2 0.584423 0.200311 0.798088
O O3 0.664757 0.188348 0.648153
O O4 0.661402 0.249792 0.970552
O O5 0.699571 0.463663 0.511865
O O6 0.625834 0.582658 0.609497
O O7 0.614079 0.395230 0.432374
O O8 0.500000 0.147904 0.250000
O O9 0.559881 0.134226 0.500423
O O10 0.579853 0.240644 0.224042
O O11 0.573503 0.016764 0.229659
O O12 0.500000 0.882089 0.250000
O O13 0.249170 0.769216 0.906070
O O14 0.330429 0.752604 0.721010
O O15 0.295055 0.929618 0.926283
O O16 0.744413 0.911772 0.259929
O O17 0.728922 0.095803 0.432790
#
# Coordination Sequence:
#
# PCOD8248420 Si02
#       8
#     8   8   8   8   8   8   8   8
#     4  11  26  42  69 104 140 190 244 291 362 426
#     4  12  22  44  64  95 143 190 234 287 339 412
#     4  11  26  49  78 110 144 178 230 301 374 438
#     4  11  25  49  79 110 144 179 230 302 375 433
#     4  11  24  39  62  97 137 187 234 292 340 425
#     4  11  23  38  58  89 134 181 236 284 351 397
#     4  11  24  39  59  94 136 186 233 290 343 418
#     4  12  26  44  71 102 141 189 243 285 354 427
#
# _framework density 23.661095
#
# number of rings (size 3 to 8) (size 9 to 14) (size 15 to 20)
#    0.000    0.750    5.000    2.250    7.000    2.000 
#    0.000    1.250    0.000    0.000    0.000    0.000 
#    0.000    0.000    0.000    0.000    0.000    0.000 
#
# Total GULP energy -792982.753882 kJ/mol
# GULP energy per Si atom -12390.355529 kJ/mol
# Density = 2.360724 g / cm^3
# Si number density = 23.661095 Si / 1000 Ang^3
#
#
#
# Elastic Constant Matrix: (Units=GPa)
#
#
# Indices 1 2 3 4 5 6 
#
# 1 76.6295 29.1171 -6.1521 0.0000 0.0000 0.0000
# 2 29.1171 87.2350 -18.8392 0.0000 0.0000 0.0000
# 3 -6.1521 -18.8392 36.3837 0.0000 0.0000 0.0000
# 4 0.0000 0.0000 0.0000 36.8593 0.0000 0.0000
# 5 0.0000 0.0000 0.0000 0.0000 22.4630 0.0000
# 6 0.0000 0.0000 0.0000 0.0000 0.0000 49.3358
#
#
#
# Elastic Compliance Matrix: (Units=1/GPa)
#
#
# Indices 1 2 3 4 5 6 
#
# 1 0.014945 -0.005002 -0.000063 0.000000 0.000000 0.000000
# 2 -0.005002 0.014581 0.006704 0.000000 0.000000 0.000000
# 3 -0.000063 0.006704 0.030945 0.000000 0.000000 0.000000
# 4 0.000000 0.000000 0.000000 0.027130 0.000000 0.000000
# 5 0.000000 0.000000 0.000000 0.000000 0.044518 0.000000
# 6 0.000000 0.000000 0.000000 0.000000 0.000000 0.020269
#
#
# Mechanical properties :
#
#
# Convention : Reuss Voigt Hill
#
# Bulk Modulus (GPa) = 15.68637 23.16662 19.42650
# Shear Modulus (GPa) = 29.34957 34.80646 32.07801
#
# Velocity S-wave (km/s) = 3.52577 3.83958 3.68602
# Velocity P-wave (km/s) = 4.81859 5.42851 5.13262
#
# Compressibility (1/GPa) = 0.06374960
#
# Stress axis : x y z
#
# Youngs Moduli (GPa) = 66.91030 68.58416 32.31491
#
# Poissons Ratio (x) = 0.34306 0.00203
# Poissons Ratio (y) = 0.33469 -0.21664
# Poissons Ratio (z) = 0.00421 -0.45979
#
# Static dielectric constant tensor:
#      x y z
#    x 2.736010 0.000000 0.000000 
#    y 0.000000 4.648620 0.000000 
#    z 0.000000 0.000000 6.207420 
# 
# 
# High freq. dielectric constant tensor:
#      x y z
#    x 1.904390 0.000000 0.000000 
#    y 0.000000 1.962410 0.000000 
#    z 0.000000 0.000000 1.952020 
# 
# From -- ./inp_files/8486.got.cif
#   From: 2010.03.12/outbox.cif.g09.slc.cpg/sg60_5_cif.got.tgz:8486.got - 2010.04.10 18:46:24.
