data_PCOD8248126
_publ_section_title
;
Structure prediction by ZEFSAII (Michael W. Deem and Ramdas Pophale) SiO2 
 PCOD8248126
Probable space group: P B C N
;
_chemical_formula_sum "Si O2"
_cell_formula_units_Z 56
_cell_length_a 15.325748
_cell_length_b 20.857342
_cell_length_c 8.208179
_cell_angle_alpha 90.000000
_cell_angle_beta 90.000000
_cell_angle_gamma 90.000000
_cell_volume 2623.780266
_symmetry_space_group_name_H-M "P B C N"
_symmetry_group_IT_number 60
_symmetry_cell_setting 'orthorhombic'
loop_
_space_group_symop_operation_xyz
x,y,z
1/2-x,1/2-y,1/2+z
1/2+x,1/2-y,-z
-x,y,1/2-z
-x,-y,-z
1/2+x,1/2+y,1/2-z
1/2-x,1/2+y,z
x,-y,1/2+z
loop_
_atom_site_type_symbol
_atom_site_label
_atom_site_fract_x
_atom_site_fract_y
_atom_site_fract_z
Si Si1 0.185592 0.706013 0.107773
Si Si2 0.909629 0.923852 0.159509
Si Si3 0.639526 0.717322 0.592412
Si Si4 0.720291 0.928643 0.733737
Si Si5 0.002469 0.690936 0.936872
Si Si6 0.956704 0.560813 0.082183
Si Si7 0.181718 0.018116 0.548711
O O1 0.162072 0.765611 0.222206
O O2 0.203876 0.644577 0.220437
O O3 0.272472 0.725212 0.011375
O O4 0.103340 0.693360 0.991301
O O5 0.895551 0.854540 0.082739
O O6 0.836689 0.937797 0.295690
O O7 0.000000 0.931225 0.250000
O O8 0.899804 0.973908 0.009834
O O9 0.559932 0.761273 0.534221
O O10 0.640895 0.957905 0.630059
O O11 0.798560 0.935167 0.603478
O O12 0.739636 0.969968 0.896727
O O13 0.000000 0.711187 0.750000
O O14 0.963831 0.619608 0.957059
O O15 0.000000 0.583435 0.250000
O O16 0.000000 0.500000 0.000000
#
# Coordination Sequence:
#
# PCOD8248126 Si02
#       7
#     8   8   8   8   8   8   8
#     4  12  25  46  71  97 142 183 234 296 355 422
#     4  11  23  44  70  99 134 177 227 292 361 415
#     4  12  26  46  71 102 137 189 234 291 362 425
#     4  11  22  43  66 100 140 177 231 285 344 418
#     4  12  26  47  66 102 143 185 243 293 347 432
#     4  12  23  40  66  99 140 187 229 293 352 418
#     4  10  24  42  68 100 135 176 231 285 349 433
#
# _framework density 21.343252
#
# number of rings (size 3 to 8) (size 9 to 14) (size 15 to 20)
#    0.000    0.571    4.286    3.857    2.000    1.143 
#    2.571    0.714    0.000    0.000    0.000    0.000 
#    0.000    0.000    0.000    0.000    0.000    0.000 
#
# Total GULP energy -694452.956303 kJ/mol
# GULP energy per Si atom -12400.945648 kJ/mol
# Density = 2.129467 g / cm^3
# Si number density = 21.343252 Si / 1000 Ang^3
#
#
#
# Elastic Constant Matrix: (Units=GPa)
#
#
# Indices 1 2 3 4 5 6 
#
# 1 95.7469 28.0894 5.6519 0.0000 0.0000 0.0000
# 2 28.0894 95.8374 15.1907 0.0000 0.0000 0.0000
# 3 5.6519 15.1907 71.6147 0.0000 0.0000 0.0000
# 4 0.0000 0.0000 0.0000 42.2413 0.0000 0.0000
# 5 0.0000 0.0000 0.0000 0.0000 44.4982 0.0000
# 6 0.0000 0.0000 0.0000 0.0000 0.0000 188.7332
#
#
#
# Elastic Compliance Matrix: (Units=1/GPa)
#
#
# Indices 1 2 3 4 5 6 
#
# 1 0.011429 -0.003319 -0.000198 0.000000 0.000000 0.000000
# 2 -0.003319 0.011761 -0.002233 0.000000 0.000000 0.000000
# 3 -0.000198 -0.002233 0.014453 0.000000 0.000000 0.000000
# 4 0.000000 0.000000 0.000000 0.023674 0.000000 0.000000
# 5 0.000000 0.000000 0.000000 0.000000 0.022473 0.000000
# 6 0.000000 0.000000 0.000000 0.000000 0.000000 0.005298
#
#
# Mechanical properties :
#
#
# Convention : Reuss Voigt Hill
#
# Bulk Modulus (GPa) = 38.24912 40.11811 39.18362
# Shear Modulus (GPa) = 45.74496 69.37900 57.56198
#
# Velocity S-wave (km/s) = 4.63460 5.70761 5.19886
# Velocity P-wave (km/s) = 6.82636 7.89134 7.37809
#
# Compressibility (1/GPa) = 0.02614439
#
# Stress axis : x y z
#
# Youngs Moduli (GPa) = 87.49321 85.02757 69.19039
#
# Poissons Ratio (x) = 0.28217 0.01371
# Poissons Ratio (y) = 0.29035 0.15449
# Poissons Ratio (z) = 0.01733 0.18985
#
# Static dielectric constant tensor:
#      x y z
#    x 9.428670 0.000000 0.000000 
#    y 0.000000 3.795500 0.000000 
#    z 0.000000 0.000000 3.970590 
# 
# 
# High freq. dielectric constant tensor:
#      x y z
#    x 1.844440 0.000000 0.000000 
#    y 0.000000 1.838610 0.000000 
#    z 0.000000 0.000000 1.848740 
# 
# From -- ./inp_files/6164.got.cif
#   From: 2010.03.12/outbox.cif.g09.slc.cpg/sg60_4_cif.got.tgz:6164.got - 2010.04.10 18:46:24.
