data_PCOD8248442
_publ_section_title
;
Structure prediction by ZEFSAII (Michael W. Deem and Ramdas Pophale) SiO2 
 PCOD8248442
Probable space group: P B C N
;
_chemical_formula_sum "Si O2"
_cell_formula_units_Z 64
_cell_length_a 8.540226
_cell_length_b 14.562456
_cell_length_c 22.844266
_cell_angle_alpha 90.000000
_cell_angle_beta 90.000000
_cell_angle_gamma 90.000000
_cell_volume 2841.065185
_symmetry_space_group_name_H-M "P B C N"
_symmetry_group_IT_number 60
_symmetry_cell_setting 'orthorhombic'
loop_
_space_group_symop_operation_xyz
x,y,z
1/2-x,1/2-y,1/2+z
1/2+x,1/2-y,-z
-x,y,1/2-z
-x,-y,-z
1/2+x,1/2+y,1/2-z
1/2-x,1/2+y,z
x,-y,1/2+z
loop_
_atom_site_type_symbol
_atom_site_label
_atom_site_fract_x
_atom_site_fract_y
_atom_site_fract_z
Si Si1 0.404138 0.242677 0.913005
Si Si2 0.176749 0.987919 0.520745
Si Si3 0.724327 0.988768 0.848319
Si Si4 0.326793 0.901752 0.921662
Si Si5 0.281711 0.280268 0.646197
Si Si6 0.877731 0.563738 0.655637
Si Si7 0.675052 0.371649 0.265138
Si Si8 0.129331 0.682235 0.035878
O O1 0.252484 0.305892 0.904816
O O2 0.536651 0.286227 0.872007
O O3 0.367557 0.139352 0.894891
O O4 0.447924 0.239235 0.982634
O O5 0.274475 0.060454 0.483945
O O6 0.207783 0.013044 0.588133
O O7 0.230137 0.882099 0.511219
O O8 0.000000 0.000000 0.500000
O O9 0.722758 0.880708 0.834373
O O10 0.557946 0.036654 0.832623
O O11 0.844580 0.036986 0.803796
O O12 0.511542 0.886176 0.929882
O O13 0.291606 0.973452 0.869618
O O14 0.256975 0.210377 0.698814
O O15 0.192154 0.248703 0.586398
O O16 0.787289 0.604932 0.710853
O O17 0.500000 0.338380 0.250000
#
# Coordination Sequence:
#
# PCOD8248442 Si02
#       8
#     8   8   8   8   8   8   8   8
#     4  12  26  42  78 116 154 201 254 321 391 475
#     4  11  23  41  74 112 154 196 248 316 389 468
#     4  11  25  51  76 106 151 200 248 320 396 461
#     4  12  24  43  76 110 154 201 256 309 395 474
#     4  11  26  50  74 111 154 196 257 318 395 460
#     4  12  26  51  75 108 154 208 261 318 393 459
#     4  12  31  48  77 106 145 203 266 327 374 468
#     4  11  23  45  71 115 155 203 245 320 396 470
#
# _framework density 22.526762000000002
#
# number of rings (size 3 to 8) (size 9 to 14) (size 15 to 20)
#    0.000    0.500    5.000    3.750    7.000    2.000 
#    0.000    0.000    0.000    0.000    0.000    0.000 
#    0.000    0.000    0.000    0.000    0.000    0.000 
#
# Total GULP energy -793506.557195 kJ/mol
# GULP energy per Si atom -12398.539956 kJ/mol
# Density = 2.247549 g / cm^3
# Si number density = 22.526762 Si / 1000 Ang^3
#
#
#
# Elastic Constant Matrix: (Units=GPa)
#
#
# Indices 1 2 3 4 5 6 
#
# 1 117.8454 36.1849 51.9864 0.0000 0.0000 0.0000
# 2 36.1849 122.0828 45.4376 0.0000 0.0000 0.0000
# 3 51.9864 45.4376 121.4562 0.0000 0.0000 0.0000
# 4 0.0000 0.0000 0.0000 45.9007 0.0000 0.0000
# 5 0.0000 0.0000 0.0000 0.0000 39.3843 0.0000
# 6 0.0000 0.0000 0.0000 0.0000 0.0000 35.1848
#
#
#
# Elastic Compliance Matrix: (Units=1/GPa)
#
#
# Indices 1 2 3 4 5 6 
#
# 1 0.010761 -0.001714 -0.003965 0.000000 0.000000 0.000000
# 2 -0.001714 0.009789 -0.002929 0.000000 0.000000 0.000000
# 3 -0.003965 -0.002929 0.011026 0.000000 0.000000 0.000000
# 4 0.000000 0.000000 0.000000 0.021786 0.000000 0.000000
# 5 0.000000 0.000000 0.000000 0.000000 0.025391 0.000000
# 6 0.000000 0.000000 0.000000 0.000000 0.000000 0.028421
#
#
# Mechanical properties :
#
#
# Convention : Reuss Voigt Hill
#
# Bulk Modulus (GPa) = 69.63000 69.84470 69.73735
# Shear Modulus (GPa) = 38.70679 39.27899 38.99289
#
# Velocity S-wave (km/s) = 4.14968 4.18024 4.16499
# Velocity P-wave (km/s) = 7.34417 7.37372 7.35896
#
# Compressibility (1/GPa) = 0.01436163
#
# Stress axis : x y z
#
# Youngs Moduli (GPa) = 92.92827 102.15406 90.69414
#
# Poissons Ratio (x) = 0.17508 0.35959
# Poissons Ratio (y) = 0.15927 0.26561
# Poissons Ratio (z) = 0.36844 0.29917
#
# Static dielectric constant tensor:
#      x y z
#    x 5.221790 0.000000 0.000000 
#    y 0.000000 4.358980 0.000000 
#    z 0.000000 0.000000 4.356390 
# 
# 
# High freq. dielectric constant tensor:
#      x y z
#    x 1.889780 0.000000 0.000000 
#    y 0.000000 1.893910 0.000000 
#    z 0.000000 0.000000 1.890140 
# 
# From -- ./inp_files/24102.got.cif
#   From: 2010.03.12/outbox.cif.g09.slc.cpg/sg60_13_cif.got.tgz:24102.got - 2010.04.10 18:46:24.
