data_PCOD8248015
_publ_section_title
;
Structure prediction by ZEFSAII (Michael W. Deem and Ramdas Pophale) SiO2 
 PCOD8248015
Probable space group: P B C N
;
_chemical_formula_sum "Si O2"
_cell_formula_units_Z 40
_cell_length_a 7.969502
_cell_length_b 13.501008
_cell_length_c 16.604388
_cell_angle_alpha 90.000000
_cell_angle_beta 90.000000
_cell_angle_gamma 90.000000
_cell_volume 1786.570883
_symmetry_space_group_name_H-M "P B C N"
_symmetry_group_IT_number 60
_symmetry_cell_setting 'orthorhombic'
loop_
_space_group_symop_operation_xyz
x,y,z
1/2-x,1/2-y,1/2+z
1/2+x,1/2-y,-z
-x,y,1/2-z
-x,-y,-z
1/2+x,1/2+y,1/2-z
1/2-x,1/2+y,z
x,-y,1/2+z
loop_
_atom_site_type_symbol
_atom_site_label
_atom_site_fract_x
_atom_site_fract_y
_atom_site_fract_z
Si Si1 0.105733 0.129914 0.176790
Si Si2 0.334673 0.283135 0.933427
Si Si3 0.448075 0.108661 0.529403
Si Si4 0.188984 0.786346 0.269372
Si Si5 0.349522 0.036893 0.695413
O O1 0.186580 0.230422 0.209264
O O2 0.000000 0.082086 0.250000
O O3 0.991772 0.152572 0.099207
O O4 0.250337 0.052510 0.152809
O O5 0.405774 0.190574 0.986043
O O6 0.220569 0.242020 0.861522
O O7 0.224189 0.356010 0.987962
O O8 0.422252 0.106334 0.625344
O O9 0.500000 0.000000 0.500000
O O10 0.226155 0.901845 0.254118
O O11 0.000000 0.758127 0.250000
O O12 0.500000 0.993160 0.750000
#
# Coordination Sequence:
#
# PCOD8248015 Si02
#       5
#     8   8   8   8   8
#     4  10  23  43  70 105 137 187 242 305 360 443
#     4  11  27  50  70 106 156 189 249 304 382 445
#     4  12  30  47  73 108 152 199 243 314 382 445
#     4  11  23  43  75 103 138 191 244 309 367 443
#     4  12  24  45  73 105 145 190 255 301 370 453
#
# _framework density 22.389261000000001
#
# number of rings (size 3 to 8) (size 9 to 14) (size 15 to 20)
#    0.000    0.800    4.000    1.800   14.000    2.400 
#    0.000    0.000    0.000    0.000    0.000    0.000 
#    0.000    0.000    0.000    0.000    0.000    0.000 
#
# Total GULP energy -496123.523291 kJ/mol
# GULP energy per Si atom -12403.088082 kJ/mol
# Density = 2.233830 g / cm^3
# Si number density = 22.389261 Si / 1000 Ang^3
#
#
#
# Elastic Constant Matrix: (Units=GPa)
#
#
# Indices 1 2 3 4 5 6 
#
# 1 147.9093 60.7968 53.0339 0.0000 0.0000 0.0000
# 2 60.7968 126.7929 42.2851 0.0000 0.0000 0.0000
# 3 53.0339 42.2851 86.5676 0.0000 0.0000 0.0000
# 4 0.0000 0.0000 0.0000 14.9510 0.0000 0.0000
# 5 0.0000 0.0000 0.0000 0.0000 40.0334 0.0000
# 6 0.0000 0.0000 0.0000 0.0000 0.0000 54.5059
#
#
#
# Elastic Compliance Matrix: (Units=1/GPa)
#
#
# Indices 1 2 3 4 5 6 
#
# 1 0.009620 -0.003162 -0.004349 0.000000 0.000000 0.000000
# 2 -0.003162 0.010461 -0.003173 0.000000 0.000000 0.000000
# 3 -0.004349 -0.003173 0.015766 0.000000 0.000000 0.000000
# 4 0.000000 0.000000 0.000000 0.066885 0.000000 0.000000
# 5 0.000000 0.000000 0.000000 0.000000 0.024979 0.000000
# 6 0.000000 0.000000 0.000000 0.000000 0.000000 0.018347
#
#
# Mechanical properties :
#
#
# Convention : Reuss Voigt Hill
#
# Bulk Modulus (GPa) = 69.06410 74.83349 71.94879
# Shear Modulus (GPa) = 29.02721 35.57499 32.30110
#
# Velocity S-wave (km/s) = 3.60457 3.99046 3.80242
# Velocity P-wave (km/s) = 6.94535 7.39785 7.17517
#
# Compressibility (1/GPa) = 0.01447930
#
# Stress axis : x y z
#
# Youngs Moduli (GPa) = 103.94896 95.59030 63.42950
#
# Poissons Ratio (x) = 0.30230 0.27584
# Poissons Ratio (y) = 0.32874 0.20123
# Poissons Ratio (z) = 0.45205 0.30326
#
# Static dielectric constant tensor:
#      x y z
#    x 4.157380 0.000000 0.000000 
#    y 0.000000 3.892240 0.000000 
#    z 0.000000 0.000000 4.467510 
# 
# 
# High freq. dielectric constant tensor:
#      x y z
#    x 1.892140 0.000000 0.000000 
#    y 0.000000 1.887960 0.000000 
#    z 0.000000 0.000000 1.872360 
# 
# From -- ./inp_files/19011.got.cif
#   From: 2010.03.12/outbox.cif.g09.slc.cpg/sg60_10_cif.got.tgz:19011.got - 2010.04.10 18:46:24.
