data_PCOD8248896
_publ_section_title
;
Structure prediction by ZEFSAII (Michael W. Deem and Ramdas Pophale) SiO2 
 PCOD8248896
Probable space group: P B C A
;
_chemical_formula_sum "Si O2"
_cell_formula_units_Z 64
_cell_length_a 17.095921
_cell_length_b 12.428572
_cell_length_c 14.650225
_cell_angle_alpha 90.000000
_cell_angle_beta 90.000000
_cell_angle_gamma 90.000000
_cell_volume 3112.848824
_symmetry_space_group_name_H-M "P B C A"
_symmetry_group_IT_number 61
_symmetry_cell_setting 'orthorhombic'
loop_
_space_group_symop_operation_xyz
x,y,z
1/2-x,-y,1/2+z
1/2+x,1/2-y,-z
-x,1/2+y,1/2-z
-x,-y,-z
1/2+x,y,1/2-z
1/2-x,1/2+y,z
x,1/2-y,1/2+z
loop_
_atom_site_type_symbol
_atom_site_label
_atom_site_fract_x
_atom_site_fract_y
_atom_site_fract_z
Si Si1 0.257102 0.292322 0.494008
Si Si2 0.902730 0.719574 0.048626
Si Si3 0.288310 0.548170 0.247771
Si Si4 0.384036 0.753911 0.242178
Si Si5 0.860488 0.473839 0.071169
Si Si6 0.833169 0.299528 0.679567
Si Si7 0.726572 0.838199 0.326700
Si Si8 0.019851 0.787807 0.397082
O O1 0.162821 0.296312 0.498254
O O2 0.301842 0.407424 0.496758
O O3 0.271982 0.228714 0.400096
O O4 0.286284 0.221816 0.578658
O O5 0.913814 0.753019 0.153479
O O6 0.881185 0.592445 0.033364
O O7 0.982635 0.744118 0.994586
O O8 0.352327 0.635247 0.217472
O O9 0.314245 0.481693 0.335258
O O10 0.201697 0.595690 0.269945
O O11 0.284703 0.466492 0.162106
O O12 0.311116 0.830476 0.222372
O O13 0.454211 0.795298 0.179997
O O14 0.938117 0.403079 0.089448
O O15 0.837991 0.207261 0.756371
O O16 0.919092 0.306287 0.633590
#
# Coordination Sequence:
#
# PCOD8248896 Si02
#       8
#     8   8   8   8   8   8   8   8
#     4  11  20  37  68  95 120 162 217 268 302 370
#     4  11  21  40  65  94 124 170 211 255 325 379
#     4  10  19  42  64  85 121 172 212 249 306 383
#     4  10  22  39  61  90 128 162 200 264 317 365
#     4  10  21  40  68  89 124 163 215 263 303 383
#     4  10  22  41  61  90 127 159 209 261 312 367
#     4  11  20  39  65  92 116 170 214 259 307 375
#     4  11  22  40  60  95 130 155 201 268 316 371
#
# _framework density 20.559944999999999
#
# number of rings (size 3 to 8) (size 9 to 14) (size 15 to 20)
#    0.000    1.500    7.500    0.375    0.000    4.000 
#    4.500    0.000    0.000    6.000    0.000    0.000 
#    0.000    0.000    0.000    0.000    0.000    0.000 
#
# Total GULP energy -792961.492755 kJ/mol
# GULP energy per Si atom -12390.023324 kJ/mol
# Density = 2.051315 g / cm^3
# Si number density = 20.559945 Si / 1000 Ang^3
#
#
#
# Elastic Constant Matrix: (Units=GPa)
#
#
# Indices 1 2 3 4 5 6 
#
# 1 91.1667 17.6112 16.1182 0.0000 0.0000 0.0000
# 2 17.6112 45.2395 22.6122 0.0000 0.0000 0.0000
# 3 16.1182 22.6122 78.4923 0.0000 0.0000 0.0000
# 4 0.0000 0.0000 0.0000 33.7184 0.0000 0.0000
# 5 0.0000 0.0000 0.0000 0.0000 27.0182 0.0000
# 6 0.0000 0.0000 0.0000 0.0000 0.0000 25.1045
#
#
#
# Elastic Compliance Matrix: (Units=1/GPa)
#
#
# Indices 1 2 3 4 5 6 
#
# 1 0.011974 -0.004010 -0.001304 0.000000 0.000000 0.000000
# 2 -0.004010 0.027166 -0.007003 0.000000 0.000000 0.000000
# 3 -0.001304 -0.007003 0.015025 0.000000 0.000000 0.000000
# 4 0.000000 0.000000 0.000000 0.029657 0.000000 0.000000
# 5 0.000000 0.000000 0.000000 0.000000 0.037012 0.000000
# 6 0.000000 0.000000 0.000000 0.000000 0.000000 0.039833
#
#
# Mechanical properties :
#
#
# Convention : Reuss Voigt Hill
#
# Bulk Modulus (GPa) = 33.86061 36.39797 35.12929
# Shear Modulus (GPa) = 25.62213 27.73869 26.68041
#
# Velocity S-wave (km/s) = 3.53401 3.67708 3.60625
# Velocity P-wave (km/s) = 5.75823 5.98077 5.87056
#
# Compressibility (1/GPa) = 0.02953284
#
# Stress axis : x y z
#
# Youngs Moduli (GPa) = 83.51431 36.81122 66.55521
#
# Poissons Ratio (x) = 0.14760 0.08677
# Poissons Ratio (y) = 0.33487 0.46605
# Poissons Ratio (z) = 0.10888 0.25777
#
# Static dielectric constant tensor:
#      x y z
#    x 3.732930 0.000000 0.000000 
#    y 0.000000 3.760750 0.000000 
#    z 0.000000 0.000000 3.812470 
# 
# 
# High freq. dielectric constant tensor:
#      x y z
#    x 1.794030 0.000000 0.000000 
#    y 0.000000 1.789280 0.000000 
#    z 0.000000 0.000000 1.811820 
# 
# From -- ./inp_files/8224.got.cif
#   From: 2010.03.12/outbox.cif.g09.slc.cpg/sg61_5_cif.got.tgz:8224.got - 2010.04.10 19:05:03.
