data_PCOD8248295
_publ_section_title
;
Structure prediction by ZEFSAII (Michael W. Deem and Ramdas Pophale) SiO2 
 PCOD8248295
Probable space group: P B C N
;
_chemical_formula_sum "Si O2"
_cell_formula_units_Z 40
_cell_length_a 15.838113
_cell_length_b 9.207386
_cell_length_c 13.087576
_cell_angle_alpha 90.000000
_cell_angle_beta 90.000000
_cell_angle_gamma 90.000000
_cell_volume 1908.530058
_symmetry_space_group_name_H-M "P B C N"
_symmetry_group_IT_number 60
_symmetry_cell_setting 'orthorhombic'
loop_
_space_group_symop_operation_xyz
x,y,z
1/2-x,1/2-y,1/2+z
1/2+x,1/2-y,-z
-x,y,1/2-z
-x,-y,-z
1/2+x,1/2+y,1/2-z
1/2-x,1/2+y,z
x,-y,1/2+z
loop_
_atom_site_type_symbol
_atom_site_label
_atom_site_fract_x
_atom_site_fract_y
_atom_site_fract_z
Si Si1 0.122374 0.150561 0.631789
Si Si2 0.993392 0.872259 0.860451
Si Si3 0.480954 0.160084 0.461614
Si Si4 0.820282 0.052055 0.071304
Si Si5 0.319280 0.753051 0.847764
O O1 0.191243 0.108941 0.544899
O O2 0.172275 0.198191 0.732085
O O3 0.064072 0.283191 0.595311
O O4 0.065891 0.010688 0.655159
O O5 0.000000 0.794207 0.750000
O O6 0.082550 0.929863 0.899278
O O7 0.955853 0.759586 0.941443
O O8 0.402672 0.160749 0.383615
O O9 0.500000 0.000000 0.500000
O O10 0.760153 0.139792 0.147826
O O11 0.798681 0.882424 0.078599
#
# Coordination Sequence:
#
# PCOD8248295 Si02
#       5
#     8   8   8   8   8
#     4  11  22  47  74  92 134 191 226 276 346 423
#     4  11  20  43  74  94 128 190 234 268 337 424
#     4  11  24  42  67 101 135 176 235 285 331 413
#     4  11  25  41  67 104 134 172 231 281 344 411
#     4  12  25  44  69 101 143 176 222 290 354 399
#
# _framework density 20.958538000000001
#
# number of rings (size 3 to 8) (size 9 to 14) (size 15 to 20)
#    0.000    0.800    6.000    1.800    5.600    4.800 
#    0.000    0.000    0.000    0.000    0.000    0.000 
#    0.000    0.000    0.000    0.000    0.000    0.000 
#
# Total GULP energy -496177.321113 kJ/mol
# GULP energy per Si atom -12404.433028 kJ/mol
# Density = 2.091084 g / cm^3
# Si number density = 20.958538 Si / 1000 Ang^3
#
#
#
# Elastic Constant Matrix: (Units=GPa)
#
#
# Indices 1 2 3 4 5 6 
#
# 1 57.2867 33.2220 26.2191 0.0000 0.0000 0.0000
# 2 33.2220 113.8054 31.8723 0.0000 0.0000 0.0000
# 3 26.2191 31.8723 131.5425 0.0000 0.0000 0.0000
# 4 0.0000 0.0000 0.0000 21.4316 0.0000 0.0000
# 5 0.0000 0.0000 0.0000 0.0000 33.4742 0.0000
# 6 0.0000 0.0000 0.0000 0.0000 0.0000 29.3527
#
#
#
# Elastic Compliance Matrix: (Units=1/GPa)
#
#
# Indices 1 2 3 4 5 6 
#
# 1 0.022097 -0.005597 -0.003048 0.000000 0.000000 0.000000
# 2 -0.005597 0.010844 -0.001512 0.000000 0.000000 0.000000
# 3 -0.003048 -0.001512 0.008576 0.000000 0.000000 0.000000
# 4 0.000000 0.000000 0.000000 0.046660 0.000000 0.000000
# 5 0.000000 0.000000 0.000000 0.000000 0.029874 0.000000
# 6 0.000000 0.000000 0.000000 0.000000 0.000000 0.034068
#
#
# Mechanical properties :
#
#
# Convention : Reuss Voigt Hill
#
# Bulk Modulus (GPa) = 47.16302 53.91794 50.54048
# Shear Modulus (GPa) = 27.85497 30.93978 29.39738
#
# Velocity S-wave (km/s) = 3.64957 3.84635 3.74925
# Velocity P-wave (km/s) = 6.34910 6.74594 6.55053
#
# Compressibility (1/GPa) = 0.02120305
#
# Stress axis : x y z
#
# Youngs Moduli (GPa) = 45.25516 92.21538 116.60405
#
# Poissons Ratio (x) = 0.51611 0.35544
# Poissons Ratio (y) = 0.25328 0.17630
# Poissons Ratio (z) = 0.13795 0.13943
#
# Static dielectric constant tensor:
#      x y z
#    x 3.592550 0.000000 0.000000 
#    y 0.000000 3.797030 0.000000 
#    z 0.000000 0.000000 4.263440 
# 
# 
# High freq. dielectric constant tensor:
#      x y z
#    x 1.806900 0.000000 0.000000 
#    y 0.000000 1.818310 0.000000 
#    z 0.000000 0.000000 1.836850 
# 
# From -- ./inp_files/16603.got.cif
#   From: 2010.03.12/outbox.cif.g09.slc.cpg/sg60_9_cif.got.tgz:16603.got - 2010.04.10 18:46:24.
