data_PCOD8248457
_publ_section_title
;
Structure prediction by ZEFSAII (Michael W. Deem and Ramdas Pophale) SiO2 
 PCOD8248457
Probable space group: P B C N
;
_chemical_formula_sum "Si O2"
_cell_formula_units_Z 32
_cell_length_a 12.303028
_cell_length_b 17.690751
_cell_length_c 6.748616
_cell_angle_alpha 90.000000
_cell_angle_beta 90.000000
_cell_angle_gamma 90.000000
_cell_volume 1468.834956
_symmetry_space_group_name_H-M "P B C N"
_symmetry_group_IT_number 60
_symmetry_cell_setting 'orthorhombic'
loop_
_space_group_symop_operation_xyz
x,y,z
1/2-x,1/2-y,1/2+z
1/2+x,1/2-y,-z
-x,y,1/2-z
-x,-y,-z
1/2+x,1/2+y,1/2-z
1/2-x,1/2+y,z
x,-y,1/2+z
loop_
_atom_site_type_symbol
_atom_site_label
_atom_site_fract_x
_atom_site_fract_y
_atom_site_fract_z
Si Si1 0.618511 0.445776 0.232011
Si Si2 0.201295 0.823669 0.524390
Si Si3 0.622549 0.829284 0.318888
Si Si4 0.261916 0.587125 0.404579
O O1 0.500000 0.485235 0.250000
O O2 0.614716 0.385301 0.054459
O O3 0.639457 0.402152 0.438703
O O4 0.717889 0.505189 0.196140
O O5 0.140625 0.744004 0.542908
O O6 0.303388 0.822333 0.376402
O O7 0.259559 0.652299 0.241832
O O8 0.500000 0.838506 0.250000
O O9 0.653471 0.901680 0.458691
#
# Coordination Sequence:
#
# PCOD8248457 Si02
#       4
#     8   8   8   8
#     4  11  24  39  71 105 136 178 220 292 353 390
#     4  11  24  43  66 101 135 171 232 280 335 415
#     4  11  26  45  69  97 137 186 223 279 343 403
#     4  11  23  43  63 101 138 170 228 276 334 417
#
# _framework density 21.785972999999998
#
# number of rings (size 3 to 8) (size 9 to 14) (size 15 to 20)
#    0.000    1.000    5.000    0.750    3.500    1.000 
#    0.000    5.000    0.000    0.000    0.000    0.000 
#    0.000    0.000    0.000    0.000    0.000    0.000 
#
# Total GULP energy -396443.310883 kJ/mol
# GULP energy per Si atom -12388.853465 kJ/mol
# Density = 2.173639 g / cm^3
# Si number density = 21.785973 Si / 1000 Ang^3
#
#
#
# Elastic Constant Matrix: (Units=GPa)
#
#
# Indices 1 2 3 4 5 6 
#
# 1 127.7782 57.1777 32.8798 0.0000 0.0000 0.0000
# 2 57.1777 103.3303 40.1262 0.0000 0.0000 0.0000
# 3 32.8798 40.1262 120.4804 0.0000 0.0000 0.0000
# 4 0.0000 0.0000 0.0000 48.9813 0.0000 0.0000
# 5 0.0000 0.0000 0.0000 0.0000 22.3145 0.0000
# 6 0.0000 0.0000 0.0000 0.0000 0.0000 23.9284
#
#
#
# Elastic Compliance Matrix: (Units=1/GPa)
#
#
# Indices 1 2 3 4 5 6 
#
# 1 0.010521 -0.005406 -0.001071 0.000000 0.000000 0.000000
# 2 -0.005406 0.013893 -0.003152 0.000000 0.000000 0.000000
# 3 -0.001071 -0.003152 0.009642 0.000000 0.000000 0.000000
# 4 0.000000 0.000000 0.000000 0.020416 0.000000 0.000000
# 5 0.000000 0.000000 0.000000 0.000000 0.044814 0.000000
# 6 0.000000 0.000000 0.000000 0.000000 0.000000 0.041791
#
#
# Mechanical properties :
#
#
# Convention : Reuss Voigt Hill
#
# Bulk Modulus (GPa) = 67.57239 67.99513 67.78376
# Shear Modulus (GPa) = 30.25425 33.80519 32.02972
#
# Velocity S-wave (km/s) = 3.73057 3.94343 3.83848
# Velocity P-wave (km/s) = 7.04557 7.21197 7.12925
#
# Compressibility (1/GPa) = 0.01479894
#
# Stress axis : x y z
#
# Youngs Moduli (GPa) = 95.05250 71.97928 103.71268
#
# Poissons Ratio (x) = 0.38910 0.11105
# Poissons Ratio (y) = 0.51383 0.32688
# Poissons Ratio (z) = 0.10177 0.22686
#
# Static dielectric constant tensor:
#      x y z
#    x 3.642550 0.000000 0.000000 
#    y 0.000000 3.936010 0.000000 
#    z 0.000000 0.000000 4.365880 
# 
# 
# High freq. dielectric constant tensor:
#      x y z
#    x 1.819690 0.000000 0.000000 
#    y 0.000000 1.850030 0.000000 
#    z 0.000000 0.000000 1.891160 
# 
# From -- ./inp_files/4693.got.cif
#   From: 2010.03.12/outbox.cif.g09.slc.cpg/sg60_3_cif.got.tgz:4693.got - 2010.04.10 18:46:24.
