data_PCOD8248592
_publ_section_title
;
Structure prediction by ZEFSAII (Michael W. Deem and Ramdas Pophale) SiO2 
 PCOD8248592
Probable space group: P B C N
;
_chemical_formula_sum "Si O2"
_cell_formula_units_Z 40
_cell_length_a 8.754957
_cell_length_b 20.620479
_cell_length_c 8.174014
_cell_angle_alpha 90.000000
_cell_angle_beta 90.000000
_cell_angle_gamma 90.000000
_cell_volume 1475.666248
_symmetry_space_group_name_H-M "P B C N"
_symmetry_group_IT_number 60
_symmetry_cell_setting 'orthorhombic'
loop_
_space_group_symop_operation_xyz
x,y,z
1/2-x,1/2-y,1/2+z
1/2+x,1/2-y,-z
-x,y,1/2-z
-x,-y,-z
1/2+x,1/2+y,1/2-z
1/2-x,1/2+y,z
x,-y,1/2+z
loop_
_atom_site_type_symbol
_atom_site_label
_atom_site_fract_x
_atom_site_fract_y
_atom_site_fract_z
Si Si1 0.145408 0.351107 0.656144
Si Si2 0.666741 0.327668 0.432335
Si Si3 0.664658 0.278508 0.080807
Si Si4 0.156471 0.947230 0.852008
Si Si5 0.600183 0.049050 0.596645
O O1 0.264507 0.296766 0.598040
O O2 0.215071 0.412599 0.747159
O O3 0.096086 0.380985 0.484191
O O4 0.000000 0.318920 0.750000
O O5 0.720294 0.320352 0.241148
O O6 0.781688 0.298245 0.576086
O O7 0.514896 0.284335 0.444287
O O8 0.633584 0.403010 0.482233
O O9 0.000000 0.954589 0.750000
O O10 0.226490 0.018718 0.887366
O O11 0.500000 0.064925 0.750000
O O12 0.500000 0.000000 0.500000
#
# Coordination Sequence:
#
# PCOD8248592 Si02
#       5
#     8   8   8   8   8
#     4  12  26  47  75 106 148 195 247 304 369 445
#     4  11  27  48  74 109 149 192 250 306 375 451
#     4  11  27  48  75 111 147 195 246 309 377 446
#     4  12  25  47  73 105 148 191 244 313 366 439
#     4  12  25  48  71 105 144 192 249 302 373 450
#
# _framework density 27.106401000000002
#
# number of rings (size 3 to 8) (size 9 to 14) (size 15 to 20)
#    0.000    0.400    6.000    1.200    8.400    0.800 
#    7.200    0.000    0.000    0.000    0.000    0.000 
#    0.000    0.000    0.000    0.000    0.000    0.000 
#
# Total GULP energy -495591.865231 kJ/mol
# GULP energy per Si atom -12389.796631 kJ/mol
# Density = 2.704471 g / cm^3
# Si number density = 27.106401 Si / 1000 Ang^3
#
#
#
# Elastic Constant Matrix: (Units=GPa)
#
#
# Indices 1 2 3 4 5 6 
#
# 1 131.9271 17.7509 47.0378 0.0000 0.0000 0.0000
# 2 17.7509 71.8621 16.5909 0.0000 0.0000 0.0000
# 3 47.0378 16.5909 127.8413 0.0000 0.0000 0.0000
# 4 0.0000 0.0000 0.0000 51.6781 0.0000 0.0000
# 5 0.0000 0.0000 0.0000 0.0000 58.1078 0.0000
# 6 0.0000 0.0000 0.0000 0.0000 0.0000 29.4381
#
#
#
# Elastic Compliance Matrix: (Units=1/GPa)
#
#
# Indices 1 2 3 4 5 6 
#
# 1 0.008875 -0.001483 -0.003073 0.000000 0.000000 0.000000
# 2 -0.001483 0.014593 -0.001348 0.000000 0.000000 0.000000
# 3 -0.003073 -0.001348 0.009128 0.000000 0.000000 0.000000
# 4 0.000000 0.000000 0.000000 0.019351 0.000000 0.000000
# 5 0.000000 0.000000 0.000000 0.000000 0.017209 0.000000
# 6 0.000000 0.000000 0.000000 0.000000 0.000000 0.033970
#
#
# Mechanical properties :
#
#
# Convention : Reuss Voigt Hill
#
# Bulk Modulus (GPa) = 48.10509 54.93219 51.51864
# Shear Modulus (GPa) = 41.02963 44.52821 42.77892
#
# Velocity S-wave (km/s) = 3.89479 4.05744 3.97695
# Velocity P-wave (km/s) = 6.16532 6.50076 6.33526
#
# Compressibility (1/GPa) = 0.02078782
#
# Stress axis : x y z
#
# Youngs Moduli (GPa) = 112.67430 68.52554 109.55455
#
# Poissons Ratio (x) = 0.10161 0.33667
# Poissons Ratio (y) = 0.16707 0.14771
# Poissons Ratio (z) = 0.34626 0.09239
#
# Static dielectric constant tensor:
#      x y z
#    x 4.967990 0.000000 0.000000 
#    y 0.000000 5.651990 0.000000 
#    z 0.000000 0.000000 5.570270 
# 
# 
# High freq. dielectric constant tensor:
#      x y z
#    x 2.091530 0.000000 0.000000 
#    y 0.000000 2.099390 0.000000 
#    z 0.000000 0.000000 2.118630 
# 
# From -- ./inp_files/4026.got.cif
#   From: 2010.03.12/outbox.cif.g09.slc.cpg/sg60_3_cif.got.tgz:4026.got - 2010.04.10 18:46:24.
