data_PCOD8248549
_publ_section_title
;
Structure prediction by ZEFSAII (Michael W. Deem and Ramdas Pophale) SiO2 
 PCOD8248549
Probable space group: P B C N
;
_chemical_formula_sum "Si O2"
_cell_formula_units_Z 48
_cell_length_a 5.197026
_cell_length_b 13.787085
_cell_length_c 29.851846
_cell_angle_alpha 90.000000
_cell_angle_beta 90.000000
_cell_angle_gamma 90.000000
_cell_volume 2138.939670
_symmetry_space_group_name_H-M "P B C N"
_symmetry_group_IT_number 60
_symmetry_cell_setting 'orthorhombic'
loop_
_space_group_symop_operation_xyz
x,y,z
1/2-x,1/2-y,1/2+z
1/2+x,1/2-y,-z
-x,y,1/2-z
-x,-y,-z
1/2+x,1/2+y,1/2-z
1/2-x,1/2+y,z
x,-y,1/2+z
loop_
_atom_site_type_symbol
_atom_site_label
_atom_site_fract_x
_atom_site_fract_y
_atom_site_fract_z
Si Si1 0.949599 0.888019 0.300192
Si Si2 0.999679 0.433936 0.069240
Si Si3 0.087506 0.227936 0.084934
Si Si4 0.571335 0.006763 0.667902
Si Si5 0.189542 0.917929 0.513601
Si Si6 0.437632 0.201847 0.359355
O O1 0.988677 0.796408 0.331749
O O2 0.000000 0.850790 0.250000
O O3 0.169412 0.966984 0.306907
O O4 0.673140 0.937887 0.310330
O O5 0.178331 0.340249 0.078908
O O6 0.876559 0.467136 0.115863
O O7 0.114418 0.530432 0.047698
O O8 0.805295 0.383521 0.033717
O O9 0.047831 0.172262 0.037542
O O10 0.332099 0.176641 0.106899
O O11 0.832648 0.217948 0.115223
O O12 0.561480 0.890721 0.673591
O O13 0.000000 0.000000 0.500000
#
# Coordination Sequence:
#
# PCOD8248549 Si02
#       6
#     8   8   8   8   8   8
#     4  12  27  48  75 109 140 179 237 298 366 434
#     4  11  25  44  67 102 143 187 238 293 345 413
#     4  12  26  43  73 101 140 193 240 283 358 406
#     4  12  25  48  77 103 143 192 231 291 364 432
#     4  11  27  42  66 103 144 190 241 297 334 419
#     4  12  25  47  74 105 138 188 234 294 351 435
#
# _framework density 22.441026999999998
#
# number of rings (size 3 to 8) (size 9 to 14) (size 15 to 20)
#    0.000    0.333    5.000    2.500    9.333    1.333 
#    0.000    0.000    0.000    0.000    0.000    0.000 
#    0.000    0.000    0.000    0.000    0.000    0.000 
#
# Total GULP energy -594838.125524 kJ/mol
# GULP energy per Si atom -12392.460948 kJ/mol
# Density = 2.238995 g / cm^3
# Si number density = 22.441027 Si / 1000 Ang^3
#
#
#
# Elastic Constant Matrix: (Units=GPa)
#
#
# Indices 1 2 3 4 5 6 
#
# 1 99.5455 4.1593 23.6353 0.0000 0.0000 0.0000
# 2 4.1593 89.3341 -3.0529 0.0000 0.0000 0.0000
# 3 23.6353 -3.0529 92.1673 0.0000 0.0000 0.0000
# 4 0.0000 0.0000 0.0000 21.2440 0.0000 0.0000
# 5 0.0000 0.0000 0.0000 0.0000 22.4752 0.0000
# 6 0.0000 0.0000 0.0000 0.0000 0.0000 26.5796
#
#
#
# Elastic Compliance Matrix: (Units=1/GPa)
#
#
# Indices 1 2 3 4 5 6 
#
# 1 0.010728 -0.000594 -0.002771 0.000000 0.000000 0.000000
# 2 -0.000594 0.011240 0.000525 0.000000 0.000000 0.000000
# 3 -0.002771 0.000525 0.011578 0.000000 0.000000 0.000000
# 4 0.000000 0.000000 0.000000 0.047072 0.000000 0.000000
# 5 0.000000 0.000000 0.000000 0.000000 0.044493 0.000000
# 6 0.000000 0.000000 0.000000 0.000000 0.000000 0.037623
#
#
# Mechanical properties :
#
#
# Convention : Reuss Voigt Hill
#
# Bulk Modulus (GPa) = 35.88744 36.72560 36.30652
# Shear Modulus (GPa) = 28.13679 31.14676 29.64178
#
# Velocity S-wave (km/s) = 3.54476 3.72955 3.63833
# Velocity P-wave (km/s) = 5.72541 5.91159 5.81925
#
# Compressibility (1/GPa) = 0.02786490
#
# Stress axis : x y z
#
# Youngs Moduli (GPa) = 93.21074 88.97166 86.37239
#
# Poissons Ratio (x) = 0.05287 0.23933
# Poissons Ratio (y) = 0.05539 -0.04532
# Poissons Ratio (z) = 0.25827 -0.04668
#
# Static dielectric constant tensor:
#      x y z
#    x 3.895170 0.000000 0.000000 
#    y 0.000000 3.883720 0.000000 
#    z 0.000000 0.000000 4.115140 
# 
# 
# High freq. dielectric constant tensor:
#      x y z
#    x 1.880150 0.000000 0.000000 
#    y 0.000000 1.904370 0.000000 
#    z 0.000000 0.000000 1.887370 
# 
# From -- ./inp_files/25660.got.cif
#   From: 2010.03.12/outbox.cif.g09.slc.cpg/sg60_13_cif.got.tgz:25660.got - 2010.04.10 18:46:24.
