data_PCOD8248728
_publ_section_title
;
Structure prediction by ZEFSAII (Michael W. Deem and Ramdas Pophale) SiO2 
 PCOD8248728
Probable space group: P B C A
;
_chemical_formula_sum "Si O2"
_cell_formula_units_Z 48
_cell_length_a 16.392638
_cell_length_b 8.502145
_cell_length_c 18.439388
_cell_angle_alpha 90.000000
_cell_angle_beta 90.000000
_cell_angle_gamma 90.000000
_cell_volume 2569.945175
_symmetry_space_group_name_H-M "P B C A"
_symmetry_group_IT_number 61
_symmetry_cell_setting 'orthorhombic'
loop_
_space_group_symop_operation_xyz
x,y,z
1/2-x,-y,1/2+z
1/2+x,1/2-y,-z
-x,1/2+y,1/2-z
-x,-y,-z
1/2+x,y,1/2-z
1/2-x,1/2+y,z
x,1/2-y,1/2+z
loop_
_atom_site_type_symbol
_atom_site_label
_atom_site_fract_x
_atom_site_fract_y
_atom_site_fract_z
Si Si1 0.088124 0.307797 0.793015
Si Si2 0.498801 0.310112 0.081118
Si Si3 0.324718 0.690717 0.665878
Si Si4 0.020527 0.320434 0.584232
Si Si5 0.434559 0.178455 0.790222
Si Si6 0.345603 0.321149 0.664530
O O1 0.169210 0.256324 0.749276
O O2 0.079184 0.493571 0.790500
O O3 0.080638 0.246643 0.875805
O O4 0.017819 0.216095 0.750375
O O5 0.485527 0.493648 0.092159
O O6 0.419899 0.219477 0.111224
O O7 0.511992 0.263584 0.998081
O O8 0.391752 0.769844 0.614225
O O9 0.334548 0.505840 0.664513
O O10 0.236030 0.737248 0.635492
O O11 0.944742 0.242626 0.627916
O O12 0.361630 0.263029 0.747017
#
# Coordination Sequence:
#
# PCOD8248728 Si02
#       6
#     8   8   8   8   8   8
#     4  10  18  31  52  76 102 133 172 211 252 304
#     4  10  20  35  55  79 108 141 177 215 259 313
#     4  11  21  35  55  78 106 137 175 220 266 313
#     4  10  20  35  55  79 108 141 177 215 259 313
#     4  10  18  31  52  76 102 133 172 211 252 304
#     4  11  21  35  55  78 106 137 175 220 266 313
#
# _framework density 18.677441999999999
#
# number of rings (size 3 to 8) (size 9 to 14) (size 15 to 20)
#    0.000    1.667    0.000   11.000    0.000    2.667 
#    0.000    1.667    0.000    8.000    0.000    0.000 
#    0.000    0.000    0.000    0.000    0.000    0.000 
#
# Total GULP energy -595046.486784 kJ/mol
# GULP energy per Si atom -12396.801808 kJ/mol
# Density = 1.863493 g / cm^3
# Si number density = 18.677442 Si / 1000 Ang^3
#
#
#
# Elastic Constant Matrix: (Units=GPa)
#
#
# Indices 1 2 3 4 5 6 
#
# 1 64.4058 -6.2358 30.2137 0.0000 0.0000 0.0000
# 2 -6.2358 49.3021 24.0745 0.0000 0.0000 0.0000
# 3 30.2137 24.0745 131.1305 0.0000 0.0000 0.0000
# 4 0.0000 0.0000 0.0000 33.2136 0.0000 0.0000
# 5 0.0000 0.0000 0.0000 0.0000 18.0129 0.0000
# 6 0.0000 0.0000 0.0000 0.0000 0.0000 44.4537
#
#
#
# Elastic Compliance Matrix: (Units=1/GPa)
#
#
# Indices 1 2 3 4 5 6 
#
# 1 0.018399 0.004830 -0.005126 0.000000 0.000000 0.000000
# 2 0.004830 0.023549 -0.005436 0.000000 0.000000 0.000000
# 3 -0.005126 -0.005436 0.009805 0.000000 0.000000 0.000000
# 4 0.000000 0.000000 0.000000 0.030108 0.000000 0.000000
# 5 0.000000 0.000000 0.000000 0.000000 0.055516 0.000000
# 6 0.000000 0.000000 0.000000 0.000000 0.000000 0.022495
#
#
# Mechanical properties :
#
#
# Convention : Reuss Voigt Hill
#
# Bulk Modulus (GPa) = 24.82098 37.88257 31.35178
# Shear Modulus (GPa) = 27.06128 32.25509 29.65819
#
# Velocity S-wave (km/s) = 3.81054 4.16017 3.98919
# Velocity P-wave (km/s) = 5.71650 6.58807 6.16770
#
# Compressibility (1/GPa) = 0.04028849
#
# Stress axis : x y z
#
# Youngs Moduli (GPa) = 54.35092 42.46532 101.98728
#
# Poissons Ratio (x) = -0.20512 0.52280
# Poissons Ratio (y) = -0.26253 0.55443
# Poissons Ratio (z) = 0.27861 0.23085
#
# Static dielectric constant tensor:
#      x y z
#    x 3.620410 0.000000 0.000000 
#    y 0.000000 3.522160 0.000000 
#    z 0.000000 0.000000 3.854110 
# 
# 
# High freq. dielectric constant tensor:
#      x y z
#    x 1.702880 0.000000 0.000000 
#    y 0.000000 1.749660 0.000000 
#    z 0.000000 0.000000 1.719050 
# 
# From -- ./inp_files/9616.got.cif
#   From: 2010.03.12/outbox.cif.g09.slc.cpg/sg61_5_cif.got.tgz:9616.got - 2010.04.10 19:05:03.
