data_PCOD8248712
_publ_section_title
;
Structure prediction by ZEFSAII (Michael W. Deem and Ramdas Pophale) SiO2 
 PCOD8248712
Probable space group: P B C A
;
_chemical_formula_sum "Si O2"
_cell_formula_units_Z 64
_cell_length_a 9.927491
_cell_length_b 16.100525
_cell_length_c 20.872253
_cell_angle_alpha 90.000000
_cell_angle_beta 90.000000
_cell_angle_gamma 90.000000
_cell_volume 3336.175356
_symmetry_space_group_name_H-M "P B C A"
_symmetry_group_IT_number 61
_symmetry_cell_setting 'orthorhombic'
loop_
_space_group_symop_operation_xyz
x,y,z
1/2-x,-y,1/2+z
1/2+x,1/2-y,-z
-x,1/2+y,1/2-z
-x,-y,-z
1/2+x,y,1/2-z
1/2-x,1/2+y,z
x,1/2-y,1/2+z
loop_
_atom_site_type_symbol
_atom_site_label
_atom_site_fract_x
_atom_site_fract_y
_atom_site_fract_z
Si Si1 0.012110 0.830811 0.973635
Si Si2 0.476277 0.184495 0.069465
Si Si3 0.913663 0.443076 0.416215
Si Si4 0.793970 0.966119 0.119503
Si Si5 0.702053 0.191711 0.706130
Si Si6 0.254265 0.348878 0.878797
Si Si7 0.747925 0.418905 0.974498
Si Si8 0.900413 0.199361 0.821639
O O1 0.099484 0.831834 0.909343
O O2 0.850842 0.838981 0.963106
O O3 0.048841 0.750707 0.013986
O O4 0.047418 0.914359 0.012350
O O5 0.634856 0.164890 0.070146
O O6 0.397047 0.102599 0.049092
O O7 0.421831 0.215252 0.138818
O O8 0.798713 0.510800 0.424723
O O9 0.857804 0.368820 0.373552
O O10 0.045385 0.477943 0.380779
O O11 0.748593 0.888185 0.164291
O O12 0.739661 0.055213 0.145841
O O13 0.741358 0.947275 0.048102
O O14 0.737709 0.280630 0.675869
O O15 0.775620 0.197392 0.773777
O O16 0.541092 0.181624 0.715429
#
# Coordination Sequence:
#
# PCOD8248712 Si02
#       8
#     8   8   8   8   8   8   8   8
#     4  10  17  34  58  79 109 153 184 212 278 343
#     4  10  22  33  53  85 118 145 175 239 280 326
#     4   9  17  35  59  79 110 144 184 234 266 336
#     4  10  19  37  60  86 111 149 189 224 284 340
#     4  10  22  41  60  79 109 152 192 239 274 333
#     4  11  20  37  57  82 118 146 183 230 282 333
#     4  11  18  34  57  88 115 141 186 224 278 349
#     4   9  21  42  56  76 109 148 196 230 281 320
#
# _framework density 19.183644000000001
#
# number of rings (size 3 to 8) (size 9 to 14) (size 15 to 20)
#    0.000    2.000    2.500    4.500    0.000    1.500 
#    4.500    3.750    0.000    0.000    0.000    0.000 
#    0.000    0.000    0.000    0.000    0.000    0.000 
#
# Total GULP energy -793171.923984 kJ/mol
# GULP energy per Si atom -12393.311312 kJ/mol
# Density = 1.913998 g / cm^3
# Si number density = 19.183644 Si / 1000 Ang^3
#
#
#
# Elastic Constant Matrix: (Units=GPa)
#
#
# Indices 1 2 3 4 5 6 
#
# 1 24.2343 0.6250 1.1184 0.0000 0.0000 0.0000
# 2 0.6250 96.4674 9.8122 0.0000 0.0000 0.0000
# 3 1.1184 9.8122 42.8086 0.0000 0.0000 0.0000
# 4 0.0000 0.0000 0.0000 13.0657 0.0000 0.0000
# 5 0.0000 0.0000 0.0000 0.0000 30.8801 0.0000
# 6 0.0000 0.0000 0.0000 0.0000 0.0000 32.1543
#
#
#
# Elastic Compliance Matrix: (Units=1/GPa)
#
#
# Indices 1 2 3 4 5 6 
#
# 1 0.041316 -0.000162 -0.001042 0.000000 0.000000 0.000000
# 2 -0.000162 0.010614 -0.002429 0.000000 0.000000 0.000000
# 3 -0.001042 -0.002429 0.023944 0.000000 0.000000 0.000000
# 4 0.000000 0.000000 0.000000 0.076536 0.000000 0.000000
# 5 0.000000 0.000000 0.000000 0.000000 0.032383 0.000000
# 6 0.000000 0.000000 0.000000 0.000000 0.000000 0.031100
#
#
# Mechanical properties :
#
#
# Convention : Reuss Voigt Hill
#
# Bulk Modulus (GPa) = 14.57542 20.73573 17.65557
# Shear Modulus (GPa) = 20.32284 25.35032 22.83658
#
# Velocity S-wave (km/s) = 3.25835 3.63913 3.45399
# Velocity P-wave (km/s) = 4.66584 5.33762 5.01300
#
# Compressibility (1/GPa) = 0.06860867
#
# Stress axis : x y z
#
# Youngs Moduli (GPa) = 24.20361 94.21269 41.76464
#
# Poissons Ratio (x) = 0.01523 0.04353
# Poissons Ratio (y) = 0.00391 0.10143
# Poissons Ratio (z) = 0.02523 0.22881
#
# Static dielectric constant tensor:
#      x y z
#    x 3.460080 0.000000 0.000000 
#    y 0.000000 3.634600 0.000000 
#    z 0.000000 0.000000 3.212810 
# 
# 
# High freq. dielectric constant tensor:
#      x y z
#    x 1.738620 0.000000 0.000000 
#    y 0.000000 1.753690 0.000000 
#    z 0.000000 0.000000 1.716720 
# 
# From -- ./inp_files/10913.got.cif
#   From: 2010.03.12/outbox.cif.g09.slc.cpg/sg61_6_cif.got.tgz:10913.got - 2010.04.10 19:05:03.
