data_PCOD8248954
_publ_section_title
;
Structure prediction by ZEFSAII (Michael W. Deem and Ramdas Pophale) SiO2 
 PCOD8248954
Probable space group: P B C A
;
_chemical_formula_sum "Si O2"
_cell_formula_units_Z 64
_cell_length_a 27.636511
_cell_length_b 5.170078
_cell_length_c 21.327728
_cell_angle_alpha 90.000000
_cell_angle_beta 90.000000
_cell_angle_gamma 90.000000
_cell_volume 3047.368001
_symmetry_space_group_name_H-M "P B C A"
_symmetry_group_IT_number 61
_symmetry_cell_setting 'orthorhombic'
loop_
_space_group_symop_operation_xyz
x,y,z
1/2-x,-y,1/2+z
1/2+x,1/2-y,-z
-x,1/2+y,1/2-z
-x,-y,-z
1/2+x,y,1/2-z
1/2-x,1/2+y,z
x,1/2-y,1/2+z
loop_
_atom_site_type_symbol
_atom_site_label
_atom_site_fract_x
_atom_site_fract_y
_atom_site_fract_z
Si Si1 0.111525 0.363293 0.934590
Si Si2 0.877711 0.446730 0.880038
Si Si3 0.463595 0.009167 0.840377
Si Si4 0.779913 0.886356 0.554121
Si Si5 0.221525 0.138939 0.593515
Si Si6 0.459256 0.827019 0.603452
Si Si7 0.054585 0.802222 0.209494
Si Si8 0.592708 0.859105 0.487036
O O1 0.077915 0.335121 0.872810
O O2 0.167093 0.417923 0.914599
O O3 0.087500 0.604507 0.971040
O O4 0.112829 0.094803 0.972178
O O5 0.828078 0.596783 0.868586
O O6 0.917851 0.622422 0.915413
O O7 0.898604 0.358763 0.813048
O O8 0.869954 0.207042 0.929356
O O9 0.504448 0.832779 0.809397
O O10 0.487565 0.199426 0.892848
O O11 0.439758 0.171874 0.783922
O O12 0.753363 0.625192 0.575841
O O13 0.789028 0.886451 0.479950
O O14 0.259363 0.918183 0.613892
O O15 0.445885 0.924854 0.673411
O O16 0.457300 0.052986 0.549701
#
# Coordination Sequence:
#
# PCOD8248954 Si02
#       8
#     8   8   8   8   8   8   8   8
#     4  12  25  38  64  92 131 160 206 253 304 384
#     4  10  21  39  63  87 126 167 195 259 311 359
#     4  11  24  41  63  92 118 163 217 259 301 366
#     4  10  20  36  57  86 123 164 197 241 300 367
#     4  10  21  32  59  91 122 157 203 247 299 367
#     4  10  21  40  64  85 125 168 199 257 305 372
#     4  10  22  41  63  85 121 160 217 257 306 360
#     4  11  22  39  58  93 131 160 194 241 317 373
#
# _framework density 21.001728
#
# number of rings (size 3 to 8) (size 9 to 14) (size 15 to 20)
#    0.000    1.500    3.750    0.750    8.750    1.000 
#    0.000    0.000    0.000    1.500    0.000    0.000 
#    0.000    0.000    0.000    0.000    0.000    0.000 
#
# Total GULP energy -793285.093999 kJ/mol
# GULP energy per Si atom -12395.079594 kJ/mol
# Density = 2.095393 g / cm^3
# Si number density = 21.001728 Si / 1000 Ang^3
#
#
#
# Elastic Constant Matrix: (Units=GPa)
#
#
# Indices 1 2 3 4 5 6 
#
# 1 73.6883 0.2190 25.6880 0.0000 0.0000 0.0000
# 2 0.2190 84.7933 14.7473 0.0000 0.0000 0.0000
# 3 25.6880 14.7473 53.0917 0.0000 0.0000 0.0000
# 4 0.0000 0.0000 0.0000 18.9760 0.0000 0.0000
# 5 0.0000 0.0000 0.0000 0.0000 15.9765 0.0000
# 6 0.0000 0.0000 0.0000 0.0000 0.0000 23.8581
#
#
#
# Elastic Compliance Matrix: (Units=1/GPa)
#
#
# Indices 1 2 3 4 5 6 
#
# 1 0.016484 0.001413 -0.008368 0.000000 0.000000 0.000000
# 2 0.001413 0.012513 -0.004159 0.000000 0.000000 0.000000
# 3 -0.008368 -0.004159 0.024039 0.000000 0.000000 0.000000
# 4 0.000000 0.000000 0.000000 0.052698 0.000000 0.000000
# 5 0.000000 0.000000 0.000000 0.000000 0.062592 0.000000
# 6 0.000000 0.000000 0.000000 0.000000 0.000000 0.041914
#
#
# Mechanical properties :
#
#
# Convention : Reuss Voigt Hill
#
# Bulk Modulus (GPa) = 32.45992 32.54243 32.50117
# Shear Modulus (GPa) = 20.59831 23.15674 21.87753
#
# Velocity S-wave (km/s) = 3.13516 3.32416 3.23104
# Velocity P-wave (km/s) = 5.34743 5.50111 5.42481
#
# Compressibility (1/GPa) = 0.03080723
#
# Stress axis : x y z
#
# Youngs Moduli (GPa) = 60.66650 79.91603 41.59833
#
# Poissons Ratio (x) = -0.11290 0.34809
# Poissons Ratio (y) = -0.08571 0.17302
# Poissons Ratio (z) = 0.50765 0.33240
#
# Static dielectric constant tensor:
#      x y z
#    x 3.660950 0.000000 0.000000 
#    y 0.000000 4.086320 0.000000 
#    z 0.000000 0.000000 3.486840 
# 
# 
# High freq. dielectric constant tensor:
#      x y z
#    x 1.808210 0.000000 0.000000 
#    y 0.000000 1.841140 0.000000 
#    z 0.000000 0.000000 1.776740 
# 
# From -- ./inp_files/11186.got.cif
#   From: 2010.03.12/outbox.cif.g09.slc.cpg/sg61_6_cif.got.tgz:11186.got - 2010.04.10 19:05:03.
