data_PCOD8248740
_publ_section_title
;
Structure prediction by ZEFSAII (Michael W. Deem and Ramdas Pophale) SiO2 
 PCOD8248740
Probable space group: P B C A
;
_chemical_formula_sum "Si O2"
_cell_formula_units_Z 64
_cell_length_a 19.555811
_cell_length_b 8.621565
_cell_length_c 20.157480
_cell_angle_alpha 90.000000
_cell_angle_beta 90.000000
_cell_angle_gamma 90.000000
_cell_volume 3398.585308
_symmetry_space_group_name_H-M "P B C A"
_symmetry_group_IT_number 61
_symmetry_cell_setting 'orthorhombic'
loop_
_space_group_symop_operation_xyz
x,y,z
1/2-x,-y,1/2+z
1/2+x,1/2-y,-z
-x,1/2+y,1/2-z
-x,-y,-z
1/2+x,y,1/2-z
1/2-x,1/2+y,z
x,1/2-y,1/2+z
loop_
_atom_site_type_symbol
_atom_site_label
_atom_site_fract_x
_atom_site_fract_y
_atom_site_fract_z
Si Si1 0.424514 0.967083 0.390738
Si Si2 0.002900 0.825617 0.580497
Si Si3 0.843889 0.358612 0.869389
Si Si4 0.011056 0.579371 0.825718
Si Si5 0.160871 0.381343 0.506752
Si Si6 0.526709 0.286455 0.937423
Si Si7 0.583273 0.636217 0.239068
Si Si8 0.741222 0.379616 0.430806
O O1 0.481044 0.832645 0.382018
O O2 0.359975 0.899124 0.430241
O O3 0.459569 0.107601 0.431053
O O4 0.394022 0.029639 0.322099
O O5 0.084517 0.845807 0.590937
O O6 0.983854 0.822648 0.502389
O O7 0.959529 0.965694 0.615938
O O8 0.854994 0.344508 0.790344
O O9 0.809451 0.524121 0.883846
O O10 0.790404 0.225109 0.886444
O O11 0.062728 0.690675 0.785888
O O12 0.960731 0.690858 0.869088
O O13 0.976849 0.461086 0.774328
O O14 0.093165 0.393777 0.552726
O O15 0.195641 0.215948 0.517581
O O16 0.212955 0.514964 0.523145
#
# Coordination Sequence:
#
# PCOD8248740 Si02
#       8
#     8   8   8   8   8   8   8   8
#     4  10  20  34  56  82 111 137 167 218 277 327
#     4  10  18  33  56  84 110 134 168 222 280 321
#     4  10  20  36  54  75 105 139 179 222 256 314
#     4  10  20  31  51  80 111 136 165 209 263 328
#     4  10  19  35  54  79 105 134 175 220 264 313
#     4  10  19  33  57  85 107 134 173 224 279 319
#     4  10  20  35  50  75 107 140 170 204 260 320
#     4  10  21  35  55  76 100 140 184 221 259 298
#
# _framework density 18.831365000000002
#
# number of rings (size 3 to 8) (size 9 to 14) (size 15 to 20)
#    0.000    2.000    0.000    6.375    0.000    2.000 
#    0.000    6.250    0.000    0.000    0.000    0.000 
#    0.000    0.000    0.000    0.000    0.000    0.000 
#
# Total GULP energy -793047.793620 kJ/mol
# GULP energy per Si atom -12391.371775 kJ/mol
# Density = 1.878850 g / cm^3
# Si number density = 18.831365 Si / 1000 Ang^3
#
#
#
# Elastic Constant Matrix: (Units=GPa)
#
#
# Indices 1 2 3 4 5 6 
#
# 1 92.4265 44.5450 52.8797 0.0000 0.0000 0.0000
# 2 44.5450 120.2532 52.7949 0.0000 0.0000 0.0000
# 3 52.8797 52.7949 107.0854 0.0000 0.0000 0.0000
# 4 0.0000 0.0000 0.0000 35.9562 0.0000 0.0000
# 5 0.0000 0.0000 0.0000 0.0000-1575.2566 0.0000
# 6 0.0000 0.0000 0.0000 0.0000 0.0000 -117.4814
#
#
#
# Elastic Compliance Matrix: (Units=1/GPa)
#
#
# Indices 1 2 3 4 5 6 
#
# 1 0.015951 -0.003128 -0.006335 0.000000 0.000000 0.000000
# 2 -0.003128 0.011226 -0.003990 0.000000 0.000000 0.000000
# 3 -0.006335 -0.003990 0.014434 0.000000 0.000000 0.000000
# 4 0.000000 0.000000 0.000000 0.027812 0.000000 0.000000
# 5 0.000000 0.000000 0.000000 0.000000 -0.000635 0.000000
# 6 0.000000 0.000000 0.000000 0.000000 0.000000 -0.008512
#
#
# Mechanical properties :
#
#
# Convention : Reuss Voigt Hill
#
# Bulk Modulus (GPa) = 68.00068 68.91158 68.45613
# Shear Modulus (GPa) = 54.29878 -320.05334 -132.87728
#
# Velocity S-wave (km/s) = 5.37558 -13.05092 -8.40921
# Velocity P-wave (km/s) = 8.64395 13.79959 7.60627
#
# Compressibility (1/GPa) = 0.01470574
#
# Stress axis : x y z
#
# Youngs Moduli (GPa) = 62.69180 89.07765 69.28166
#
# Poissons Ratio (x) = 0.27859 0.43889
# Poissons Ratio (y) = 0.19607 0.27645
# Poissons Ratio (z) = 0.39714 0.35545
#
# Static dielectric constant tensor:
#      x y z
#    x 3.255930 0.000000 0.000000 
#    y 0.000000 3.836330 0.000000 
#    z 0.000000 0.000000 3.568420 
# 
# 
# High freq. dielectric constant tensor:
#      x y z
#    x 1.699620 0.000000 0.000000 
#    y 0.000000 1.754010 0.000000 
#    z 0.000000 0.000000 1.732220 
# 
# From -- ./inp_files/10530.got.cif
#   From: 2010.03.12/outbox.cif.g09.slc.cpg/sg61_6_cif.got.tgz:10530.got - 2010.04.10 19:05:03.
