data_PCOD8248115
_publ_section_title
;
Structure prediction by ZEFSAII (Michael W. Deem and Ramdas Pophale) SiO2 
 PCOD8248115
Probable space group: P B C N
;
_chemical_formula_sum "Si O2"
_cell_formula_units_Z 44
_cell_length_a 24.504372
_cell_length_b 9.996399
_cell_length_c 8.536718
_cell_angle_alpha 90.000000
_cell_angle_beta 90.000000
_cell_angle_gamma 90.000000
_cell_volume 2091.115853
_symmetry_space_group_name_H-M "P B C N"
_symmetry_group_IT_number 60
_symmetry_cell_setting 'orthorhombic'
loop_
_space_group_symop_operation_xyz
x,y,z
1/2-x,1/2-y,1/2+z
1/2+x,1/2-y,-z
-x,y,1/2-z
-x,-y,-z
1/2+x,1/2+y,1/2-z
1/2-x,1/2+y,z
x,-y,1/2+z
loop_
_atom_site_type_symbol
_atom_site_label
_atom_site_fract_x
_atom_site_fract_y
_atom_site_fract_z
Si Si1 0.500000 0.028826 0.750000
Si Si2 0.905120 0.820344 0.015187
Si Si3 0.789530 0.823927 0.898987
Si Si4 0.982134 0.686887 0.478355
Si Si5 0.594582 0.592378 0.868122
Si Si6 0.207303 0.111956 0.468795
O O1 0.537385 0.128650 0.645654
O O2 0.535733 0.929987 0.857987
O O3 0.895302 0.884193 0.185790
O O4 0.951808 0.706908 0.017680
O O5 0.847658 0.761642 0.953765
O O6 0.921509 0.938439 0.894825
O O7 0.789871 0.859777 0.715542
O O8 0.745073 0.712337 0.934081
O O9 0.775758 0.958740 0.996259
O O10 0.956704 0.825578 0.431029
O O11 0.646587 0.636929 0.968127
#
# Coordination Sequence:
#
# PCOD8248115 Si02
#       6
#     4   8   8   8   8   8
#     4  10  24  42  58  84 132 166 198 252 288 378
#     4  11  22  39  64  92 122 158 207 257 302 361
#     4  11  23  43  65  94 125 163 208 259 310 369
#     4  11  23  42  61  88 126 162 206 243 311 357
#     4  11  22  39  64  92 122 158 207 257 302 361
#     4  11  23  43  65  94 125 163 208 259 310 369
#
# _framework density 21.041397
#
# number of rings (size 3 to 8) (size 9 to 14) (size 15 to 20)
#    0.000    1.091    1.818    7.091    5.091    0.000 
#    6.545    0.000    0.000    0.000    0.000    0.000 
#    0.000    0.000    0.000    0.000    0.000    0.000 
#
# Total GULP energy -545408.966533 kJ/mol
# GULP energy per Si atom -12395.658330 kJ/mol
# Density = 2.099351 g / cm^3
# Si number density = 21.041397 Si / 1000 Ang^3
#
#
#
# Elastic Constant Matrix: (Units=GPa)
#
#
# Indices 1 2 3 4 5 6 
#
# 1 75.3456 33.8918 24.0902 0.0000 0.0000 0.0000
# 2 33.8918 66.4762 21.1088 0.0000 0.0000 0.0000
# 3 24.0902 21.1088 122.2496 0.0000 0.0000 0.0000
# 4 0.0000 0.0000 0.0000 32.7601 0.0000 0.0000
# 5 0.0000 0.0000 0.0000 0.0000 23.0501 0.0000
# 6 0.0000 0.0000 0.0000 0.0000 0.0000 26.2305
#
#
#
# Elastic Compliance Matrix: (Units=1/GPa)
#
#
# Indices 1 2 3 4 5 6 
#
# 1 0.017690 -0.008371 -0.002041 0.000000 0.000000 0.000000
# 2 -0.008371 0.019877 -0.001783 0.000000 0.000000 0.000000
# 3 -0.002041 -0.001783 0.008890 0.000000 0.000000 0.000000
# 4 0.000000 0.000000 0.000000 0.030525 0.000000 0.000000
# 5 0.000000 0.000000 0.000000 0.000000 0.043384 0.000000
# 6 0.000000 0.000000 0.000000 0.000000 0.000000 0.038124
#
#
# Mechanical properties :
#
#
# Convention : Reuss Voigt Hill
#
# Bulk Modulus (GPa) = 45.31338 46.91698 46.11518
# Shear Modulus (GPa) = 26.28350 28.74018 27.51184
#
# Velocity S-wave (km/s) = 3.53814 3.69980 3.61987
# Velocity P-wave (km/s) = 6.18655 6.37160 6.27975
#
# Compressibility (1/GPa) = 0.02206854
#
# Stress axis : x y z
#
# Youngs Moduli (GPa) = 56.52897 50.30977 112.48743
#
# Poissons Ratio (x) = 0.42115 0.22953
# Poissons Ratio (y) = 0.47321 0.20051
# Poissons Ratio (z) = 0.11535 0.08968
#
# Static dielectric constant tensor:
#      x y z
#    x 3.653820 0.000000 0.000000 
#    y 0.000000 3.847170 0.000000 
#    z 0.000000 0.000000 4.218960 
# 
# 
# High freq. dielectric constant tensor:
#      x y z
#    x 1.800460 0.000000 0.000000 
#    y 0.000000 1.827110 0.000000 
#    z 0.000000 0.000000 1.855670 
# 
# From -- ./inp_files/8356.got.cif
#   From: 2010.03.12/outbox.cif.g09.slc.cpg/sg60_5_cif.got.tgz:8356.got - 2010.04.10 18:46:24.
