data_PCOD8248537
_publ_section_title
;
Structure prediction by ZEFSAII (Michael W. Deem and Ramdas Pophale) SiO2 
 PCOD8248537
Probable space group: P B C N
;
_chemical_formula_sum "Si O2"
_cell_formula_units_Z 40
_cell_length_a 5.021589
_cell_length_b 13.413462
_cell_length_c 27.657863
_cell_angle_alpha 90.000000
_cell_angle_beta 90.000000
_cell_angle_gamma 90.000000
_cell_volume 1862.947725
_symmetry_space_group_name_H-M "P B C N"
_symmetry_group_IT_number 60
_symmetry_cell_setting 'orthorhombic'
loop_
_space_group_symop_operation_xyz
x,y,z
1/2-x,1/2-y,1/2+z
1/2+x,1/2-y,-z
-x,y,1/2-z
-x,-y,-z
1/2+x,1/2+y,1/2-z
1/2-x,1/2+y,z
x,-y,1/2+z
loop_
_atom_site_type_symbol
_atom_site_label
_atom_site_fract_x
_atom_site_fract_y
_atom_site_fract_z
Si Si1 0.500000 0.734451 0.250000
Si Si2 0.006918 0.740797 0.034210
Si Si3 0.987666 0.476310 0.943412
Si Si4 0.487188 0.576836 0.898305
Si Si5 0.288676 0.413028 0.293136
Si Si6 0.500000 0.908067 0.750000
O O1 0.250097 0.663165 0.233419
O O2 0.605295 0.811882 0.208416
O O3 0.009351 0.640283 0.063961
O O4 0.006707 0.816875 0.077551
O O5 0.257861 0.751620 0.000319
O O6 0.736663 0.513958 0.914501
O O7 0.235471 0.520968 0.917488
O O8 0.000000 0.500000 0.000000
O O9 0.466596 0.588506 0.841017
O O10 0.500000 0.412711 0.250000
O O11 0.107154 0.514626 0.291467
#
# Coordination Sequence:
#
# PCOD8248537 Si02
#       6
#     4   8   8   8   8   4
#     4  11  24  47  80 100 146 197 246 309 376 428
#     4  12  23  44  71 100 141 183 231 296 353 423
#     4  12  24  44  73 101 144 186 237 296 359 427
#     4  12  27  45  72 105 140 192 238 287 374 432
#     4  11  27  49  75 107 154 191 249 314 362 449
#     4  11  24  47  76 102 144 197 242 307 382 424
#
# _framework density 21.471350000000001
#
# number of rings (size 3 to 8) (size 9 to 14) (size 15 to 20)
#    0.000    0.400    6.000    1.800    5.600    1.600 
#    3.600    0.000    0.000    0.000    0.000    0.000 
#    0.000    0.000    0.000    0.000    0.000    0.000 
#
# Total GULP energy -495739.812466 kJ/mol
# GULP energy per Si atom -12393.495312 kJ/mol
# Density = 2.142248 g / cm^3
# Si number density = 21.471350 Si / 1000 Ang^3
#
#
#
# Elastic Constant Matrix: (Units=GPa)
#
#
# Indices 1 2 3 4 5 6 
#
# 1 193.8981 87.3567 81.3767 0.0000 0.0000 0.0000
# 2 87.3567 215.7553 70.8892 0.0000 0.0000 0.0000
# 3 81.3767 70.8892 175.8210 0.0000 0.0000 0.0000
# 4 0.0000 0.0000 0.0000 23.2317 0.0000 0.0000
# 5 0.0000 0.0000 0.0000 0.0000 36.7775 0.0000
# 6 0.0000 0.0000 0.0000 0.0000 0.0000 146.1506
#
#
#
# Elastic Compliance Matrix: (Units=1/GPa)
#
#
# Indices 1 2 3 4 5 6 
#
# 1 0.007126 -0.002077 -0.002461 0.000000 0.000000 0.000000
# 2 -0.002077 0.005948 -0.001437 0.000000 0.000000 0.000000
# 3 -0.002461 -0.001437 0.007406 0.000000 0.000000 0.000000
# 4 0.000000 0.000000 0.000000 0.043045 0.000000 0.000000
# 5 0.000000 0.000000 0.000000 0.000000 0.027191 0.000000
# 6 0.000000 0.000000 0.000000 0.000000 0.000000 0.006842
#
#
# Mechanical properties :
#
#
# Convention : Reuss Voigt Hill
#
# Bulk Modulus (GPa) = 117.22326 118.30219 117.76272
# Shear Modulus (GPa) = 44.50419 64.28876 54.39647
#
# Velocity S-wave (km/s) = 4.55766 5.47783 5.03879
# Velocity P-wave (km/s) = 9.07800 9.75839 9.42434
#
# Compressibility (1/GPa) = 0.00853073
#
# Stress axis : x y z
#
# Youngs Moduli (GPa) = 140.33782 168.12960 135.02713
#
# Poissons Ratio (x) = 0.34913 0.33227
# Poissons Ratio (y) = 0.29142 0.19403
# Poissons Ratio (z) = 0.34534 0.24160
#
# Static dielectric constant tensor:
#      x y z
#    x 4.301830 0.000000 0.000000 
#    y 0.000000 4.532320 0.000000 
#    z 0.000000 0.000000 3.561320 
# 
# 
# High freq. dielectric constant tensor:
#      x y z
#    x 1.872040 0.000000 0.000000 
#    y 0.000000 1.870590 0.000000 
#    z 0.000000 0.000000 1.819660 
# 
# From -- ./inp_files/24784.got.cif
#   From: 2010.03.12/outbox.cif.g09.slc.cpg/sg60_13_cif.got.tgz:24784.got - 2010.04.10 18:46:24.
