data_PCOD8248635
_publ_section_title
;
Structure prediction by ZEFSAII (Michael W. Deem and Ramdas Pophale) SiO2 
 PCOD8248635
Probable space group: P B C N
;
_chemical_formula_sum "Si O2"
_cell_formula_units_Z 20
_cell_length_a 13.634164
_cell_length_b 9.149354
_cell_length_c 6.754684
_cell_angle_alpha 90.000000
_cell_angle_beta 90.000000
_cell_angle_gamma 90.000000
_cell_volume 842.604902
_symmetry_space_group_name_H-M "P B C N"
_symmetry_group_IT_number 60
_symmetry_cell_setting 'orthorhombic'
loop_
_space_group_symop_operation_xyz
x,y,z
1/2-x,1/2-y,1/2+z
1/2+x,1/2-y,-z
-x,y,1/2-z
-x,-y,-z
1/2+x,1/2+y,1/2-z
1/2-x,1/2+y,z
x,-y,1/2+z
loop_
_atom_site_type_symbol
_atom_site_label
_atom_site_fract_x
_atom_site_fract_y
_atom_site_fract_z
Si Si1 0.000000 0.784317 0.250000
Si Si2 0.839793 0.217201 0.023089
Si Si3 0.850734 0.107913 0.448355
O O1 0.920482 0.694920 0.384809
O O2 0.056342 0.886499 0.406655
O O3 0.879002 0.186301 0.242999
O O4 0.741335 0.308633 0.044451
O O5 0.821864 0.061214 0.912503
#
# Coordination Sequence:
#
# PCOD8248635 Si02
#       3
#     4   8   8
#     4  12  24  40  72  94 132 170 228 254 328 382
#     4  12  24  43  69  97 133 170 217 270 323 384
#     4  12  24  43  69  97 133 170 217 270 323 384
#
# _framework density 23.735918000000002
#
# number of rings (size 3 to 8) (size 9 to 14) (size 15 to 20)
#    0.000    0.000    8.000    2.400    0.000    0.000 
#    0.000    2.000    0.000    0.000    0.000    0.000 
#    0.000    0.000    0.000    0.000    0.000    0.000 
#
# Total GULP energy -247811.507425 kJ/mol
# GULP energy per Si atom -12390.575371 kJ/mol
# Density = 2.368189 g / cm^3
# Si number density = 23.735918 Si / 1000 Ang^3
#
#
#
# Elastic Constant Matrix: (Units=GPa)
#
#
# Indices 1 2 3 4 5 6 
#
# 1 124.8917 26.0444 62.9290 0.0000 0.0000 0.0000
# 2 26.0444 25.4008 17.6478 0.0000 0.0000 0.0000
# 3 62.9290 17.6478 165.7976 0.0000 0.0000 0.0000
# 4 0.0000 0.0000 0.0000 21.3642 0.0000 0.0000
# 5 0.0000 0.0000 0.0000 0.0000 64.2723 0.0000
# 6 0.0000 0.0000 0.0000 0.0000 0.0000 14.8021
#
#
#
# Elastic Compliance Matrix: (Units=1/GPa)
#
#
# Indices 1 2 3 4 5 6 
#
# 1 0.011752 -0.009665 -0.003432 0.000000 0.000000 0.000000
# 2 -0.009665 0.050462 -0.001703 0.000000 0.000000 0.000000
# 3 -0.003432 -0.001703 0.007515 0.000000 0.000000 0.000000
# 4 0.000000 0.000000 0.000000 0.046807 0.000000 0.000000
# 5 0.000000 0.000000 0.000000 0.000000 0.015559 0.000000
# 6 0.000000 0.000000 0.000000 0.000000 0.000000 0.067558
#
#
# Mechanical properties :
#
#
# Convention : Reuss Voigt Hill
#
# Bulk Modulus (GPa) = 24.91926 58.81473 41.86699
# Shear Modulus (GPa) = 20.60766 34.05232 27.32999
#
# Velocity S-wave (km/s) = 2.94973 3.79176 3.39694
# Velocity P-wave (km/s) = 4.70346 6.63344 5.75000
#
# Compressibility (1/GPa) = 0.04012961
#
# Stress axis : x y z
#
# Youngs Moduli (GPa) = 85.09544 19.81691 133.06440
#
# Poissons Ratio (x) = 0.19153 0.45662
# Poissons Ratio (y) = 0.82246 0.22659
# Poissons Ratio (z) = 0.29201 0.03375
#
# Static dielectric constant tensor:
#      x y z
#    x 4.485560 0.000000 0.000000 
#    y 0.000000 3.679620 0.000000 
#    z 0.000000 0.000000 4.774590 
# 
# 
# High freq. dielectric constant tensor:
#      x y z
#    x 1.952060 0.000000 0.000000 
#    y 0.000000 1.870000 0.000000 
#    z 0.000000 0.000000 1.990350 
# 
# From -- ./inp_files/4349.got.cif
#   From: 2010.03.12/outbox.cif.g09.slc.cpg/sg60_3_cif.got.tgz:4349.got - 2010.04.10 18:46:24.
