data_PCOD8248091
_publ_section_title
;
Structure prediction by ZEFSAII (Michael W. Deem and Ramdas Pophale) SiO2 
 PCOD8248091
Probable space group: P B C N
;
_chemical_formula_sum "Si O2"
_cell_formula_units_Z 36
_cell_length_a 8.787656
_cell_length_b 21.150244
_cell_length_c 9.152577
_cell_angle_alpha 90.000000
_cell_angle_beta 90.000000
_cell_angle_gamma 90.000000
_cell_volume 1701.107742
_symmetry_space_group_name_H-M "P B C N"
_symmetry_group_IT_number 60
_symmetry_cell_setting 'orthorhombic'
loop_
_space_group_symop_operation_xyz
x,y,z
1/2-x,1/2-y,1/2+z
1/2+x,1/2-y,-z
-x,y,1/2-z
-x,-y,-z
1/2+x,1/2+y,1/2-z
1/2-x,1/2+y,z
x,-y,1/2+z
loop_
_atom_site_type_symbol
_atom_site_label
_atom_site_fract_x
_atom_site_fract_y
_atom_site_fract_z
Si Si1 0.944019 0.795649 0.903802
Si Si2 0.000000 0.980446 0.250000
Si Si3 0.532970 0.935578 0.582684
Si Si4 0.626389 0.578644 0.025962
Si Si5 0.586945 0.190124 0.401888
O O1 0.763272 0.794633 0.894018
O O2 0.000000 0.769608 0.750000
O O3 0.012389 0.864696 0.935164
O O4 0.998754 0.747048 0.023886
O O5 0.097984 0.020915 0.363426
O O6 0.892075 0.937988 0.353945
O O7 0.500000 0.951519 0.750000
O O8 0.699080 0.905322 0.554538
O O9 0.424809 0.879040 0.521536
O O10 0.500000 0.000000 0.500000
O O11 0.500000 0.180767 0.250000
#
# Coordination Sequence:
#
# PCOD8248091 Si02
#       5
#     8   4   8   8   8
#     4  12  24  45  70  96 134 174 225 277 333 401
#     4  10  24  38  68  94 136 168 228 258 338 390
#     4  11  24  42  66  97 137 171 219 274 336 400
#     4  11  23  42  66  98 131 179 218 276 331 403
#     4  11  26  45  67  97 131 176 224 275 336 397
#
# _framework density 21.162679000000001
#
# number of rings (size 3 to 8) (size 9 to 14) (size 15 to 20)
#    0.000    0.889    1.111    6.667    7.778    0.889 
#    4.000    0.000    0.000    0.000    0.000    0.000 
#    0.000    0.000    0.000    0.000    0.000    0.000 
#
# Total GULP energy -446271.403487 kJ/mol
# GULP energy per Si atom -12396.427875 kJ/mol
# Density = 2.111451 g / cm^3
# Si number density = 21.162679 Si / 1000 Ang^3
#
#
#
# Elastic Constant Matrix: (Units=GPa)
#
#
# Indices 1 2 3 4 5 6 
#
# 1 181.3203 55.2076 46.0695 0.0000 0.0000 0.0000
# 2 55.2076 106.8397 35.7246 0.0000 0.0000 0.0000
# 3 46.0695 35.7246 110.5927 0.0000 0.0000 0.0000
# 4 0.0000 0.0000 0.0000 20.7442 0.0000 0.0000
# 5 0.0000 0.0000 0.0000 0.0000 35.6564 0.0000
# 6 0.0000 0.0000 0.0000 0.0000 0.0000 38.3968
#
#
#
# Elastic Compliance Matrix: (Units=1/GPa)
#
#
# Indices 1 2 3 4 5 6 
#
# 1 0.006893 -0.002917 -0.001929 0.000000 0.000000 0.000000
# 2 -0.002917 0.011728 -0.002573 0.000000 0.000000 0.000000
# 3 -0.001929 -0.002573 0.010677 0.000000 0.000000 0.000000
# 4 0.000000 0.000000 0.000000 0.048206 0.000000 0.000000
# 5 0.000000 0.000000 0.000000 0.000000 0.028045 0.000000
# 6 0.000000 0.000000 0.000000 0.000000 0.000000 0.026044
#
#
# Mechanical properties :
#
#
# Convention : Reuss Voigt Hill
#
# Bulk Modulus (GPa) = 69.16070 74.75067 71.95568
# Shear Modulus (GPa) = 33.05738 36.40957 34.73347
#
# Velocity S-wave (km/s) = 3.95658 4.15234 4.05564
# Velocity P-wave (km/s) = 7.32285 7.64120 7.48372
#
# Compressibility (1/GPa) = 0.01445908
#
# Stress axis : x y z
#
# Youngs Moduli (GPa) = 145.06536 85.26953 93.65831
#
# Poissons Ratio (x) = 0.24873 0.18070
# Poissons Ratio (y) = 0.42315 0.24100
# Poissons Ratio (z) = 0.27988 0.21942
#
# Static dielectric constant tensor:
#      x y z
#    x 3.695830 0.000000 0.000000 
#    y 0.000000 4.011640 0.000000 
#    z 0.000000 0.000000 4.269120 
# 
# 
# High freq. dielectric constant tensor:
#      x y z
#    x 1.842470 0.000000 0.000000 
#    y 0.000000 1.844030 0.000000 
#    z 0.000000 0.000000 1.832770 
# 
# From -- ./inp_files/3666.got.cif
#   From: 2010.03.12/outbox.cif.g09.slc.cpg/sg60_2_cif.got.tgz:3666.got - 2010.04.10 18:46:24.
