data_PCOD8248589
_publ_section_title
;
Structure prediction by ZEFSAII (Michael W. Deem and Ramdas Pophale) SiO2 
 PCOD8248589
Probable space group: P B C N
;
_chemical_formula_sum "Si O2"
_cell_formula_units_Z 32
_cell_length_a 16.209516
_cell_length_b 4.998534
_cell_length_c 14.748325
_cell_angle_alpha 90.000000
_cell_angle_beta 90.000000
_cell_angle_gamma 90.000000
_cell_volume 1194.965584
_symmetry_space_group_name_H-M "P B C N"
_symmetry_group_IT_number 60
_symmetry_cell_setting 'orthorhombic'
loop_
_space_group_symop_operation_xyz
x,y,z
1/2-x,1/2-y,1/2+z
1/2+x,1/2-y,-z
-x,y,1/2-z
-x,-y,-z
1/2+x,1/2+y,1/2-z
1/2-x,1/2+y,z
x,-y,1/2+z
loop_
_atom_site_type_symbol
_atom_site_label
_atom_site_fract_x
_atom_site_fract_y
_atom_site_fract_z
Si Si1 0.805934 0.556614 0.745960
Si Si2 0.391852 0.880705 0.579865
Si Si3 0.694502 0.583251 0.054973
Si Si4 0.074851 0.680236 0.392604
O O1 0.769139 0.850282 0.724599
O O2 0.835008 0.538193 0.849392
O O3 0.885917 0.513488 0.682818
O O4 0.408588 0.067555 0.493362
O O5 0.340398 0.615026 0.548173
O O6 0.477502 0.788608 0.625780
O O7 0.771736 0.386047 0.074291
O O8 0.616058 0.476913 0.113051
#
# Coordination Sequence:
#
# PCOD8248589 Si02
#       4
#     8   8   8   8
#     4  12  29  48  73 110 148 196 248 306 369 442
#     4  11  26  49  76 110 150 196 247 307 375 440
#     4  12  23  42  71 102 140 184 238 292 355 430
#     4  11  26  49  76 110 150 196 247 307 375 440
#
# _framework density 26.779017
#
# number of rings (size 3 to 8) (size 9 to 14) (size 15 to 20)
#    0.000    0.500    2.500    4.500    7.000    0.000 
#    0.000    2.500    0.000    0.000    0.000    0.000 
#    0.000    0.000    0.000    0.000    0.000    0.000 
#
# Total GULP energy -396562.563719 kJ/mol
# GULP energy per Si atom -12392.580116 kJ/mol
# Density = 2.671807 g / cm^3
# Si number density = 26.779017 Si / 1000 Ang^3
#
#
#
# Elastic Constant Matrix: (Units=GPa)
#
#
# Indices 1 2 3 4 5 6 
#
# 1 130.9345 56.2110 19.0366 0.0000 0.0000 0.0000
# 2 56.2110 136.9917 21.9290 0.0000 0.0000 0.0000
# 3 19.0366 21.9290 83.8886 0.0000 0.0000 0.0000
# 4 0.0000 0.0000 0.0000 37.8573 0.0000 0.0000
# 5 0.0000 0.0000 0.0000 0.0000 55.3781 0.0000
# 6 0.0000 0.0000 0.0000 0.0000 0.0000 38.1796
#
#
#
# Elastic Compliance Matrix: (Units=1/GPa)
#
#
# Indices 1 2 3 4 5 6 
#
# 1 0.009379 -0.003661 -0.001171 0.000000 0.000000 0.000000
# 2 -0.003661 0.009048 -0.001534 0.000000 0.000000 0.000000
# 3 -0.001171 -0.001534 0.012587 0.000000 0.000000 0.000000
# 4 0.000000 0.000000 0.000000 0.026415 0.000000 0.000000
# 5 0.000000 0.000000 0.000000 0.000000 0.018058 0.000000
# 6 0.000000 0.000000 0.000000 0.000000 0.000000 0.026192
#
#
# Mechanical properties :
#
#
# Convention : Reuss Voigt Hill
#
# Bulk Modulus (GPa) = 54.70199 60.68533 57.69366
# Shear Modulus (GPa) = 41.49161 43.25890 42.37525
#
# Velocity S-wave (km/s) = 3.94052 4.02357 3.98226
# Velocity P-wave (km/s) = 6.41679 6.65554 6.53725
#
# Compressibility (1/GPa) = 0.01828087
#
# Stress axis : x y z
#
# Youngs Moduli (GPa) = 106.61602 110.52711 79.44408
#
# Poissons Ratio (x) = 0.40465 0.09306
# Poissons Ratio (y) = 0.39033 0.12189
# Poissons Ratio (z) = 0.12489 0.16958
#
# Static dielectric constant tensor:
#      x y z
#    x 5.515030 0.000000 0.000000 
#    y 0.000000 4.768550 0.000000 
#    z 0.000000 0.000000 5.310680 
# 
# 
# High freq. dielectric constant tensor:
#      x y z
#    x 2.094280 0.000000 0.000000 
#    y 0.000000 2.068550 0.000000 
#    z 0.000000 0.000000 2.090280 
# 
# From -- ./inp_files/17133.got.cif
#   From: 2010.03.12/outbox.cif.g09.slc.cpg/sg60_9_cif.got.tgz:17133.got - 2010.04.10 18:46:24.
