data_PCOD8248059
_publ_section_title
;
Structure prediction by ZEFSAII (Michael W. Deem and Ramdas Pophale) SiO2 
 PCOD8248059
Probable space group: P B C N
;
_chemical_formula_sum "Si O2"
_cell_formula_units_Z 40
_cell_length_a 11.305944
_cell_length_b 9.227872
_cell_length_c 17.164991
_cell_angle_alpha 90.000000
_cell_angle_beta 90.000000
_cell_angle_gamma 90.000000
_cell_volume 1790.820148
_symmetry_space_group_name_H-M "P B C N"
_symmetry_group_IT_number 60
_symmetry_cell_setting 'orthorhombic'
loop_
_space_group_symop_operation_xyz
x,y,z
1/2-x,1/2-y,1/2+z
1/2+x,1/2-y,-z
-x,y,1/2-z
-x,-y,-z
1/2+x,1/2+y,1/2-z
1/2-x,1/2+y,z
x,-y,1/2+z
loop_
_atom_site_type_symbol
_atom_site_label
_atom_site_fract_x
_atom_site_fract_y
_atom_site_fract_z
Si Si1 0.836283 0.663414 0.251644
Si Si2 0.627060 0.485482 0.957049
Si Si3 0.502240 0.067144 0.377178
Si Si4 0.638171 0.153882 0.975807
Si Si5 0.377159 0.479165 0.220808
O O1 0.902825 0.557404 0.190403
O O2 0.703525 0.612165 0.254570
O O3 0.890796 0.655450 0.338483
O O4 0.842103 0.833654 0.230907
O O5 0.665844 0.318244 0.953697
O O6 0.737671 0.572194 0.996140
O O7 0.618622 0.550428 0.870911
O O8 0.500000 0.500000 0.000000
O O9 0.446159 0.153454 0.448911
O O10 0.561097 0.915881 0.405192
O O11 0.500000 0.538159 0.250000
#
# Coordination Sequence:
#
# PCOD8248059 Si02
#       5
#     8   8   8   8   8
#     4  11  24  45  72  95 144 178 232 283 348 403
#     4  12  28  45  72 104 142 183 237 287 350 418
#     4  10  23  45  73  97 138 188 224 287 349 407
#     4  11  26  45  73 101 143 181 235 287 351 411
#     4  12  26  45  69 101 137 181 228 286 340 414
#
# _framework density 22.336133
#
# number of rings (size 3 to 8) (size 9 to 14) (size 15 to 20)
#    0.000    0.800    4.000    2.400    8.400    1.600 
#    0.000    0.000    0.000    0.000    0.000    0.000 
#    0.000    0.000    0.000    0.000    0.000    0.000 
#
# Total GULP energy -495732.436785 kJ/mol
# GULP energy per Si atom -12393.310920 kJ/mol
# Density = 2.228529 g / cm^3
# Si number density = 22.336133 Si / 1000 Ang^3
#
#
#
# Elastic Constant Matrix: (Units=GPa)
#
#
# Indices 1 2 3 4 5 6 
#
# 1 180.9584 67.8829 38.8634 0.0000 0.0000 0.0000
# 2 67.8829 124.4241 28.8798 0.0000 0.0000 0.0000
# 3 38.8634 28.8798 73.6386 0.0000 0.0000 0.0000
# 4 0.0000 0.0000 0.0000 24.5131 0.0000 0.0000
# 5 0.0000 0.0000 0.0000 0.0000 30.8784 0.0000
# 6 0.0000 0.0000 0.0000 0.0000 0.0000 -8.8406
#
#
#
# Elastic Compliance Matrix: (Units=1/GPa)
#
#
# Indices 1 2 3 4 5 6 
#
# 1 0.007356 -0.003424 -0.002539 0.000000 0.000000 0.000000
# 2 -0.003424 0.010435 -0.002286 0.000000 0.000000 0.000000
# 3 -0.002539 -0.002286 0.015816 0.000000 0.000000 0.000000
# 4 0.000000 0.000000 0.000000 0.040794 0.000000 0.000000
# 5 0.000000 0.000000 0.000000 0.000000 0.032385 0.000000
# 6 0.000000 0.000000 0.000000 0.000000 0.000000 -0.113115
#
#
# Mechanical properties :
#
#
# Convention : Reuss Voigt Hill
#
# Bulk Modulus (GPa) = 58.44508 72.25259 65.34883
# Shear Modulus (GPa) = 314.98979 25.53652 170.26316
#
# Velocity S-wave (km/s) = 11.88817 3.38492 8.74032
# Velocity P-wave (km/s) = 14.65132 6.90615 11.45330
#
# Compressibility (1/GPa) = 0.01711008
#
# Stress axis : x y z
#
# Youngs Moduli (GPa) = 135.94614 95.82691 63.22545
#
# Poissons Ratio (x) = 0.32809 0.16055
# Poissons Ratio (y) = 0.46545 0.14451
# Poissons Ratio (z) = 0.34522 0.21903
#
# Static dielectric constant tensor:
#      x y z
#    x 4.407140 0.000000 0.000000 
#    y 0.000000 3.964860 0.000000 
#    z 0.000000 0.000000 4.083300 
# 
# 
# High freq. dielectric constant tensor:
#      x y z
#    x 1.898340 0.000000 0.000000 
#    y 0.000000 1.872880 0.000000 
#    z 0.000000 0.000000 1.876530 
# 
# From -- ./inp_files/19857.got.cif
#   From: 2010.03.12/outbox.cif.g09.slc.cpg/sg60_10_cif.got.tgz:19857.got - 2010.04.10 18:46:24.
