data_PCOD8248244
_publ_section_title
;
Structure prediction by ZEFSAII (Michael W. Deem and Ramdas Pophale) SiO2 
 PCOD8248244
Probable space group: P B C N
;
_chemical_formula_sum "Si O2"
_cell_formula_units_Z 56
_cell_length_a 13.488897
_cell_length_b 20.296664
_cell_length_c 9.952278
_cell_angle_alpha 90.000000
_cell_angle_beta 90.000000
_cell_angle_gamma 90.000000
_cell_volume 2724.730791
_symmetry_space_group_name_H-M "P B C N"
_symmetry_group_IT_number 60
_symmetry_cell_setting 'orthorhombic'
loop_
_space_group_symop_operation_xyz
x,y,z
1/2-x,1/2-y,1/2+z
1/2+x,1/2-y,-z
-x,y,1/2-z
-x,-y,-z
1/2+x,1/2+y,1/2-z
1/2-x,1/2+y,z
x,-y,1/2+z
loop_
_atom_site_type_symbol
_atom_site_label
_atom_site_fract_x
_atom_site_fract_y
_atom_site_fract_z
Si Si1 0.500000 0.349543 0.750000
Si Si2 0.000000 0.656201 0.250000
Si Si3 0.171020 0.927834 0.626793
Si Si4 0.801121 0.299815 0.858171
Si Si5 0.255573 0.516522 0.856544
Si Si6 0.893203 0.609853 0.767081
Si Si7 0.573191 0.058809 0.040073
Si Si8 0.647491 0.755052 0.153809
O O1 0.564714 0.392995 0.853898
O O2 0.428373 0.306331 0.845533
O O3 0.906106 0.701531 0.281848
O O4 0.991186 0.610600 0.120509
O O5 0.259447 0.874260 0.630931
O O6 0.176852 0.966797 0.485510
O O7 0.177856 0.982815 0.742945
O O8 0.733522 0.255684 0.762474
O O9 0.809243 0.265639 0.004340
O O10 0.202868 0.583270 0.809751
O O11 0.165964 0.466376 0.877394
O O12 0.911902 0.682061 0.707909
O O13 0.000000 0.571943 0.750000
O O14 0.873287 0.601095 0.923783
O O15 0.500000 0.000000 0.000000
#
# Coordination Sequence:
#
# PCOD8248244 Si02
#       8
#     4   4   8   8   8   8   8   8
#     4  10  26  46  71  91 134 188 240 280 338 406
#     4  12  24  38  63  97 136 172 216 278 334 424
#     4  11  24  45  66  98 134 179 230 280 342 410
#     4  11  25  43  67  98 136 173 232 279 348 408
#     4  12  22  39  65  96 136 173 214 283 336 412
#     4  12  22  35  63  96 134 173 222 269 351 410
#     4  12  22  34  60  98 135 171 204 263 346 415
#     4  11  25  45  69  94 132 182 227 290 335 409
#
# _framework density 20.552489999999999
#
# number of rings (size 3 to 8) (size 9 to 14) (size 15 to 20)
#    0.000    0.571    6.429    2.571    2.000    1.714 
#    0.000    0.000    0.000    0.000    0.000    0.000 
#    0.000    0.000    0.000    0.000    0.000    0.000 
#
# Total GULP energy -694196.303703 kJ/mol
# GULP energy per Si atom -12396.362566 kJ/mol
# Density = 2.050571 g / cm^3
# Si number density = 20.552490 Si / 1000 Ang^3
#
#
#
# Elastic Constant Matrix: (Units=GPa)
#
#
# Indices 1 2 3 4 5 6 
#
# 1 113.0599 42.4602 57.0970 0.0000 0.0000 0.0000
# 2 42.4602 73.5946 53.8735 0.0000 0.0000 0.0000
# 3 57.0970 53.8735 153.5699 0.0000 0.0000 0.0000
# 4 0.0000 0.0000 0.0000 48.5962 0.0000 0.0000
# 5 0.0000 0.0000 0.0000 0.0000 29.1824 0.0000
# 6 0.0000 0.0000 0.0000 0.0000 0.0000 46.4119
#
#
#
# Elastic Compliance Matrix: (Units=1/GPa)
#
#
# Indices 1 2 3 4 5 6 
#
# 1 0.012102 -0.004963 -0.002758 0.000000 0.000000 0.000000
# 2 -0.004963 0.020318 -0.005283 0.000000 0.000000 0.000000
# 3 -0.002758 -0.005283 0.009390 0.000000 0.000000 0.000000
# 4 0.000000 0.000000 0.000000 0.020578 0.000000 0.000000
# 5 0.000000 0.000000 0.000000 0.000000 0.034267 0.000000
# 6 0.000000 0.000000 0.000000 0.000000 0.000000 0.021546
#
#
# Mechanical properties :
#
#
# Convention : Reuss Voigt Hill
#
# Bulk Modulus (GPa) = 63.28020 71.89842 67.58931
# Shear Modulus (GPa) = 33.44999 37.29102 35.37051
#
# Velocity S-wave (km/s) = 4.03865 4.26423 4.15298
# Velocity P-wave (km/s) = 7.25286 7.70089 7.48023
#
# Compressibility (1/GPa) = 0.01580273
#
# Stress axis : x y z
#
# Youngs Moduli (GPa) = 82.63291 49.21676 106.49118
#
# Poissons Ratio (x) = 0.24425 0.29375
# Poissons Ratio (y) = 0.41009 0.56255
# Poissons Ratio (z) = 0.22793 0.25999
#
# Static dielectric constant tensor:
#      x y z
#    x 2.978250 0.000000 0.000000 
#    y 0.000000 3.659140 0.000000 
#    z 0.000000 0.000000 3.797010 
# 
# 
# High freq. dielectric constant tensor:
#      x y z
#    x 1.798520 0.000000 0.000000 
#    y 0.000000 1.797180 0.000000 
#    z 0.000000 0.000000 1.813390 
# 
# From -- ./inp_files/6212.got.cif
#   From: 2010.03.12/outbox.cif.g09.slc.cpg/sg60_4_cif.got.tgz:6212.got - 2010.04.10 18:46:24.
