data_PCOD8248440
_publ_section_title
;
Structure prediction by ZEFSAII (Michael W. Deem and Ramdas Pophale) SiO2 
 PCOD8248440
Probable space group: P B C N
;
_chemical_formula_sum "Si O2"
_cell_formula_units_Z 40
_cell_length_a 13.494785
_cell_length_b 11.359952
_cell_length_c 11.405556
_cell_angle_alpha 90.000000
_cell_angle_beta 90.000000
_cell_angle_gamma 90.000000
_cell_volume 1748.472988
_symmetry_space_group_name_H-M "P B C N"
_symmetry_group_IT_number 60
_symmetry_cell_setting 'orthorhombic'
loop_
_space_group_symop_operation_xyz
x,y,z
1/2-x,1/2-y,1/2+z
1/2+x,1/2-y,-z
-x,y,1/2-z
-x,-y,-z
1/2+x,1/2+y,1/2-z
1/2-x,1/2+y,z
x,-y,1/2+z
loop_
_atom_site_type_symbol
_atom_site_label
_atom_site_fract_x
_atom_site_fract_y
_atom_site_fract_z
Si Si1 0.174073 0.731354 0.202332
Si Si2 0.635195 0.734936 0.437664
Si Si3 0.500000 0.084828 0.250000
Si Si4 0.858500 0.064749 0.641034
Si Si5 0.000000 0.123089 0.250000
Si Si6 0.667640 0.065431 0.096123
O O1 0.250515 0.710742 0.097444
O O2 0.068848 0.670900 0.168354
O O3 0.159727 0.869799 0.234144
O O4 0.213662 0.669224 0.321762
O O5 0.596597 0.653426 0.544558
O O6 0.565716 0.711037 0.327238
O O7 0.631976 0.873430 0.474730
O O8 0.570758 0.009151 0.163040
O O9 0.932530 0.957262 0.664903
O O10 0.754330 0.027918 0.581114
#
# Coordination Sequence:
#
# PCOD8248440 Si02
#       6
#     8   8   4   8   4   8
#     4   9  20  41  61  89 128 162 205 271 311 368
#     4  11  24  39  65  98 132 162 211 273 320 373
#     4   8  17  42  61  84 124 166 205 256 317 368
#     4  11  23  41  68  95 126 173 217 260 322 383
#     4  12  23  42  65 102 124 166 223 270 305 382
#     4   9  21  40  63  89 126 173 205 259 328 372
#
# _framework density 22.877105
#
# number of rings (size 3 to 8) (size 9 to 14) (size 15 to 20)
#    1.200    0.800    2.000    1.200    2.800    1.600 
#    0.000    2.000    0.000    0.000    0.000    0.000 
#    0.000    0.000    0.000    0.000    0.000    0.000 
#
# Total GULP energy -495535.879577 kJ/mol
# GULP energy per Si atom -12388.396989 kJ/mol
# Density = 2.282504 g / cm^3
# Si number density = 22.877105 Si / 1000 Ang^3
#
#
#
# Elastic Constant Matrix: (Units=GPa)
#
#
# Indices 1 2 3 4 5 6 
#
# 1 112.8820 0.8576 21.2790 0.0000 0.0000 0.0000
# 2 0.8576 25.3028 -4.7365 0.0000 0.0000 0.0000
# 3 21.2790 -4.7365 63.2690 0.0000 0.0000 0.0000
# 4 0.0000 0.0000 0.0000 15.8965 0.0000 0.0000
# 5 0.0000 0.0000 0.0000 0.0000 27.7148 0.0000
# 6 0.0000 0.0000 0.0000 0.0000 0.0000 21.5652
#
#
#
# Elastic Compliance Matrix: (Units=1/GPa)
#
#
# Indices 1 2 3 4 5 6 
#
# 1 0.009480 -0.000931 -0.003258 0.000000 0.000000 0.000000
# 2 -0.000931 0.040174 0.003321 0.000000 0.000000 0.000000
# 3 -0.003258 0.003321 0.017150 0.000000 0.000000 0.000000
# 4 0.000000 0.000000 0.000000 0.062907 0.000000 0.000000
# 5 0.000000 0.000000 0.000000 0.000000 0.036082 0.000000
# 6 0.000000 0.000000 0.000000 0.000000 0.000000 0.046371
#
#
# Mechanical properties :
#
#
# Convention : Reuss Voigt Hill
#
# Bulk Modulus (GPa) = 15.36871 26.25044 20.80957
# Shear Modulus (GPa) = 21.22327 25.30554 23.26441
#
# Velocity S-wave (km/s) = 3.04913 3.32949 3.19239
# Velocity P-wave (km/s) = 4.37365 5.12642 4.76492
#
# Compressibility (1/GPa) = 0.06506727
#
# Stress axis : x y z
#
# Youngs Moduli (GPa) = 105.48460 24.89147 58.30933
#
# Poissons Ratio (x) = 0.02318 0.18998
# Poissons Ratio (y) = 0.09823 -0.19363
# Poissons Ratio (z) = 0.34368 -0.08266
#
# Static dielectric constant tensor:
#      x y z
#    x 3.966350 0.000000 0.000000 
#    y 0.000000 3.764350 0.000000 
#    z 0.000000 0.000000 3.772380 
# 
# 
# High freq. dielectric constant tensor:
#      x y z
#    x 1.903070 0.000000 0.000000 
#    y 0.000000 1.877280 0.000000 
#    z 0.000000 0.000000 1.884370 
# 
# From -- ./inp_files/10894.got.cif
#   From: 2010.03.12/outbox.cif.g09.slc.cpg/sg60_6_cif.got.tgz:10894.got - 2010.04.10 18:46:24.
