data_PCOD8248772
_publ_section_title
;
Structure prediction by ZEFSAII (Michael W. Deem and Ramdas Pophale) SiO2 
 PCOD8248772
Probable space group: P B C A
;
_chemical_formula_sum "Si O2"
_cell_formula_units_Z 64
_cell_length_a 10.846155
_cell_length_b 14.657677
_cell_length_c 17.108186
_cell_angle_alpha 90.000000
_cell_angle_beta 90.000000
_cell_angle_gamma 90.000000
_cell_volume 2719.849773
_symmetry_space_group_name_H-M "P B C A"
_symmetry_group_IT_number 61
_symmetry_cell_setting 'orthorhombic'
loop_
_space_group_symop_operation_xyz
x,y,z
1/2-x,-y,1/2+z
1/2+x,1/2-y,-z
-x,1/2+y,1/2-z
-x,-y,-z
1/2+x,y,1/2-z
1/2-x,1/2+y,z
x,1/2-y,1/2+z
loop_
_atom_site_type_symbol
_atom_site_label
_atom_site_fract_x
_atom_site_fract_y
_atom_site_fract_z
Si Si1 0.268110 0.692323 0.755660
Si Si2 0.219718 0.317624 0.983943
Si Si3 0.173567 0.445186 0.122304
Si Si4 0.170262 0.634188 0.185758
Si Si5 0.580940 0.935464 0.195929
Si Si6 0.702574 0.936678 0.653421
Si Si7 0.452886 0.248529 0.061462
Si Si8 0.540625 0.405324 0.149156
O O1 0.266382 0.614126 0.690158
O O2 0.271776 0.789498 0.711384
O O3 0.144928 0.665797 0.805463
O O4 0.382509 0.680312 0.813787
O O5 0.267863 0.349166 0.899282
O O6 0.081508 0.274309 0.982694
O O7 0.211920 0.407445 0.038007
O O8 0.323849 0.243804 0.012154
O O9 0.220336 0.550282 0.132392
O O10 0.025328 0.439169 0.130654
O O11 0.125548 0.594177 0.269238
O O12 0.061302 0.683274 0.137172
O O13 0.532561 0.955063 0.282728
O O14 0.669482 0.019373 0.178678
O O15 0.624149 0.015752 0.609489
O O16 0.456392 0.356041 0.085029
#
# Coordination Sequence:
#
# PCOD8248772 Si02
#       8
#     8   8   8   8   8   8   8   8
#     4  10  20  40  68 107 144 186 255 320 363 444
#     4  12  29  52  70 117 161 205 255 324 403 475
#     4  11  23  43  69 104 148 201 249 310 386 461
#     4  12  22  43  76 107 139 207 257 314 374 468
#     4  10  18  41  69 103 143 185 250 317 375 438
#     4  11  25  43  74 115 147 198 266 323 382 466
#     4  12  28  50  75 109 161 208 258 316 405 467
#     4  10  21  44  73 106 149 192 255 331 367 456
#
# _framework density 23.530712999999999
#
# number of rings (size 3 to 8) (size 9 to 14) (size 15 to 20)
#    0.000    1.000    6.250    1.500    0.000    6.500 
#    2.250    0.000    0.000    0.000    0.000    0.000 
#    0.000    0.000    0.000    0.000    0.000    0.000 
#
# Total GULP energy -792858.054289 kJ/mol
# GULP energy per Si atom -12388.407098 kJ/mol
# Density = 2.347716 g / cm^3
# Si number density = 23.530713 Si / 1000 Ang^3
#
#
#
# Elastic Constant Matrix: (Units=GPa)
#
#
# Indices 1 2 3 4 5 6 
#
# 1 118.0946 33.8822 39.9365 0.0000 0.0000 0.0000
# 2 33.8822 117.3624 26.1078 0.0000 0.0000 0.0000
# 3 39.9365 26.1078 67.8962 0.0000 0.0000 0.0000
# 4 0.0000 0.0000 0.0000 34.5824 0.0000 0.0000
# 5 0.0000 0.0000 0.0000 0.0000 25.1309 0.0000
# 6 0.0000 0.0000 0.0000 0.0000 0.0000 30.4791
#
#
#
# Elastic Compliance Matrix: (Units=1/GPa)
#
#
# Indices 1 2 3 4 5 6 
#
# 1 0.010940 -0.001888 -0.005709 0.000000 0.000000 0.000000
# 2 -0.001888 0.009644 -0.002597 0.000000 0.000000 0.000000
# 3 -0.005709 -0.002597 0.019085 0.000000 0.000000 0.000000
# 4 0.000000 0.000000 0.000000 0.028916 0.000000 0.000000
# 5 0.000000 0.000000 0.000000 0.000000 0.039792 0.000000
# 6 0.000000 0.000000 0.000000 0.000000 0.000000 0.032809
#
#
# Mechanical properties :
#
#
# Convention : Reuss Voigt Hill
#
# Bulk Modulus (GPa) = 51.86875 55.91179 53.89027
# Shear Modulus (GPa) = 29.76152 31.60028 30.68090
#
# Velocity S-wave (km/s) = 3.56025 3.66859 3.61483
# Velocity P-wave (km/s) = 6.24431 6.46200 6.35409
#
# Compressibility (1/GPa) = 0.01927943
#
# Stress axis : x y z
#
# Youngs Moduli (GPa) = 91.40615 103.69560 52.39693
#
# Poissons Ratio (x) = 0.19582 0.29913
# Poissons Ratio (y) = 0.17262 0.13610
# Poissons Ratio (z) = 0.52182 0.26934
#
# Static dielectric constant tensor:
#      x y z
#    x 4.404930 0.000000 0.000000 
#    y 0.000000 4.339450 0.000000 
#    z 0.000000 0.000000 4.255170 
# 
# 
# High freq. dielectric constant tensor:
#      x y z
#    x 1.932720 0.000000 0.000000 
#    y 0.000000 1.933510 0.000000 
#    z 0.000000 0.000000 1.908460 
# 
# From -- ./inp_files/9303.got.cif
#   From: 2010.03.12/outbox.cif.g09.slc.cpg/sg61_5_cif.got.tgz:9303.got - 2010.04.10 19:05:03.
