data_PCOD8248329
_publ_section_title
;
Structure prediction by ZEFSAII (Michael W. Deem and Ramdas Pophale) SiO2 
 PCOD8248329
Probable space group: P B C N
;
_chemical_formula_sum "Si O2"
_cell_formula_units_Z 56
_cell_length_a 12.220338
_cell_length_b 15.154552
_cell_length_c 14.023939
_cell_angle_alpha 90.000000
_cell_angle_beta 90.000000
_cell_angle_gamma 90.000000
_cell_volume 2597.145821
_symmetry_space_group_name_H-M "P B C N"
_symmetry_group_IT_number 60
_symmetry_cell_setting 'orthorhombic'
loop_
_space_group_symop_operation_xyz
x,y,z
1/2-x,1/2-y,1/2+z
1/2+x,1/2-y,-z
-x,y,1/2-z
-x,-y,-z
1/2+x,1/2+y,1/2-z
1/2-x,1/2+y,z
x,-y,1/2+z
loop_
_atom_site_type_symbol
_atom_site_label
_atom_site_fract_x
_atom_site_fract_y
_atom_site_fract_z
Si Si1 0.758690 0.204595 0.233167
Si Si2 0.791560 0.352198 0.071920
Si Si3 0.707390 0.953250 0.607910
Si Si4 0.973174 0.653510 0.021096
Si Si5 0.114517 0.802696 0.585319
Si Si6 0.429493 0.586631 0.493160
Si Si7 0.063119 0.210014 0.661048
O O1 0.785036 0.268911 0.143555
O O2 0.714072 0.109145 0.200539
O O3 0.861578 0.187384 0.302323
O O4 0.674658 0.245290 0.307896
O O5 0.780811 0.442922 0.132999
O O6 0.700389 0.347533 0.988812
O O7 0.906486 0.362158 0.018680
O O8 0.591095 0.934572 0.554525
O O9 0.808556 0.927830 0.542701
O O10 0.981698 0.719880 0.111245
O O11 0.896924 0.699483 0.941119
O O12 0.994129 0.845119 0.573847
O O13 0.500000 0.500000 0.500000
O O14 0.410756 0.626720 0.596807
O O15 0.000000 0.169404 0.750000
#
# Coordination Sequence:
#
# PCOD8248329 Si02
#       7
#     8   8   8   8   8   8   8
#     4  12  24  45  71 107 136 183 240 287 354 422
#     4  12  25  46  70 103 139 181 233 289 349 417
#     4  12  25  44  68 103 139 182 236 289 348 426
#     4  11  23  45  71  97 140 191 222 280 360 422
#     4  11  23  45  71  97 138 186 226 285 353 409
#     4  11  24  43  67  99 139 182 232 287 356 414
#     4  11  21  40  73  95 132 187 231 276 353 427
#
# _framework density 21.562131000000001
#
# number of rings (size 3 to 8) (size 9 to 14) (size 15 to 20)
#    0.000    0.571    5.714    3.857    0.000    3.429 
#    2.571    1.429    0.000    0.000    0.000    0.000 
#    0.000    0.000    0.000    0.000    0.000    0.000 
#
# Total GULP energy -694213.207557 kJ/mol
# GULP energy per Si atom -12396.664421 kJ/mol
# Density = 2.151305 g / cm^3
# Si number density = 21.562131 Si / 1000 Ang^3
#
#
#
# Elastic Constant Matrix: (Units=GPa)
#
#
# Indices 1 2 3 4 5 6 
#
# 1 91.1441 2.4451 20.1882 0.0000 0.0000 0.0000
# 2 2.4451 93.1861 21.5521 0.0000 0.0000 0.0000
# 3 20.1882 21.5521 96.4585 0.0000 0.0000 0.0000
# 4 0.0000 0.0000 0.0000 27.7151 0.0000 0.0000
# 5 0.0000 0.0000 0.0000 0.0000 38.7420 0.0000
# 6 0.0000 0.0000 0.0000 0.0000 0.0000 27.8171
#
#
#
# Elastic Compliance Matrix: (Units=1/GPa)
#
#
# Indices 1 2 3 4 5 6 
#
# 1 0.011511 0.000269 -0.002469 0.000000 0.000000 0.000000
# 2 0.000269 0.011322 -0.002586 0.000000 0.000000 0.000000
# 3 -0.002469 -0.002586 0.011462 0.000000 0.000000 0.000000
# 4 0.000000 0.000000 0.000000 0.036081 0.000000 0.000000
# 5 0.000000 0.000000 0.000000 0.000000 0.025812 0.000000
# 6 0.000000 0.000000 0.000000 0.000000 0.000000 0.035949
#
#
# Mechanical properties :
#
#
# Convention : Reuss Voigt Hill
#
# Bulk Modulus (GPa) = 40.44876 41.01773 40.73324
# Shear Modulus (GPa) = 33.34414 34.62840 33.98627
#
# Velocity S-wave (km/s) = 3.93672 4.01182 3.97445
# Velocity P-wave (km/s) = 6.28201 6.36584 6.32406
#
# Compressibility (1/GPa) = 0.02472264
#
# Stress axis : x y z
#
# Youngs Moduli (GPa) = 86.87050 88.32153 87.24630
#
# Poissons Ratio (x) = -0.02376 0.21545
# Poissons Ratio (y) = -0.02337 0.22563
# Poissons Ratio (z) = 0.21452 0.22841
#
# Static dielectric constant tensor:
#      x y z
#    x 4.154250 0.000000 0.000000 
#    y 0.000000 4.269940 0.000000 
#    z 0.000000 0.000000 3.958210 
# 
# 
# High freq. dielectric constant tensor:
#      x y z
#    x 1.868040 0.000000 0.000000 
#    y 0.000000 1.841650 0.000000 
#    z 0.000000 0.000000 1.837820 
# 
# From -- ./inp_files/16157.got.cif
#   From: 2010.03.12/outbox.cif.g09.slc.cpg/sg60_9_cif.got.tgz:16157.got - 2010.04.10 18:46:24.
