data_PCOD8248124
_publ_section_title
;
Structure prediction by ZEFSAII (Michael W. Deem and Ramdas Pophale) SiO2 
 PCOD8248124
Probable space group: P B C N
;
_chemical_formula_sum "Si O2"
_cell_formula_units_Z 36
_cell_length_a 11.299068
_cell_length_b 25.065602
_cell_length_c 5.626758
_cell_angle_alpha 90.000000
_cell_angle_beta 90.000000
_cell_angle_gamma 90.000000
_cell_volume 1593.598818
_symmetry_space_group_name_H-M "P B C N"
_symmetry_group_IT_number 60
_symmetry_cell_setting 'orthorhombic'
loop_
_space_group_symop_operation_xyz
x,y,z
1/2-x,1/2-y,1/2+z
1/2+x,1/2-y,-z
-x,y,1/2-z
-x,-y,-z
1/2+x,1/2+y,1/2-z
1/2-x,1/2+y,z
x,-y,1/2+z
loop_
_atom_site_type_symbol
_atom_site_label
_atom_site_fract_x
_atom_site_fract_y
_atom_site_fract_z
Si Si1 0.000000 0.631974 0.250000
Si Si2 0.131972 0.184522 0.229704
Si Si3 0.701652 0.882888 0.060714
Si Si4 0.670995 0.200788 0.936850
Si Si5 0.135085 0.030990 0.755241
O O1 0.918354 0.595491 0.427075
O O2 0.091414 0.671174 0.373368
O O3 0.132327 0.237802 0.070180
O O4 0.191622 0.198455 0.482384
O O5 0.000000 0.163479 0.250000
O O6 0.196693 0.133166 0.122244
O O7 0.657255 0.828788 0.186995
O O8 0.761710 0.924101 0.245014
O O9 0.000000 0.053378 0.750000
O O10 0.155810 0.999969 0.506464
#
# Coordination Sequence:
#
# PCOD8248124 Si02
#       5
#     4   8   8   8   8
#     4  10  24  42  66  92 138 176 220 270 348 402
#     4  11  24  36  62  97 134 177 228 268 328 406
#     4  11  24  42  68  95 133 179 224 277 338 416
#     4  11  23  41  60  95 138 179 217 274 332 398
#     4  10  25  47  73 101 137 176 228 296 359 406
#
# _framework density 22.590377
#
# number of rings (size 3 to 8) (size 9 to 14) (size 15 to 20)
#    0.000    1.333    2.222    2.000   12.444    0.889 
#    0.000    1.111    0.000    0.000    0.000    0.000 
#    0.000    0.000    0.000    0.000    0.000    0.000 
#
# Total GULP energy -446082.021137 kJ/mol
# GULP energy per Si atom -12391.167254 kJ/mol
# Density = 2.253896 g / cm^3
# Si number density = 22.590377 Si / 1000 Ang^3
#
#
#
# Elastic Constant Matrix: (Units=GPa)
#
#
# Indices 1 2 3 4 5 6 
#
# 1 148.6359 24.1673 38.7345 0.0000 0.0000 0.0000
# 2 24.1673 57.7410 15.6008 0.0000 0.0000 0.0000
# 3 38.7345 15.6008 99.2386 0.0000 0.0000 0.0000
# 4 0.0000 0.0000 0.0000 23.5813 0.0000 0.0000
# 5 0.0000 0.0000 0.0000 0.0000 36.5144 0.0000
# 6 0.0000 0.0000 0.0000 0.0000 0.0000 23.1265
#
#
#
# Elastic Compliance Matrix: (Units=1/GPa)
#
#
# Indices 1 2 3 4 5 6 
#
# 1 0.007837 -0.002562 -0.002656 0.000000 0.000000 0.000000
# 2 -0.002562 0.018925 -0.001975 0.000000 0.000000 0.000000
# 3 -0.002656 -0.001975 0.011424 0.000000 0.000000 0.000000
# 4 0.000000 0.000000 0.000000 0.042406 0.000000 0.000000
# 5 0.000000 0.000000 0.000000 0.000000 0.027386 0.000000
# 6 0.000000 0.000000 0.000000 0.000000 0.000000 0.043240
#
#
# Mechanical properties :
#
#
# Convention : Reuss Voigt Hill
#
# Bulk Modulus (GPa) = 42.01903 51.40229 46.71066
# Shear Modulus (GPa) = 28.81214 31.78532 30.29873
#
# Velocity S-wave (km/s) = 3.57517 3.75511 3.66624
# Velocity P-wave (km/s) = 5.97355 6.45016 6.21642
#
# Compressibility (1/GPa) = 0.02379874
#
# Stress axis : x y z
#
# Youngs Moduli (GPa) = 127.60615 52.84077 87.53618
#
# Poissons Ratio (x) = 0.13540 0.23249
# Poissons Ratio (y) = 0.32698 0.17288
# Poissons Ratio (z) = 0.33891 0.10436
#
# Static dielectric constant tensor:
#      x y z
#    x 4.509800 0.000000 0.000000 
#    y 0.000000 3.664920 0.000000 
#    z 0.000000 0.000000 4.306550 
# 
# 
# High freq. dielectric constant tensor:
#      x y z
#    x 1.906750 0.000000 0.000000 
#    y 0.000000 1.851180 0.000000 
#    z 0.000000 0.000000 1.901300 
# 
# From -- ./inp_files/748.got.cif
#   From: 2010.03.12/outbox.cif.g09.slc.cpg/sg60_1_cif.got.tgz:748.got - 2010.04.10 18:46:24.
