data_PCOD8248261
_publ_section_title
;
Structure prediction by ZEFSAII (Michael W. Deem and Ramdas Pophale) SiO2 
 PCOD8248261
Probable space group: P B C N
;
_chemical_formula_sum "Si O2"
_cell_formula_units_Z 52
_cell_length_a 11.432819
_cell_length_b 17.808177
_cell_length_c 13.374431
_cell_angle_alpha 90.000000
_cell_angle_beta 90.000000
_cell_angle_gamma 90.000000
_cell_volume 2723.002914
_symmetry_space_group_name_H-M "P B C N"
_symmetry_group_IT_number 60
_symmetry_cell_setting 'orthorhombic'
loop_
_space_group_symop_operation_xyz
x,y,z
1/2-x,1/2-y,1/2+z
1/2+x,1/2-y,-z
-x,y,1/2-z
-x,-y,-z
1/2+x,1/2+y,1/2-z
1/2-x,1/2+y,z
x,-y,1/2+z
loop_
_atom_site_type_symbol
_atom_site_label
_atom_site_fract_x
_atom_site_fract_y
_atom_site_fract_z
Si Si1 0.017712 0.348403 0.134001
Si Si2 0.906749 0.808601 0.930624
Si Si3 0.790880 0.597415 0.516277
Si Si4 0.780498 0.464453 0.378745
Si Si5 0.000000 0.888646 0.750000
Si Si6 0.454432 0.422846 0.049885
Si Si7 0.635014 0.523182 0.678066
O O1 0.076442 0.280696 0.072111
O O2 0.100890 0.419467 0.129462
O O3 0.000000 0.325755 0.250000
O O4 0.899564 0.371252 0.077808
O O5 0.914777 0.838451 0.817393
O O6 0.782486 0.830018 0.979787
O O7 0.009946 0.846742 0.994299
O O8 0.819565 0.546906 0.418333
O O9 0.716824 0.540307 0.583713
O O10 0.686056 0.423109 0.449239
O O11 0.714299 0.465040 0.273868
O O12 0.085454 0.938057 0.820659
O O13 0.516968 0.425127 0.160978
O O14 0.500000 0.500000 0.000000
#
# Coordination Sequence:
#
# PCOD8248261 Si02
#       7
#     8   8   8   8   4   8   8
#     4  12  27  41  59  91 131 178 204 256 328 396
#     4  11  23  38  61  89 127 159 210 264 315 377
#     4  11  23  43  61  91 124 165 218 258 308 384
#     4  12  21  39  65  89 123 165 209 259 316 370
#     4  12  16  34  64  98 116 152 208 270 314 352
#     4  11  18  35  62  95 118 153 211 265 308 358
#     4  11  18  33  64  94 117 151 212 265 304 358
#
# _framework density 19.096564999999998
#
# number of rings (size 3 to 8) (size 9 to 14) (size 15 to 20)
#    0.000    0.615   10.000    0.462    2.154    0.000 
#    0.000    0.000    0.000    0.000    0.000    0.000 
#    0.000    0.000    0.000    0.000    0.000    0.000 
#
# Total GULP energy -644222.899626 kJ/mol
# GULP energy per Si atom -12388.901916 kJ/mol
# Density = 1.905310 g / cm^3
# Si number density = 19.096565 Si / 1000 Ang^3
#
#
#
# Elastic Constant Matrix: (Units=GPa)
#
#
# Indices 1 2 3 4 5 6 
#
# 1 119.1818 39.3883 39.9146 0.0000 0.0000 0.0000
# 2 39.3883 85.8824 32.2050 0.0000 0.0000 0.0000
# 3 39.9146 32.2050 86.1564 0.0000 0.0000 0.0000
# 4 0.0000 0.0000 0.0000 23.4913 0.0000 0.0000
# 5 0.0000 0.0000 0.0000 0.0000 35.0252 0.0000
# 6 0.0000 0.0000 0.0000 0.0000 0.0000 25.2646
#
#
#
# Elastic Compliance Matrix: (Units=1/GPa)
#
#
# Indices 1 2 3 4 5 6 
#
# 1 0.010801 -0.003579 -0.003666 0.000000 0.000000 0.000000
# 2 -0.003579 0.014728 -0.003847 0.000000 0.000000 0.000000
# 3 -0.003666 -0.003847 0.014743 0.000000 0.000000 0.000000
# 4 0.000000 0.000000 0.000000 0.042569 0.000000 0.000000
# 5 0.000000 0.000000 0.000000 0.000000 0.028551 0.000000
# 6 0.000000 0.000000 0.000000 0.000000 0.000000 0.039581
#
#
# Mechanical properties :
#
#
# Convention : Reuss Voigt Hill
#
# Bulk Modulus (GPa) = 55.28598 57.13739 56.21168
# Shear Modulus (GPa) = 27.90379 28.73707 28.32043
#
# Velocity S-wave (km/s) = 3.82670 3.88342 3.85517
# Velocity P-wave (km/s) = 6.96696 7.07765 7.02252
#
# Compressibility (1/GPa) = 0.01808777
#
# Stress axis : x y z
#
# Youngs Moduli (GPa) = 92.58244 67.89830 67.82731
#
# Poissons Ratio (x) = 0.24301 0.24867
# Poissons Ratio (y) = 0.33135 0.26094
# Poissons Ratio (z) = 0.33942 0.26122
#
# Static dielectric constant tensor:
#      x y z
#    x 3.831790 0.000000 0.000000 
#    y 0.000000 3.252310 0.000000 
#    z 0.000000 0.000000 3.880530 
# 
# 
# High freq. dielectric constant tensor:
#      x y z
#    x 1.740070 0.000000 0.000000 
#    y 0.000000 1.716810 0.000000 
#    z 0.000000 0.000000 1.760760 
# 
# From -- ./inp_files/16280.got.cif
#   From: 2010.03.12/outbox.cif.g09.slc.cpg/sg60_9_cif.got.tgz:16280.got - 2010.04.10 18:46:24.
