data_PCOD8248273
_publ_section_title
;
Structure prediction by ZEFSAII (Michael W. Deem and Ramdas Pophale) SiO2 
 PCOD8248273
Probable space group: P B C N
;
_chemical_formula_sum "Si O2"
_cell_formula_units_Z 48
_cell_length_a 9.368127
_cell_length_b 13.767298
_cell_length_c 17.629886
_cell_angle_alpha 90.000000
_cell_angle_beta 90.000000
_cell_angle_gamma 90.000000
_cell_volume 2273.793322
_symmetry_space_group_name_H-M "P B C N"
_symmetry_group_IT_number 60
_symmetry_cell_setting 'orthorhombic'
loop_
_space_group_symop_operation_xyz
x,y,z
1/2-x,1/2-y,1/2+z
1/2+x,1/2-y,-z
-x,y,1/2-z
-x,-y,-z
1/2+x,1/2+y,1/2-z
1/2-x,1/2+y,z
x,-y,1/2+z
loop_
_atom_site_type_symbol
_atom_site_label
_atom_site_fract_x
_atom_site_fract_y
_atom_site_fract_z
Si Si1 0.940110 0.863335 0.388087
Si Si2 0.594763 0.047240 0.064545
Si Si3 0.747926 0.372932 0.075318
Si Si4 0.344343 0.577751 0.096844
Si Si5 0.410791 0.166875 0.175869
Si Si6 0.129683 0.169165 0.448692
O O1 0.888529 0.783858 0.326615
O O2 0.932809 0.808156 0.468767
O O3 0.106443 0.884263 0.374552
O O4 0.849638 0.962199 0.387391
O O5 0.507675 0.128387 0.107845
O O6 0.740187 0.096422 0.035621
O O7 0.644634 0.952283 0.111982
O O8 0.500000 0.000000 0.000000
O O9 0.817123 0.268068 0.089362
O O10 0.721165 0.397319 0.985712
O O11 0.246273 0.619691 0.165393
O O12 0.504622 0.621504 0.102770
O O13 0.500000 0.136001 0.250000
#
# Coordination Sequence:
#
# PCOD8248273 Si02
#       6
#     8   8   8   8   8   8
#     4  11  20  40  66  93 130 170 217 277 340 398
#     4  12  21  39  66  98 131 169 225 284 334 394
#     4  11  20  35  68 101 128 164 220 280 335 393
#     4  11  22  40  64 100 133 171 221 280 340 401
#     4  12  27  45  63  93 136 178 225 277 346 417
#     4  11  20  35  66 103 130 161 217 279 337 391
#
# _framework density 21.110097
#
# number of rings (size 3 to 8) (size 9 to 14) (size 15 to 20)
#    0.000    0.667    8.333    1.000    2.333    1.333 
#    3.000    0.833    0.000    0.000    0.000    0.000 
#    0.000    0.000    0.000    0.000    0.000    0.000 
#
# Total GULP energy -594718.320174 kJ/mol
# GULP energy per Si atom -12389.965004 kJ/mol
# Density = 2.106205 g / cm^3
# Si number density = 21.110097 Si / 1000 Ang^3
#
#
#
# Elastic Constant Matrix: (Units=GPa)
#
#
# Indices 1 2 3 4 5 6 
#
# 1 135.0365 55.4934 22.6982 0.0000 0.0000 0.0000
# 2 55.4934 154.4067 21.4500 0.0000 0.0000 0.0000
# 3 22.6982 21.4500 44.5484 0.0000 0.0000 0.0000
# 4 0.0000 0.0000 0.0000 12.5513 0.0000 0.0000
# 5 0.0000 0.0000 0.0000 0.0000 24.4595 0.0000
# 6 0.0000 0.0000 0.0000 0.0000 0.0000 46.4240
#
#
#
# Elastic Compliance Matrix: (Units=1/GPa)
#
#
# Indices 1 2 3 4 5 6 
#
# 1 0.009117 -0.002820 -0.003287 0.000000 0.000000 0.000000
# 2 -0.002820 0.007813 -0.002325 0.000000 0.000000 0.000000
# 3 -0.003287 -0.002325 0.025242 0.000000 0.000000 0.000000
# 4 0.000000 0.000000 0.000000 0.079673 0.000000 0.000000
# 5 0.000000 0.000000 0.000000 0.000000 0.040884 0.000000
# 6 0.000000 0.000000 0.000000 0.000000 0.000000 0.021541
#
#
# Mechanical properties :
#
#
# Convention : Reuss Voigt Hill
#
# Bulk Modulus (GPa) = 39.51487 59.25275 49.38381
# Shear Modulus (GPa) = 23.85842 32.31030 28.08436
#
# Velocity S-wave (km/s) = 3.36548 3.91648 3.65139
# Velocity P-wave (km/s) = 5.81902 6.97002 6.42037
#
# Compressibility (1/GPa) = 0.02530693
#
# Stress axis : x y z
#
# Youngs Moduli (GPa) = 109.68743 127.99404 39.61642
#
# Poissons Ratio (x) = 0.36093 0.13024
# Poissons Ratio (y) = 0.30930 0.09211
# Poissons Ratio (z) = 0.36059 0.29760
#
# Static dielectric constant tensor:
#      x y z
#    x 4.166840 0.000000 0.000000 
#    y 0.000000 3.867750 0.000000 
#    z 0.000000 0.000000 3.238080 
# 
# 
# High freq. dielectric constant tensor:
#      x y z
#    x 1.847560 0.000000 0.000000 
#    y 0.000000 1.852360 0.000000 
#    z 0.000000 0.000000 1.750900 
# 
# From -- ./inp_files/19285.got.cif
#   From: 2010.03.12/outbox.cif.g09.slc.cpg/sg60_10_cif.got.tgz:19285.got - 2010.04.10 18:46:24.
