data_PCOD8248505
_publ_section_title
;
Structure prediction by ZEFSAII (Michael W. Deem and Ramdas Pophale) SiO2 
 PCOD8248505
Probable space group: P B C N
;
_chemical_formula_sum "Si O2"
_cell_formula_units_Z 64
_cell_length_a 29.297931
_cell_length_b 10.734739
_cell_length_c 9.595937
_cell_angle_alpha 90.000000
_cell_angle_beta 90.000000
_cell_angle_gamma 90.000000
_cell_volume 3017.976332
_symmetry_space_group_name_H-M "P B C N"
_symmetry_group_IT_number 60
_symmetry_cell_setting 'orthorhombic'
loop_
_space_group_symop_operation_xyz
x,y,z
1/2-x,1/2-y,1/2+z
1/2+x,1/2-y,-z
-x,y,1/2-z
-x,-y,-z
1/2+x,1/2+y,1/2-z
1/2-x,1/2+y,z
x,-y,1/2+z
loop_
_atom_site_type_symbol
_atom_site_label
_atom_site_fract_x
_atom_site_fract_y
_atom_site_fract_z
Si Si1 0.164973 0.008867 0.184130
Si Si2 0.985646 0.880837 0.091644
Si Si3 0.623815 0.053342 0.378688
Si Si4 0.519340 0.889644 0.904805
Si Si5 0.378462 0.376973 0.427664
Si Si6 0.695685 0.739122 0.940072
Si Si7 0.341970 0.887377 0.900116
Si Si8 0.246582 0.842621 0.800030
O O1 0.135548 0.988162 0.323679
O O2 0.169807 0.889091 0.086576
O O3 0.137506 0.105317 0.086973
O O4 0.214937 0.055006 0.227246
O O5 0.007809 0.749971 0.039243
O O6 0.000000 0.908876 0.250000
O O7 0.932123 0.859025 0.078987
O O8 0.000000 0.000000 0.000000
O O9 0.573422 0.099733 0.408290
O O10 0.659324 0.151243 0.441410
O O11 0.631320 0.031113 0.215165
O O12 0.636535 0.922779 0.451704
O O13 0.500000 0.907195 0.750000
O O14 0.500000 0.000000 0.000000
O O15 0.352544 0.256519 0.367365
O O16 0.733983 0.755617 0.821588
O O17 0.718346 0.741383 0.092348
O O18 0.287636 0.909966 0.885603
#
# Coordination Sequence:
#
# PCOD8248505 Si02
#       8
#     8   8   8   8   8   8   8   8
#     4  12  25  42  68  95 134 179 218 280 328 409
#     4  11  25  43  72 101 137 178 225 287 348 424
#     4  11  24  43  67  96 132 172 220 272 340 388
#     4  11  24  44  72  98 133 174 225 284 344 410
#     4  12  24  47  66  98 136 174 226 277 347 397
#     4  11  26  42  66  94 133 173 224 271 326 400
#     4  11  25  42  68  96 135 175 220 279 321 405
#     4  11  25  41  66  97 133 175 227 267 336 383
#
# _framework density 21.206264000000001
#
# number of rings (size 3 to 8) (size 9 to 14) (size 15 to 20)
#    0.000    0.750    3.750    4.500    7.000    1.500 
#    0.000    3.750    0.000    0.000    0.000    0.000 
#    0.000    0.000    0.000    0.000    0.000    0.000 
#
# Total GULP energy -793727.342297 kJ/mol
# GULP energy per Si atom -12401.989723 kJ/mol
# Density = 2.115800 g / cm^3
# Si number density = 21.206264 Si / 1000 Ang^3
#
#
#
# Elastic Constant Matrix: (Units=GPa)
#
#
# Indices 1 2 3 4 5 6 
#
# 1 120.9252 18.9004 28.7264 0.0000 0.0000 0.0000
# 2 18.9004 80.9926 42.4967 0.0000 0.0000 0.0000
# 3 28.7264 42.4967 111.3942 0.0000 0.0000 0.0000
# 4 0.0000 0.0000 0.0000 38.6121 0.0000 0.0000
# 5 0.0000 0.0000 0.0000 0.0000 34.1562 0.0000
# 6 0.0000 0.0000 0.0000 0.0000 0.0000 28.3720
#
#
#
# Elastic Compliance Matrix: (Units=1/GPa)
#
#
# Indices 1 2 3 4 5 6 
#
# 1 0.008885 -0.001089 -0.001876 0.000000 0.000000 0.000000
# 2 -0.001089 0.015570 -0.005659 0.000000 0.000000 0.000000
# 3 -0.001876 -0.005659 0.011620 0.000000 0.000000 0.000000
# 4 0.000000 0.000000 0.000000 0.025899 0.000000 0.000000
# 5 0.000000 0.000000 0.000000 0.000000 0.029277 0.000000
# 6 0.000000 0.000000 0.000000 0.000000 0.000000 0.035246
#
#
# Mechanical properties :
#
#
# Convention : Reuss Voigt Hill
#
# Bulk Modulus (GPa) = 53.11487 54.83987 53.97737
# Shear Modulus (GPa) = 33.32850 35.10729 34.21790
#
# Velocity S-wave (km/s) = 3.96869 4.07322 4.02129
# Velocity P-wave (km/s) = 6.78983 6.93093 6.86074
#
# Compressibility (1/GPa) = 0.01882712
#
# Stress axis : x y z
#
# Youngs Moduli (GPa) = 112.54375 64.22463 86.05976
#
# Poissons Ratio (x) = 0.06996 0.16143
# Poissons Ratio (y) = 0.12259 0.48703
# Poissons Ratio (z) = 0.21111 0.36346
#
# Static dielectric constant tensor:
#      x y z
#    x 3.955990 0.000000 0.000000 
#    y 0.000000 3.823820 0.000000 
#    z 0.000000 0.000000 3.831930 
# 
# 
# High freq. dielectric constant tensor:
#      x y z
#    x 1.844850 0.000000 0.000000 
#    y 0.000000 1.826980 0.000000 
#    z 0.000000 0.000000 1.841070 
# 
# From -- ./inp_files/8520.got.cif
#   From: 2010.03.12/outbox.cif.g09.slc.cpg/sg60_5_cif.got.tgz:8520.got - 2010.04.10 18:46:24.
