data_PCOD8248422
_publ_section_title
;
Structure prediction by ZEFSAII (Michael W. Deem and Ramdas Pophale) SiO2 
 PCOD8248422
Probable space group: P B C N
;
_chemical_formula_sum "Si O2"
_cell_formula_units_Z 56
_cell_length_a 13.348707
_cell_length_b 20.382926
_cell_length_c 10.317770
_cell_angle_alpha 90.000000
_cell_angle_beta 90.000000
_cell_angle_gamma 90.000000
_cell_volume 2807.317745
_symmetry_space_group_name_H-M "P B C N"
_symmetry_group_IT_number 60
_symmetry_cell_setting 'orthorhombic'
loop_
_space_group_symop_operation_xyz
x,y,z
1/2-x,1/2-y,1/2+z
1/2+x,1/2-y,-z
-x,y,1/2-z
-x,-y,-z
1/2+x,1/2+y,1/2-z
1/2-x,1/2+y,z
x,-y,1/2+z
loop_
_atom_site_type_symbol
_atom_site_label
_atom_site_fract_x
_atom_site_fract_y
_atom_site_fract_z
Si Si1 0.759221 0.175666 0.896206
Si Si2 0.805014 0.376265 0.135237
Si Si3 0.887631 0.945649 0.105924
Si Si4 0.890696 0.301467 0.893411
Si Si5 0.382716 0.155469 0.379463
Si Si6 0.067979 0.508629 0.375704
Si Si7 0.887436 0.949514 0.396075
O O1 0.690194 0.167102 0.766987
O O2 0.849145 0.227699 0.887811
O O3 0.810144 0.106986 0.922641
O O4 0.687809 0.192374 0.017240
O O5 0.687388 0.384040 0.100261
O O6 0.855543 0.448434 0.148171
O O7 0.857887 0.336573 0.023701
O O8 0.880002 0.977738 0.249670
O O9 0.000597 0.922482 0.076855
O O10 0.853536 0.995478 0.996001
O O11 0.842754 0.335762 0.766986
O O12 0.010560 0.307731 0.890799
O O13 0.378131 0.077619 0.403667
O O14 0.000000 0.516578 0.250000
O O15 0.000000 0.500000 0.500000
#
# Coordination Sequence:
#
# PCOD8248422 Si02
#       7
#     8   8   8   8   8   8   8
#     4  11  24  39  63  89 122 166 213 254 311 385
#     4  11  23  38  62  93 121 165 207 259 317 381
#     4   9  19  35  59  84 121 149 201 250 311 368
#     4  11  24  42  60  87 123 166 207 251 313 380
#     4  11  23  43  63  90 125 164 208 266 318 381
#     4  12  21  38  63  93 127 159 205 269 328 374
#     4   9  19  37  57  88 116 158 196 258 310 362
#
# _framework density 19.947866999999999
#
# number of rings (size 3 to 8) (size 9 to 14) (size 15 to 20)
#    0.000    1.429    2.857    2.571    0.000   10.286 
#    0.000    0.000    0.000    5.143    0.000    0.000 
#    0.000    0.000    0.000    0.000    0.000    0.000 
#
# Total GULP energy -694142.287979 kJ/mol
# GULP energy per Si atom -12395.398000 kJ/mol
# Density = 1.990246 g / cm^3
# Si number density = 19.947867 Si / 1000 Ang^3
#
#
#
# Elastic Constant Matrix: (Units=GPa)
#
#
# Indices 1 2 3 4 5 6 
#
# 1 54.6182 15.1112 40.7525 0.0000 0.0000 0.0000
# 2 15.1112 47.7819 36.3991 0.0000 0.0000 0.0000
# 3 40.7525 36.3991 114.5589 0.0000 0.0000 0.0000
# 4 0.0000 0.0000 0.0000 26.2001 0.0000 0.0000
# 5 0.0000 0.0000 0.0000 0.0000 33.3990 0.0000
# 6 0.0000 0.0000 0.0000 0.0000 0.0000 34.2618
#
#
#
# Elastic Compliance Matrix: (Units=1/GPa)
#
#
# Indices 1 2 3 4 5 6 
#
# 1 0.025005 -0.001493 -0.008421 0.000000 0.000000 0.000000
# 2 -0.001493 0.027701 -0.008270 0.000000 0.000000 0.000000
# 3 -0.008421 -0.008270 0.014352 0.000000 0.000000 0.000000
# 4 0.000000 0.000000 0.000000 0.038168 0.000000 0.000000
# 5 0.000000 0.000000 0.000000 0.000000 0.029941 0.000000
# 6 0.000000 0.000000 0.000000 0.000000 0.000000 0.029187
#
#
# Mechanical properties :
#
#
# Convention : Reuss Voigt Hill
#
# Bulk Modulus (GPa) = 32.58412 44.60941 38.59677
# Shear Modulus (GPa) = 23.70205 27.08526 25.39366
#
# Velocity S-wave (km/s) = 3.45077 3.68883 3.57178
# Velocity P-wave (km/s) = 5.67866 6.36827 6.03333
#
# Compressibility (1/GPa) = 0.03068979
#
# Stress axis : x y z
#
# Youngs Moduli (GPa) = 39.99196 36.10014 69.67481
#
# Poissons Ratio (x) = 0.05391 0.58671
# Poissons Ratio (y) = 0.05972 0.57623
# Poissons Ratio (z) = 0.33676 0.29856
#
# Static dielectric constant tensor:
#      x y z
#    x 3.753940 0.000000 0.000000 
#    y 0.000000 3.556330 0.000000 
#    z 0.000000 0.000000 3.925940 
# 
# 
# High freq. dielectric constant tensor:
#      x y z
#    x 1.781970 0.000000 0.000000 
#    y 0.000000 1.758980 0.000000 
#    z 0.000000 0.000000 1.799770 
# 
# From -- ./inp_files/6178.got.cif
#   From: 2010.03.12/outbox.cif.g09.slc.cpg/sg60_4_cif.got.tgz:6178.got - 2010.04.10 18:46:24.
