data_PCOD8248667
_publ_section_title
;
Structure prediction by ZEFSAII (Michael W. Deem and Ramdas Pophale) SiO2 
 PCOD8248667
Probable space group: P B C N
;
_chemical_formula_sum "Si O2"
_cell_formula_units_Z 32
_cell_length_a 8.414992
_cell_length_b 18.528310
_cell_length_c 8.313074
_cell_angle_alpha 90.000000
_cell_angle_beta 90.000000
_cell_angle_gamma 90.000000
_cell_volume 1296.137758
_symmetry_space_group_name_H-M "P B C N"
_symmetry_group_IT_number 60
_symmetry_cell_setting 'orthorhombic'
loop_
_space_group_symop_operation_xyz
x,y,z
1/2-x,1/2-y,1/2+z
1/2+x,1/2-y,-z
-x,y,1/2-z
-x,-y,-z
1/2+x,1/2+y,1/2-z
1/2-x,1/2+y,z
x,-y,1/2+z
loop_
_atom_site_type_symbol
_atom_site_label
_atom_site_fract_x
_atom_site_fract_y
_atom_site_fract_z
Si Si1 0.326108 0.212610 0.295106
Si Si2 0.174224 0.903817 0.985439
Si Si3 0.676836 0.648324 0.511977
Si Si4 0.680544 0.969397 0.201081
O O1 0.500000 0.184269 0.250000
O O2 0.259372 0.172746 0.453835
O O3 0.332076 0.297673 0.335145
O O4 0.211993 0.195169 0.145687
O O5 0.221644 0.934702 0.155900
O O6 0.985744 0.894591 0.983316
O O7 0.233063 0.956075 0.842242
O O8 0.810245 0.587280 0.551305
O O9 0.500000 0.984376 0.250000
#
# Coordination Sequence:
#
# PCOD8248667 Si02
#       4
#     8   8   8   8
#     4  12  25  45  69 102 142 190 241 298 361 427
#     4  12  26  46  72 107 147 190 239 294 356 425
#     4  12  26  45  72 104 142 187 240 300 359 426
#     4  12  25  46  73 107 146 189 237 294 355 426
#
# _framework density 24.688732000000002
#
# number of rings (size 3 to 8) (size 9 to 14) (size 15 to 20)
#    0.000    0.000    0.000   11.250    0.000    4.000 
#    0.000    0.000    0.000    0.000    0.000    0.000 
#    0.000    0.000    0.000    0.000    0.000    0.000 
#
# Total GULP energy -397022.373675 kJ/mol
# GULP energy per Si atom -12406.949177 kJ/mol
# Density = 2.463254 g / cm^3
# Si number density = 24.688732 Si / 1000 Ang^3
#
#
#
# Elastic Constant Matrix: (Units=GPa)
#
#
# Indices 1 2 3 4 5 6 
#
# 1 156.7793 71.1584 52.5791 0.0000 0.0000 0.0000
# 2 71.1584 123.9686 39.8281 0.0000 0.0000 0.0000
# 3 52.5791 39.8281 79.5118 0.0000 0.0000 0.0000
# 4 0.0000 0.0000 0.0000 44.6974 0.0000 0.0000
# 5 0.0000 0.0000 0.0000 0.0000 48.5832 0.0000
# 6 0.0000 0.0000 0.0000 0.0000 0.0000 39.1331
#
#
#
# Elastic Compliance Matrix: (Units=1/GPa)
#
#
# Indices 1 2 3 4 5 6 
#
# 1 0.009737 -0.004196 -0.004337 0.000000 0.000000 0.000000
# 2 -0.004196 0.011422 -0.002947 0.000000 0.000000 0.000000
# 3 -0.004337 -0.002947 0.016921 0.000000 0.000000 0.000000
# 4 0.000000 0.000000 0.000000 0.022373 0.000000 0.000000
# 5 0.000000 0.000000 0.000000 0.000000 0.020583 0.000000
# 6 0.000000 0.000000 0.000000 0.000000 0.000000 0.025554
#
#
# Mechanical properties :
#
#
# Convention : Reuss Voigt Hill
#
# Bulk Modulus (GPa) = 66.13594 76.37678 71.25636
# Shear Modulus (GPa) = 37.15002 39.59568 38.37285
#
# Velocity S-wave (km/s) = 3.88330 4.00909 3.94669
# Velocity P-wave (km/s) = 6.85221 7.24109 7.04933
#
# Compressibility (1/GPa) = 0.01512037
#
# Stress axis : x y z
#
# Youngs Moduli (GPa) = 102.69685 87.55312 59.09840
#
# Poissons Ratio (x) = 0.36736 0.25633
# Poissons Ratio (y) = 0.43090 0.17414
# Poissons Ratio (z) = 0.44544 0.25799
#
# Static dielectric constant tensor:
#      x y z
#    x 4.379250 0.000000 0.000000 
#    y 0.000000 4.806170 0.000000 
#    z 0.000000 0.000000 4.661850 
# 
# 
# High freq. dielectric constant tensor:
#      x y z
#    x 1.980210 0.000000 0.000000 
#    y 0.000000 2.003590 0.000000 
#    z 0.000000 0.000000 1.997460 
# 
# From -- ./inp_files/3590.got.cif
#   From: 2010.03.12/outbox.cif.g09.slc.cpg/sg60_2_cif.got.tgz:3590.got - 2010.04.10 18:46:24.
