data_PCOD8248757
_publ_section_title
;
Structure prediction by ZEFSAII (Michael W. Deem and Ramdas Pophale) SiO2 
 PCOD8248757
Probable space group: P B C A
;
_chemical_formula_sum "Si O2"
_cell_formula_units_Z 64
_cell_length_a 32.388799
_cell_length_b 17.555451
_cell_length_c 5.519760
_cell_angle_alpha 90.000000
_cell_angle_beta 90.000000
_cell_angle_gamma 90.000000
_cell_volume 3138.535391
_symmetry_space_group_name_H-M "P B C A"
_symmetry_group_IT_number 61
_symmetry_cell_setting 'orthorhombic'
loop_
_space_group_symop_operation_xyz
x,y,z
1/2-x,-y,1/2+z
1/2+x,1/2-y,-z
-x,1/2+y,1/2-z
-x,-y,-z
1/2+x,y,1/2-z
1/2-x,1/2+y,z
x,1/2-y,1/2+z
loop_
_atom_site_type_symbol
_atom_site_label
_atom_site_fract_x
_atom_site_fract_y
_atom_site_fract_z
Si Si1 0.533970 0.599526 0.591027
Si Si2 0.137824 0.058828 0.416038
Si Si3 0.090983 0.970130 0.039909
Si Si4 0.602271 0.793622 0.013868
Si Si5 0.688681 0.207375 0.173944
Si Si6 0.445736 0.558000 0.657776
Si Si7 0.653054 0.915401 0.821228
Si Si8 0.285591 0.206887 0.312328
O O1 0.555944 0.582348 0.844907
O O2 0.554659 0.677392 0.496096
O O3 0.484872 0.613684 0.627653
O O4 0.542176 0.527689 0.420202
O O5 0.166486 0.126499 0.328933
O O6 0.093866 0.090865 0.514562
O O7 0.128122 0.001873 0.200078
O O8 0.162314 0.003693 0.606177
O O9 0.112993 0.915256 0.850363
O O10 0.067917 0.045806 0.934822
O O11 0.611997 0.752856 0.758091
O O12 0.634709 0.864054 0.040915
O O13 0.675589 0.249188 0.425139
O O14 0.737075 0.192132 0.181480
O O15 0.693016 0.876223 0.699894
O O16 0.298532 0.247730 0.565283
#
# Coordination Sequence:
#
# PCOD8248757 Si02
#       8
#     8   8   8   8   8   8   8   8
#     4  10  19  36  55  85 118 168 215 256 312 373
#     4  10  22  39  64  96 120 163 217 272 318 376
#     4  10  18  35  60  91 122 158 214 267 311 371
#     4  12  24  37  57  86 131 172 200 253 321 376
#     4  10  24  47  69  92 129 170 210 263 332 392
#     4   9  19  35  62  86 117 157 219 269 309 369
#     4  11  22  38  61  94 129 163 219 260 309 389
#     4  10  23  43  65  94 130 174 212 248 315 394
#
# _framework density 20.391674999999999
#
# number of rings (size 3 to 8) (size 9 to 14) (size 15 to 20)
#    0.000    1.750    3.750    1.875    5.250    0.000 
#    2.250    1.250    0.000    0.000    0.000    0.000 
#    0.000    0.000    0.000    0.000    0.000    0.000 
#
# Total GULP energy -792896.220742 kJ/mol
# GULP energy per Si atom -12389.003449 kJ/mol
# Density = 2.034526 g / cm^3
# Si number density = 20.391675 Si / 1000 Ang^3
#
#
#
# Elastic Constant Matrix: (Units=GPa)
#
#
# Indices 1 2 3 4 5 6 
#
# 1 68.5372 41.1391 23.1844 0.0000 0.0000 0.0000
# 2 41.1391 74.3850 28.2649 0.0000 0.0000 0.0000
# 3 23.1844 28.2649 110.1155 0.0000 0.0000 0.0000
# 4 0.0000 0.0000 0.0000 18.5539 0.0000 0.0000
# 5 0.0000 0.0000 0.0000 0.0000 17.3412 0.0000
# 6 0.0000 0.0000 0.0000 0.0000 0.0000 44.7127
#
#
#
# Elastic Compliance Matrix: (Units=1/GPa)
#
#
# Indices 1 2 3 4 5 6 
#
# 1 0.022118 -0.011594 -0.001681 0.000000 0.000000 0.000000
# 2 -0.011594 0.020974 -0.002943 0.000000 0.000000 0.000000
# 3 -0.001681 -0.002943 0.010191 0.000000 0.000000 0.000000
# 4 0.000000 0.000000 0.000000 0.053897 0.000000 0.000000
# 5 0.000000 0.000000 0.000000 0.000000 0.057666 0.000000
# 6 0.000000 0.000000 0.000000 0.000000 0.000000 0.022365
#
#
# Mechanical properties :
#
#
# Convention : Reuss Voigt Hill
#
# Bulk Modulus (GPa) = 47.96666 48.69048 48.32857
# Shear Modulus (GPa) = 22.06577 26.81819 24.44198
#
# Velocity S-wave (km/s) = 3.29309 3.63044 3.46587
# Velocity P-wave (km/s) = 6.16709 6.44228 6.30618
#
# Compressibility (1/GPa) = 0.02084782
#
# Stress axis : x y z
#
# Youngs Moduli (GPa) = 45.21103 47.67843 98.12956
#
# Poissons Ratio (x) = 0.55279 0.16495
# Poissons Ratio (y) = 0.52418 0.28875
# Poissons Ratio (z) = 0.07600 0.14030
#
# Static dielectric constant tensor:
#      x y z
#    x 3.784400 0.000000 0.000000 
#    y 0.000000 3.423970 0.000000 
#    z 0.000000 0.000000 4.006510 
# 
# 
# High freq. dielectric constant tensor:
#      x y z
#    x 1.792480 0.000000 0.000000 
#    y 0.000000 1.766780 0.000000 
#    z 0.000000 0.000000 1.810260 
# 
# From -- ./inp_files/1510.got.cif
#   From: 2010.03.12/outbox.cif.g09.slc.cpg/sg61_1_cif.got.tgz:1510.got - 2010.04.10 19:05:03.
