data_PCOD8248368
_publ_section_title
;
Structure prediction by ZEFSAII (Michael W. Deem and Ramdas Pophale) SiO2 
 PCOD8248368
Probable space group: P B C N
;
_chemical_formula_sum "Si O2"
_cell_formula_units_Z 48
_cell_length_a 7.425339
_cell_length_b 22.219927
_cell_length_c 14.666248
_cell_angle_alpha 90.000000
_cell_angle_beta 90.000000
_cell_angle_gamma 90.000000
_cell_volume 2419.791452
_symmetry_space_group_name_H-M "P B C N"
_symmetry_group_IT_number 60
_symmetry_cell_setting 'orthorhombic'
loop_
_space_group_symop_operation_xyz
x,y,z
1/2-x,1/2-y,1/2+z
1/2+x,1/2-y,-z
-x,y,1/2-z
-x,-y,-z
1/2+x,1/2+y,1/2-z
1/2-x,1/2+y,z
x,-y,1/2+z
loop_
_atom_site_type_symbol
_atom_site_label
_atom_site_fract_x
_atom_site_fract_y
_atom_site_fract_z
Si Si1 0.694088 0.245772 0.108549
Si Si2 0.988472 0.069368 0.977908
Si Si3 0.723249 0.124610 0.658376
Si Si4 0.716342 0.756249 0.902227
Si Si5 0.994584 0.152922 0.150764
Si Si6 0.813941 0.379405 0.363144
O O1 0.734407 0.304363 0.169549
O O2 0.511814 0.225717 0.381552
O O3 0.808802 0.188266 0.136775
O O4 0.738624 0.267271 0.007158
O O5 0.790473 0.080383 0.936842
O O6 0.135706 0.089681 0.904196
O O7 0.020533 0.104670 0.071666
O O8 0.000000 0.000000 0.000000
O O9 0.731137 0.098184 0.760789
O O10 0.525514 0.115058 0.615725
O O11 0.748511 0.688240 0.874691
O O12 0.842876 0.799546 0.844280
O O13 0.000000 0.120598 0.250000
#
# Coordination Sequence:
#
# PCOD8248368 Si02
#       6
#     8   8   8   8   8   8
#     4  12  20  36  65  99 131 163 199 255 330 396
#     4  12  27  45  66  87 123 183 227 262 306 372
#     4  11  22  39  67  99 128 160 208 267 322 383
#     4  12  20  36  65  99 131 163 199 255 330 396
#     4  12  26  41  60  97 137 165 208 270 326 378
#     4  11  22  39  67  99 128 160 208 267 322 383
#
# _framework density 19.836418999999999
#
# number of rings (size 3 to 8) (size 9 to 14) (size 15 to 20)
#    0.000    0.333    8.333    1.500    0.000    4.000 
#    0.000    0.000    0.000    0.000    0.000    0.000 
#    0.000    0.000    0.000    0.000    0.000    0.000 
#
# Total GULP energy -595365.329372 kJ/mol
# GULP energy per Si atom -12403.444362 kJ/mol
# Density = 1.979127 g / cm^3
# Si number density = 19.836419 Si / 1000 Ang^3
#
#
#
# Elastic Constant Matrix: (Units=GPa)
#
#
# Indices 1 2 3 4 5 6 
#
# 1 137.0934 27.0886 9.6487 0.0000 0.0000 0.0000
# 2 27.0886 103.3170 11.4852 0.0000 0.0000 0.0000
# 3 9.6487 11.4852 74.8261 0.0000 0.0000 0.0000
# 4 0.0000 0.0000 0.0000 6.2076 0.0000 0.0000
# 5 0.0000 0.0000 0.0000 0.0000 26.0112 0.0000
# 6 0.0000 0.0000 0.0000 0.0000 0.0000 14.6919
#
#
#
# Elastic Compliance Matrix: (Units=1/GPa)
#
#
# Indices 1 2 3 4 5 6 
#
# 1 0.007728 -0.001949 -0.000697 0.000000 0.000000 0.000000
# 2 -0.001949 0.010338 -0.001336 0.000000 0.000000 0.000000
# 3 -0.000697 -0.001336 0.013659 0.000000 0.000000 0.000000
# 4 0.000000 0.000000 0.000000 0.161092 0.000000 0.000000
# 5 0.000000 0.000000 0.000000 0.000000 0.038445 0.000000
# 6 0.000000 0.000000 0.000000 0.000000 0.000000 0.068065
#
#
# Mechanical properties :
#
#
# Convention : Reuss Voigt Hill
#
# Bulk Modulus (GPa) = 42.08313 45.74237 43.91275
# Shear Modulus (GPa) = 15.86232 27.18310 21.52271
#
# Velocity S-wave (km/s) = 2.83089 3.70586 3.29752
# Velocity P-wave (km/s) = 5.65211 6.43592 6.05671
#
# Compressibility (1/GPa) = 0.02376249
#
# Stress axis : x y z
#
# Youngs Moduli (GPa) = 129.39212 96.72710 73.21045
#
# Poissons Ratio (x) = 0.18850 0.05106
# Poissons Ratio (y) = 0.25216 0.09778
# Poissons Ratio (z) = 0.09024 0.12918
#
# Static dielectric constant tensor:
#      x y z
#    x 3.956060 0.000000 0.000000 
#    y 0.000000 3.290110 0.000000 
#    z 0.000000 0.000000 3.722810 
# 
# 
# High freq. dielectric constant tensor:
#      x y z
#    x 1.792840 0.000000 0.000000 
#    y 0.000000 1.731220 0.000000 
#    z 0.000000 0.000000 1.792540 
# 
# From -- ./inp_files/10119.got.cif
#   From: 2010.03.12/outbox.cif.g09.slc.cpg/sg60_6_cif.got.tgz:10119.got - 2010.04.10 18:46:24.
