data_PCOD8248863
_publ_section_title
;
Structure prediction by ZEFSAII (Michael W. Deem and Ramdas Pophale) SiO2 
 PCOD8248863
Probable space group: P B C A
;
_chemical_formula_sum "Si O2"
_cell_formula_units_Z 40
_cell_length_a 11.721634
_cell_length_b 13.283680
_cell_length_c 14.102688
_cell_angle_alpha 90.000000
_cell_angle_beta 90.000000
_cell_angle_gamma 90.000000
_cell_volume 2195.879274
_symmetry_space_group_name_H-M "P B C A"
_symmetry_group_IT_number 61
_symmetry_cell_setting 'orthorhombic'
loop_
_space_group_symop_operation_xyz
x,y,z
1/2-x,-y,1/2+z
1/2+x,1/2-y,-z
-x,1/2+y,1/2-z
-x,-y,-z
1/2+x,y,1/2-z
1/2-x,1/2+y,z
x,1/2-y,1/2+z
loop_
_atom_site_type_symbol
_atom_site_label
_atom_site_fract_x
_atom_site_fract_y
_atom_site_fract_z
Si Si1 0.160921 0.883485 0.422257
Si Si2 0.377901 0.779464 0.354951
Si Si3 0.797384 0.895831 0.513411
Si Si4 0.431499 0.194842 0.505335
Si Si5 0.443355 0.700210 0.643834
O O1 0.280275 0.862989 0.369816
O O2 0.140049 0.800921 0.506333
O O3 0.055509 0.872203 0.347554
O O4 0.159550 0.992373 0.468656
O O5 0.342056 0.673203 0.400365
O O6 0.496854 0.819164 0.398720
O O7 0.395662 0.763704 0.243675
O O8 0.659269 0.895072 0.507495
O O9 0.845527 0.859116 0.412901
O O10 0.519854 0.199709 0.416173
#
# Coordination Sequence:
#
# PCOD8248863 Si02
#       5
#     8   8   8   8   8
#     4   9  20  37  55  84 109 147 186 227 278 328
#     4  10  20  37  56  82 116 142 186 231 275 333
#     4  10  19  38  60  79 115 147 185 229 284 333
#     4   8  20  35  57  78 111 149 177 231 275 331
#     4   9  20  35  57  80 110 148 180 231 273 330
#
# _framework density 18.215938999999999
#
# number of rings (size 3 to 8) (size 9 to 14) (size 15 to 20)
#    1.200    1.600    0.000    0.600    2.800    0.800 
#    3.600    6.000    0.000    0.000    0.000    0.000 
#    0.000    0.000    0.000    0.000    0.000    0.000 
#
# Total GULP energy -495645.625421 kJ/mol
# GULP energy per Si atom -12391.140636 kJ/mol
# Density = 1.817448 g / cm^3
# Si number density = 18.215939 Si / 1000 Ang^3
#
#
#
# Elastic Constant Matrix: (Units=GPa)
#
#
# Indices 1 2 3 4 5 6 
#
# 1 90.9660 11.7511 34.6425 0.0000 0.0000 0.0000
# 2 11.7511 41.4035 26.1894 0.0000 0.0000 0.0000
# 3 34.6425 26.1894 120.6914 0.0000 0.0000 0.0000
# 4 0.0000 0.0000 0.0000 11.9699 0.0000 0.0000
# 5 0.0000 0.0000 0.0000 0.0000 18.8783 0.0000
# 6 0.0000 0.0000 0.0000 0.0000 0.0000 15.1580
#
#
#
# Elastic Compliance Matrix: (Units=1/GPa)
#
#
# Indices 1 2 3 4 5 6 
#
# 1 0.012419 -0.001472 -0.003245 0.000000 0.000000 0.000000
# 2 -0.001472 0.028170 -0.005690 0.000000 0.000000 0.000000
# 3 -0.003245 -0.005690 0.010452 0.000000 0.000000 0.000000
# 4 0.000000 0.000000 0.000000 0.083543 0.000000 0.000000
# 5 0.000000 0.000000 0.000000 0.000000 0.052971 0.000000
# 6 0.000000 0.000000 0.000000 0.000000 0.000000 0.065972
#
#
# Mechanical properties :
#
#
# Convention : Reuss Voigt Hill
#
# Bulk Modulus (GPa) = 33.08443 44.24743 38.66593
# Shear Modulus (GPa) = 17.57986 21.23309 19.40647
#
# Velocity S-wave (km/s) = 3.10995 3.41784 3.26752
# Velocity P-wave (km/s) = 5.57651 6.31813 5.95887
#
# Compressibility (1/GPa) = 0.03022570
#
# Stress axis : x y z
#
# Youngs Moduli (GPa) = 80.52059 35.49924 95.67692
#
# Poissons Ratio (x) = 0.05226 0.31050
# Poissons Ratio (y) = 0.11853 0.54442
# Poissons Ratio (z) = 0.26131 0.20200
#
# Static dielectric constant tensor:
#      x y z
#    x 3.616170 0.000000 0.000000 
#    y 0.000000 2.979920 0.000000 
#    z 0.000000 0.000000 2.996010 
# 
# 
# High freq. dielectric constant tensor:
#      x y z
#    x 1.728100 0.000000 0.000000 
#    y 0.000000 1.673170 0.000000 
#    z 0.000000 0.000000 1.679070 
# 
# From -- ./inp_files/5118.got.cif
#   From: 2010.03.12/outbox.cif.g09.slc.cpg/sg61_3_cif.got.tgz:5118.got - 2010.04.10 19:05:03.
