data_PCOD8248207
_publ_section_title
;
Structure prediction by ZEFSAII (Michael W. Deem and Ramdas Pophale) SiO2 
 PCOD8248207
Probable space group: P B C N
;
_chemical_formula_sum "Si O2"
_cell_formula_units_Z 24
_cell_length_a 6.388639
_cell_length_b 16.731393
_cell_length_c 10.211384
_cell_angle_alpha 90.000000
_cell_angle_beta 90.000000
_cell_angle_gamma 90.000000
_cell_volume 1091.503310
_symmetry_space_group_name_H-M "P B C N"
_symmetry_group_IT_number 60
_symmetry_cell_setting 'orthorhombic'
loop_
_space_group_symop_operation_xyz
x,y,z
1/2-x,1/2-y,1/2+z
1/2+x,1/2-y,-z
-x,y,1/2-z
-x,-y,-z
1/2+x,1/2+y,1/2-z
1/2-x,1/2+y,z
x,-y,1/2+z
loop_
_atom_site_type_symbol
_atom_site_label
_atom_site_fract_x
_atom_site_fract_y
_atom_site_fract_z
Si Si1 0.189339 0.089616 0.348712
Si Si2 0.641941 0.372996 0.366245
Si Si3 0.000000 0.719966 0.250000
Si Si4 0.000000 0.538726 0.750000
O O1 0.077819 0.095493 0.490564
O O2 0.325667 0.168804 0.324035
O O3 0.000000 0.081487 0.250000
O O4 0.343637 0.014236 0.337416
O O5 0.500000 0.412842 0.250000
O O6 0.617863 0.276624 0.356891
O O7 0.879482 0.402059 0.347928
#
# Coordination Sequence:
#
# PCOD8248207 Si02
#       4
#     8   8   4   4
#     4  11  25  44  68  97 135 171 220 270 328 389
#     4  10  25  42  69  97 128 175 219 268 327 384
#     4   9  26  40  66  97 128 174 212 271 330 378
#     4  11  24  44  66  99 132 176 220 267 322 392
#
# _framework density 21.988022000000001
#
# number of rings (size 3 to 8) (size 9 to 14) (size 15 to 20)
#    1.000    0.667    0.000    2.000    7.000   10.667 
#    0.000    0.000    0.000    0.000    0.000    0.000 
#    0.000    0.000    0.000    0.000    0.000    0.000 
#
# Total GULP energy -297480.818257 kJ/mol
# GULP energy per Si atom -12395.034094 kJ/mol
# Density = 2.193798 g / cm^3
# Si number density = 21.988022 Si / 1000 Ang^3
#
#
#
# Elastic Constant Matrix: (Units=GPa)
#
#
# Indices 1 2 3 4 5 6 
#
# 1 129.7820 61.6535 59.1246 0.0000 0.0000 0.0000
# 2 61.6535 89.8053 0.4905 0.0000 0.0000 0.0000
# 3 59.1246 0.4905 148.8063 0.0000 0.0000 0.0000
# 4 0.0000 0.0000 0.0000 -2.7691 0.0000 0.0000
# 5 0.0000 0.0000 0.0000 0.0000 39.1501 0.0000
# 6 0.0000 0.0000 0.0000 0.0000 0.0000 84.0582
#
#
#
# Elastic Compliance Matrix: (Units=1/GPa)
#
#
# Indices 1 2 3 4 5 6 
#
# 1 0.015569 -0.010655 -0.006151 0.000000 0.000000 0.000000
# 2 -0.010655 0.018427 0.004173 0.000000 0.000000 0.000000
# 3 -0.006151 0.004173 0.009150 0.000000 0.000000 0.000000
# 4 0.000000 0.000000 0.000000 -0.361127 0.000000 0.000000
# 5 0.000000 0.000000 0.000000 0.000000 0.025543 0.000000
# 6 0.000000 0.000000 0.000000 0.000000 0.000000 0.011897
#
#
# Mechanical properties :
#
#
# Convention : Reuss Voigt Hill
#
# Bulk Modulus (GPa) = 55.92680 67.88118 61.90399
# Shear Modulus (GPa) = -20.05499 40.56285 10.25393
#
# Velocity S-wave (km/s) = -3.02335 4.29974 2.16184
# Velocity P-wave (km/s) = 3.64730 7.45582 5.86907
#
# Compressibility (1/GPa) = 0.01788051
#
# Stress axis : x y z
#
# Youngs Moduli (GPa) = 64.23000 54.26731 109.28616
#
# Poissons Ratio (x) = 0.57822 0.67220
# Poissons Ratio (y) = 0.68437 -0.45602
# Poissons Ratio (z) = 0.39507 -0.22644
#
# Static dielectric constant tensor:
#      x y z
#    x 4.003300 0.000000 0.000000 
#    y 0.000000 4.056750 0.000000 
#    z 0.000000 0.000000 3.890690 
# 
# 
# High freq. dielectric constant tensor:
#      x y z
#    x 1.867090 0.000000 0.000000 
#    y 0.000000 1.877130 0.000000 
#    z 0.000000 0.000000 1.853570 
# 
# From -- ./inp_files/2907.got.cif
#   From: 2010.03.12/outbox.cif.g09.slc.cpg/sg60_2_cif.got.tgz:2907.got - 2010.04.10 18:46:24.
