data_PCOD8248404
_publ_section_title
;
Structure prediction by ZEFSAII (Michael W. Deem and Ramdas Pophale) SiO2 
 PCOD8248404
Probable space group: P B C N
;
_chemical_formula_sum "Si O2"
_cell_formula_units_Z 60
_cell_length_a 18.946520
_cell_length_b 11.807553
_cell_length_c 12.212100
_cell_angle_alpha 90.000000
_cell_angle_beta 90.000000
_cell_angle_gamma 90.000000
_cell_volume 2731.993792
_symmetry_space_group_name_H-M "P B C N"
_symmetry_group_IT_number 60
_symmetry_cell_setting 'orthorhombic'
loop_
_space_group_symop_operation_xyz
x,y,z
1/2-x,1/2-y,1/2+z
1/2+x,1/2-y,-z
-x,y,1/2-z
-x,-y,-z
1/2+x,1/2+y,1/2-z
1/2-x,1/2+y,z
x,-y,1/2+z
loop_
_atom_site_type_symbol
_atom_site_label
_atom_site_fract_x
_atom_site_fract_y
_atom_site_fract_z
Si Si1 0.636243 0.333002 0.206024
Si Si2 0.382802 0.902529 0.155344
Si Si3 0.540024 0.806295 0.551991
Si Si4 0.000000 0.460038 0.750000
Si Si5 0.780791 0.223225 0.260433
Si Si6 0.711055 0.909738 0.945745
Si Si7 0.318125 0.539283 0.409926
Si Si8 0.603231 0.709339 0.946301
O O1 0.604950 0.258915 0.107431
O O2 0.717091 0.305966 0.232186
O O3 0.631829 0.463792 0.168355
O O4 0.592880 0.307183 0.315826
O O5 0.430070 0.963889 0.246196
O O6 0.351693 0.792984 0.215827
O O7 0.320029 0.984638 0.119858
O O8 0.430075 0.873419 0.050694
O O9 0.476428 0.725641 0.508741
O O10 0.503188 0.889119 0.638821
O O11 0.767498 0.151519 0.369219
O O12 0.787818 0.143937 0.156257
O O13 0.650936 0.818773 0.979610
O O14 0.753825 0.959399 0.049028
O O15 0.363741 0.592758 0.508389
#
# Coordination Sequence:
#
# PCOD8248404 Si02
#       8
#     8   8   8   4   8   8   8   8
#     4  11  23  44  68  94 137 188 226 288 353 422
#     4  12  26  41  73 102 139 179 234 293 354 416
#     4  12  24  47  69 101 139 186 232 288 352 429
#     4  12  24  46  70 102 136 184 228 292 356 424
#     4  11  24  44  65 102 141 175 237 293 347 421
#     4  11  22  44  66 101 134 182 232 292 352 423
#     4  12  24  39  69  97 137 183 234 292 359 408
#     4  11  24  42  67  98 139 176 243 290 344 436
#
# _framework density 21.961981999999999
#
# number of rings (size 3 to 8) (size 9 to 14) (size 15 to 20)
#    0.000    0.533    2.667    6.800    1.867    1.600 
#    0.000    1.333    0.000    0.000    0.000    0.000 
#    0.000    0.000    0.000    0.000    0.000    0.000 
#
# Total GULP energy -744269.979063 kJ/mol
# GULP energy per Si atom -12404.499651 kJ/mol
# Density = 2.191200 g / cm^3
# Si number density = 21.961982 Si / 1000 Ang^3
#
#
#
# Elastic Constant Matrix: (Units=GPa)
#
#
# Indices 1 2 3 4 5 6 
#
# 1 90.1880 31.2867 25.1227 0.0000 0.0000 0.0000
# 2 31.2867 99.1722 39.0961 0.0000 0.0000 0.0000
# 3 25.1227 39.0961 63.7871 0.0000 0.0000 0.0000
# 4 0.0000 0.0000 0.0000 37.6719 0.0000 0.0000
# 5 0.0000 0.0000 0.0000 0.0000 10.4578 0.0000
# 6 0.0000 0.0000 0.0000 0.0000 0.0000 25.1705
#
#
#
# Elastic Compliance Matrix: (Units=1/GPa)
#
#
# Indices 1 2 3 4 5 6 
#
# 1 0.012998 -0.002746 -0.003436 0.000000 0.000000 0.000000
# 2 -0.002746 0.013876 -0.007424 0.000000 0.000000 0.000000
# 3 -0.003436 -0.007424 0.021581 0.000000 0.000000 0.000000
# 4 0.000000 0.000000 0.000000 0.026545 0.000000 0.000000
# 5 0.000000 0.000000 0.000000 0.000000 0.095622 0.000000
# 6 0.000000 0.000000 0.000000 0.000000 0.000000 0.039729
#
#
# Mechanical properties :
#
#
# Convention : Reuss Voigt Hill
#
# Bulk Modulus (GPa) = 47.07364 49.35093 48.21229
# Shear Modulus (GPa) = 20.43794 25.16950 22.80372
#
# Velocity S-wave (km/s) = 3.05389 3.38901 3.22580
# Velocity P-wave (km/s) = 5.82372 6.15091 5.98955
#
# Compressibility (1/GPa) = 0.02124331
#
# Stress axis : x y z
#
# Youngs Moduli (GPa) = 76.93679 72.06550 46.33812
#
# Poissons Ratio (x) = 0.19788 0.15923
# Poissons Ratio (y) = 0.21126 0.34399
# Poissons Ratio (z) = 0.26437 0.53498
#
# Static dielectric constant tensor:
#      x y z
#    x 3.954050 0.000000 0.000000 
#    y 0.000000 4.061670 0.000000 
#    z 0.000000 0.000000 3.993460 
# 
# 
# High freq. dielectric constant tensor:
#      x y z
#    x 1.862240 0.000000 0.000000 
#    y 0.000000 1.870850 0.000000 
#    z 0.000000 0.000000 1.866220 
# 
# From -- ./inp_files/12881.got.cif
#   From: 2010.03.12/outbox.cif.g09.slc.cpg/sg60_7_cif.got.tgz:12881.got - 2010.04.10 18:46:24.
