data_PCOD8248922
_publ_section_title
;
Structure prediction by ZEFSAII (Michael W. Deem and Ramdas Pophale) SiO2 
 PCOD8248922
Probable space group: P B C A
;
_chemical_formula_sum "Si O2"
_cell_formula_units_Z 64
_cell_length_a 9.227912
_cell_length_b 16.780418
_cell_length_c 18.652846
_cell_angle_alpha 90.000000
_cell_angle_beta 90.000000
_cell_angle_gamma 90.000000
_cell_volume 2888.360013
_symmetry_space_group_name_H-M "P B C A"
_symmetry_group_IT_number 61
_symmetry_cell_setting 'orthorhombic'
loop_
_space_group_symop_operation_xyz
x,y,z
1/2-x,-y,1/2+z
1/2+x,1/2-y,-z
-x,1/2+y,1/2-z
-x,-y,-z
1/2+x,y,1/2-z
1/2-x,1/2+y,z
x,1/2-y,1/2+z
loop_
_atom_site_type_symbol
_atom_site_label
_atom_site_fract_x
_atom_site_fract_y
_atom_site_fract_z
Si Si1 0.575139 0.292009 0.288609
Si Si2 0.752024 0.622564 0.564241
Si Si3 0.171016 0.025517 0.517089
Si Si4 0.924766 0.131409 0.960900
Si Si5 0.852902 0.213286 0.101861
Si Si6 0.974972 0.447911 0.152520
Si Si7 0.115339 0.750830 0.660222
Si Si8 0.586856 0.112650 0.127787
O O1 0.473296 0.245862 0.344383
O O2 0.576006 0.388634 0.301318
O O3 0.517176 0.281592 0.208460
O O4 0.734936 0.253360 0.294861
O O5 0.685827 0.568016 0.501222
O O6 0.722264 0.716456 0.554739
O O7 0.678167 0.596664 0.639544
O O8 0.921138 0.605344 0.569247
O O9 0.324685 0.054231 0.547085
O O10 0.120690 0.082459 0.452321
O O11 0.048906 0.033671 0.576378
O O12 0.858570 0.199848 0.910850
O O13 0.934753 0.158621 0.043687
O O14 0.728878 0.165941 0.146979
O O15 0.935956 0.536627 0.182612
O O16 0.063600 0.838238 0.634408
#
# Coordination Sequence:
#
# PCOD8248922 Si02
#       8
#     8   8   8   8   8   8   8   8
#     4  11  26  45  65  93 126 180 223 271 327 401
#     4  10  20  34  61  92 137 162 201 268 325 379
#     4  10  21  38  60 100 132 167 213 266 326 398
#     4  11  23  36  64  99 128 171 214 272 327 386
#     4  10  23  37  65 101 131 168 219 263 334 390
#     4  10  22  40  66  92 130 176 214 262 332 392
#     4  12  25  42  69  90 133 170 227 273 328 395
#     4  10  21  40  66  97 131 163 211 272 329 383
#
# _framework density 22.157903000000001
#
# number of rings (size 3 to 8) (size 9 to 14) (size 15 to 20)
#    0.000    1.500    2.500    2.625    8.750    0.000 
#    0.000    2.500    5.500    0.000    0.000    0.000 
#    0.000    0.000    0.000    0.000    0.000    0.000 
#
# Total GULP energy -793033.992576 kJ/mol
# GULP energy per Si atom -12391.156134 kJ/mol
# Density = 2.210747 g / cm^3
# Si number density = 22.157903 Si / 1000 Ang^3
#
#
#
# Elastic Constant Matrix: (Units=GPa)
#
#
# Indices 1 2 3 4 5 6 
#
# 1 121.1658 35.7347 2.9132 0.0000 0.0000 0.0000
# 2 35.7347 115.3783 9.1458 0.0000 0.0000 0.0000
# 3 2.9132 9.1458 39.4967 0.0000 0.0000 0.0000
# 4 0.0000 0.0000 0.0000 16.8791 0.0000 0.0000
# 5 0.0000 0.0000 0.0000 0.0000 27.2347 0.0000
# 6 0.0000 0.0000 0.0000 0.0000 0.0000 40.0113
#
#
#
# Elastic Compliance Matrix: (Units=1/GPa)
#
#
# Indices 1 2 3 4 5 6 
#
# 1 0.009083 -0.002812 -0.000019 0.000000 0.000000 0.000000
# 2 -0.002812 0.009700 -0.002039 0.000000 0.000000 0.000000
# 3 -0.000019 -0.002039 0.025792 0.000000 0.000000 0.000000
# 4 0.000000 0.000000 0.000000 0.059245 0.000000 0.000000
# 5 0.000000 0.000000 0.000000 0.000000 0.036718 0.000000
# 6 0.000000 0.000000 0.000000 0.000000 0.000000 0.024993
#
#
# Mechanical properties :
#
#
# Convention : Reuss Voigt Hill
#
# Bulk Modulus (GPa) = 28.70581 41.29201 34.99891
# Shear Modulus (GPa) = 26.75507 32.04148 29.39828
#
# Velocity S-wave (km/s) = 3.47864 3.80682 3.64643
# Velocity P-wave (km/s) = 5.39609 6.16428 5.79293
#
# Compressibility (1/GPa) = 0.03483616
#
# Stress axis : x y z
#
# Youngs Moduli (GPa) = 110.09794 103.09763 38.77166
#
# Poissons Ratio (x) = 0.28987 0.00073
# Poissons Ratio (y) = 0.30955 0.07904
# Poissons Ratio (z) = 0.00208 0.21018
#
# Static dielectric constant tensor:
#      x y z
#    x 4.168550 0.000000 0.000000 
#    y 0.000000 4.541670 0.000000 
#    z 0.000000 0.000000 3.613270 
# 
# 
# High freq. dielectric constant tensor:
#      x y z
#    x 1.885910 0.000000 0.000000 
#    y 0.000000 1.880910 0.000000 
#    z 0.000000 0.000000 1.835170 
# 
# From -- ./inp_files/10179.got.cif
#   From: 2010.03.12/outbox.cif.g09.slc.cpg/sg61_6_cif.got.tgz:10179.got - 2010.04.10 19:05:03.
