data_PCOD8248878
_publ_section_title
;
Structure prediction by ZEFSAII (Michael W. Deem and Ramdas Pophale) SiO2 
 PCOD8248878
Probable space group: P B C A
;
_chemical_formula_sum "Si O2"
_cell_formula_units_Z 64
_cell_length_a 23.672476
_cell_length_b 14.192899
_cell_length_c 9.565922
_cell_angle_alpha 90.000000
_cell_angle_beta 90.000000
_cell_angle_gamma 90.000000
_cell_volume 3213.968623
_symmetry_space_group_name_H-M "P B C A"
_symmetry_group_IT_number 61
_symmetry_cell_setting 'orthorhombic'
loop_
_space_group_symop_operation_xyz
x,y,z
1/2-x,-y,1/2+z
1/2+x,1/2-y,-z
-x,1/2+y,1/2-z
-x,-y,-z
1/2+x,y,1/2-z
1/2-x,1/2+y,z
x,1/2-y,1/2+z
loop_
_atom_site_type_symbol
_atom_site_label
_atom_site_fract_x
_atom_site_fract_y
_atom_site_fract_z
Si Si1 0.029549 0.094173 0.852622
Si Si2 0.787921 0.143734 0.341449
Si Si3 0.641203 0.481094 0.252231
Si Si4 0.431849 0.961976 0.650446
Si Si5 0.081484 0.213764 0.316284
Si Si6 0.690703 0.008012 0.457028
Si Si7 0.349727 0.801421 0.084840
Si Si8 0.269633 0.198317 0.467500
O O1 0.074503 0.025742 0.776174
O O2 0.035756 0.201837 0.799211
O O3 0.041969 0.089841 0.016701
O O4 0.966790 0.057444 0.817115
O O5 0.806398 0.217255 0.462820
O O6 0.771090 0.199896 0.200107
O O7 0.844426 0.085094 0.306636
O O8 0.737995 0.072337 0.385401
O O9 0.658857 0.409369 0.372830
O O10 0.676491 0.454768 0.112281
O O11 0.442449 0.888404 0.776157
O O12 0.366080 0.989006 0.636213
O O13 0.099578 0.210192 0.476295
O O14 0.135439 0.236035 0.217292
O O15 0.712277 0.900959 0.466771
O O16 0.292094 0.767244 0.016355
#
# Coordination Sequence:
#
# PCOD8248878 Si02
#       8
#     8   8   8   8   8   8   8   8
#     4   9  20  38  64  86 117 155 201 250 301 351
#     4  11  23  38  57  87 123 157 199 248 301 365
#     4   9  21  39  57  83 121 154 200 252 299 350
#     4  10  19  39  62  85 118 159 196 246 302 363
#     4  11  21  36  62  93 113 153 205 247 296 352
#     4  10  21  39  59  89 118 160 205 242 304 370
#     4  11  20  36  58  88 119 151 197 250 287 348
#     4  11  23  35  58  86 120 162 192 242 305 359
#
# _framework density 19.913074000000002
#
# number of rings (size 3 to 8) (size 9 to 14) (size 15 to 20)
#    0.000    1.750    2.500    2.250    5.250    0.000 
#    4.500    2.500    0.000    0.000    0.000    0.000 
#    0.000    0.000    0.000    0.000    0.000    0.000 
#
# Total GULP energy -793488.532790 kJ/mol
# GULP energy per Si atom -12398.258325 kJ/mol
# Density = 1.986775 g / cm^3
# Si number density = 19.913074 Si / 1000 Ang^3
#
#
#
# Elastic Constant Matrix: (Units=GPa)
#
#
# Indices 1 2 3 4 5 6 
#
# 1 63.0139 36.9585 16.9461 0.0000 0.0000 0.0000
# 2 36.9585 96.2872 42.8705 0.0000 0.0000 0.0000
# 3 16.9461 42.8705 80.1776 0.0000 0.0000 0.0000
# 4 0.0000 0.0000 0.0000 41.3532 0.0000 0.0000
# 5 0.0000 0.0000 0.0000 0.0000 16.2808 0.0000
# 6 0.0000 0.0000 0.0000 0.0000 0.0000 24.2327
#
#
#
# Elastic Compliance Matrix: (Units=1/GPa)
#
#
# Indices 1 2 3 4 5 6 
#
# 1 0.020482 -0.007788 -0.000165 0.000000 0.000000 0.000000
# 2 -0.007788 0.016592 -0.007226 0.000000 0.000000 0.000000
# 3 -0.000165 -0.007226 0.016371 0.000000 0.000000 0.000000
# 4 0.000000 0.000000 0.000000 0.024182 0.000000 0.000000
# 5 0.000000 0.000000 0.000000 0.000000 0.061422 0.000000
# 6 0.000000 0.000000 0.000000 0.000000 0.000000 0.041267
#
#
# Mechanical properties :
#
#
# Convention : Reuss Voigt Hill
#
# Bulk Modulus (GPa) = 43.31363 48.11433 45.71398
# Shear Modulus (GPa) = 22.89713 25.88691 24.39202
#
# Velocity S-wave (km/s) = 3.39463 3.60946 3.50369
# Velocity P-wave (km/s) = 6.09617 6.44868 6.27490
#
# Compressibility (1/GPa) = 0.02308742
#
# Stress axis : x y z
#
# Youngs Moduli (GPa) = 48.82389 60.26948 61.08518
#
# Poissons Ratio (x) = 0.46940 0.01005
# Poissons Ratio (y) = 0.38026 0.44138
# Poissons Ratio (z) = 0.00803 0.43548
#
# Static dielectric constant tensor:
#      x y z
#    x 3.463710 0.000000 0.000000 
#    y 0.000000 3.708580 0.000000 
#    z 0.000000 0.000000 3.701410 
# 
# 
# High freq. dielectric constant tensor:
#      x y z
#    x 1.749470 0.000000 0.000000 
#    y 0.000000 1.780940 0.000000 
#    z 0.000000 0.000000 1.777300 
# 
# From -- ./inp_files/4342.got.cif
#   From: 2010.03.12/outbox.cif.g09.slc.cpg/sg61_3_cif.got.tgz:4342.got - 2010.04.10 19:05:03.
