data_PCOD8248019
_publ_section_title
;
Structure prediction by ZEFSAII (Michael W. Deem and Ramdas Pophale) SiO2 
 PCOD8248019
Probable space group: P B C N
;
_chemical_formula_sum "Si O2"
_cell_formula_units_Z 60
_cell_length_a 10.954303
_cell_length_b 8.736509
_cell_length_c 27.355428
_cell_angle_alpha 90.000000
_cell_angle_beta 90.000000
_cell_angle_gamma 90.000000
_cell_volume 2617.979203
_symmetry_space_group_name_H-M "P B C N"
_symmetry_group_IT_number 60
_symmetry_cell_setting 'orthorhombic'
loop_
_space_group_symop_operation_xyz
x,y,z
1/2-x,1/2-y,1/2+z
1/2+x,1/2-y,-z
-x,y,1/2-z
-x,-y,-z
1/2+x,1/2+y,1/2-z
1/2-x,1/2+y,z
x,-y,1/2+z
loop_
_atom_site_type_symbol
_atom_site_label
_atom_site_fract_x
_atom_site_fract_y
_atom_site_fract_z
Si Si1 0.924218 0.046082 0.797865
Si Si2 0.131054 0.007538 0.980163
Si Si3 0.701692 0.860693 0.802523
Si Si4 0.381569 0.997460 0.598747
Si Si5 0.500000 0.960319 0.250000
Si Si6 0.266454 0.746865 0.539398
Si Si7 0.891264 0.626689 0.650727
Si Si8 0.358620 0.476514 0.868332
O O1 0.825788 0.180965 0.807408
O O2 0.000000 0.082840 0.750000
O O3 0.845115 0.889983 0.789482
O O4 0.018907 0.038332 0.842633
O O5 0.141878 0.043382 0.922999
O O6 0.176631 0.136546 0.015630
O O7 0.191179 0.846141 0.992339
O O8 0.000000 0.000000 0.000000
O O9 0.687233 0.949647 0.852751
O O10 0.613940 0.930523 0.761499
O O11 0.376759 0.846925 0.563782
O O12 0.307168 0.142854 0.578145
O O13 0.522047 0.042281 0.610726
O O14 0.540144 0.859240 0.203131
O O15 0.765354 0.533234 0.657739
O O16 0.859595 0.793875 0.631391
#
# Coordination Sequence:
#
# PCOD8248019 Si02
#       8
#     8   8   8   8   4   8   8   8
#     4  12  29  47  77 107 145 191 245 298 368 442
#     4  11  25  44  70 103 149 190 247 302 368 441
#     4  11  25  45  73 105 144 185 243 296 364 432
#     4  10  23  43  76 107 143 195 247 303 367 441
#     4  10  24  46  74 104 140 182 236 304 366 438
#     4  10  23  44  72 108 143 190 251 306 372 440
#     4  11  27  47  74 105 151 189 251 304 374 443
#     4  12  29  48  73 107 150 198 245 306 374 436
#
# _framework density 22.918441000000001
#
# number of rings (size 3 to 8) (size 9 to 14) (size 15 to 20)
#    0.000    1.067    0.667    3.200   15.867    3.200 
#    0.000    3.333    0.000    0.000    0.000    0.000 
#    0.000    0.000    0.000    0.000    0.000    0.000 
#
# Total GULP energy -743829.659453 kJ/mol
# GULP energy per Si atom -12397.160991 kJ/mol
# Density = 2.286628 g / cm^3
# Si number density = 22.918441 Si / 1000 Ang^3
#
#
#
# Elastic Constant Matrix: (Units=GPa)
#
#
# Indices 1 2 3 4 5 6 
#
# 1 138.9672 49.7835 36.2264 0.0000 0.0000 0.0000
# 2 49.7835 113.1818 34.6074 0.0000 0.0000 0.0000
# 3 36.2264 34.6074 120.3276 0.0000 0.0000 0.0000
# 4 0.0000 0.0000 0.0000 1.5257 0.0000 0.0000
# 5 0.0000 0.0000 0.0000 0.0000 39.7209 0.0000
# 6 0.0000 0.0000 0.0000 0.0000 0.0000 25.5866
#
#
#
# Elastic Compliance Matrix: (Units=1/GPa)
#
#
# Indices 1 2 3 4 5 6 
#
# 1 0.008846 -0.003373 -0.001693 0.000000 0.000000 0.000000
# 2 -0.003373 0.010974 -0.002141 0.000000 0.000000 0.000000
# 3 -0.001693 -0.002141 0.009436 0.000000 0.000000 0.000000
# 4 0.000000 0.000000 0.000000 0.655451 0.000000 0.000000
# 5 0.000000 0.000000 0.000000 0.000000 0.025176 0.000000
# 6 0.000000 0.000000 0.000000 0.000000 0.000000 0.039083
#
#
# Mechanical properties :
#
#
# Convention : Reuss Voigt Hill
#
# Bulk Modulus (GPa) = 67.37709 68.19013 67.78361
# Shear Modulus (GPa) = 6.50766 30.15726 18.33246
#
# Velocity S-wave (km/s) = 1.68691 3.63140 2.83132
# Velocity P-wave (km/s) = 5.76686 6.88482 6.35049
#
# Compressibility (1/GPa) = 0.01484184
#
# Stress axis : x y z
#
# Youngs Moduli (GPa) = 113.04968 91.12816 105.97727
#
# Poissons Ratio (x) = 0.30739 0.17942
# Poissons Ratio (y) = 0.38133 0.22685
# Poissons Ratio (z) = 0.19139 0.19507
#
# Static dielectric constant tensor:
#      x y z
#    x 4.287290 0.000000 0.000000 
#    y 0.000000 4.313750 0.000000 
#    z 0.000000 0.000000 4.433890 
# 
# 
# High freq. dielectric constant tensor:
#      x y z
#    x 1.913530 0.000000 0.000000 
#    y 0.000000 1.915210 0.000000 
#    z 0.000000 0.000000 1.911790 
# 
# From -- ./inp_files/25345.got.cif
#   From: 2010.03.12/outbox.cif.g09.slc.cpg/sg60_13_cif.got.tgz:25345.got - 2010.04.10 18:46:24.
