data_PCOD8248960
_publ_section_title
;
Structure prediction by ZEFSAII (Michael W. Deem and Ramdas Pophale) SiO2 
 PCOD8248960
Probable space group: P B C A
;
_chemical_formula_sum "Si O2"
_cell_formula_units_Z 64
_cell_length_a 17.287108
_cell_length_b 33.310897
_cell_length_c 5.110282
_cell_angle_alpha 90.000000
_cell_angle_beta 90.000000
_cell_angle_gamma 90.000000
_cell_volume 2942.751158
_symmetry_space_group_name_H-M "P B C A"
_symmetry_group_IT_number 61
_symmetry_cell_setting 'orthorhombic'
loop_
_space_group_symop_operation_xyz
x,y,z
1/2-x,-y,1/2+z
1/2+x,1/2-y,-z
-x,1/2+y,1/2-z
-x,-y,-z
1/2+x,y,1/2-z
1/2-x,1/2+y,z
x,1/2-y,1/2+z
loop_
_atom_site_type_symbol
_atom_site_label
_atom_site_fract_x
_atom_site_fract_y
_atom_site_fract_z
Si Si1 0.966146 0.773942 0.537934
Si Si2 0.328266 0.139779 0.868334
Si Si3 0.467425 0.120047 0.575724
Si Si4 0.363577 0.427742 0.755757
Si Si5 0.790147 0.593553 0.948338
Si Si6 0.437729 0.637928 0.431509
Si Si7 0.648975 0.774707 0.958620
Si Si8 0.201452 0.493513 0.116723
O O1 0.938843 0.743395 0.314498
O O2 0.057585 0.780933 0.528446
O O3 0.925092 0.816223 0.482002
O O4 0.391385 0.148325 0.635043
O O5 0.245730 0.122423 0.774988
O O6 0.312060 0.181128 0.021610
O O7 0.374807 0.105750 0.031820
O O8 0.431296 0.077723 0.472247
O O9 0.519545 0.114035 0.833317
O O10 0.516789 0.139445 0.342298
O O11 0.277950 0.419853 0.861851
O O12 0.367315 0.473906 0.658709
O O13 0.854755 0.617381 0.110940
O O14 0.827760 0.552269 0.834385
O O15 0.677388 0.745865 0.192427
O O16 0.271215 0.500901 0.318713
#
# Coordination Sequence:
#
# PCOD8248960 Si02
#       8
#     8   8   8   8   8   8   8   8
#     4  10  20  36  59  85 118 162 210 253 299 371
#     4  11  21  42  66  92 122 167 212 257 318 367
#     4  11  23  38  66  90 125 167 205 258 309 379
#     4  10  21  41  69  95 121 167 219 262 305 377
#     4  10  25  39  66  95 130 166 207 263 319 384
#     4  12  24  41  61  95 129 166 207 257 325 383
#     4  10  22  34  59  92 118 152 209 266 300 357
#     4  10  20  39  64  95 123 164 216 260 303 376
#
# _framework density 21.748355
#
# number of rings (size 3 to 8) (size 9 to 14) (size 15 to 20)
#    0.000    1.500    3.750    0.750    8.750    0.000 
#    0.000    2.500    0.000    0.000    0.000    0.000 
#    0.000    0.000    0.000    0.000    0.000    0.000 
#
# Total GULP energy -793308.273766 kJ/mol
# GULP energy per Si atom -12395.441778 kJ/mol
# Density = 2.169885 g / cm^3
# Si number density = 21.748355 Si / 1000 Ang^3
#
#
#
# Elastic Constant Matrix: (Units=GPa)
#
#
# Indices 1 2 3 4 5 6 
#
# 1 50.8281 29.9397 13.0666 0.0000 0.0000 0.0000
# 2 29.9397 117.6563 10.6959 0.0000 0.0000 0.0000
# 3 13.0666 10.6959 84.0387 0.0000 0.0000 0.0000
# 4 0.0000 0.0000 0.0000 27.8936 0.0000 0.0000
# 5 0.0000 0.0000 0.0000 0.0000 17.9127 0.0000
# 6 0.0000 0.0000 0.0000 0.0000 0.0000 22.5196
#
#
#
# Elastic Compliance Matrix: (Units=1/GPa)
#
#
# Indices 1 2 3 4 5 6 
#
# 1 0.023854 -0.005800 -0.002971 0.000000 0.000000 0.000000
# 2 -0.005800 0.010009 -0.000372 0.000000 0.000000 0.000000
# 3 -0.002971 -0.000372 0.012409 0.000000 0.000000 0.000000
# 4 0.000000 0.000000 0.000000 0.035850 0.000000 0.000000
# 5 0.000000 0.000000 0.000000 0.000000 0.055826 0.000000
# 6 0.000000 0.000000 0.000000 0.000000 0.000000 0.044406
#
#
# Mechanical properties :
#
#
# Convention : Reuss Voigt Hill
#
# Bulk Modulus (GPa) = 35.73197 39.99192 37.86194
# Shear Modulus (GPa) = 23.81306 26.91993 25.36650
#
# Velocity S-wave (km/s) = 3.31257 3.52204 3.41891
# Velocity P-wave (km/s) = 5.57640 5.91338 5.74736
#
# Compressibility (1/GPa) = 0.02798615
#
# Stress axis : x y z
#
# Youngs Moduli (GPa) = 41.92116 99.90921 80.58970
#
# Poissons Ratio (x) = 0.57948 0.23941
# Poissons Ratio (y) = 0.24315 0.02999
# Poissons Ratio (z) = 0.12454 0.03717
#
# Static dielectric constant tensor:
#      x y z
#    x 3.495900 0.000000 0.000000 
#    y 0.000000 4.225680 0.000000 
#    z 0.000000 0.000000 4.051320 
# 
# 
# High freq. dielectric constant tensor:
#      x y z
#    x 1.807550 0.000000 0.000000 
#    y 0.000000 1.856560 0.000000 
#    z 0.000000 0.000000 1.864660 
# 
# From -- ./inp_files/854.got.cif
#   From: 2010.03.12/outbox.cif.g09.slc.cpg/sg61_1_cif.got.tgz:854.got - 2010.04.10 19:05:03.
