data_PCOD8248198
_publ_section_title
;
Structure prediction by ZEFSAII (Michael W. Deem and Ramdas Pophale) SiO2 
 PCOD8248198
Probable space group: P B C N
;
_chemical_formula_sum "Si O2"
_cell_formula_units_Z 36
_cell_length_a 6.600355
_cell_length_b 12.054321
_cell_length_c 20.698749
_cell_angle_alpha 90.000000
_cell_angle_beta 90.000000
_cell_angle_gamma 90.000000
_cell_volume 1646.850383
_symmetry_space_group_name_H-M "P B C N"
_symmetry_group_IT_number 60
_symmetry_cell_setting 'orthorhombic'
loop_
_space_group_symop_operation_xyz
x,y,z
1/2-x,1/2-y,1/2+z
1/2+x,1/2-y,-z
-x,y,1/2-z
-x,-y,-z
1/2+x,1/2+y,1/2-z
1/2-x,1/2+y,z
x,-y,1/2+z
loop_
_atom_site_type_symbol
_atom_site_label
_atom_site_fract_x
_atom_site_fract_y
_atom_site_fract_z
Si Si1 0.637676 0.901835 0.190064
Si Si2 0.856707 0.094695 0.471653
Si Si3 0.000000 0.781737 0.250000
Si Si4 0.823063 0.737165 0.574211
Si Si5 0.525905 0.123857 0.366237
O O1 0.500000 0.882318 0.250000
O O2 0.574885 0.809085 0.138740
O O3 0.861007 0.870937 0.213562
O O4 0.614791 0.025374 0.161784
O O5 0.712851 0.129583 0.530036
O O6 0.718342 0.073348 0.406962
O O7 0.005194 0.194404 0.459293
O O8 0.000000 0.000000 0.500000
O O9 0.098057 0.701179 0.194449
O O10 0.616647 0.805679 0.586057
#
# Coordination Sequence:
#
# PCOD8248198 Si02
#       5
#     8   8   4   8   8
#     4  11  24  43  73 101 140 186 236 292 347 427
#     4  12  26  43  73 103 142 191 234 295 359 428
#     4  10  24  48  68 106 148 188 232 298 358 420
#     4  11  25  44  67 103 142 184 233 293 351 425
#     4  11  24  46  71 105 142 188 242 290 362 425
#
# _framework density 21.859908999999998
#
# number of rings (size 3 to 8) (size 9 to 14) (size 15 to 20)
#    0.000    0.889    3.333    2.667    3.111    7.111 
#    8.000    0.000    0.000    0.000    0.000    0.000 
#    0.000    0.000    0.000    0.000    0.000    0.000 
#
# Total GULP energy -446002.280897 kJ/mol
# GULP energy per Si atom -12388.952247 kJ/mol
# Density = 2.181015 g / cm^3
# Si number density = 21.859909 Si / 1000 Ang^3
#
#
#
# Elastic Constant Matrix: (Units=GPa)
#
#
# Indices 1 2 3 4 5 6 
#
# 1 59.2334 45.7319 47.7432 0.0000 0.0000 0.0000
# 2 45.7319 125.4855 59.0728 0.0000 0.0000 0.0000
# 3 47.7432 59.0728 140.4507 0.0000 0.0000 0.0000
# 4 0.0000 0.0000 0.0000 39.0775 0.0000 0.0000
# 5 0.0000 0.0000 0.0000 0.0000 4.5701 0.0000
# 6 0.0000 0.0000 0.0000 0.0000 0.0000 45.2818
#
#
#
# Elastic Compliance Matrix: (Units=1/GPa)
#
#
# Indices 1 2 3 4 5 6 
#
# 1 0.027423 -0.006990 -0.006382 0.000000 0.000000 0.000000
# 2 -0.006990 0.011718 -0.002553 0.000000 0.000000 0.000000
# 3 -0.006382 -0.002553 0.010363 0.000000 0.000000 0.000000
# 4 0.000000 0.000000 0.000000 0.025590 0.000000 0.000000
# 5 0.000000 0.000000 0.000000 0.000000 0.218814 0.000000
# 6 0.000000 0.000000 0.000000 0.000000 0.000000 0.022084
#
#
# Mechanical properties :
#
#
# Convention : Reuss Voigt Hill
#
# Bulk Modulus (GPa) = 56.63989 70.02950 63.33470
# Shear Modulus (GPa) = 14.13528 29.29399 21.71463
#
# Velocity S-wave (km/s) = 2.54565 3.66468 3.15517
# Velocity P-wave (km/s) = 5.88278 7.07189 6.50457
#
# Compressibility (1/GPa) = 0.01765540
#
# Stress axis : x y z
#
# Youngs Moduli (GPa) = 36.46597 85.33906 96.49759
#
# Poissons Ratio (x) = 0.59649 0.61585
# Poissons Ratio (y) = 0.25488 0.24631
# Poissons Ratio (z) = 0.23273 0.21783
#
# Static dielectric constant tensor:
#      x y z
#    x 3.805100 0.000000 0.000000 
#    y 0.000000 53.327030 0.000000 
#    z 0.000000 0.000000 3.898700 
# 
# 
# High freq. dielectric constant tensor:
#      x y z
#    x 1.846360 0.000000 0.000000 
#    y 0.000000 1.862500 0.000000 
#    z 0.000000 0.000000 1.889240 
# 
# From -- ./inp_files/23457.got.cif
#   From: 2010.03.12/outbox.cif.g09.slc.cpg/sg60_12_cif.got.tgz:23457.got - 2010.04.10 18:46:24.
