data_PCOD8248342
_publ_section_title
;
Structure prediction by ZEFSAII (Michael W. Deem and Ramdas Pophale) SiO2 
 PCOD8248342
Probable space group: P B C N
;
_chemical_formula_sum "Si O2"
_cell_formula_units_Z 48
_cell_length_a 15.882000
_cell_length_b 9.027702
_cell_length_c 16.735267
_cell_angle_alpha 90.000000
_cell_angle_beta 90.000000
_cell_angle_gamma 90.000000
_cell_volume 2399.468495
_symmetry_space_group_name_H-M "P B C N"
_symmetry_group_IT_number 60
_symmetry_cell_setting 'orthorhombic'
loop_
_space_group_symop_operation_xyz
x,y,z
1/2-x,1/2-y,1/2+z
1/2+x,1/2-y,-z
-x,y,1/2-z
-x,-y,-z
1/2+x,1/2+y,1/2-z
1/2-x,1/2+y,z
x,-y,1/2+z
loop_
_atom_site_type_symbol
_atom_site_label
_atom_site_fract_x
_atom_site_fract_y
_atom_site_fract_z
Si Si1 0.164804 0.944318 0.921264
Si Si2 0.806296 0.358168 0.150555
Si Si3 0.246629 0.306295 0.695963
Si Si4 0.085149 0.399727 0.793313
Si Si5 0.165923 0.060613 0.603243
Si Si6 0.017670 0.905639 0.340819
O O1 0.183427 0.769108 0.915533
O O2 0.225931 0.039660 0.865706
O O3 0.070884 0.972184 0.888542
O O4 0.177906 0.992269 0.012514
O O5 0.796635 0.283497 0.236768
O O6 0.887906 0.465785 0.148626
O O7 0.160353 0.375219 0.730086
O O8 0.225363 0.200004 0.621783
O O9 0.310267 0.429998 0.663971
O O10 0.068361 0.250019 0.843351
O O11 0.000000 0.448940 0.750000
O O12 0.070230 0.111968 0.614492
O O13 0.000000 0.955669 0.250000
#
# Coordination Sequence:
#
# PCOD8248342 Si02
#       6
#     8   8   8   8   8   8
#     4  12  24  41  62  99 136 167 219 274 339 376
#     4  12  22  41  68  93 124 177 219 269 312 403
#     4  12  21  42  67  92 124 172 230 257 321 399
#     4  11  22  39  68  93 121 162 223 269 313 374
#     4  12  25  40  66  97 132 171 212 283 331 386
#     4  11  21  43  66  91 129 179 217 265 325 398
#
# _framework density 20.004431
#
# number of rings (size 3 to 8) (size 9 to 14) (size 15 to 20)
#    0.000    0.333    8.333    2.500    0.000    2.000 
#    0.000    0.833    0.000    0.000    0.000    0.000 
#    0.000    0.000    0.000    0.000    0.000    0.000 
#
# Total GULP energy -595358.729833 kJ/mol
# GULP energy per Si atom -12403.306872 kJ/mol
# Density = 1.995890 g / cm^3
# Si number density = 20.004431 Si / 1000 Ang^3
#
#
#
# Elastic Constant Matrix: (Units=GPa)
#
#
# Indices 1 2 3 4 5 6 
#
# 1 87.6497 36.8815 24.3422 0.0000 0.0000 0.0000
# 2 36.8815 107.4702 38.1820 0.0000 0.0000 0.0000
# 3 24.3422 38.1820 89.1165 0.0000 0.0000 0.0000
# 4 0.0000 0.0000 0.0000 32.9194 0.0000 0.0000
# 5 0.0000 0.0000 0.0000 0.0000 22.1773 0.0000
# 6 0.0000 0.0000 0.0000 0.0000 0.0000 29.5951
#
#
#
# Elastic Compliance Matrix: (Units=1/GPa)
#
#
# Indices 1 2 3 4 5 6 
#
# 1 0.013639 -0.003960 -0.002029 0.000000 0.000000 0.000000
# 2 -0.003960 0.012125 -0.004113 0.000000 0.000000 0.000000
# 3 -0.002029 -0.004113 0.013538 0.000000 0.000000 0.000000
# 4 0.000000 0.000000 0.000000 0.030377 0.000000 0.000000
# 5 0.000000 0.000000 0.000000 0.000000 0.045091 0.000000
# 6 0.000000 0.000000 0.000000 0.000000 0.000000 0.033789
#
#
# Mechanical properties :
#
#
# Convention : Reuss Voigt Hill
#
# Bulk Modulus (GPa) = 52.36230 53.67197 53.01714
# Shear Modulus (GPa) = 28.55031 29.26041 28.90536
#
# Velocity S-wave (km/s) = 3.78193 3.82867 3.80537
# Velocity P-wave (km/s) = 6.73074 6.81419 6.77259
#
# Compressibility (1/GPa) = 0.01909771
#
# Stress axis : x y z
#
# Youngs Moduli (GPa) = 73.32083 82.47281 73.86680
#
# Poissons Ratio (x) = 0.32657 0.14987
# Poissons Ratio (y) = 0.29033 0.30385
# Poissons Ratio (z) = 0.14876 0.33925
#
# Static dielectric constant tensor:
#      x y z
#    x 3.713500 0.000000 0.000000 
#    y 0.000000 3.826110 0.000000 
#    z 0.000000 0.000000 3.487030 
# 
# 
# High freq. dielectric constant tensor:
#      x y z
#    x 1.786760 0.000000 0.000000 
#    y 0.000000 1.788640 0.000000 
#    z 0.000000 0.000000 1.765380 
# 
# From -- ./inp_files/20471.got.cif
#   From: 2010.03.12/outbox.cif.g09.slc.cpg/sg60_11_cif.got.tgz:20471.got - 2010.04.10 18:46:24.
