data_PCOD8248910
_publ_section_title
;
Structure prediction by ZEFSAII (Michael W. Deem and Ramdas Pophale) SiO2 
 PCOD8248910
Probable space group: P B C A
;
_chemical_formula_sum "Si O2"
_cell_formula_units_Z 64
_cell_length_a 14.692093
_cell_length_b 8.664422
_cell_length_c 28.253805
_cell_angle_alpha 90.000000
_cell_angle_beta 90.000000
_cell_angle_gamma 90.000000
_cell_volume 3596.666821
_symmetry_space_group_name_H-M "P B C A"
_symmetry_group_IT_number 61
_symmetry_cell_setting 'orthorhombic'
loop_
_space_group_symop_operation_xyz
x,y,z
1/2-x,-y,1/2+z
1/2+x,1/2-y,-z
-x,1/2+y,1/2-z
-x,-y,-z
1/2+x,y,1/2-z
1/2-x,1/2+y,z
x,1/2-y,1/2+z
loop_
_atom_site_type_symbol
_atom_site_label
_atom_site_fract_x
_atom_site_fract_y
_atom_site_fract_z
Si Si1 0.639611 0.965600 0.264409
Si Si2 0.861639 0.665928 0.180241
Si Si3 0.030021 0.455875 0.427257
Si Si4 0.788122 0.112169 0.519398
Si Si5 0.632658 0.592385 0.987381
Si Si6 0.540210 0.025272 0.680811
Si Si7 0.152901 0.324958 0.926994
Si Si8 0.196373 0.851523 0.761583
O O1 0.561064 0.017372 0.300985
O O2 0.648400 0.781678 0.268727
O O3 0.607570 0.016899 0.211298
O O4 0.739881 0.043043 0.273491
O O5 0.940957 0.792433 0.184827
O O6 0.841473 0.617962 0.126781
O O7 0.764942 0.729275 0.200631
O O8 0.079856 0.571161 0.463026
O O9 0.045607 0.521274 0.374507
O O10 0.064354 0.280184 0.434559
O O11 0.924043 0.451140 0.440769
O O12 0.843237 0.226116 0.484993
O O13 0.739851 0.219071 0.559345
O O14 0.718001 0.021785 0.485936
O O15 0.852744 0.982471 0.542895
O O16 0.617794 0.943182 0.711251
#
# Coordination Sequence:
#
# PCOD8248910 Si02
#       8
#     8   8   8   8   8   8   8   8
#     4  10  21  33  53  75 105 137 171 210 263 310
#     4   9  19  32  49  77 103 130 167 212 262 299
#     4   9  20  34  51  72 105 131 164 213 257 303
#     4   9  18  29  52  76 100 130 166 202 249 314
#     4   9  18  35  51  75 100 133 166 206 258 300
#     4  11  20  36  53  77 103 139 175 217 262 302
#     4   9  18  27  49  78 101 125 162 205 252 301
#     4  10  20  34  52  76 104 138 171 216 258 311
#
# _framework density 17.794253999999999
#
# number of rings (size 3 to 8) (size 9 to 14) (size 15 to 20)
#    0.750    1.750    1.250    0.750    8.750    0.500 
#    0.000    1.250    0.000    0.000    0.000    0.000 
#    0.000    0.000    0.000    0.000    0.000    0.000 
#
# Total GULP energy -792950.959946 kJ/mol
# GULP energy per Si atom -12389.858749 kJ/mol
# Density = 1.775375 g / cm^3
# Si number density = 17.794254 Si / 1000 Ang^3
#
#
#
# Elastic Constant Matrix: (Units=GPa)
#
#
# Indices 1 2 3 4 5 6 
#
# 1 85.6954 24.7635 34.0530 0.0000 0.0000 0.0000
# 2 24.7635 78.8056 10.6448 0.0000 0.0000 0.0000
# 3 34.0530 10.6448 30.5451 0.0000 0.0000 0.0000
# 4 0.0000 0.0000 0.0000 15.0182 0.0000 0.0000
# 5 0.0000 0.0000 0.0000 0.0000 22.4756 0.0000
# 6 0.0000 0.0000 0.0000 0.0000 0.0000 16.6118
#
#
#
# Elastic Compliance Matrix: (Units=1/GPa)
#
#
# Indices 1 2 3 4 5 6 
#
# 1 0.021970 -0.003773 -0.023178 0.000000 0.000000 0.000000
# 2 -0.003773 0.013964 -0.000660 0.000000 0.000000 0.000000
# 3 -0.023178 -0.000660 0.058808 0.000000 0.000000 0.000000
# 4 0.000000 0.000000 0.000000 0.066586 0.000000 0.000000
# 5 0.000000 0.000000 0.000000 0.000000 0.044493 0.000000
# 6 0.000000 0.000000 0.000000 0.000000 0.000000 0.060198
#
#
# Mechanical properties :
#
#
# Convention : Reuss Voigt Hill
#
# Bulk Modulus (GPa) = 25.30367 37.10764 31.20566
# Shear Modulus (GPa) = 14.95150 19.19344 17.07247
#
# Velocity S-wave (km/s) = 2.90184 3.28782 3.10084
# Velocity P-wave (km/s) = 5.04763 5.94239 5.51319
#
# Compressibility (1/GPa) = 0.03951995
#
# Stress axis : x y z
#
# Youngs Moduli (GPa) = 45.51715 71.61161 17.00442
#
# Poissons Ratio (x) = 0.27018 0.39413
# Poissons Ratio (y) = 0.17173 0.01123
# Poissons Ratio (z) = 1.05499 0.04729
#
# Static dielectric constant tensor:
#      x y z
#    x 3.309780 0.000000 0.000000 
#    y 0.000000 3.241070 0.000000 
#    z 0.000000 0.000000 3.001390 
# 
# 
# High freq. dielectric constant tensor:
#      x y z
#    x 1.682520 0.000000 0.000000 
#    y 0.000000 1.686680 0.000000 
#    z 0.000000 0.000000 1.655600 
# 
# From -- ./inp_files/11831.got.cif
#   From: 2010.03.12/outbox.cif.g09.slc.cpg/sg61_6_cif.got.tgz:11831.got - 2010.04.10 19:05:03.
