data_PCOD8248961
_publ_section_title
;
Structure prediction by ZEFSAII (Michael W. Deem and Ramdas Pophale) SiO2 
 PCOD8248961
Probable space group: P B C A
;
_chemical_formula_sum "Si O2"
_cell_formula_units_Z 64
_cell_length_a 15.078922
_cell_length_b 22.957983
_cell_length_c 9.109560
_cell_angle_alpha 90.000000
_cell_angle_beta 90.000000
_cell_angle_gamma 90.000000
_cell_volume 3153.562374
_symmetry_space_group_name_H-M "P B C A"
_symmetry_group_IT_number 61
_symmetry_cell_setting 'orthorhombic'
loop_
_space_group_symop_operation_xyz
x,y,z
1/2-x,-y,1/2+z
1/2+x,1/2-y,-z
-x,1/2+y,1/2-z
-x,-y,-z
1/2+x,y,1/2-z
1/2-x,1/2+y,z
x,1/2-y,1/2+z
loop_
_atom_site_type_symbol
_atom_site_label
_atom_site_fract_x
_atom_site_fract_y
_atom_site_fract_z
Si Si1 0.146453 0.750724 0.854626
Si Si2 0.593100 0.557088 0.789189
Si Si3 0.906896 0.878413 0.967037
Si Si4 0.440912 0.177887 0.610551
Si Si5 0.629480 0.559983 0.467887
Si Si6 0.807604 0.992052 0.997116
Si Si7 0.731557 0.675588 0.397804
Si Si8 0.457245 0.037523 0.320913
O O1 0.074273 0.716229 0.756072
O O2 0.207913 0.787590 0.745840
O O3 0.091327 0.791392 0.962888
O O4 0.209713 0.708826 0.949932
O O5 0.611504 0.617246 0.872709
O O6 0.578880 0.571960 0.619248
O O7 0.507097 0.523765 0.858999
O O8 0.674375 0.513262 0.828248
O O9 0.845966 0.928547 0.037897
O O10 0.955041 0.839108 0.091922
O O11 0.836935 0.836589 0.883111
O O12 0.982705 0.906301 0.861415
O O13 0.701701 0.509996 0.509988
O O14 0.675202 0.616323 0.397389
O O15 0.556486 0.537651 0.354044
O O16 0.860264 0.038129 0.101195
#
# Coordination Sequence:
#
# PCOD8248961 Si02
#       8
#     8   8   8   8   8   8   8   8
#     4  10  23  40  62  85 114 152 210 254 295 350
#     4  11  20  37  58  84 123 158 187 237 294 359
#     4  10  20  37  64  83 120 154 195 238 304 355
#     4  11  20  40  63  85 112 158 197 245 303 347
#     4  11  22  35  58  91 122 152 196 242 292 350
#     4  10  20  36  59  87 118 156 191 227 291 367
#     4  10  22  39  61  85 116 156 198 259 296 348
#     4  11  20  37  59  89 123 157 193 234 293 371
#
# _framework density 20.294508
#
# number of rings (size 3 to 8) (size 9 to 14) (size 15 to 20)
#    0.000    1.500    3.750    2.625    0.000    1.000 
#    0.000    0.000    5.500    0.000    0.000    0.000 
#    0.000    0.000    0.000    0.000    0.000    0.000 
#
# Total GULP energy -793111.507233 kJ/mol
# GULP energy per Si atom -12392.367301 kJ/mol
# Density = 2.024832 g / cm^3
# Si number density = 20.294508 Si / 1000 Ang^3
#
#
#
# Elastic Constant Matrix: (Units=GPa)
#
#
# Indices 1 2 3 4 5 6 
#
# 1 60.9653 29.6112 19.1216 0.0000 0.0000 0.0000
# 2 29.6112 96.3767 40.5987 0.0000 0.0000 0.0000
# 3 19.1216 40.5987 109.9317 0.0000 0.0000 0.0000
# 4 0.0000 0.0000 0.0000 24.9238 0.0000 0.0000
# 5 0.0000 0.0000 0.0000 0.0000 19.4765 0.0000
# 6 0.0000 0.0000 0.0000 0.0000 0.0000 35.0016
#
#
#
# Elastic Compliance Matrix: (Units=1/GPa)
#
#
# Indices 1 2 3 4 5 6 
#
# 1 0.019459 -0.005392 -0.001393 0.000000 0.000000 0.000000
# 2 -0.005392 0.013781 -0.004152 0.000000 0.000000 0.000000
# 3 -0.001393 -0.004152 0.010872 0.000000 0.000000 0.000000
# 4 0.000000 0.000000 0.000000 0.040122 0.000000 0.000000
# 5 0.000000 0.000000 0.000000 0.000000 0.051344 0.000000
# 6 0.000000 0.000000 0.000000 0.000000 0.000000 0.028570
#
#
# Mechanical properties :
#
#
# Convention : Reuss Voigt Hill
#
# Bulk Modulus (GPa) = 44.96691 49.54850 47.25771
# Shear Modulus (GPa) = 25.84847 27.74318 26.79582
#
# Velocity S-wave (km/s) = 3.57272 3.70135 3.63760
# Velocity P-wave (km/s) = 6.26294 6.53715 6.40151
#
# Compressibility (1/GPa) = 0.02223858
#
# Stress axis : x y z
#
# Youngs Moduli (GPa) = 51.39138 72.56154 91.97749
#
# Poissons Ratio (x) = 0.39122 0.12817
# Poissons Ratio (y) = 0.27708 0.38187
# Poissons Ratio (z) = 0.07161 0.30126
#
# Static dielectric constant tensor:
#      x y z
#    x 3.594460 0.000000 0.000000 
#    y 0.000000 3.776700 0.000000 
#    z 0.000000 0.000000 3.683630 
# 
# 
# High freq. dielectric constant tensor:
#      x y z
#    x 1.777300 0.000000 0.000000 
#    y 0.000000 1.792780 0.000000 
#    z 0.000000 0.000000 1.794470 
# 
# From -- ./inp_files/3177.got.cif
#   From: 2010.03.12/outbox.cif.g09.slc.cpg/sg61_2_cif.got.tgz:3177.got - 2010.04.10 19:05:03.
