data_PCOD8248956
_publ_section_title
;
Structure prediction by ZEFSAII (Michael W. Deem and Ramdas Pophale) SiO2 
 PCOD8248956
Probable space group: P B C A
;
_chemical_formula_sum "Si O2"
_cell_formula_units_Z 64
_cell_length_a 22.567643
_cell_length_b 7.778572
_cell_length_c 15.701139
_cell_angle_alpha 90.000000
_cell_angle_beta 90.000000
_cell_angle_gamma 90.000000
_cell_volume 2756.241309
_symmetry_space_group_name_H-M "P B C A"
_symmetry_group_IT_number 61
_symmetry_cell_setting 'orthorhombic'
loop_
_space_group_symop_operation_xyz
x,y,z
1/2-x,-y,1/2+z
1/2+x,1/2-y,-z
-x,1/2+y,1/2-z
-x,-y,-z
1/2+x,y,1/2-z
1/2-x,1/2+y,z
x,1/2-y,1/2+z
loop_
_atom_site_type_symbol
_atom_site_label
_atom_site_fract_x
_atom_site_fract_y
_atom_site_fract_z
Si Si1 0.232623 0.560560 0.385572
Si Si2 0.360996 0.924846 0.124572
Si Si3 0.332234 0.350682 0.469723
Si Si4 0.533382 0.017201 0.750075
Si Si5 0.569727 0.202040 0.498756
Si Si6 0.571131 0.356936 0.671417
Si Si7 0.191489 0.227934 0.778122
Si Si8 0.055748 0.660666 0.419363
O O1 0.296216 0.492396 0.416752
O O2 0.204684 0.671931 0.462305
O O3 0.247985 0.671073 0.299775
O O4 0.185878 0.417067 0.353740
O O5 0.382818 0.756306 0.072892
O O6 0.306845 0.860305 0.184983
O O7 0.413785 0.998358 0.182361
O O8 0.338610 0.083258 0.066400
O O9 0.396178 0.315186 0.426579
O O10 0.469669 0.014481 0.797979
O O11 0.541829 0.868278 0.679734
O O12 0.532168 0.192572 0.698077
O O13 0.579390 0.349012 0.570129
O O14 0.503538 0.223770 0.464580
O O15 0.581389 0.008844 0.532107
O O16 0.634309 0.352203 0.718683
#
# Coordination Sequence:
#
# PCOD8248956 Si02
#       8
#     8   8   8   8   8   8   8   8
#     4  10  23  43  64  84 112 159 207 246 297 347
#     4  11  23  38  60  91 122 153 196 247 297 359
#     4  11  23  40  64  89 117 156 201 248 295 347
#     4  10  21  36  58  89 122 154 192 233 293 367
#     4  10  21  37  60  91 123 157 193 234 298 368
#     4  10  20  36  58  86 122 154 188 239 290 352
#     4  10  22  42  62  85 119 155 198 250 296 345
#     4  10  21  40  62  87 125 161 193 242 298 356
#
# _framework density 23.220027000000002
#
# number of rings (size 3 to 8) (size 9 to 14) (size 15 to 20)
#    0.000    1.750    0.000    5.250    0.000    7.000 
#    0.000    3.750    0.000    0.000    0.000    0.000 
#    0.000    0.000    0.000    0.000    0.000    0.000 
#
# Total GULP energy -793395.281086 kJ/mol
# GULP energy per Si atom -12396.801267 kJ/mol
# Density = 2.316718 g / cm^3
# Si number density = 23.220027 Si / 1000 Ang^3
#
#
#
# Elastic Constant Matrix: (Units=GPa)
#
#
# Indices 1 2 3 4 5 6 
#
# 1 75.8171 10.8631 20.5548 0.0000 0.0000 0.0000
# 2 10.8631 32.9220 -1.5224 0.0000 0.0000 0.0000
# 3 20.5548 -1.5224 105.5514 0.0000 0.0000 0.0000
# 4 0.0000 0.0000 0.0000 20.0460 0.0000 0.0000
# 5 0.0000 0.0000 0.0000 0.0000 42.4563 0.0000
# 6 0.0000 0.0000 0.0000 0.0000 0.0000 32.8329
#
#
#
# Elastic Compliance Matrix: (Units=1/GPa)
#
#
# Indices 1 2 3 4 5 6 
#
# 1 0.014700 -0.004986 -0.002934 0.000000 0.000000 0.000000
# 2 -0.004986 0.032086 0.001434 0.000000 0.000000 0.000000
# 3 -0.002934 0.001434 0.010066 0.000000 0.000000 0.000000
# 4 0.000000 0.000000 0.000000 0.049885 0.000000 0.000000
# 5 0.000000 0.000000 0.000000 0.000000 0.023554 0.000000
# 6 0.000000 0.000000 0.000000 0.000000 0.000000 0.030457
#
#
# Mechanical properties :
#
#
# Convention : Reuss Voigt Hill
#
# Bulk Modulus (GPa) = 22.79015 30.45350 26.62182
# Shear Modulus (GPa) = 26.54662 31.36005 28.95334
#
# Velocity S-wave (km/s) = 3.38489 3.67898 3.53500
# Velocity P-wave (km/s) = 5.01127 5.58482 5.30580
#
# Compressibility (1/GPa) = 0.04387861
#
# Stress axis : x y z
#
# Youngs Moduli (GPa) = 68.02903 31.16591 99.34239
#
# Poissons Ratio (x) = 0.15539 0.29152
# Poissons Ratio (y) = 0.33920 -0.14243
# Poissons Ratio (z) = 0.19963 -0.04468
#
# Static dielectric constant tensor:
#      x y z
#    x 4.015210 0.000000 0.000000 
#    y 0.000000 4.196750 0.000000 
#    z 0.000000 0.000000 4.279970 
# 
# 
# High freq. dielectric constant tensor:
#      x y z
#    x 1.912950 0.000000 0.000000 
#    y 0.000000 1.918980 0.000000 
#    z 0.000000 0.000000 1.914080 
# 
# From -- ./inp_files/8536.got.cif
#   From: 2010.03.12/outbox.cif.g09.slc.cpg/sg61_5_cif.got.tgz:8536.got - 2010.04.10 19:05:03.
