data_PCOD8248801
_publ_section_title
;
Structure prediction by ZEFSAII (Michael W. Deem and Ramdas Pophale) SiO2 
 PCOD8248801
Probable space group: P B C A
;
_chemical_formula_sum "Si O2"
_cell_formula_units_Z 40
_cell_length_a 18.198609
_cell_length_b 5.221947
_cell_length_c 18.474066
_cell_angle_alpha 90.000000
_cell_angle_beta 90.000000
_cell_angle_gamma 90.000000
_cell_volume 1755.630612
_symmetry_space_group_name_H-M "P B C A"
_symmetry_group_IT_number 61
_symmetry_cell_setting 'orthorhombic'
loop_
_space_group_symop_operation_xyz
x,y,z
1/2-x,-y,1/2+z
1/2+x,1/2-y,-z
-x,1/2+y,1/2-z
-x,-y,-z
1/2+x,y,1/2-z
1/2-x,1/2+y,z
x,1/2-y,1/2+z
loop_
_atom_site_type_symbol
_atom_site_label
_atom_site_fract_x
_atom_site_fract_y
_atom_site_fract_z
Si Si1 0.539678 0.688396 0.223098
Si Si2 0.789574 0.291149 0.048235
Si Si3 0.424808 0.046626 0.042307
Si Si4 0.970576 0.546280 0.419045
Si Si5 0.207538 0.766748 0.280369
O O1 0.503821 0.454931 0.267597
O O2 0.535017 0.610492 0.137907
O O3 0.624051 0.729290 0.246629
O O4 0.732540 0.509076 0.020432
O O5 0.793242 0.288335 0.133851
O O6 0.867380 0.371972 0.017681
O O7 0.432085 0.275408 0.102176
O O8 0.409425 0.775424 0.082106
O O9 0.500000 0.000000 0.000000
O O10 0.000000 0.500000 0.500000
O O11 0.256888 0.530596 0.250849
#
# Coordination Sequence:
#
# PCOD8248801 Si02
#       5
#     8   8   8   8   8
#     4  12  25  42  66  98 129 164 218 275 321 383
#     4  10  20  34  57  91 125 157 204 262 310 362
#     4  10  19  33  57  85 119 157 195 244 308 371
#     4  10  21  37  62  90 121 159 202 251 310 372
#     4  10  21  38  62  90 123 165 211 262 319 376
#
# _framework density 22.783839
#
# number of rings (size 3 to 8) (size 9 to 14) (size 15 to 20)
#    0.000    1.600    0.000    6.000    0.000    9.600 
#    0.000    0.000    0.000   24.000    0.000    0.000 
#    0.000    0.000    0.000    0.000    0.000    0.000 
#
# Total GULP energy -495605.155810 kJ/mol
# GULP energy per Si atom -12390.128895 kJ/mol
# Density = 2.273198 g / cm^3
# Si number density = 22.783839 Si / 1000 Ang^3
#
#
#
# Elastic Constant Matrix: (Units=GPa)
#
#
# Indices 1 2 3 4 5 6 
#
# 1 140.0612 64.9749 23.4297 0.0000 0.0000 0.0000
# 2 64.9749 230.2300 17.1975 0.0000 0.0000 0.0000
# 3 23.4297 17.1975 39.6906 0.0000 0.0000 0.0000
# 4 0.0000 0.0000 0.0000 26.6217 0.0000 0.0000
# 5 0.0000 0.0000 0.0000 0.0000 32.3761 0.0000
# 6 0.0000 0.0000 0.0000 0.0000 0.0000 41.2633
#
#
#
# Elastic Compliance Matrix: (Units=1/GPa)
#
#
# Indices 1 2 3 4 5 6 
#
# 1 0.008870 -0.002183 -0.004290 0.000000 0.000000 0.000000
# 2 -0.002183 0.005026 -0.000889 0.000000 0.000000 0.000000
# 3 -0.004290 -0.000889 0.028113 0.000000 0.000000 0.000000
# 4 0.000000 0.000000 0.000000 0.037563 0.000000 0.000000
# 5 0.000000 0.000000 0.000000 0.000000 0.030887 0.000000
# 6 0.000000 0.000000 0.000000 0.000000 0.000000 0.024235
#
#
# Mechanical properties :
#
#
# Convention : Reuss Voigt Hill
#
# Bulk Modulus (GPa) = 36.65119 69.02068 52.83594
# Shear Modulus (GPa) = 31.54320 40.34421 35.94370
#
# Velocity S-wave (km/s) = 3.72486 4.21258 3.97621
# Velocity P-wave (km/s) = 5.88395 7.34987 6.65738
#
# Compressibility (1/GPa) = 0.02728424
#
# Stress axis : x y z
#
# Youngs Moduli (GPa) = 112.73920 198.96832 35.57107
#
# Poissons Ratio (x) = 0.43431 0.15261
# Poissons Ratio (y) = 0.24609 0.03163
# Poissons Ratio (z) = 0.48368 0.17691
#
# Static dielectric constant tensor:
#      x y z
#    x 3.905340 0.000000 0.000000 
#    y 0.000000 4.265220 0.000000 
#    z 0.000000 0.000000 3.576640 
# 
# 
# High freq. dielectric constant tensor:
#      x y z
#    x 1.875530 0.000000 0.000000 
#    y 0.000000 1.944060 0.000000 
#    z 0.000000 0.000000 1.866570 
# 
# From -- ./inp_files/9608.got.cif
#   From: 2010.03.12/outbox.cif.g09.slc.cpg/sg61_5_cif.got.tgz:9608.got - 2010.04.10 19:05:03.
