data_PCOD8248458
_publ_section_title
;
Structure prediction by ZEFSAII (Michael W. Deem and Ramdas Pophale) SiO2 
 PCOD8248458
Probable space group: P B C N
;
_chemical_formula_sum "Si O2"
_cell_formula_units_Z 48
_cell_length_a 7.017463
_cell_length_b 13.914383
_cell_length_c 24.533570
_cell_angle_alpha 90.000000
_cell_angle_beta 90.000000
_cell_angle_gamma 90.000000
_cell_volume 2395.547761
_symmetry_space_group_name_H-M "P B C N"
_symmetry_group_IT_number 60
_symmetry_cell_setting 'orthorhombic'
loop_
_space_group_symop_operation_xyz
x,y,z
1/2-x,1/2-y,1/2+z
1/2+x,1/2-y,-z
-x,y,1/2-z
-x,-y,-z
1/2+x,1/2+y,1/2-z
1/2-x,1/2+y,z
x,-y,1/2+z
loop_
_atom_site_type_symbol
_atom_site_label
_atom_site_fract_x
_atom_site_fract_y
_atom_site_fract_z
Si Si1 0.339403 0.158151 0.049823
Si Si2 0.513905 0.197271 0.939043
Si Si3 0.170514 0.479993 0.121665
Si Si4 0.627867 0.072561 0.196417
Si Si5 0.850491 0.247784 0.627005
Si Si6 0.529514 0.434485 0.191041
O O1 0.147263 0.217347 0.040150
O O2 0.477374 0.218051 0.089106
O O3 0.278693 0.055274 0.074056
O O4 0.434556 0.139839 0.991187
O O5 0.637804 0.125476 0.902396
O O6 0.346290 0.247775 0.905467
O O7 0.336039 0.477869 0.166527
O O8 0.975665 0.513770 0.149001
O O9 0.500000 0.071836 0.250000
O O10 0.666807 0.181829 0.178625
O O11 0.830702 0.022749 0.204303
O O12 0.885949 0.140623 0.648318
O O13 0.500000 0.383758 0.250000
#
# Coordination Sequence:
#
# PCOD8248458 Si02
#       6
#     8   8   8   8   8   8
#     4  11  24  41  65  93 129 168 213 263 316 377
#     4  12  22  44  65  95 128 170 213 260 322 378
#     4  11  24  41  65  94 131 165 209 264 316 380
#     4  11  23  43  63  93 127 165 209 259 315 371
#     4  11  24  41  64  93 127 168 209 261 316 380
#     4  12  23  42  66  95 125 166 213 260 319 380
#
# _framework density 20.037171000000001
#
# number of rings (size 3 to 8) (size 9 to 14) (size 15 to 20)
#    0.000    0.667    6.667    2.000    0.000    0.000 
#    0.000    2.500    0.000    0.000    0.000    0.000 
#    0.000    0.000    0.000    0.000    0.000    0.000 
#
# Total GULP energy -595444.362933 kJ/mol
# GULP energy per Si atom -12405.090894 kJ/mol
# Density = 1.999157 g / cm^3
# Si number density = 20.037171 Si / 1000 Ang^3
#
#
#
# Elastic Constant Matrix: (Units=GPa)
#
#
# Indices 1 2 3 4 5 6 
#
# 1 96.1320 23.5090 28.5217 0.0000 0.0000 0.0000
# 2 23.5090 64.7811 12.1417 0.0000 0.0000 0.0000
# 3 28.5217 12.1417 88.9850 0.0000 0.0000 0.0000
# 4 0.0000 0.0000 0.0000 32.0064 0.0000 0.0000
# 5 0.0000 0.0000 0.0000 0.0000 43.8057 0.0000
# 6 0.0000 0.0000 0.0000 0.0000 0.0000 23.5402
#
#
#
# Elastic Compliance Matrix: (Units=1/GPa)
#
#
# Indices 1 2 3 4 5 6 
#
# 1 0.012362 -0.003842 -0.003438 0.000000 0.000000 0.000000
# 2 -0.003842 0.017036 -0.001093 0.000000 0.000000 0.000000
# 3 -0.003438 -0.001093 0.012489 0.000000 0.000000 0.000000
# 4 0.000000 0.000000 0.000000 0.031244 0.000000 0.000000
# 5 0.000000 0.000000 0.000000 0.000000 0.022828 0.000000
# 6 0.000000 0.000000 0.000000 0.000000 0.000000 0.042481
#
#
# Mechanical properties :
#
#
# Convention : Reuss Voigt Hill
#
# Bulk Modulus (GPa) = 39.77614 42.02701 40.90157
# Shear Modulus (GPa) = 30.56889 32.25216 31.41052
#
# Velocity S-wave (km/s) = 3.91014 4.01636 3.96360
# Velocity P-wave (km/s) = 6.34664 6.52137 6.43460
#
# Compressibility (1/GPa) = 0.02514070
#
# Stress axis : x y z
#
# Youngs Moduli (GPa) = 80.89362 58.70048 80.07061
#
# Poissons Ratio (x) = 0.22551 0.27529
# Poissons Ratio (y) = 0.31077 0.08752
# Poissons Ratio (z) = 0.27812 0.06416
#
# Static dielectric constant tensor:
#      x y z
#    x 3.636590 0.000000 0.000000 
#    y 0.000000 3.507310 0.000000 
#    z 0.000000 0.000000 3.695600 
# 
# 
# High freq. dielectric constant tensor:
#      x y z
#    x 1.791230 0.000000 0.000000 
#    y 0.000000 1.779530 0.000000 
#    z 0.000000 0.000000 1.793640 
# 
# From -- ./inp_files/24864.got.cif
#   From: 2010.03.12/outbox.cif.g09.slc.cpg/sg60_13_cif.got.tgz:24864.got - 2010.04.10 18:46:24.
