data_PCOD8248466
_publ_section_title
;
Structure prediction by ZEFSAII (Michael W. Deem and Ramdas Pophale) SiO2 
 PCOD8248466
Probable space group: P B C N
;
_chemical_formula_sum "Si O2"
_cell_formula_units_Z 40
_cell_length_a 8.629119
_cell_length_b 8.890411
_cell_length_c 21.985497
_cell_angle_alpha 90.000000
_cell_angle_beta 90.000000
_cell_angle_gamma 90.000000
_cell_volume 1686.648500
_symmetry_space_group_name_H-M "P B C N"
_symmetry_group_IT_number 60
_symmetry_cell_setting 'orthorhombic'
loop_
_space_group_symop_operation_xyz
x,y,z
1/2-x,1/2-y,1/2+z
1/2+x,1/2-y,-z
-x,y,1/2-z
-x,-y,-z
1/2+x,1/2+y,1/2-z
1/2-x,1/2+y,z
x,-y,1/2+z
loop_
_atom_site_type_symbol
_atom_site_label
_atom_site_fract_x
_atom_site_fract_y
_atom_site_fract_z
Si Si1 0.351993 0.509357 0.216243
Si Si2 0.319014 0.022924 0.335970
Si Si3 0.503063 0.826935 0.022143
Si Si4 0.828547 0.200200 0.582764
Si Si5 0.387037 0.184403 0.649272
O O1 0.500000 0.435416 0.250000
O O2 0.232634 0.562659 0.268155
O O3 0.272693 0.388109 0.172444
O O4 0.407429 0.651129 0.177242
O O5 0.180115 0.953418 0.378270
O O6 0.461519 0.908221 0.330904
O O7 0.371157 0.173896 0.368126
O O8 0.667460 0.774605 0.047711
O O9 0.377070 0.808834 0.076159
O O10 0.462176 0.709868 0.968168
O O11 0.500000 0.000000 0.000000
#
# Coordination Sequence:
#
# PCOD8248466 Si02
#       5
#     8   8   8   8   8
#     4  12  25  43  68 102 135 180 233 291 352 421
#     4  11  24  46  68 100 141 188 229 292 355 424
#     4  11  24  46  69 107 145 188 237 301 353 422
#     4  11  23  43  72  98 144 187 237 295 356 417
#     4  11  26  45  68  98 145 180 232 292 352 426
#
# _framework density 23.715671
#
# number of rings (size 3 to 8) (size 9 to 14) (size 15 to 20)
#    0.000    0.800    4.000    5.400    2.800    5.600 
#    0.000    0.000    0.000    0.000    0.000    0.000 
#    0.000    0.000    0.000    0.000    0.000    0.000 
#
# Total GULP energy -496000.213161 kJ/mol
# GULP energy per Si atom -12400.005329 kJ/mol
# Density = 2.366169 g / cm^3
# Si number density = 23.715671 Si / 1000 Ang^3
#
#
#
# Elastic Constant Matrix: (Units=GPa)
#
#
# Indices 1 2 3 4 5 6 
#
# 1 44.6587 3.2932 -0.9239 0.0000 0.0000 0.0000
# 2 3.2932 42.6615 12.1263 0.0000 0.0000 0.0000
# 3 -0.9239 12.1263 125.2893 0.0000 0.0000 0.0000
# 4 0.0000 0.0000 0.0000 33.8834 0.0000 0.0000
# 5 0.0000 0.0000 0.0000 0.0000 49.1411 0.0000
# 6 0.0000 0.0000 0.0000 0.0000 0.0000 41.8266
#
#
#
# Elastic Compliance Matrix: (Units=1/GPa)
#
#
# Indices 1 2 3 4 5 6 
#
# 1 0.022535 -0.001837 0.000344 0.000000 0.000000 0.000000
# 2 -0.001837 0.024253 -0.002361 0.000000 0.000000 0.000000
# 3 0.000344 -0.002361 0.008213 0.000000 0.000000 0.000000
# 4 0.000000 0.000000 0.000000 0.029513 0.000000 0.000000
# 5 0.000000 0.000000 0.000000 0.000000 0.020350 0.000000
# 6 0.000000 0.000000 0.000000 0.000000 0.000000 0.023908
#
#
# Mechanical properties :
#
#
# Convention : Reuss Voigt Hill
#
# Bulk Modulus (GPa) = 21.14522 26.84452 23.99487
# Shear Modulus (GPa) = 32.84206 38.17780 35.50993
#
# Velocity S-wave (km/s) = 3.72536 4.01660 3.87372
# Velocity P-wave (km/s) = 5.23831 5.73190 5.49065
#
# Compressibility (1/GPa) = 0.04729202
#
# Stress axis : x y z
#
# Youngs Moduli (GPa) = 44.37611 41.23155 121.76450
#
# Poissons Ratio (x) = 0.07575 -0.04189
# Poissons Ratio (y) = 0.08153 0.28748
# Poissons Ratio (z) = -0.01527 0.09735
#
# Static dielectric constant tensor:
#      x y z
#    x 4.225040 0.000000 0.000000 
#    y 0.000000 4.158100 0.000000 
#    z 0.000000 0.000000 4.829420 
# 
# 
# High freq. dielectric constant tensor:
#      x y z
#    x 1.931290 0.000000 0.000000 
#    y 0.000000 1.926290 0.000000 
#    z 0.000000 0.000000 1.967350 
# 
# From -- ./inp_files/23814.got.cif
#   From: 2010.03.12/outbox.cif.g09.slc.cpg/sg60_12_cif.got.tgz:23814.got - 2010.04.10 18:46:24.
