data_PCOD8248448
_publ_section_title
;
Structure prediction by ZEFSAII (Michael W. Deem and Ramdas Pophale) SiO2 
 PCOD8248448
Probable space group: P B C N
;
_chemical_formula_sum "Si O2"
_cell_formula_units_Z 36
_cell_length_a 22.576271
_cell_length_b 7.077721
_cell_length_c 9.506549
_cell_angle_alpha 90.000000
_cell_angle_beta 90.000000
_cell_angle_gamma 90.000000
_cell_volume 1519.037655
_symmetry_space_group_name_H-M "P B C N"
_symmetry_group_IT_number 60
_symmetry_cell_setting 'orthorhombic'
loop_
_space_group_symop_operation_xyz
x,y,z
1/2-x,1/2-y,1/2+z
1/2+x,1/2-y,-z
-x,y,1/2-z
-x,-y,-z
1/2+x,1/2+y,1/2-z
1/2-x,1/2+y,z
x,-y,1/2+z
loop_
_atom_site_type_symbol
_atom_site_label
_atom_site_fract_x
_atom_site_fract_y
_atom_site_fract_z
Si Si1 0.198095 0.351339 0.177036
Si Si2 0.000000 0.546135 0.250000
Si Si3 0.066450 0.127461 0.895897
Si Si4 0.192052 0.294703 0.850308
Si Si5 0.423935 0.306010 0.697398
O O1 0.255411 0.314333 0.272031
O O2 0.172621 0.543554 0.241593
O O3 0.147457 0.196369 0.204627
O O4 0.211590 0.365662 0.008357
O O5 0.972634 0.686044 0.134003
O O6 0.948531 0.408310 0.307894
O O7 0.135292 0.161630 0.861662
O O8 0.047683 0.932441 0.820402
O O9 0.057558 0.081323 0.058240
#
# Coordination Sequence:
#
# PCOD8248448 Si02
#       5
#     8   4   8   8   8
#     4  11  23  42  67 100 137 182 229 285 347 411
#     4  12  24  48  72 100 138 184 238 284 346 406
#     4  11  26  45  70 102 139 182 231 286 346 412
#     4  11  23  42  67 100 137 182 229 285 347 411
#     4  11  26  45  70 102 139 182 231 286 346 412
#
# _framework density 23.699214000000001
#
# number of rings (size 3 to 8) (size 9 to 14) (size 15 to 20)
#    0.000    0.889    2.222    4.000    0.000   12.444 
#    0.000    0.000    0.000    0.000    0.000    0.000 
#    0.000    0.000    0.000    0.000    0.000    0.000 
#
# Total GULP energy -446145.934417 kJ/mol
# GULP energy per Si atom -12392.942623 kJ/mol
# Density = 2.364527 g / cm^3
# Si number density = 23.699214 Si / 1000 Ang^3
#
#
#
# Elastic Constant Matrix: (Units=GPa)
#
#
# Indices 1 2 3 4 5 6 
#
# 1 100.2310 14.1758 37.1148 0.0000 0.0000 0.0000
# 2 14.1758 97.3193 22.3830 0.0000 0.0000 0.0000
# 3 37.1148 22.3830 96.9646 0.0000 0.0000 0.0000
# 4 0.0000 0.0000 0.0000 41.2105 0.0000 0.0000
# 5 0.0000 0.0000 0.0000 0.0000 34.0372 0.0000
# 6 0.0000 0.0000 0.0000 0.0000 0.0000 22.9755
#
#
#
# Elastic Compliance Matrix: (Units=1/GPa)
#
#
# Indices 1 2 3 4 5 6 
#
# 1 0.011671 -0.000710 -0.004303 0.000000 0.000000 0.000000
# 2 -0.000710 0.010895 -0.002243 0.000000 0.000000 0.000000
# 3 -0.004303 -0.002243 0.012478 0.000000 0.000000 0.000000
# 4 0.000000 0.000000 0.000000 0.024266 0.000000 0.000000
# 5 0.000000 0.000000 0.000000 0.000000 0.029380 0.000000
# 6 0.000000 0.000000 0.000000 0.000000 0.000000 0.043525
#
#
# Mechanical properties :
#
#
# Convention : Reuss Voigt Hill
#
# Bulk Modulus (GPa) = 48.70812 49.09580 48.90196
# Shear Modulus (GPa) = 32.55839 34.36739 33.46289
#
# Velocity S-wave (km/s) = 3.71053 3.81221 3.76171
# Velocity P-wave (km/s) = 6.24136 6.33549 6.28860
#
# Compressibility (1/GPa) = 0.02053046
#
# Stress axis : x y z
#
# Youngs Moduli (GPa) = 85.68332 91.78688 80.14122
#
# Poissons Ratio (x) = 0.06519 0.34487
# Poissons Ratio (y) = 0.06086 0.17976
# Poissons Ratio (z) = 0.36872 0.20588
#
# Static dielectric constant tensor:
#      x y z
#    x 4.391830 0.000000 0.000000 
#    y 0.000000 4.123670 0.000000 
#    z 0.000000 0.000000 4.356350 
# 
# 
# High freq. dielectric constant tensor:
#      x y z
#    x 1.966010 0.000000 0.000000 
#    y 0.000000 1.933050 0.000000 
#    z 0.000000 0.000000 1.944190 
# 
# From -- ./inp_files/7171.got.cif
#   From: 2010.03.12/outbox.cif.g09.slc.cpg/sg60_4_cif.got.tgz:7171.got - 2010.04.10 18:46:24.
