data_PCOD8248208
_publ_section_title
;
Structure prediction by ZEFSAII (Michael W. Deem and Ramdas Pophale) SiO2 
 PCOD8248208
Probable space group: P B C N
;
_chemical_formula_sum "Si O2"
_cell_formula_units_Z 60
_cell_length_a 29.661727
_cell_length_b 11.097832
_cell_length_c 8.141136
_cell_angle_alpha 90.000000
_cell_angle_beta 90.000000
_cell_angle_gamma 90.000000
_cell_volume 2679.906175
_symmetry_space_group_name_H-M "P B C N"
_symmetry_group_IT_number 60
_symmetry_cell_setting 'orthorhombic'
loop_
_space_group_symop_operation_xyz
x,y,z
1/2-x,1/2-y,1/2+z
1/2+x,1/2-y,-z
-x,y,1/2-z
-x,-y,-z
1/2+x,1/2+y,1/2-z
1/2-x,1/2+y,z
x,-y,1/2+z
loop_
_atom_site_type_symbol
_atom_site_label
_atom_site_fract_x
_atom_site_fract_y
_atom_site_fract_z
Si Si1 0.483387 0.870116 0.438527
Si Si2 0.092611 0.890947 0.335739
Si Si3 0.884071 0.586849 0.651997
Si Si4 0.629120 0.164456 0.023543
Si Si5 0.791700 0.805094 0.927333
Si Si6 0.151870 0.044103 0.548805
Si Si7 0.801234 0.729234 0.576893
Si Si8 0.500000 0.696685 0.750000
O O1 0.500000 0.841373 0.250000
O O2 0.429512 0.869759 0.434121
O O3 0.497370 0.774831 0.580826
O O4 0.500000 0.000000 0.500000
O O5 0.092967 0.767927 0.439322
O O6 0.132219 0.883694 0.201821
O O7 0.042254 0.896360 0.262244
O O8 0.107132 0.006854 0.444482
O O9 0.878804 0.443145 0.649885
O O10 0.882022 0.625699 0.839444
O O11 0.844180 0.644931 0.543891
O O12 0.679461 0.218864 0.049178
O O13 0.787306 0.726660 0.764959
O O14 0.741124 0.828779 0.984754
O O15 0.819219 0.927993 0.898365
O O16 0.187069 0.132535 0.462545
#
# Coordination Sequence:
#
# PCOD8248208 Si02
#       8
#     8   8   8   8   8   8   8   4
#     4  12  24  42  70 105 150 197 245 302 367 433
#     4  11  25  48  72 102 140 188 243 298 357 429
#     4  11  24  44  67 105 145 188 232 296 369 423
#     4  10  25  43  68 102 145 185 235 289 358 440
#     4  10  25  44  66 104 134 181 235 288 350 430
#     4  11  24  48  73  94 146 187 232 294 361 418
#     4  11  25  43  70  99 139 182 231 287 357 422
#     4  12  26  44  72 110 142 190 260 300 358 446
#
# _framework density 22.388845
#
# number of rings (size 3 to 8) (size 9 to 14) (size 15 to 20)
#    0.000    1.067    2.000    3.200    9.333    0.533 
#    2.400    0.000    0.000    0.000    0.000    0.000 
#    0.000    0.000    0.000    0.000    0.000    0.000 
#
# Total GULP energy -743698.474592 kJ/mol
# GULP energy per Si atom -12394.974577 kJ/mol
# Density = 2.233789 g / cm^3
# Si number density = 22.388845 Si / 1000 Ang^3
#
#
#
# Elastic Constant Matrix: (Units=GPa)
#
#
# Indices 1 2 3 4 5 6 
#
# 1 173.5696 30.1333 40.3420 0.0000 0.0000 0.0000
# 2 30.1333 53.1332 19.3352 0.0000 0.0000 0.0000
# 3 40.3420 19.3352 92.8158 0.0000 0.0000 0.0000
# 4 0.0000 0.0000 0.0000 32.8100 0.0000 0.0000
# 5 0.0000 0.0000 0.0000 0.0000 33.1814 0.0000
# 6 0.0000 0.0000 0.0000 0.0000 0.0000 27.2514
#
#
#
# Elastic Compliance Matrix: (Units=1/GPa)
#
#
# Indices 1 2 3 4 5 6 
#
# 1 0.006830 -0.003022 -0.002339 0.000000 0.000000 0.000000
# 2 -0.003022 0.021702 -0.003207 0.000000 0.000000 0.000000
# 3 -0.002339 -0.003207 0.012459 0.000000 0.000000 0.000000
# 4 0.000000 0.000000 0.000000 0.030478 0.000000 0.000000
# 5 0.000000 0.000000 0.000000 0.000000 0.030137 0.000000
# 6 0.000000 0.000000 0.000000 0.000000 0.000000 0.036695
#
#
# Mechanical properties :
#
#
# Convention : Reuss Voigt Hill
#
# Bulk Modulus (GPa) = 41.92273 55.45996 48.69134
# Shear Modulus (GPa) = 30.60178 33.96245 32.28211
#
# Velocity S-wave (km/s) = 3.70108 3.89901 3.80133
# Velocity P-wave (km/s) = 6.08518 6.71526 6.40797
#
# Compressibility (1/GPa) = 0.02385341
#
# Stress axis : x y z
#
# Youngs Moduli (GPa) = 146.41969 46.07933 80.26479
#
# Poissons Ratio (x) = 0.13926 0.18773
# Poissons Ratio (y) = 0.44251 0.25743
# Poissons Ratio (z) = 0.34246 0.14779
#
# Static dielectric constant tensor:
#      x y z
#    x 4.238810 0.000000 0.000000 
#    y 0.000000 3.939940 0.000000 
#    z 0.000000 0.000000 4.246700 
# 
# 
# High freq. dielectric constant tensor:
#      x y z
#    x 1.893210 0.000000 0.000000 
#    y 0.000000 1.873330 0.000000 
#    z 0.000000 0.000000 1.890300 
# 
# From -- ./inp_files/8189.got.cif
#   From: 2010.03.12/outbox.cif.g09.slc.cpg/sg60_5_cif.got.tgz:8189.got - 2010.04.10 18:46:24.
