data_PCOD8248554
_publ_section_title
;
Structure prediction by ZEFSAII (Michael W. Deem and Ramdas Pophale) SiO2 
 PCOD8248554
Probable space group: P B C N
;
_chemical_formula_sum "Si O2"
_cell_formula_units_Z 48
_cell_length_a 34.409377
_cell_length_b 7.333003
_cell_length_c 8.751898
_cell_angle_alpha 90.000000
_cell_angle_beta 90.000000
_cell_angle_gamma 90.000000
_cell_volume 2208.314478
_symmetry_space_group_name_H-M "P B C N"
_symmetry_group_IT_number 60
_symmetry_cell_setting 'orthorhombic'
loop_
_space_group_symop_operation_xyz
x,y,z
1/2-x,1/2-y,1/2+z
1/2+x,1/2-y,-z
-x,y,1/2-z
-x,-y,-z
1/2+x,1/2+y,1/2-z
1/2-x,1/2+y,z
x,-y,1/2+z
loop_
_atom_site_type_symbol
_atom_site_label
_atom_site_fract_x
_atom_site_fract_y
_atom_site_fract_z
Si Si1 0.346606 0.549941 0.990689
Si Si2 0.459545 0.235452 0.812723
Si Si3 0.713299 0.223366 0.532520
Si Si4 0.901951 0.051202 0.765143
Si Si5 0.460258 0.140880 0.165846
Si Si6 0.792557 0.349210 0.386629
O O1 0.315103 0.390972 0.993851
O O2 0.360631 0.587993 0.818813
O O3 0.387905 0.498155 0.065816
O O4 0.329824 0.730116 0.069445
O O5 0.500000 0.320967 0.750000
O O6 0.426193 0.385059 0.806046
O O7 0.448282 0.066373 0.703464
O O8 0.465290 0.164803 0.984909
O O9 0.756149 0.280257 0.483363
O O10 0.715895 0.162823 0.707731
O O11 0.698003 0.057525 0.428966
O O12 0.926867 0.233254 0.765281
O O13 0.500000 0.193876 0.250000
#
# Coordination Sequence:
#
# PCOD8248554 Si02
#       6
#     8   8   8   8   8   8
#     4  12  28  48  67 105 141 182 233 287 357 413
#     4  11  25  44  72 104 139 188 236 280 342 410
#     4  12  27  46  74 101 135 181 230 289 349 416
#     4  12  27  46  70 101 145 182 233 289 348 413
#     4  11  25  44  72 103 141 187 234 283 341 411
#     4  12  27  46  74 100 137 178 232 288 347 420
#
# _framework density 21.736034
#
# number of rings (size 3 to 8) (size 9 to 14) (size 15 to 20)
#    0.000    0.333    5.000    3.500    9.333    4.000 
#    0.000    0.000    0.000    0.000    0.000    0.000 
#    0.000    0.000    0.000    0.000    0.000    0.000 
#
# Total GULP energy -595427.679509 kJ/mol
# GULP energy per Si atom -12404.743323 kJ/mol
# Density = 2.168656 g / cm^3
# Si number density = 21.736034 Si / 1000 Ang^3
#
#
#
# Elastic Constant Matrix: (Units=GPa)
#
#
# Indices 1 2 3 4 5 6 
#
# 1 85.9088 17.3197 9.9499 0.0000 0.0000 0.0000
# 2 17.3197 47.7325 1.3313 0.0000 0.0000 0.0000
# 3 9.9499 1.3313 103.4060 0.0000 0.0000 0.0000
# 4 0.0000 0.0000 0.0000 35.8729 0.0000 0.0000
# 5 0.0000 0.0000 0.0000 0.0000 35.0460 0.0000
# 6 0.0000 0.0000 0.0000 0.0000 0.0000 -13.2823
#
#
#
# Elastic Compliance Matrix: (Units=1/GPa)
#
#
# Indices 1 2 3 4 5 6 
#
# 1 0.012697 -0.004575 -0.001163 0.000000 0.000000 0.000000
# 2 -0.004575 0.022606 0.000149 0.000000 0.000000 0.000000
# 3 -0.001163 0.000149 0.009781 0.000000 0.000000 0.000000
# 4 0.000000 0.000000 0.000000 0.027876 0.000000 0.000000
# 5 0.000000 0.000000 0.000000 0.000000 0.028534 0.000000
# 6 0.000000 0.000000 0.000000 0.000000 0.000000 -0.075288
#
#
# Mechanical properties :
#
#
# Convention : Reuss Voigt Hill
#
# Bulk Modulus (GPa) = 29.49259 32.69433 31.09346
# Shear Modulus (GPa) = 102.70175 25.42375 64.06275
#
# Velocity S-wave (km/s) = 6.88129 3.42374 5.43480
# Velocity P-wave (km/s) = 8.75980 5.54107 7.32931
#
# Compressibility (1/GPa) = 0.03390682
#
# Stress axis : x y z
#
# Youngs Moduli (GPa) = 78.75738 44.23628 102.24337
#
# Poissons Ratio (x) = 0.20237 0.11889
# Poissons Ratio (y) = 0.36029 -0.01525
# Poissons Ratio (z) = 0.09158 -0.00660
#
# Static dielectric constant tensor:
#      x y z
#    x 3.904140 0.000000 0.000000 
#    y 0.000000 4.061780 0.000000 
#    z 0.000000 0.000000 4.077750 
# 
# 
# High freq. dielectric constant tensor:
#      x y z
#    x 1.859020 0.000000 0.000000 
#    y 0.000000 1.860360 0.000000 
#    z 0.000000 0.000000 1.876120 
# 
# From -- ./inp_files/8405.got.cif
#   From: 2010.03.12/outbox.cif.g09.slc.cpg/sg60_5_cif.got.tgz:8405.got - 2010.04.10 18:46:24.
