data_PCOD8248305
_publ_section_title
;
Structure prediction by ZEFSAII (Michael W. Deem and Ramdas Pophale) SiO2 
 PCOD8248305
Probable space group: P B C N
;
_chemical_formula_sum "Si O2"
_cell_formula_units_Z 32
_cell_length_a 16.849734
_cell_length_b 9.263472
_cell_length_c 8.749987
_cell_angle_alpha 90.000000
_cell_angle_beta 90.000000
_cell_angle_gamma 90.000000
_cell_volume 1365.759563
_symmetry_space_group_name_H-M "P B C N"
_symmetry_group_IT_number 60
_symmetry_cell_setting 'orthorhombic'
loop_
_space_group_symop_operation_xyz
x,y,z
1/2-x,1/2-y,1/2+z
1/2+x,1/2-y,-z
-x,y,1/2-z
-x,-y,-z
1/2+x,1/2+y,1/2-z
1/2-x,1/2+y,z
x,-y,1/2+z
loop_
_atom_site_type_symbol
_atom_site_label
_atom_site_fract_x
_atom_site_fract_y
_atom_site_fract_z
Si Si1 0.743280 0.892499 0.096863
Si Si2 0.598691 0.533439 0.180714
Si Si3 0.964840 0.822499 0.965593
Si Si4 0.671225 0.136803 0.920805
O O1 0.692760 0.843230 0.243464
O O2 0.809144 0.010498 0.146949
O O3 0.779267 0.751335 0.020099
O O4 0.686540 0.974272 0.976650
O O5 0.587808 0.566044 0.359243
O O6 0.557051 0.669748 0.087765
O O7 0.549123 0.388385 0.134239
O O8 0.923562 0.666167 0.945721
#
# Coordination Sequence:
#
# PCOD8248305 Si02
#       4
#     8   8   8   8
#     4  11  21  36  58  88 121 157 197 248 302 361
#     4   9  17  32  54  80 111 146 189 233 287 350
#     4   9  18  32  54  83 112 145 190 244 289 344
#     4  11  22  36  58  89 122 153 198 250 304 357
#
# _framework density 23.430185999999999
#
# number of rings (size 3 to 8) (size 9 to 14) (size 15 to 20)
#    0.000    2.000    0.000    6.000    0.000    0.000 
#    0.000    0.000    0.000   13.500    0.000   31.500 
#    0.000    0.000    0.000    0.000    0.000    0.000 
#
# Total GULP energy -396426.460551 kJ/mol
# GULP energy per Si atom -12388.326892 kJ/mol
# Density = 2.337686 g / cm^3
# Si number density = 23.430186 Si / 1000 Ang^3
#
#
#
# Elastic Constant Matrix: (Units=GPa)
#
#
# Indices 1 2 3 4 5 6 
#
# 1 57.4948 13.2898 -21.1502 0.0000 0.0000 0.0000
# 2 13.2898 50.3304 7.7706 0.0000 0.0000 0.0000
# 3 -21.1502 7.7706 74.8295 0.0000 0.0000 0.0000
# 4 0.0000 0.0000 0.0000 38.3436 0.0000 0.0000
# 5 0.0000 0.0000 0.0000 0.0000 21.8339 0.0000
# 6 0.0000 0.0000 0.0000 0.0000 0.0000 24.9931
#
#
#
# Elastic Compliance Matrix: (Units=1/GPa)
#
#
# Indices 1 2 3 4 5 6 
#
# 1 0.021425 -0.006700 0.006751 0.000000 0.000000 0.000000
# 2 -0.006700 0.022287 -0.004208 0.000000 0.000000 0.000000
# 3 0.006751 -0.004208 0.015709 0.000000 0.000000 0.000000
# 4 0.000000 0.000000 0.000000 0.026080 0.000000 0.000000
# 5 0.000000 0.000000 0.000000 0.000000 0.045800 0.000000
# 6 0.000000 0.000000 0.000000 0.000000 0.000000 0.040011
#
#
# Mechanical properties :
#
#
# Convention : Reuss Voigt Hill
#
# Bulk Modulus (GPa) = 19.56606 20.27500 19.92053
# Shear Modulus (GPa) = 25.42436 29.21708 27.32072
#
# Velocity S-wave (km/s) = 3.29768 3.53510 3.41845
# Velocity P-wave (km/s) = 4.78210 5.03336 4.90934
#
# Compressibility (1/GPa) = 0.05110891
#
# Stress axis : x y z
#
# Youngs Moduli (GPa) = 46.67426 44.86834 63.65796
#
# Poissons Ratio (x) = 0.30060 -0.42978
# Poissons Ratio (y) = 0.31270 0.26788
# Poissons Ratio (z) = -0.31512 0.18881
#
# Static dielectric constant tensor:
#      x y z
#    x 4.401260 0.000000 0.000000 
#    y 0.000000 3.931800 0.000000 
#    z 0.000000 0.000000 4.220180 
# 
# 
# High freq. dielectric constant tensor:
#      x y z
#    x 1.918520 0.000000 0.000000 
#    y 0.000000 1.886830 0.000000 
#    z 0.000000 0.000000 1.936540 
# 
# From -- ./inp_files/7139.got.cif
#   From: 2010.03.12/outbox.cif.g09.slc.cpg/sg60_4_cif.got.tgz:7139.got - 2010.04.10 18:46:24.
