data_PCOD8248003
_publ_section_title
;
Structure prediction by ZEFSAII (Michael W. Deem and Ramdas Pophale) SiO2 
 PCOD8248003
Probable space group: P B C N
;
_chemical_formula_sum "Si O2"
_cell_formula_units_Z 60
_cell_length_a 11.007260
_cell_length_b 27.857791
_cell_length_c 9.029859
_cell_angle_alpha 90.000000
_cell_angle_beta 90.000000
_cell_angle_gamma 90.000000
_cell_volume 2768.897440
_symmetry_space_group_name_H-M "P B C N"
_symmetry_group_IT_number 60
_symmetry_cell_setting 'orthorhombic'
loop_
_space_group_symop_operation_xyz
x,y,z
1/2-x,1/2-y,1/2+z
1/2+x,1/2-y,-z
-x,y,1/2-z
-x,-y,-z
1/2+x,1/2+y,1/2-z
1/2-x,1/2+y,z
x,-y,1/2+z
loop_
_atom_site_type_symbol
_atom_site_label
_atom_site_fract_x
_atom_site_fract_y
_atom_site_fract_z
Si Si1 0.081357 0.772556 0.387777
Si Si2 0.714700 0.101356 0.128516
Si Si3 0.188701 0.334576 0.342913
Si Si4 0.694290 0.410363 0.953005
Si Si5 0.931506 0.325628 0.466845
Si Si6 0.500000 0.987927 0.250000
Si Si7 0.531601 0.646627 0.087295
Si Si8 0.833751 0.506347 0.512734
O O1 0.212498 0.792174 0.339348
O O2 0.114102 0.727033 0.488459
O O3 0.000000 0.755549 0.250000
O O4 0.000637 0.811843 0.472814
O O5 0.730895 0.101093 0.304102
O O6 0.832970 0.127625 0.058753
O O7 0.690058 0.048740 0.057224
O O8 0.599215 0.134723 0.091686
O O9 0.252149 0.381511 0.408516
O O10 0.138677 0.343974 0.179007
O O11 0.075828 0.320790 0.447314
O O12 0.552745 0.400099 0.935234
O O13 0.706044 0.467255 0.986248
O O14 0.599766 0.962382 0.145911
O O15 0.580701 0.017060 0.370396
O O16 0.500000 0.667585 0.250000
#
# Coordination Sequence:
#
# PCOD8248003 Si02
#       8
#     8   8   8   8   8   4   8   8
#     4  11  25  44  67  95 129 173 215 270 335 393
#     4  11  24  41  66  97 129 174 220 273 328 392
#     4  10  26  43  63  95 129 165 217 267 321 394
#     4  10  23  43  66  94 130 174 219 268 324 393
#     4  11  27  40  66  94 127 167 216 269 329 386
#     4  10  24  38  60  90 130 170 208 268 322 394
#     4   9  22  45  68  91 132 173 222 271 326 387
#     4  11  23  40  65  94 129 176 217 264 332 390
#
# _framework density 21.669274000000001
#
# number of rings (size 3 to 8) (size 9 to 14) (size 15 to 20)
#    0.000    1.600    1.333    0.800   13.067    1.600 
#    0.000    0.000    0.000    0.000    0.000    0.000 
#    0.000    0.000    0.000    0.000    0.000    0.000 
#
# Total GULP energy -743344.718716 kJ/mol
# GULP energy per Si atom -12389.078645 kJ/mol
# Density = 2.161995 g / cm^3
# Si number density = 21.669274 Si / 1000 Ang^3
#
#
#
# Elastic Constant Matrix: (Units=GPa)
#
#
# Indices 1 2 3 4 5 6 
#
# 1 89.6867 21.4466 24.8037 0.0000 0.0000 0.0000
# 2 21.4466 90.8002 15.5574 0.0000 0.0000 0.0000
# 3 24.8037 15.5574 87.2425 0.0000 0.0000 0.0000
# 4 0.0000 0.0000 0.0000 20.9534 0.0000 0.0000
# 5 0.0000 0.0000 0.0000 0.0000 27.1872 0.0000
# 6 0.0000 0.0000 0.0000 0.0000 0.0000 15.2489
#
#
#
# Elastic Compliance Matrix: (Units=1/GPa)
#
#
# Indices 1 2 3 4 5 6 
#
# 1 0.012604 -0.002437 -0.003149 0.000000 0.000000 0.000000
# 2 -0.002437 0.011832 -0.001417 0.000000 0.000000 0.000000
# 3 -0.003149 -0.001417 0.012610 0.000000 0.000000 0.000000
# 4 0.000000 0.000000 0.000000 0.047725 0.000000 0.000000
# 5 0.000000 0.000000 0.000000 0.000000 0.036782 0.000000
# 6 0.000000 0.000000 0.000000 0.000000 0.000000 0.065578
#
#
# Mechanical properties :
#
#
# Convention : Reuss Voigt Hill
#
# Bulk Modulus (GPa) = 43.40378 43.48277 43.44328
# Shear Modulus (GPa) = 23.94449 26.40603 25.17526
#
# Velocity S-wave (km/s) = 3.32776 3.49462 3.41221
# Velocity P-wave (km/s) = 5.90245 6.03269 5.96792
#
# Compressibility (1/GPa) = 0.02303947
#
# Stress axis : x y z
#
# Youngs Moduli (GPa) = 79.34259 84.51894 79.30123
#
# Poissons Ratio (x) = 0.20601 0.24969
# Poissons Ratio (y) = 0.19339 0.11236
# Poissons Ratio (z) = 0.24982 0.11975
#
# Static dielectric constant tensor:
#      x y z
#    x 4.090620 0.000000 0.000000 
#    y 0.000000 3.636700 0.000000 
#    z 0.000000 0.000000 4.195270 
# 
# 
# High freq. dielectric constant tensor:
#      x y z
#    x 1.858130 0.000000 0.000000 
#    y 0.000000 1.834770 0.000000 
#    z 0.000000 0.000000 1.866460 
# 
# From -- ./inp_files/5249.got.cif
#   From: 2010.03.12/outbox.cif.g09.slc.cpg/sg60_3_cif.got.tgz:5249.got - 2010.04.10 18:46:24.
