data_PCOD8248617
_publ_section_title
;
Structure prediction by ZEFSAII (Michael W. Deem and Ramdas Pophale) SiO2 
 PCOD8248617
Probable space group: P B C N
;
_chemical_formula_sum "Si O2"
_cell_formula_units_Z 40
_cell_length_a 15.288666
_cell_length_b 7.599614
_cell_length_c 14.162471
_cell_angle_alpha 90.000000
_cell_angle_beta 90.000000
_cell_angle_gamma 90.000000
_cell_volume 1645.508617
_symmetry_space_group_name_H-M "P B C N"
_symmetry_group_IT_number 60
_symmetry_cell_setting 'orthorhombic'
loop_
_space_group_symop_operation_xyz
x,y,z
1/2-x,1/2-y,1/2+z
1/2+x,1/2-y,-z
-x,y,1/2-z
-x,-y,-z
1/2+x,1/2+y,1/2-z
1/2-x,1/2+y,z
x,-y,1/2+z
loop_
_atom_site_type_symbol
_atom_site_label
_atom_site_fract_x
_atom_site_fract_y
_atom_site_fract_z
Si Si1 0.019261 0.314943 0.148914
Si Si2 0.629474 0.138011 0.368597
Si Si3 0.496181 0.555647 0.892049
Si Si4 0.327209 0.253754 0.336204
Si Si5 0.661855 0.101433 0.569039
O O1 0.933384 0.313193 0.083272
O O2 0.000000 0.402170 0.250000
O O3 0.097036 0.437536 0.111810
O O4 0.043836 0.108467 0.161010
O O5 0.547409 0.267459 0.369716
O O6 0.321475 0.172015 0.230050
O O7 0.690920 0.158770 0.461951
O O8 0.398009 0.590530 0.852246
O O9 0.500000 0.500000 0.000000
O O10 0.231161 0.328760 0.355273
O O11 0.348983 0.106165 0.413782
#
# Coordination Sequence:
#
# PCOD8248617 Si02
#       5
#     8   8   8   8   8
#     4  12  22  45  76 108 140 193 248 303 365 446
#     4  12  25  50  77 104 150 201 241 312 371 445
#     4  12  24  44  76 108 142 190 252 302 368 448
#     4  12  27  49  71 111 158 189 249 319 376 452
#     4  12  26  46  73 108 148 192 248 303 377 439
#
# _framework density 24.308592000000001
#
# number of rings (size 3 to 8) (size 9 to 14) (size 15 to 20)
#    0.000    0.000    6.000    4.800    0.000    1.600 
#    3.600    0.000    0.000    0.000    0.000    0.000 
#    0.000    0.000    0.000    0.000    0.000    0.000 
#
# Total GULP energy -495808.492281 kJ/mol
# GULP energy per Si atom -12395.212307 kJ/mol
# Density = 2.425326 g / cm^3
# Si number density = 24.308592 Si / 1000 Ang^3
#
#
#
# Elastic Constant Matrix: (Units=GPa)
#
#
# Indices 1 2 3 4 5 6 
#
# 1 76.5923 30.4633 42.6210 0.0000 0.0000 0.0000
# 2 30.4633 129.4757 31.8601 0.0000 0.0000 0.0000
# 3 42.6210 31.8601 170.3242 0.0000 0.0000 0.0000
# 4 0.0000 0.0000 0.0000 37.5793 0.0000 0.0000
# 5 0.0000 0.0000 0.0000 0.0000 31.6889 0.0000
# 6 0.0000 0.0000 0.0000 0.0000 0.0000 31.4956
#
#
#
# Elastic Compliance Matrix: (Units=1/GPa)
#
#
# Indices 1 2 3 4 5 6 
#
# 1 0.016173 -0.002945 -0.003496 0.000000 0.000000 0.000000
# 2 -0.002945 0.008632 -0.000878 0.000000 0.000000 0.000000
# 3 -0.003496 -0.000878 0.006910 0.000000 0.000000 0.000000
# 4 0.000000 0.000000 0.000000 0.026610 0.000000 0.000000
# 5 0.000000 0.000000 0.000000 0.000000 0.031557 0.000000
# 6 0.000000 0.000000 0.000000 0.000000 0.000000 0.031750
#
#
# Mechanical properties :
#
#
# Convention : Reuss Voigt Hill
#
# Bulk Modulus (GPa) = 58.55577 65.14232 61.84905
# Shear Modulus (GPa) = 35.22034 38.24929 36.73481
#
# Velocity S-wave (km/s) = 3.81055 3.97103 3.89162
# Velocity P-wave (km/s) = 6.59554 6.91966 6.75954
#
# Compressibility (1/GPa) = 0.01707773
#
# Stress axis : x y z
#
# Youngs Moduli (GPa) = 61.83182 115.84346 144.71330
#
# Poissons Ratio (x) = 0.34115 0.50594
# Poissons Ratio (y) = 0.18209 0.12703
# Poissons Ratio (z) = 0.21617 0.10169
#
# Static dielectric constant tensor:
#      x y z
#    x 3.950420 0.000000 0.000000 
#    y 0.000000 4.763210 0.000000 
#    z 0.000000 0.000000 4.694880 
# 
# 
# High freq. dielectric constant tensor:
#      x y z
#    x 1.926790 0.000000 0.000000 
#    y 0.000000 1.983940 0.000000 
#    z 0.000000 0.000000 1.988080 
# 
# From -- ./inp_files/20390.got.cif
#   From: 2010.03.12/outbox.cif.g09.slc.cpg/sg60_11_cif.got.tgz:20390.got - 2010.04.10 18:46:24.
