data_PCOD8248637
_publ_section_title
;
Structure prediction by ZEFSAII (Michael W. Deem and Ramdas Pophale) SiO2 
 PCOD8248637
Probable space group: P B C N
;
_chemical_formula_sum "Si O2"
_cell_formula_units_Z 24
_cell_length_a 4.805960
_cell_length_b 17.952594
_cell_length_c 10.954011
_cell_angle_alpha 90.000000
_cell_angle_beta 90.000000
_cell_angle_gamma 90.000000
_cell_volume 945.106030
_symmetry_space_group_name_H-M "P B C N"
_symmetry_group_IT_number 60
_symmetry_cell_setting 'orthorhombic'
loop_
_space_group_symop_operation_xyz
x,y,z
1/2-x,1/2-y,1/2+z
1/2+x,1/2-y,-z
-x,y,1/2-z
-x,-y,-z
1/2+x,1/2+y,1/2-z
1/2-x,1/2+y,z
x,-y,1/2+z
loop_
_atom_site_type_symbol
_atom_site_label
_atom_site_fract_x
_atom_site_fract_y
_atom_site_fract_z
Si Si1 0.445392 0.550584 0.117690
Si Si2 0.758464 0.211731 0.826775
Si Si3 0.436621 0.145374 0.435578
O O1 0.500000 0.510420 0.250000
O O2 0.638476 0.624884 0.121920
O O3 0.129211 0.576014 0.098923
O O4 0.500000 0.500000 0.000000
O O5 0.500000 0.243717 0.750000
O O6 0.000000 0.168747 0.750000
O O7 0.934244 0.278391 0.887349
O O8 0.621495 0.153799 0.920474
#
# Coordination Sequence:
#
# PCOD8248637 Si02
#       3
#     8   8   8
#     4  12  27  47  71  98 137 188 238 289 345 412
#     4  12  24  41  70 105 141 180 226 289 360 430
#     4  12  25  44  69 101 139 180 228 284 354 422
#
# _framework density 25.393978000000001
#
# number of rings (size 3 to 8) (size 9 to 14) (size 15 to 20)
#    0.000    0.000    0.000   13.000    0.000    4.000 
#    0.000    0.000    0.000    0.000    0.000    0.000 
#    0.000    0.000    0.000    0.000    0.000    0.000 
#
# Total GULP energy -297389.724285 kJ/mol
# GULP energy per Si atom -12391.238512 kJ/mol
# Density = 2.533618 g / cm^3
# Si number density = 25.393978 Si / 1000 Ang^3
#
#
#
# Elastic Constant Matrix: (Units=GPa)
#
#
# Indices 1 2 3 4 5 6 
#
# 1 151.4791 12.0037 65.2472 0.0000 0.0000 0.0000
# 2 12.0037 40.1772 44.8939 0.0000 0.0000 0.0000
# 3 65.2472 44.8939 226.4664 0.0000 0.0000 0.0000
# 4 0.0000 0.0000 0.0000 17.6289 0.0000 0.0000
# 5 0.0000 0.0000 0.0000 0.0000 61.0184 0.0000
# 6 0.0000 0.0000 0.0000 0.0000 0.0000 19.0791
#
#
#
# Elastic Compliance Matrix: (Units=1/GPa)
#
#
# Indices 1 2 3 4 5 6 
#
# 1 0.007538 0.000224 -0.002216 0.000000 0.000000 0.000000
# 2 0.000224 0.031978 -0.006404 0.000000 0.000000 0.000000
# 3 -0.002216 -0.006404 0.006324 0.000000 0.000000 0.000000
# 4 0.000000 0.000000 0.000000 0.056725 0.000000 0.000000
# 5 0.000000 0.000000 0.000000 0.000000 0.016389 0.000000
# 6 0.000000 0.000000 0.000000 0.000000 0.000000 0.052413
#
#
# Mechanical properties :
#
#
# Convention : Reuss Voigt Hill
#
# Bulk Modulus (GPa) = 34.42501 73.60136 54.01318
# Shear Modulus (GPa) = 25.27264 39.27713 32.27489
#
# Velocity S-wave (km/s) = 3.15814 3.93709 3.56893
# Velocity P-wave (km/s) = 5.18500 7.05084 6.18864
#
# Compressibility (1/GPa) = 0.02904865
#
# Stress axis : x y z
#
# Youngs Moduli (GPa) = 132.65302 31.27109 158.13497
#
# Poissons Ratio (x) = -0.00701 0.35049
# Poissons Ratio (y) = -0.02976 1.01268
# Poissons Ratio (z) = 0.29401 0.20026
#
# Static dielectric constant tensor:
#      x y z
#    x 5.465480 0.000000 0.000000 
#    y 0.000000 3.983800 0.000000 
#    z 0.000000 0.000000 5.302660 
# 
# 
# High freq. dielectric constant tensor:
#      x y z
#    x 2.047260 0.000000 0.000000 
#    y 0.000000 1.968720 0.000000 
#    z 0.000000 0.000000 2.037530 
# 
# From -- ./inp_files/8671.got.cif
#   From: 2010.03.12/outbox.cif.g09.slc.cpg/sg60_5_cif.got.tgz:8671.got - 2010.04.10 18:46:24.
