data_PCOD8248811
_publ_section_title
;
Structure prediction by ZEFSAII (Michael W. Deem and Ramdas Pophale) SiO2 
 PCOD8248811
Probable space group: P B C A
;
_chemical_formula_sum "Si O2"
_cell_formula_units_Z 56
_cell_length_a 8.578452
_cell_length_b 25.176778
_cell_length_c 13.595289
_cell_angle_alpha 90.000000
_cell_angle_beta 90.000000
_cell_angle_gamma 90.000000
_cell_volume 2936.280358
_symmetry_space_group_name_H-M "P B C A"
_symmetry_group_IT_number 61
_symmetry_cell_setting 'orthorhombic'
loop_
_space_group_symop_operation_xyz
x,y,z
1/2-x,-y,1/2+z
1/2+x,1/2-y,-z
-x,1/2+y,1/2-z
-x,-y,-z
1/2+x,y,1/2-z
1/2-x,1/2+y,z
x,1/2-y,1/2+z
loop_
_atom_site_type_symbol
_atom_site_label
_atom_site_fract_x
_atom_site_fract_y
_atom_site_fract_z
Si Si1 0.652150 0.668324 0.286982
Si Si2 0.533005 0.190137 0.020006
Si Si3 0.106200 0.128771 0.071290
Si Si4 0.432724 0.986970 0.854404
Si Si5 0.129388 0.784572 0.923735
Si Si6 0.401949 0.441294 0.813761
Si Si7 0.409328 0.082531 0.983565
O O1 0.538039 0.691887 0.370004
O O2 0.824726 0.659511 0.332401
O O3 0.655409 0.707065 0.193142
O O4 0.597824 0.609725 0.256987
O O5 0.707893 0.210776 0.020370
O O6 0.534634 0.129944 0.978054
O O7 0.435081 0.226102 0.944546
O O8 0.242514 0.111525 0.997529
O O9 0.985316 0.171529 0.026912
O O10 0.012521 0.074489 0.095242
O O11 0.514853 0.988290 0.747603
O O12 0.267259 0.957113 0.852453
O O13 0.550839 0.957347 0.927834
O O14 0.407700 0.048345 0.883933
#
# Coordination Sequence:
#
# PCOD8248811 Si02
#       7
#     8   8   8   8   8   8   8
#     4  10  19  35  60  88 112 146 194 247 279 348
#     4  11  21  38  58  87 119 152 191 242 296 350
#     4  10  19  34  58  88 113 143 195 239 285 337
#     4  11  20  34  58  82 113 149 195 237 291 328
#     4  11  22  34  62  89 116 152 195 237 295 353
#     4  11  18  33  57  84 109 147 192 237 274 343
#     4  10  21  36  54  83 117 150 184 245 288 343
#
# _framework density 19.071746999999998
#
# number of rings (size 3 to 8) (size 9 to 14) (size 15 to 20)
#    0.000    1.429    4.286    5.143    0.000    0.571 
#    0.000    1.429   12.571    0.000    0.000    0.000 
#    0.000    0.000    0.000    0.000    0.000    0.000 
#
# Total GULP energy -694224.501781 kJ/mol
# GULP energy per Si atom -12396.866103 kJ/mol
# Density = 1.902834 g / cm^3
# Si number density = 19.071747 Si / 1000 Ang^3
#
#
#
# Elastic Constant Matrix: (Units=GPa)
#
#
# Indices 1 2 3 4 5 6 
#
# 1 103.7110 24.8343 11.5279 0.0000 0.0000 0.0000
# 2 24.8343 93.3121 39.6951 0.0000 0.0000 0.0000
# 3 11.5279 39.6951 46.7243 0.0000 0.0000 0.0000
# 4 0.0000 0.0000 0.0000 33.6180 0.0000 0.0000
# 5 0.0000 0.0000 0.0000 0.0000 18.4730 0.0000
# 6 0.0000 0.0000 0.0000 0.0000 0.0000 26.4403
#
#
#
# Elastic Compliance Matrix: (Units=1/GPa)
#
#
# Indices 1 2 3 4 5 6 
#
# 1 0.010302 -0.002600 -0.000333 0.000000 0.000000 0.000000
# 2 -0.002600 0.017438 -0.014173 0.000000 0.000000 0.000000
# 3 -0.000333 -0.014173 0.033525 0.000000 0.000000 0.000000
# 4 0.000000 0.000000 0.000000 0.029746 0.000000 0.000000
# 5 0.000000 0.000000 0.000000 0.000000 0.054133 0.000000
# 6 0.000000 0.000000 0.000000 0.000000 0.000000 0.037821
#
#
# Mechanical properties :
#
#
# Convention : Reuss Voigt Hill
#
# Bulk Modulus (GPa) = 36.96450 43.98467 40.47458
# Shear Modulus (GPa) = 22.10488 26.88561 24.49524
#
# Velocity S-wave (km/s) = 3.40816 3.75868 3.58770
# Velocity P-wave (km/s) = 5.90858 6.47686 6.19923
#
# Compressibility (1/GPa) = 0.02705298
#
# Stress axis : x y z
#
# Youngs Moduli (GPa) = 97.07048 57.34602 29.82845
#
# Poissons Ratio (x) = 0.14911 0.00992
# Poissons Ratio (y) = 0.25241 0.42276
# Poissons Ratio (z) = 0.03229 0.81277
#
# Static dielectric constant tensor:
#      x y z
#    x 3.693610 0.000000 0.000000 
#    y 0.000000 3.500600 0.000000 
#    z 0.000000 0.000000 3.297590 
# 
# 
# High freq. dielectric constant tensor:
#      x y z
#    x 1.763150 0.000000 0.000000 
#    y 0.000000 1.726980 0.000000 
#    z 0.000000 0.000000 1.704450 
# 
# From -- ./inp_files/7141.got.cif
#   From: 2010.03.12/outbox.cif.g09.slc.cpg/sg61_4_cif.got.tgz:7141.got - 2010.04.10 19:05:03.
