data_PCOD8248192
_publ_section_title
;
Structure prediction by ZEFSAII (Michael W. Deem and Ramdas Pophale) SiO2 
 PCOD8248192
Probable space group: P B C N
;
_chemical_formula_sum "Si O2"
_cell_formula_units_Z 32
_cell_length_a 15.344618
_cell_length_b 7.623338
_cell_length_c 10.396480
_cell_angle_alpha 90.000000
_cell_angle_beta 90.000000
_cell_angle_gamma 90.000000
_cell_volume 1216.151219
_symmetry_space_group_name_H-M "P B C N"
_symmetry_group_IT_number 60
_symmetry_cell_setting 'orthorhombic'
loop_
_space_group_symop_operation_xyz
x,y,z
1/2-x,1/2-y,1/2+z
1/2+x,1/2-y,-z
-x,y,1/2-z
-x,-y,-z
1/2+x,1/2+y,1/2-z
1/2-x,1/2+y,z
x,-y,1/2+z
loop_
_atom_site_type_symbol
_atom_site_label
_atom_site_fract_x
_atom_site_fract_y
_atom_site_fract_z
Si Si1 0.415490 0.807693 0.926464
Si Si2 0.343529 0.494317 0.280198
Si Si3 0.419101 0.797874 0.415384
Si Si4 0.736004 0.622172 0.976548
O O1 0.399776 0.682248 0.803377
O O2 0.433391 0.002370 0.870798
O O3 0.496873 0.731749 0.005573
O O4 0.334369 0.806859 0.027030
O O5 0.404694 0.668982 0.291797
O O6 0.272891 0.498992 0.396475
O O7 0.288673 0.490563 0.149615
O O8 0.334925 0.780974 0.510704
#
# Coordination Sequence:
#
# PCOD8248192 Si02
#       4
#     8   8   8   8
#     4  11  21  47  74 107 146 194 252 303 368 446
#     4  10  24  47  72 108 152 192 244 308 376 444
#     4   9  24  45  74 109 142 200 247 306 371 444
#     4  10  24  46  75 107 150 195 244 311 370 453
#
# _framework density 26.312517
#
# number of rings (size 3 to 8) (size 9 to 14) (size 15 to 20)
#    1.500    0.500    0.000    2.250    0.000    5.000 
#    4.500    2.500    0.000    0.000    0.000    0.000 
#    0.000    0.000    0.000    0.000    0.000    0.000 
#
# Total GULP energy -396593.080160 kJ/mol
# GULP energy per Si atom -12393.533755 kJ/mol
# Density = 2.625263 g / cm^3
# Si number density = 26.312517 Si / 1000 Ang^3
#
#
#
# Elastic Constant Matrix: (Units=GPa)
#
#
# Indices 1 2 3 4 5 6 
#
# 1 120.4841 -4.9823 -0.4600 0.0000 0.0000 0.0000
# 2 -4.9823 111.9669 10.3502 0.0000 0.0000 0.0000
# 3 -0.4600 10.3502 102.8612 0.0000 0.0000 0.0000
# 4 0.0000 0.0000 0.0000 10.1322 0.0000 0.0000
# 5 0.0000 0.0000 0.0000 0.0000 23.7244 0.0000
# 6 0.0000 0.0000 0.0000 0.0000 0.0000 24.0660
#
#
#
# Elastic Compliance Matrix: (Units=1/GPa)
#
#
# Indices 1 2 3 4 5 6 
#
# 1 0.008315 0.000370 0.000000 0.000000 0.000000 0.000000
# 2 0.000370 0.009032 -0.000907 0.000000 0.000000 0.000000
# 3 0.000000 -0.000907 0.009813 0.000000 0.000000 0.000000
# 4 0.000000 0.000000 0.000000 0.098695 0.000000 0.000000
# 5 0.000000 0.000000 0.000000 0.000000 0.042151 0.000000
# 6 0.000000 0.000000 0.000000 0.000000 0.000000 0.041552
#
#
# Mechanical properties :
#
#
# Convention : Reuss Voigt Hill
#
# Bulk Modulus (GPa) = 38.33549 38.34754 38.34152
# Shear Modulus (GPa) = 22.79701 33.61151 28.20426
#
# Velocity S-wave (km/s) = 2.94665 3.57795 3.27753
# Velocity P-wave (km/s) = 5.11644 5.62801 5.37831
#
# Compressibility (1/GPa) = 0.02608549
#
# Stress axis : x y z
#
# Youngs Moduli (GPa) = 120.26240 110.72324 101.90448
#
# Poissons Ratio (x) = -0.04097 0.00000
# Poissons Ratio (y) = -0.04450 0.09244
# Poissons Ratio (z) = 0.00001 0.10044
#
# Static dielectric constant tensor:
#      x y z
#    x 4.786750 0.000000 0.000000 
#    y 0.000000 4.648270 0.000000 
#    z 0.000000 0.000000 4.069220 
# 
# 
# High freq. dielectric constant tensor:
#      x y z
#    x 2.062770 0.000000 0.000000 
#    y 0.000000 2.064970 0.000000 
#    z 0.000000 0.000000 2.014610 
# 
# From -- ./inp_files/11508.got.cif
#   From: 2010.03.12/outbox.cif.g09.slc.cpg/sg60_6_cif.got.tgz:11508.got - 2010.04.10 18:46:24.
