data_PCOD8248431
_publ_section_title
;
Structure prediction by ZEFSAII (Michael W. Deem and Ramdas Pophale) SiO2 
 PCOD8248431
Probable space group: P B C N
;
_chemical_formula_sum "Si O2"
_cell_formula_units_Z 48
_cell_length_a 8.415727
_cell_length_b 14.414362
_cell_length_c 18.185507
_cell_angle_alpha 90.000000
_cell_angle_beta 90.000000
_cell_angle_gamma 90.000000
_cell_volume 2206.035398
_symmetry_space_group_name_H-M "P B C N"
_symmetry_group_IT_number 60
_symmetry_cell_setting 'orthorhombic'
loop_
_space_group_symop_operation_xyz
x,y,z
1/2-x,1/2-y,1/2+z
1/2+x,1/2-y,-z
-x,y,1/2-z
-x,-y,-z
1/2+x,1/2+y,1/2-z
1/2-x,1/2+y,z
x,-y,1/2+z
loop_
_atom_site_type_symbol
_atom_site_label
_atom_site_fract_x
_atom_site_fract_y
_atom_site_fract_z
Si Si1 0.347053 0.503610 0.335896
Si Si2 0.832013 0.380001 0.268003
Si Si3 0.864698 0.439012 0.535212
Si Si4 0.361058 0.408453 0.097072
Si Si5 0.988191 0.292135 0.869166
Si Si6 0.250760 0.679630 0.250851
O O1 0.308479 0.414347 0.285898
O O2 0.201542 0.512639 0.391882
O O3 0.512713 0.488443 0.379183
O O4 0.354634 0.593405 0.281418
O O5 0.789915 0.412197 0.349680
O O6 0.858529 0.269444 0.264160
O O7 0.000000 0.428947 0.250000
O O8 0.710615 0.423680 0.483759
O O9 0.000000 0.500000 0.500000
O O10 0.955012 0.344829 0.557587
O O11 0.444735 0.309339 0.102083
O O12 0.841686 0.343294 0.826052
O O13 0.130859 0.285017 0.812582
#
# Coordination Sequence:
#
# PCOD8248431 Si02
#       6
#     8   8   8   8   8   8
#     4  11  23  41  71  94 134 174 221 276 334 393
#     4  11  23  40  65  98 130 169 224 274 334 391
#     4  11  25  42  62 101 137 176 222 269 337 401
#     4  11  23  44  67  97 134 181 218 278 336 407
#     4   9  20  42  65  91 132 176 218 274 332 394
#     4   9  20  40  66  97 125 167 229 277 326 391
#
# _framework density 21.758489999999998
#
# number of rings (size 3 to 8) (size 9 to 14) (size 15 to 20)
#    0.000    1.667    1.667    2.000    7.000    2.667 
#    9.000    0.000    0.000    0.000    0.000    0.000 
#    0.000    0.000    0.000    0.000    0.000    0.000 
#
# Total GULP energy -594986.042891 kJ/mol
# GULP energy per Si atom -12395.542560 kJ/mol
# Density = 2.170897 g / cm^3
# Si number density = 21.758490 Si / 1000 Ang^3
#
#
#
# Elastic Constant Matrix: (Units=GPa)
#
#
# Indices 1 2 3 4 5 6 
#
# 1 76.1781 26.8915 20.7071 0.0000 0.0000 0.0000
# 2 26.8915 90.7165 26.3779 0.0000 0.0000 0.0000
# 3 20.7071 26.3779 79.7710 0.0000 0.0000 0.0000
# 4 0.0000 0.0000 0.0000 25.9198 0.0000 0.0000
# 5 0.0000 0.0000 0.0000 0.0000 45.5725 0.0000
# 6 0.0000 0.0000 0.0000 0.0000 0.0000 23.9182
#
#
#
# Elastic Compliance Matrix: (Units=1/GPa)
#
#
# Indices 1 2 3 4 5 6 
#
# 1 0.015174 -0.003709 -0.002712 0.000000 0.000000 0.000000
# 2 -0.003709 0.013103 -0.003370 0.000000 0.000000 0.000000
# 3 -0.002712 -0.003370 0.014354 0.000000 0.000000 0.000000
# 4 0.000000 0.000000 0.000000 0.038580 0.000000 0.000000
# 5 0.000000 0.000000 0.000000 0.000000 0.021943 0.000000
# 6 0.000000 0.000000 0.000000 0.000000 0.000000 0.041809
#
#
# Mechanical properties :
#
#
# Convention : Reuss Voigt Hill
#
# Bulk Modulus (GPa) = 43.38784 43.84650 43.61717
# Shear Modulus (GPa) = 29.03110 30.59472 29.81291
#
# Velocity S-wave (km/s) = 3.65669 3.75387 3.70560
# Velocity P-wave (km/s) = 6.14918 6.24371 6.19663
#
# Compressibility (1/GPa) = 0.02304793
#
# Stress axis : x y z
#
# Youngs Moduli (GPa) = 65.90284 76.31960 69.66586
#
# Poissons Ratio (x) = 0.28310 0.18895
# Poissons Ratio (y) = 0.24446 0.23476
# Poissons Ratio (z) = 0.17875 0.25718
#
# Static dielectric constant tensor:
#      x y z
#    x 3.826860 0.000000 0.000000 
#    y 0.000000 3.918560 0.000000 
#    z 0.000000 0.000000 4.054360 
# 
# 
# High freq. dielectric constant tensor:
#      x y z
#    x 1.861100 0.000000 0.000000 
#    y 0.000000 1.851490 0.000000 
#    z 0.000000 0.000000 1.852090 
# 
# From -- ./inp_files/19301.got.cif
#   From: 2010.03.12/outbox.cif.g09.slc.cpg/sg60_10_cif.got.tgz:19301.got - 2010.04.10 18:46:24.
