data_PCOD8248013
_publ_section_title
;
Structure prediction by ZEFSAII (Michael W. Deem and Ramdas Pophale) SiO2 
 PCOD8248013
Probable space group: P B C N
;
_chemical_formula_sum "Si O2"
_cell_formula_units_Z 24
_cell_length_a 7.318441
_cell_length_b 27.267309
_cell_length_c 5.169938
_cell_angle_alpha 90.000000
_cell_angle_beta 90.000000
_cell_angle_gamma 90.000000
_cell_volume 1031.682801
_symmetry_space_group_name_H-M "P B C N"
_symmetry_group_IT_number 60
_symmetry_cell_setting 'orthorhombic'
loop_
_space_group_symop_operation_xyz
x,y,z
1/2-x,1/2-y,1/2+z
1/2+x,1/2-y,-z
-x,y,1/2-z
-x,-y,-z
1/2+x,1/2+y,1/2-z
1/2-x,1/2+y,z
x,-y,1/2+z
loop_
_atom_site_type_symbol
_atom_site_label
_atom_site_fract_x
_atom_site_fract_y
_atom_site_fract_z
Si Si1 0.798016 0.778057 0.658698
Si Si2 0.120173 0.620605 0.493017
Si Si3 0.204934 0.978356 0.008328
O O1 0.810085 0.741405 0.412349
O O2 0.704691 0.826641 0.554916
O O3 0.000000 0.790333 0.750000
O O4 0.283612 0.580784 0.523070
O O5 0.000000 0.623174 0.750000
O O6 0.000000 0.604152 0.250000
O O7 0.308236 0.998714 0.755298
O O8 0.000000 0.000000 0.000000
#
# Coordination Sequence:
#
# PCOD8248013 Si02
#       3
#     8   8   8
#     4  12  26  47  75 104 145 188 239 299 357 429
#     4  12  26  45  73 106 144 185 238 292 361 419
#     4  10  23  43  69  97 144 180 240 280 349 419
#
# _framework density 23.262961000000001
#
# number of rings (size 3 to 8) (size 9 to 14) (size 15 to 20)
#    0.000    0.667    0.000    8.000    4.667    4.000 
#    6.000    0.000    0.000    0.000    0.000    0.000 
#    0.000    0.000    0.000    0.000    0.000    0.000 
#
# Total GULP energy -297503.798626 kJ/mol
# GULP energy per Si atom -12395.991609 kJ/mol
# Density = 2.321001 g / cm^3
# Si number density = 23.262961 Si / 1000 Ang^3
#
#
#
# Elastic Constant Matrix: (Units=GPa)
#
#
# Indices 1 2 3 4 5 6 
#
# 1 108.5048 69.4052 49.0125 0.0000 0.0000 0.0000
# 2 69.4052 178.8645 74.9128 0.0000 0.0000 0.0000
# 3 49.0125 74.9128 244.3860 0.0000 0.0000 0.0000
# 4 0.0000 0.0000 0.0000 52.6147 0.0000 0.0000
# 5 0.0000 0.0000 0.0000 0.0000 22.1486 0.0000
# 6 0.0000 0.0000 0.0000 0.0000 0.0000 51.6475
#
#
#
# Elastic Compliance Matrix: (Units=1/GPa)
#
#
# Indices 1 2 3 4 5 6 
#
# 1 0.012546 -0.004376 -0.001175 0.000000 0.000000 0.000000
# 2 -0.004376 0.007941 -0.001556 0.000000 0.000000 0.000000
# 3 -0.001175 -0.001556 0.004805 0.000000 0.000000 0.000000
# 4 0.000000 0.000000 0.000000 0.019006 0.000000 0.000000
# 5 0.000000 0.000000 0.000000 0.000000 0.045150 0.000000
# 6 0.000000 0.000000 0.000000 0.000000 0.000000 0.019362
#
#
# Mechanical properties :
#
#
# Convention : Reuss Voigt Hill
#
# Bulk Modulus (GPa) = 90.28003 102.04626 96.16314
# Shear Modulus (GPa) = 39.45821 47.84382 43.65101
#
# Velocity S-wave (km/s) = 4.12294 4.53995 4.33646
# Velocity P-wave (km/s) = 7.84586 8.45241 8.15478
#
# Compressibility (1/GPa) = 0.01107665
#
# Stress axis : x y z
#
# Youngs Moduli (GPa) = 79.70599 125.93088 208.13464
#
# Poissons Ratio (x) = 0.55111 0.24449
# Poissons Ratio (y) = 0.34882 0.32395
# Poissons Ratio (z) = 0.09363 0.19601
#
# Static dielectric constant tensor:
#      x y z
#    x 3.971990 0.000000 0.000000 
#    y 0.000000 4.227260 0.000000 
#    z 0.000000 0.000000 9.059650 
# 
# 
# High freq. dielectric constant tensor:
#      x y z
#    x 1.908430 0.000000 0.000000 
#    y 0.000000 1.927570 0.000000 
#    z 0.000000 0.000000 1.962640 
# 
# From -- ./inp_files/279.got.cif
#   From: 2010.03.12/outbox.cif.g09.slc.cpg/sg60_1_cif.got.tgz:279.got - 2010.04.10 18:46:24.
