data_PCOD8248391
_publ_section_title
;
Structure prediction by ZEFSAII (Michael W. Deem and Ramdas Pophale) SiO2 
 PCOD8248391
Probable space group: P B C N
;
_chemical_formula_sum "Si O2"
_cell_formula_units_Z 64
_cell_length_a 9.466694
_cell_length_b 14.212623
_cell_length_c 21.911110
_cell_angle_alpha 90.000000
_cell_angle_beta 90.000000
_cell_angle_gamma 90.000000
_cell_volume 2948.064320
_symmetry_space_group_name_H-M "P B C N"
_symmetry_group_IT_number 60
_symmetry_cell_setting 'orthorhombic'
loop_
_space_group_symop_operation_xyz
x,y,z
1/2-x,1/2-y,1/2+z
1/2+x,1/2-y,-z
-x,y,1/2-z
-x,-y,-z
1/2+x,1/2+y,1/2-z
1/2-x,1/2+y,z
x,-y,1/2+z
loop_
_atom_site_type_symbol
_atom_site_label
_atom_site_fract_x
_atom_site_fract_y
_atom_site_fract_z
Si Si1 0.290048 0.781003 0.475401
Si Si2 0.332618 0.321079 0.092187
Si Si3 0.144915 0.730951 0.219636
Si Si4 0.473386 0.864378 0.110754
Si Si5 0.740616 0.395596 0.608186
Si Si6 0.579938 0.438545 0.048774
Si Si7 0.408003 0.282286 0.801620
Si Si8 0.991911 0.547359 0.317425
O O1 0.362497 0.759198 0.541013
O O2 0.402068 0.839534 0.435810
O O3 0.235634 0.683248 0.444330
O O4 0.156136 0.849997 0.483285
O O5 0.318453 0.292422 0.161754
O O6 0.173647 0.351875 0.075272
O O7 0.455063 0.399709 0.092037
O O8 0.259363 0.748497 0.272474
O O9 0.000000 0.764307 0.250000
O O10 0.131383 0.624525 0.193232
O O11 0.502947 0.805838 0.172429
O O12 0.461775 0.973072 0.130005
O O13 0.697841 0.498293 0.583076
O O14 0.605739 0.358675 0.645353
O O15 0.868010 0.399327 0.657357
O O16 0.500000 0.500000 0.000000
O O17 0.500000 0.332562 0.750000
O O18 0.000000 0.499358 0.250000
#
# Coordination Sequence:
#
# PCOD8248391 Si02
#       8
#     8   8   8   8   8   8   8   8
#     4  11  25  48  75  99 141 193 234 298 373 424
#     4  12  26  45  70 106 140 186 248 299 353 436
#     4  11  24  44  68 102 143 186 236 295 360 431
#     4  11  25  43  70  99 141 186 236 292 359 427
#     4  11  23  46  72 101 144 189 233 299 372 421
#     4  12  26  47  73 109 147 184 247 305 359 443
#     4  11  22  43  68  98 138 188 233 288 358 426
#     4  11  22  42  68 101 136 185 238 289 355 440
#
# _framework density 21.709161000000002
#
# number of rings (size 3 to 8) (size 9 to 14) (size 15 to 20)
#    0.000    0.750    6.250    1.875    3.500    2.000 
#    0.000    1.875    0.000    0.000    0.000    0.000 
#    0.000    0.000    0.000    0.000    0.000    0.000 
#
# Total GULP energy -792968.998732 kJ/mol
# GULP energy per Si atom -12390.140605 kJ/mol
# Density = 2.165975 g / cm^3
# Si number density = 21.709161 Si / 1000 Ang^3
#
#
#
# Elastic Constant Matrix: (Units=GPa)
#
#
# Indices 1 2 3 4 5 6 
#
# 1 80.3345 27.7901 10.8359 0.0000 0.0000 0.0000
# 2 27.7901 84.4332 13.1642 0.0000 0.0000 0.0000
# 3 10.8359 13.1642 79.3865 0.0000 0.0000 0.0000
# 4 0.0000 0.0000 0.0000 30.6560 0.0000 0.0000
# 5 0.0000 0.0000 0.0000 0.0000 43.6629 0.0000
# 6 0.0000 0.0000 0.0000 0.0000 0.0000 28.8804
#
#
#
# Elastic Compliance Matrix: (Units=1/GPa)
#
#
# Indices 1 2 3 4 5 6 
#
# 1 0.014156 -0.004474 -0.001190 0.000000 0.000000 0.000000
# 2 -0.004474 0.013572 -0.001640 0.000000 0.000000 0.000000
# 3 -0.001190 -0.001640 0.013031 0.000000 0.000000 0.000000
# 4 0.000000 0.000000 0.000000 0.032620 0.000000 0.000000
# 5 0.000000 0.000000 0.000000 0.000000 0.022903 0.000000
# 6 0.000000 0.000000 0.000000 0.000000 0.000000 0.034626
#
#
# Mechanical properties :
#
#
# Convention : Reuss Voigt Hill
#
# Bulk Modulus (GPa) = 38.23951 38.63717 38.43834
# Shear Modulus (GPa) = 32.41862 33.46412 32.94137
#
# Velocity S-wave (km/s) = 3.86854 3.93042 3.89960
# Velocity P-wave (km/s) = 6.13244 6.19951 6.16606
#
# Compressibility (1/GPa) = 0.02615096
#
# Stress axis : x y z
#
# Youngs Moduli (GPa) = 70.64089 73.68210 76.73994
#
# Poissons Ratio (x) = 0.32963 0.09135
# Poissons Ratio (y) = 0.31603 0.12584
# Poissons Ratio (z) = 0.08409 0.12083
#
# Static dielectric constant tensor:
#      x y z
#    x 4.292740 0.000000 0.000000 
#    y 0.000000 4.435140 0.000000 
#    z 0.000000 0.000000 4.044530 
# 
# 
# High freq. dielectric constant tensor:
#      x y z
#    x 1.859310 0.000000 0.000000 
#    y 0.000000 1.839660 0.000000 
#    z 0.000000 0.000000 1.865390 
# 
# From -- ./inp_files/24109.got.cif
#   From: 2010.03.12/outbox.cif.g09.slc.cpg/sg60_13_cif.got.tgz:24109.got - 2010.04.10 18:46:24.
