data_PCOD8248731
_publ_section_title
;
Structure prediction by ZEFSAII (Michael W. Deem and Ramdas Pophale) SiO2 
 PCOD8248731
Probable space group: P B C A
;
_chemical_formula_sum "Si O2"
_cell_formula_units_Z 48
_cell_length_a 8.156991
_cell_length_b 16.709152
_cell_length_c 18.473596
_cell_angle_alpha 90.000000
_cell_angle_beta 90.000000
_cell_angle_gamma 90.000000
_cell_volume 2517.884676
_symmetry_space_group_name_H-M "P B C A"
_symmetry_group_IT_number 61
_symmetry_cell_setting 'orthorhombic'
loop_
_space_group_symop_operation_xyz
x,y,z
1/2-x,-y,1/2+z
1/2+x,1/2-y,-z
-x,1/2+y,1/2-z
-x,-y,-z
1/2+x,y,1/2-z
1/2-x,1/2+y,z
x,1/2-y,1/2+z
loop_
_atom_site_type_symbol
_atom_site_label
_atom_site_fract_x
_atom_site_fract_y
_atom_site_fract_z
Si Si1 0.062430 0.769633 0.820001
Si Si2 0.879996 0.823884 0.432392
Si Si3 0.355874 0.181054 0.047247
Si Si4 0.939414 0.762774 0.163291
Si Si5 0.947259 0.907925 0.919702
Si Si6 0.569413 0.590487 0.920845
O O1 0.245686 0.740491 0.832219
O O2 0.024971 0.769416 0.735595
O O3 0.934443 0.707361 0.854098
O O4 0.036732 0.856468 0.857426
O O5 0.766180 0.755416 0.469899
O O6 0.767792 0.902057 0.420617
O O7 0.045849 0.844498 0.475474
O O8 0.497045 0.201443 0.103712
O O9 0.248395 0.107788 0.078276
O O10 0.991525 0.852847 0.140831
O O11 0.982493 0.000329 0.902136
O O12 0.011049 0.883335 0.999255
#
# Coordination Sequence:
#
# PCOD8248731 Si02
#       6
#     8   8   8   8   8   8
#     4  11  21  37  58  81 109 147 191 228 271 330
#     4  10  18  32  55  81 110 147 190 227 265 323
#     4  10  18  32  55  81 110 147 190 227 265 323
#     4  11  21  37  58  81 109 147 191 228 271 330
#     4  10  21  37  57  84 116 145 180 230 280 324
#     4  10  21  37  57  84 116 145 180 230 280 324
#
# _framework density 19.063621000000001
#
# number of rings (size 3 to 8) (size 9 to 14) (size 15 to 20)
#    0.000    1.667    0.000   10.000    0.000    0.667 
#    0.000    8.333    0.000    0.000    0.000    0.000 
#    0.000    0.000    0.000    0.000    0.000    0.000 
#
# Total GULP energy -595084.508690 kJ/mol
# GULP energy per Si atom -12397.593931 kJ/mol
# Density = 1.902023 g / cm^3
# Si number density = 19.063621 Si / 1000 Ang^3
#
#
#
# Elastic Constant Matrix: (Units=GPa)
#
#
# Indices 1 2 3 4 5 6 
#
# 1 106.9846 27.0357 12.6582 0.0000 0.0000 0.0000
# 2 27.0357 85.0157 45.1848 0.0000 0.0000 0.0000
# 3 12.6582 45.1848 81.2335 0.0000 0.0000 0.0000
# 4 0.0000 0.0000 0.0000 24.8170 0.0000 0.0000
# 5 0.0000 0.0000 0.0000 0.0000 35.9050 0.0000
# 6 0.0000 0.0000 0.0000 0.0000 0.0000 19.1047
#
#
#
# Elastic Compliance Matrix: (Units=1/GPa)
#
#
# Indices 1 2 3 4 5 6 
#
# 1 0.010169 -0.003396 0.000304 0.000000 0.000000 0.000000
# 2 -0.003396 0.017833 -0.009390 0.000000 0.000000 0.000000
# 3 0.000304 -0.009390 0.017486 0.000000 0.000000 0.000000
# 4 0.000000 0.000000 0.000000 0.040295 0.000000 0.000000
# 5 0.000000 0.000000 0.000000 0.000000 0.027851 0.000000
# 6 0.000000 0.000000 0.000000 0.000000 0.000000 0.052343
#
#
# Mechanical properties :
#
#
# Convention : Reuss Voigt Hill
#
# Bulk Modulus (GPa) = 48.72123 49.22124 48.97124
# Shear Modulus (GPa) = 25.28023 28.52233 26.90128
#
# Velocity S-wave (km/s) = 3.64551 3.87223 3.76058
# Velocity P-wave (km/s) = 6.58273 6.77257 6.67832
#
# Compressibility (1/GPa) = 0.02052493
#
# Stress axis : x y z
#
# Youngs Moduli (GPa) = 98.33587 56.07527 57.18858
#
# Poissons Ratio (x) = 0.19040 -0.01739
# Poissons Ratio (y) = 0.33390 0.53702
# Poissons Ratio (z) = -0.02990 0.52656
#
# Static dielectric constant tensor:
#      x y z
#    x 3.732460 0.000000 0.000000 
#    y 0.000000 3.277700 0.000000 
#    z 0.000000 0.000000 3.546900 
# 
# 
# High freq. dielectric constant tensor:
#      x y z
#    x 1.760990 0.000000 0.000000 
#    y 0.000000 1.713870 0.000000 
#    z 0.000000 0.000000 1.736330 
# 
# From -- ./inp_files/8937.got.cif
#   From: 2010.03.12/outbox.cif.g09.slc.cpg/sg61_5_cif.got.tgz:8937.got - 2010.04.10 19:05:03.
