data_PCOD8248206
_publ_section_title
;
Structure prediction by ZEFSAII (Michael W. Deem and Ramdas Pophale) SiO2 
 PCOD8248206
Probable space group: P B C N
;
_chemical_formula_sum "Si O2"
_cell_formula_units_Z 56
_cell_length_a 21.022169
_cell_length_b 8.919110
_cell_length_c 13.826185
_cell_angle_alpha 90.000000
_cell_angle_beta 90.000000
_cell_angle_gamma 90.000000
_cell_volume 2592.396383
_symmetry_space_group_name_H-M "P B C N"
_symmetry_group_IT_number 60
_symmetry_cell_setting 'orthorhombic'
loop_
_space_group_symop_operation_xyz
x,y,z
1/2-x,1/2-y,1/2+z
1/2+x,1/2-y,-z
-x,y,1/2-z
-x,-y,-z
1/2+x,1/2+y,1/2-z
1/2-x,1/2+y,z
x,-y,1/2+z
loop_
_atom_site_type_symbol
_atom_site_label
_atom_site_fract_x
_atom_site_fract_y
_atom_site_fract_z
Si Si1 0.238786 0.226303 0.883939
Si Si2 0.227363 0.479923 0.013549
Si Si3 0.393392 0.156365 0.082373
Si Si4 0.023910 0.146550 0.442987
Si Si5 0.185124 0.116836 0.691040
Si Si6 0.943700 0.360593 0.322146
Si Si7 0.364223 0.336374 0.805089
O O1 0.216994 0.219880 0.773268
O O2 0.312924 0.277199 0.882798
O O3 0.199037 0.344393 0.949027
O O4 0.226928 0.069297 0.938774
O O5 0.172484 0.594825 0.040474
O O6 0.264808 0.415485 0.105514
O O7 0.375945 0.290187 0.155791
O O8 0.429465 0.018218 0.129344
O O9 0.440855 0.227657 0.005652
O O10 0.073786 0.096711 0.359816
O O11 0.962714 0.229655 0.397827
O O12 0.000000 0.000000 0.500000
O O13 0.163297 0.961356 0.734746
O O14 0.882436 0.304330 0.262915
O O15 0.000000 0.395750 0.250000
#
# Coordination Sequence:
#
# PCOD8248206 Si02
#       7
#     8   8   8   8   8   8   8
#     4  12  25  42  69 100 145 178 223 276 341 422
#     4  12  25  44  66 104 140 178 223 276 337 420
#     4  12  25  43  68  97 136 175 229 279 343 401
#     4  11  24  45  68  96 131 174 232 290 338 407
#     4  12  26  42  69 103 139 182 222 276 340 427
#     4  10  25  42  67  92 129 176 228 288 336 393
#     4  11  23  44  64  96 135 176 224 277 349 397
#
# _framework density 21.601635000000002
#
# number of rings (size 3 to 8) (size 9 to 14) (size 15 to 20)
#    0.000    0.571    4.286    3.000    4.000    2.286 
#    0.000    0.000    0.000    0.000    0.000    0.000 
#    0.000    0.000    0.000    0.000    0.000    0.000 
#
# Total GULP energy -694382.981546 kJ/mol
# GULP energy per Si atom -12399.696099 kJ/mol
# Density = 2.155247 g / cm^3
# Si number density = 21.601635 Si / 1000 Ang^3
#
#
#
# Elastic Constant Matrix: (Units=GPa)
#
#
# Indices 1 2 3 4 5 6 
#
# 1 54.0079 18.4266 21.3549 0.0000 0.0000 0.0000
# 2 18.4266 104.6055 47.8238 0.0000 0.0000 0.0000
# 3 21.3549 47.8238 119.4825 0.0000 0.0000 0.0000
# 4 0.0000 0.0000 0.0000 55.8817 0.0000 0.0000
# 5 0.0000 0.0000 0.0000 0.0000 18.0595 0.0000
# 6 0.0000 0.0000 0.0000 0.0000 0.0000 33.3291
#
#
#
# Elastic Compliance Matrix: (Units=1/GPa)
#
#
# Indices 1 2 3 4 5 6 
#
# 1 0.020388 -0.002357 -0.002701 0.000000 0.000000 0.000000
# 2 -0.002357 0.011973 -0.004371 0.000000 0.000000 0.000000
# 3 -0.002701 -0.004371 0.010602 0.000000 0.000000 0.000000
# 4 0.000000 0.000000 0.000000 0.017895 0.000000 0.000000
# 5 0.000000 0.000000 0.000000 0.000000 0.055372 0.000000
# 6 0.000000 0.000000 0.000000 0.000000 0.000000 0.030004
#
#
# Mechanical properties :
#
#
# Convention : Reuss Voigt Hill
#
# Bulk Modulus (GPa) = 41.48387 50.36739 45.92563
# Shear Modulus (GPa) = 28.88067 34.15343 31.51705
#
# Velocity S-wave (km/s) = 3.66042 3.98057 3.82385
# Velocity P-wave (km/s) = 6.09185 6.67035 6.38766
#
# Compressibility (1/GPa) = 0.02410576
#
# Stress axis : x y z
#
# Youngs Moduli (GPa) = 49.04915 83.51913 94.32457
#
# Poissons Ratio (x) = 0.19683 0.25473
# Poissons Ratio (y) = 0.11560 0.41231
# Poissons Ratio (z) = 0.13246 0.36508
#
# Static dielectric constant tensor:
#      x y z
#    x 3.948860 0.000000 0.000000 
#    y 0.000000 3.971570 0.000000 
#    z 0.000000 0.000000 4.161740 
# 
# 
# High freq. dielectric constant tensor:
#      x y z
#    x 1.834000 0.000000 0.000000 
#    y 0.000000 1.864710 0.000000 
#    z 0.000000 0.000000 1.867110 
# 
# From -- ./inp_files/17730.got.cif
#   From: 2010.03.12/outbox.cif.g09.slc.cpg/sg60_9_cif.got.tgz:17730.got - 2010.04.10 18:46:24.
