data_PCOD8248116
_publ_section_title
;
Structure prediction by ZEFSAII (Michael W. Deem and Ramdas Pophale) SiO2 
 PCOD8248116
Probable space group: P B C N
;
_chemical_formula_sum "Si O2"
_cell_formula_units_Z 60
_cell_length_a 26.665282
_cell_length_b 13.814583
_cell_length_c 8.344289
_cell_angle_alpha 90.000000
_cell_angle_beta 90.000000
_cell_angle_gamma 90.000000
_cell_volume 3073.783665
_symmetry_space_group_name_H-M "P B C N"
_symmetry_group_IT_number 60
_symmetry_cell_setting 'orthorhombic'
loop_
_space_group_symop_operation_xyz
x,y,z
1/2-x,1/2-y,1/2+z
1/2+x,1/2-y,-z
-x,y,1/2-z
-x,-y,-z
1/2+x,1/2+y,1/2-z
1/2-x,1/2+y,z
x,-y,1/2+z
loop_
_atom_site_type_symbol
_atom_site_label
_atom_site_fract_x
_atom_site_fract_y
_atom_site_fract_z
Si Si1 0.709049 0.298894 0.300429
Si Si2 0.609603 0.746091 0.291007
Si Si3 0.980738 0.100472 0.930668
Si Si4 0.000000 0.222203 0.250000
Si Si5 0.168719 0.107041 0.010178
Si Si6 0.194616 0.391713 0.261860
Si Si7 0.628323 0.603393 0.010174
Si Si8 0.725316 0.908219 0.873993
O O1 0.766617 0.327025 0.342893
O O2 0.673123 0.332986 0.441114
O O3 0.706264 0.184041 0.272907
O O4 0.697334 0.358005 0.144209
O O5 0.551608 0.781569 0.280290
O O6 0.628795 0.692793 0.452182
O O7 0.640030 0.843879 0.257168
O O8 0.616680 0.653099 0.177583
O O9 0.921103 0.104299 0.900418
O O10 0.000000 0.125406 0.750000
O O11 0.995998 0.169300 0.077996
O O12 0.000000 0.000000 0.000000
O O13 0.213497 0.084834 0.139797
O O14 0.141487 0.008272 0.963394
O O15 0.196213 0.500734 0.197802
O O16 0.207668 0.391540 0.446824
#
# Coordination Sequence:
#
# PCOD8248116 Si02
#       8
#     8   8   8   4   8   8   8   8
#     4  11  23  39  57  91 126 159 202 250 299 379
#     4  11  23  41  62  88 120 163 208 256 311 360
#     4  11  23  38  59  88 127 165 210 254 307 376
#     4  10  24  42  60  88 120 162 216 264 310 368
#     4  11  23  34  62  88 126 164 198 244 305 369
#     4  11  24  40  63  87 124 163 201 255 309 367
#     4  11  23  39  60  90 125 164 204 248 305 368
#     4  11  24  39  59  91 123 160 207 246 302 370
#
# _framework density 19.519917
#
# number of rings (size 3 to 8) (size 9 to 14) (size 15 to 20)
#    0.000    1.067    4.667    1.600    9.333    0.000 
#    0.000    0.000    0.000    0.800    1.733    0.000 
#    0.000    0.000    0.000    0.000    0.000    0.000 
#
# Total GULP energy -743324.399042 kJ/mol
# GULP energy per Si atom -12388.739984 kJ/mol
# Density = 1.947549 g / cm^3
# Si number density = 19.519917 Si / 1000 Ang^3
#
#
#
# Elastic Constant Matrix: (Units=GPa)
#
#
# Indices 1 2 3 4 5 6 
#
# 1 142.1070 42.7262 20.7575 0.0000 0.0000 0.0000
# 2 42.7262 115.7620 11.6271 0.0000 0.0000 0.0000
# 3 20.7575 11.6271 62.0215 0.0000 0.0000 0.0000
# 4 0.0000 0.0000 0.0000 17.5990 0.0000 0.0000
# 5 0.0000 0.0000 0.0000 0.0000 21.4895 0.0000
# 6 0.0000 0.0000 0.0000 0.0000 0.0000 35.5268
#
#
#
# Elastic Compliance Matrix: (Units=1/GPa)
#
#
# Indices 1 2 3 4 5 6 
#
# 1 0.008205 -0.002805 -0.002220 0.000000 0.000000 0.000000
# 2 -0.002805 0.009763 -0.000891 0.000000 0.000000 0.000000
# 3 -0.002220 -0.000891 0.017034 0.000000 0.000000 0.000000
# 4 0.000000 0.000000 0.000000 0.056821 0.000000 0.000000
# 5 0.000000 0.000000 0.000000 0.000000 0.046534 0.000000
# 6 0.000000 0.000000 0.000000 0.000000 0.000000 0.028148
#
#
# Mechanical properties :
#
#
# Convention : Reuss Voigt Hill
#
# Bulk Modulus (GPa) = 43.16287 52.23466 47.69876
# Shear Modulus (GPa) = 26.87290 31.24174 29.05732
#
# Velocity S-wave (km/s) = 3.71440 4.00497 3.86242
# Velocity P-wave (km/s) = 6.36836 6.94292 6.66184
#
# Compressibility (1/GPa) = 0.02316806
#
# Stress axis : x y z
#
# Youngs Moduli (GPa) = 121.88190 102.42404 58.70756
#
# Poissons Ratio (x) = 0.28733 0.13033
# Poissons Ratio (y) = 0.34191 0.05233
# Poissons Ratio (z) = 0.27058 0.09131
#
# Static dielectric constant tensor:
#      x y z
#    x 1.218910 0.000000 0.000000 
#    y 0.000000 3.199520 0.000000 
#    z 0.000000 0.000000 3.992150 
# 
# 
# High freq. dielectric constant tensor:
#      x y z
#    x 1.765400 0.000000 0.000000 
#    y 0.000000 1.739800 0.000000 
#    z 0.000000 0.000000 1.764210 
# 
# From -- ./inp_files/8180.got.cif
#   From: 2010.03.12/outbox.cif.g09.slc.cpg/sg60_5_cif.got.tgz:8180.got - 2010.04.10 18:46:24.
