data_PCOD8248071
_publ_section_title
;
Structure prediction by ZEFSAII (Michael W. Deem and Ramdas Pophale) SiO2 
 PCOD8248071
Probable space group: P B C N
;
_chemical_formula_sum "Si O2"
_cell_formula_units_Z 40
_cell_length_a 18.199617
_cell_length_b 7.839554
_cell_length_c 12.083902
_cell_angle_alpha 90.000000
_cell_angle_beta 90.000000
_cell_angle_gamma 90.000000
_cell_volume 1724.093439
_symmetry_space_group_name_H-M "P B C N"
_symmetry_group_IT_number 60
_symmetry_cell_setting 'orthorhombic'
loop_
_space_group_symop_operation_xyz
x,y,z
1/2-x,1/2-y,1/2+z
1/2+x,1/2-y,-z
-x,y,1/2-z
-x,-y,-z
1/2+x,1/2+y,1/2-z
1/2-x,1/2+y,z
x,-y,1/2+z
loop_
_atom_site_type_symbol
_atom_site_label
_atom_site_fract_x
_atom_site_fract_y
_atom_site_fract_z
Si Si1 0.838786 0.190651 0.165231
Si Si2 0.679686 0.689071 0.618111
Si Si3 0.578142 0.869058 0.797673
Si Si4 0.617412 0.774974 0.392658
Si Si5 0.967317 0.312094 0.022616
O O1 0.763057 0.291979 0.155874
O O2 0.854119 0.152940 0.294797
O O3 0.902322 0.310445 0.112917
O O4 0.838050 0.010224 0.103803
O O5 0.625328 0.773119 0.706389
O O6 0.670978 0.774254 0.498036
O O7 0.500000 0.929392 0.750000
O O8 0.620605 0.034908 0.841874
O O9 0.563304 0.744511 0.904182
O O10 0.536768 0.706424 0.430673
O O11 0.000000 0.500000 0.000000
#
# Coordination Sequence:
#
# PCOD8248071 Si02
#       5
#     8   8   8   8   8
#     4  12  29  46  73 106 155 194 254 307 383 441
#     4  12  30  46  71 112 150 200 250 312 376 454
#     4  11  23  46  78 109 146 193 251 303 373 449
#     4  11  25  47  76 104 146 193 245 308 376 441
#     4  10  23  46  80 104 142 195 247 303 374 445
#
# _framework density 23.200596999999998
#
# number of rings (size 3 to 8) (size 9 to 14) (size 15 to 20)
#    0.000    0.800    2.000    4.200   14.000    2.400 
#    0.000    0.000    0.000    0.000    0.000    0.000 
#    0.000    0.000    0.000    0.000    0.000    0.000 
#
# Total GULP energy -496054.349701 kJ/mol
# GULP energy per Si atom -12401.358743 kJ/mol
# Density = 2.314779 g / cm^3
# Si number density = 23.200597 Si / 1000 Ang^3
#
#
#
# Elastic Constant Matrix: (Units=GPa)
#
#
# Indices 1 2 3 4 5 6 
#
# 1 141.2110 35.6509 64.2074 0.0000 0.0000 0.0000
# 2 35.6509 80.9518 26.0485 0.0000 0.0000 0.0000
# 3 64.2074 26.0485 191.0187 0.0000 0.0000 0.0000
# 4 0.0000 0.0000 0.0000 27.9434 0.0000 0.0000
# 5 0.0000 0.0000 0.0000 0.0000 37.2365 0.0000
# 6 0.0000 0.0000 0.0000 0.0000 0.0000 27.1976
#
#
#
# Elastic Compliance Matrix: (Units=1/GPa)
#
#
# Indices 1 2 3 4 5 6 
#
# 1 0.009068 -0.003151 -0.002618 0.000000 0.000000 0.000000
# 2 -0.003151 0.014015 -0.000852 0.000000 0.000000 0.000000
# 3 -0.002618 -0.000852 0.006231 0.000000 0.000000 0.000000
# 4 0.000000 0.000000 0.000000 0.035787 0.000000 0.000000
# 5 0.000000 0.000000 0.000000 0.000000 0.026855 0.000000
# 6 0.000000 0.000000 0.000000 0.000000 0.000000 0.036768
#
#
# Mechanical properties :
#
#
# Convention : Reuss Voigt Hill
#
# Bulk Modulus (GPa) = 62.22196 73.88834 68.05515
# Shear Modulus (GPa) = 33.93903 37.62716 35.78310
#
# Velocity S-wave (km/s) = 3.82887 4.03155 3.93152
# Velocity P-wave (km/s) = 6.81354 7.32038 7.07150
#
# Compressibility (1/GPa) = 0.01607150
#
# Stress axis : x y z
#
# Youngs Moduli (GPa) = 110.28322 71.35308 160.47888
#
# Poissons Ratio (x) = 0.22482 0.42017
# Poissons Ratio (y) = 0.34748 0.13674
# Poissons Ratio (z) = 0.28875 0.06080
#
# Static dielectric constant tensor:
#      x y z
#    x 4.388530 0.000000 0.000000 
#    y 0.000000 3.779380 0.000000 
#    z 0.000000 0.000000 4.925770 
# 
# 
# High freq. dielectric constant tensor:
#      x y z
#    x 1.922490 0.000000 0.000000 
#    y 0.000000 1.887760 0.000000 
#    z 0.000000 0.000000 1.948140 
# 
# From -- ./inp_files/12311.got.cif
#   From: 2010.03.12/outbox.cif.g09.slc.cpg/sg60_7_cif.got.tgz:12311.got - 2010.04.10 18:46:24.
