data_PCOD8248047
_publ_section_title
;
Structure prediction by ZEFSAII (Michael W. Deem and Ramdas Pophale) SiO2 
 PCOD8248047
Probable space group: P B C N
;
_chemical_formula_sum "Si O2"
_cell_formula_units_Z 48
_cell_length_a 16.654299
_cell_length_b 11.489640
_cell_length_c 12.790968
_cell_angle_alpha 90.000000
_cell_angle_beta 90.000000
_cell_angle_gamma 90.000000
_cell_volume 2447.576029
_symmetry_space_group_name_H-M "P B C N"
_symmetry_group_IT_number 60
_symmetry_cell_setting 'orthorhombic'
loop_
_space_group_symop_operation_xyz
x,y,z
1/2-x,1/2-y,1/2+z
1/2+x,1/2-y,-z
-x,y,1/2-z
-x,-y,-z
1/2+x,1/2+y,1/2-z
1/2-x,1/2+y,z
x,-y,1/2+z
loop_
_atom_site_type_symbol
_atom_site_label
_atom_site_fract_x
_atom_site_fract_y
_atom_site_fract_z
Si Si1 0.650649 0.901187 0.528345
Si Si2 0.916576 0.048374 0.540387
Si Si3 0.685644 0.692636 0.383778
Si Si4 0.314161 0.347741 0.859219
Si Si5 0.647296 0.833160 0.975304
Si Si6 0.515318 0.225034 0.130543
O O1 0.654230 0.816106 0.427589
O O2 0.724095 0.884382 0.609183
O O3 0.568781 0.881207 0.590557
O O4 0.642527 0.029755 0.485449
O O5 0.858338 0.087579 0.445584
O O6 0.934654 0.156454 0.615929
O O7 0.873256 0.950348 0.607376
O O8 0.000000 0.000000 0.500000
O O9 0.669816 0.675763 0.261977
O O10 0.781084 0.692394 0.395683
O O11 0.334986 0.225586 0.913425
O O12 0.567933 0.772511 0.931382
O O13 0.500000 0.202201 0.250000
#
# Coordination Sequence:
#
# PCOD8248047 Si02
#       6
#     8   8   8   8   8   8
#     4  10  23  45  62  96 133 164 220 269 314 397
#     4  11  23  43  62  96 133 162 218 271 311 386
#     4  10  24  41  66  97 131 174 216 266 329 383
#     4  11  23  41  69  94 128 176 218 264 328 379
#     4  11  22  44  64  93 134 170 216 270 316 390
#     4  11  24  40  66  95 127 170 210 265 331 380
#
# _framework density 19.611239000000001
#
# number of rings (size 3 to 8) (size 9 to 14) (size 15 to 20)
#    0.000    1.333    3.333    1.500    2.333    2.667 
#    0.000    0.000    0.000    0.000    0.000    0.000 
#    0.000    0.000    0.000    0.000    0.000    0.000 
#
# Total GULP energy -595311.224483 kJ/mol
# GULP energy per Si atom -12402.317177 kJ/mol
# Density = 1.956660 g / cm^3
# Si number density = 19.611239 Si / 1000 Ang^3
#
#
#
# Elastic Constant Matrix: (Units=GPa)
#
#
# Indices 1 2 3 4 5 6 
#
# 1 128.0807 22.8293 48.9607 0.0000 0.0000 0.0000
# 2 22.8293 111.8399 53.1133 0.0000 0.0000 0.0000
# 3 48.9607 53.1133 149.6494 0.0000 0.0000 0.0000
# 4 0.0000 0.0000 0.0000 16.3988 0.0000 0.0000
# 5 0.0000 0.0000 0.0000 0.0000 14.6076 0.0000
# 6 0.0000 0.0000 0.0000 0.0000 0.0000 47.6588
#
#
#
# Elastic Compliance Matrix: (Units=1/GPa)
#
#
# Indices 1 2 3 4 5 6 
#
# 1 0.008949 -0.000525 -0.002742 0.000000 0.000000 0.000000
# 2 -0.000525 0.010785 -0.003656 0.000000 0.000000 0.000000
# 3 -0.002742 -0.003656 0.008877 0.000000 0.000000 0.000000
# 4 0.000000 0.000000 0.000000 0.060980 0.000000 0.000000
# 5 0.000000 0.000000 0.000000 0.000000 0.068458 0.000000
# 6 0.000000 0.000000 0.000000 0.000000 0.000000 0.020983
#
#
# Mechanical properties :
#
#
# Convention : Reuss Voigt Hill
#
# Bulk Modulus (GPa) = 67.72347 71.04186 69.38267
# Shear Modulus (GPa) = 25.27836 33.37748 29.32792
#
# Velocity S-wave (km/s) = 3.59412 4.12995 3.87132
# Velocity P-wave (km/s) = 7.19942 7.68412 7.44571
#
# Compressibility (1/GPa) = 0.01476593
#
# Stress axis : x y z
#
# Youngs Moduli (GPa) = 111.74262 92.72376 112.65245
#
# Poissons Ratio (x) = 0.04865 0.30885
# Poissons Ratio (y) = 0.05863 0.41186
# Poissons Ratio (z) = 0.30636 0.33900
#
# Static dielectric constant tensor:
#      x y z
#    x 3.947850 0.000000 0.000000 
#    y 0.000000 3.791360 0.000000 
#    z 0.000000 0.000000 3.323430 
# 
# 
# High freq. dielectric constant tensor:
#      x y z
#    x 1.784500 0.000000 0.000000 
#    y 0.000000 1.775430 0.000000 
#    z 0.000000 0.000000 1.755350 
# 
# From -- ./inp_files/12402.got.cif
#   From: 2010.03.12/outbox.cif.g09.slc.cpg/sg60_7_cif.got.tgz:12402.got - 2010.04.10 18:46:24.
