data_PCOD8248450
_publ_section_title
;
Structure prediction by ZEFSAII (Michael W. Deem and Ramdas Pophale) SiO2 
 PCOD8248450
Probable space group: P B C N
;
_chemical_formula_sum "Si O2"
_cell_formula_units_Z 32
_cell_length_a 13.613923
_cell_length_b 12.601948
_cell_length_c 7.662114
_cell_angle_alpha 90.000000
_cell_angle_beta 90.000000
_cell_angle_gamma 90.000000
_cell_volume 1314.527217
_symmetry_space_group_name_H-M "P B C N"
_symmetry_group_IT_number 60
_symmetry_cell_setting 'orthorhombic'
loop_
_space_group_symop_operation_xyz
x,y,z
1/2-x,1/2-y,1/2+z
1/2+x,1/2-y,-z
-x,y,1/2-z
-x,-y,-z
1/2+x,1/2+y,1/2-z
1/2-x,1/2+y,z
x,-y,1/2+z
loop_
_atom_site_type_symbol
_atom_site_label
_atom_site_fract_x
_atom_site_fract_y
_atom_site_fract_z
Si Si1 0.804946 0.869361 0.179432
Si Si2 0.392739 0.927850 0.177472
Si Si3 0.422924 0.553894 0.123315
Si Si4 0.106613 0.344254 0.788048
O O1 0.688093 0.883892 0.187150
O O2 0.821460 0.752391 0.259871
O O3 0.857369 0.964012 0.284079
O O4 0.848238 0.869238 0.980887
O O5 0.500000 0.899341 0.250000
O O6 0.378439 0.055084 0.161428
O O7 0.376979 0.880963 0.986695
O O8 0.500000 0.617657 0.250000
O O9 0.500000 0.500000 0.000000
O O10 0.000000 0.295974 0.750000
#
# Coordination Sequence:
#
# PCOD8248450 Si02
#       4
#     8   8   8   8
#     4  11  23  42  69  99 134 181 228 280 347 414
#     4  11  25  44  67  97 138 180 230 286 338 408
#     4   9  19  38  63  99 138 167 213 281 340 401
#     4  11  24  44  68  95 133 180 227 283 347 409
#
# _framework density 24.343351999999999
#
# number of rings (size 3 to 8) (size 9 to 14) (size 15 to 20)
#    0.000    1.500    0.000    6.750    0.000    7.000 
#    0.000   10.000    0.000    1.500    0.000    0.000 
#    0.000    0.000    0.000    0.000    0.000    0.000 
#
# Total GULP energy -396504.937310 kJ/mol
# GULP energy per Si atom -12390.779291 kJ/mol
# Density = 2.428795 g / cm^3
# Si number density = 24.343352 Si / 1000 Ang^3
#
#
#
# Elastic Constant Matrix: (Units=GPa)
#
#
# Indices 1 2 3 4 5 6 
#
# 1 201.3139 55.9515 45.7570 0.0000 0.0000 0.0000
# 2 55.9515 97.2483 -5.5150 0.0000 0.0000 0.0000
# 3 45.7570 -5.5150 73.9639 0.0000 0.0000 0.0000
# 4 0.0000 0.0000 0.0000 17.4471 0.0000 0.0000
# 5 0.0000 0.0000 0.0000 0.0000 42.4948 0.0000
# 6 0.0000 0.0000 0.0000 0.0000 0.0000 29.4970
#
#
#
# Elastic Compliance Matrix: (Units=1/GPa)
#
#
# Indices 1 2 3 4 5 6 
#
# 1 0.007320 -0.004487 -0.004863 0.000000 0.000000 0.000000
# 2 -0.004487 0.013077 0.003751 0.000000 0.000000 0.000000
# 3 -0.004863 0.003751 0.016808 0.000000 0.000000 0.000000
# 4 0.000000 0.000000 0.000000 0.057316 0.000000 0.000000
# 5 0.000000 0.000000 0.000000 0.000000 0.023532 0.000000
# 6 0.000000 0.000000 0.000000 0.000000 0.000000 0.033902
#
#
# Mechanical properties :
#
#
# Convention : Reuss Voigt Hill
#
# Bulk Modulus (GPa) = 38.45077 62.76813 50.60945
# Shear Modulus (GPa) = 29.09975 36.30994 32.70485
#
# Velocity S-wave (km/s) = 3.46119 3.86628 3.66933
# Velocity P-wave (km/s) = 5.63938 6.76545 6.22792
#
# Compressibility (1/GPa) = 0.02600728
#
# Stress axis : x y z
#
# Youngs Moduli (GPa) = 136.61575 76.46790 59.49479
#
# Poissons Ratio (x) = 0.34313 0.28932
# Poissons Ratio (y) = 0.61302 -0.22317
# Poissons Ratio (z) = 0.66435 -0.28684
#
# Static dielectric constant tensor:
#      x y z
#    x 4.675420 0.000000 0.000000 
#    y 0.000000 4.172570 0.000000 
#    z 0.000000 0.000000 4.556650 
# 
# 
# High freq. dielectric constant tensor:
#      x y z
#    x 1.984480 0.000000 0.000000 
#    y 0.000000 1.951090 0.000000 
#    z 0.000000 0.000000 1.968470 
# 
# From -- ./inp_files/5468.got.cif
#   From: 2010.03.12/outbox.cif.g09.slc.cpg/sg60_3_cif.got.tgz:5468.got - 2010.04.10 18:46:24.
