data_PCOD8248283
_publ_section_title
;
Structure prediction by ZEFSAII (Michael W. Deem and Ramdas Pophale) SiO2 
 PCOD8248283
Probable space group: P B C N
;
_chemical_formula_sum "Si O2"
_cell_formula_units_Z 48
_cell_length_a 9.409279
_cell_length_b 14.201669
_cell_length_c 17.933390
_cell_angle_alpha 90.000000
_cell_angle_beta 90.000000
_cell_angle_gamma 90.000000
_cell_volume 2396.393460
_symmetry_space_group_name_H-M "P B C N"
_symmetry_group_IT_number 60
_symmetry_cell_setting 'orthorhombic'
loop_
_space_group_symop_operation_xyz
x,y,z
1/2-x,1/2-y,1/2+z
1/2+x,1/2-y,-z
-x,y,1/2-z
-x,-y,-z
1/2+x,1/2+y,1/2-z
1/2-x,1/2+y,z
x,-y,1/2+z
loop_
_atom_site_type_symbol
_atom_site_label
_atom_site_fract_x
_atom_site_fract_y
_atom_site_fract_z
Si Si1 0.177330 0.450605 0.924073
Si Si2 0.894425 0.633134 0.490103
Si Si3 0.201549 0.145340 0.146832
Si Si4 0.833441 0.708569 0.735165
Si Si5 0.168573 0.497914 0.757985
Si Si6 0.399687 0.306736 0.908389
O O1 0.204186 0.448263 0.835638
O O2 0.305386 0.383910 0.953621
O O3 0.026885 0.407765 0.945774
O O4 0.180926 0.556201 0.956305
O O5 0.778190 0.663729 0.430711
O O6 0.947758 0.723770 0.535826
O O7 0.242719 0.231921 0.200285
O O8 0.252066 0.050152 0.188077
O O9 0.033785 0.141089 0.129280
O O10 0.770828 0.603807 0.738768
O O11 0.803905 0.757075 0.655518
O O12 0.000000 0.704652 0.750000
O O13 0.000000 0.495812 0.750000
#
# Coordination Sequence:
#
# PCOD8248283 Si02
#       6
#     8   8   8   8   8   8
#     4  11  23  39  66  89 127 169 211 258 312 385
#     4  11  24  41  62  95 125 172 213 252 322 385
#     4  11  23  39  67  94 124 163 211 263 315 367
#     4   9  20  36  63  90 117 163 207 250 309 370
#     4  11  20  39  66  92 123 164 214 254 303 383
#     4  11  22  41  63  93 130 162 206 270 318 369
#
# _framework density 20.030100000000001
#
# number of rings (size 3 to 8) (size 9 to 14) (size 15 to 20)
#    0.000    1.333    5.000    1.000    0.000    2.000 
#    0.000    1.667    7.333    0.000    0.000    0.000 
#    0.000    0.000    0.000    0.000    0.000    0.000 
#
# Total GULP energy -595183.210928 kJ/mol
# GULP energy per Si atom -12399.650228 kJ/mol
# Density = 1.998451 g / cm^3
# Si number density = 20.030100 Si / 1000 Ang^3
#
#
#
# Elastic Constant Matrix: (Units=GPa)
#
#
# Indices 1 2 3 4 5 6 
#
# 1 61.6796 56.0204 28.0632 0.0000 0.0000 0.0000
# 2 56.0204 96.5758 21.6129 0.0000 0.0000 0.0000
# 3 28.0632 21.6129 86.5887 0.0000 0.0000 0.0000
# 4 0.0000 0.0000 0.0000 29.0682 0.0000 0.0000
# 5 0.0000 0.0000 0.0000 0.0000 33.0286 0.0000
# 6 0.0000 0.0000 0.0000 0.0000 0.0000 29.1098
#
#
#
# Elastic Compliance Matrix: (Units=1/GPa)
#
#
# Indices 1 2 3 4 5 6 
#
# 1 0.038117 -0.020490 -0.007239 0.000000 0.000000 0.000000
# 2 -0.020490 0.021982 0.001154 0.000000 0.000000 0.000000
# 3 -0.007239 0.001154 0.013607 0.000000 0.000000 0.000000
# 4 0.000000 0.000000 0.000000 0.034402 0.000000 0.000000
# 5 0.000000 0.000000 0.000000 0.000000 0.030277 0.000000
# 6 0.000000 0.000000 0.000000 0.000000 0.000000 0.034353
#
#
# Mechanical properties :
#
#
# Convention : Reuss Voigt Hill
#
# Bulk Modulus (GPa) = 48.64965 50.69302 49.67134
# Shear Modulus (GPa) = 21.48328 27.51783 24.50055
#
# Velocity S-wave (km/s) = 3.27853 3.71053 3.50120
# Velocity P-wave (km/s) = 6.21874 6.61217 6.41847
#
# Compressibility (1/GPa) = 0.02055513
#
# Stress axis : x y z
#
# Youngs Moduli (GPa) = 26.23523 45.49181 73.49169
#
# Poissons Ratio (x) = 0.93214 0.53202
# Poissons Ratio (y) = 0.53756 -0.08481
# Poissons Ratio (z) = 0.18992 -0.05250
#
# Static dielectric constant tensor:
#      x y z
#    x 3.323590 0.000000 0.000000 
#    y 0.000000 3.824050 0.000000 
#    z 0.000000 0.000000 3.716750 
# 
# 
# High freq. dielectric constant tensor:
#      x y z
#    x 1.756110 0.000000 0.000000 
#    y 0.000000 1.792290 0.000000 
#    z 0.000000 0.000000 1.790590 
# 
# From -- ./inp_files/19307.got.cif
#   From: 2010.03.12/outbox.cif.g09.slc.cpg/sg60_10_cif.got.tgz:19307.got - 2010.04.10 18:46:24.
