data_PCOD8248819
_publ_section_title
;
Structure prediction by ZEFSAII (Michael W. Deem and Ramdas Pophale) SiO2 
 PCOD8248819
Probable space group: P B C A
;
_chemical_formula_sum "Si O2"
_cell_formula_units_Z 56
_cell_length_a 9.693822
_cell_length_b 20.352652
_cell_length_c 13.878049
_cell_angle_alpha 90.000000
_cell_angle_beta 90.000000
_cell_angle_gamma 90.000000
_cell_volume 2738.069479
_symmetry_space_group_name_H-M "P B C A"
_symmetry_group_IT_number 61
_symmetry_cell_setting 'orthorhombic'
loop_
_space_group_symop_operation_xyz
x,y,z
1/2-x,-y,1/2+z
1/2+x,1/2-y,-z
-x,1/2+y,1/2-z
-x,-y,-z
1/2+x,y,1/2-z
1/2-x,1/2+y,z
x,1/2-y,1/2+z
loop_
_atom_site_type_symbol
_atom_site_label
_atom_site_fract_x
_atom_site_fract_y
_atom_site_fract_z
Si Si1 0.615789 0.528416 0.382531
Si Si2 0.881188 0.556475 0.715720
Si Si3 0.383650 0.159787 0.501153
Si Si4 0.890950 0.302030 0.082469
Si Si5 0.596779 0.100557 0.004638
Si Si6 0.141029 0.858880 0.217276
Si Si7 0.827998 0.902308 0.011135
O O1 0.633046 0.514560 0.268203
O O2 0.488912 0.578336 0.400493
O O3 0.581128 0.457510 0.427589
O O4 0.757527 0.557234 0.425320
O O5 0.793548 0.611869 0.772152
O O6 0.830231 0.550415 0.605306
O O7 0.039313 0.578857 0.720000
O O8 0.387252 0.225742 0.440483
O O9 0.253964 0.115829 0.467618
O O10 0.373713 0.177597 0.614721
O O11 0.519633 0.117546 0.477851
O O12 0.890774 0.307100 0.198428
O O13 0.756852 0.336907 0.037268
O O14 0.029347 0.333984 0.039904
#
# Coordination Sequence:
#
# PCOD8248819 Si02
#       7
#     8   8   8   8   8   8   8
#     4  10  19  38  60  79 122 149 191 243 284 357
#     4  10  19  36  58  84 108 148 197 240 277 343
#     4  11  20  35  58  87 117 145 195 248 283 339
#     4  10  19  36  59  81 114 153 192 235 294 349
#     4  10  20  34  58  85 109 157 188 231 304 339
#     4  10  19  35  56  85 105 147 203 231 276 347
#     4   9  22  34  59  91 112 150 203 240 292 342
#
# _framework density 20.452366000000001
#
# number of rings (size 3 to 8) (size 9 to 14) (size 15 to 20)
#    0.000    2.000    2.857    0.857    2.000    0.571 
#    0.000    0.000    9.429    0.000    0.000    0.000 
#    0.000    0.000    0.000    0.000    0.000    0.000 
#
# Total GULP energy -694448.082578 kJ/mol
# GULP energy per Si atom -12400.858617 kJ/mol
# Density = 2.040582 g / cm^3
# Si number density = 20.452366 Si / 1000 Ang^3
#
#
#
# Elastic Constant Matrix: (Units=GPa)
#
#
# Indices 1 2 3 4 5 6 
#
# 1 137.2495 38.2639 40.0704 0.0000 0.0000 0.0000
# 2 38.2639 79.5348 57.7372 0.0000 0.0000 0.0000
# 3 40.0704 57.7372 96.4833 0.0000 0.0000 0.0000
# 4 0.0000 0.0000 0.0000 38.3024 0.0000 0.0000
# 5 0.0000 0.0000 0.0000 0.0000 12.1413 0.0000
# 6 0.0000 0.0000 0.0000 0.0000 0.0000 25.1514
#
#
#
# Elastic Compliance Matrix: (Units=1/GPa)
#
#
# Indices 1 2 3 4 5 6 
#
# 1 0.008615 -0.002736 -0.001941 0.000000 0.000000 0.000000
# 2 -0.002736 0.023099 -0.012687 0.000000 0.000000 0.000000
# 3 -0.001941 -0.012687 0.018762 0.000000 0.000000 0.000000
# 4 0.000000 0.000000 0.000000 0.026108 0.000000 0.000000
# 5 0.000000 0.000000 0.000000 0.000000 0.082363 0.000000
# 6 0.000000 0.000000 0.000000 0.000000 0.000000 0.039759
#
#
# Mechanical properties :
#
#
# Convention : Reuss Voigt Hill
#
# Bulk Modulus (GPa) = 63.49153 65.04563 64.26858
# Shear Modulus (GPa) = 20.94820 26.93210 23.94015
#
# Velocity S-wave (km/s) = 3.20385 3.63274 3.42502
# Velocity P-wave (km/s) = 6.69307 7.03337 6.86533
#
# Compressibility (1/GPa) = 0.01575013
#
# Stress axis : x y z
#
# Youngs Moduli (GPa) = 116.07150 43.29196 53.29813
#
# Poissons Ratio (x) = 0.11844 0.10344
# Poissons Ratio (y) = 0.31756 0.67617
# Poissons Ratio (z) = 0.22528 0.54923
#
# Static dielectric constant tensor:
#      x y z
#    x 3.910100 0.000000 0.000000 
#    y 0.000000 3.327470 0.000000 
#    z 0.000000 0.000000 3.705500 
# 
# 
# High freq. dielectric constant tensor:
#      x y z
#    x 1.819280 0.000000 0.000000 
#    y 0.000000 1.766390 0.000000 
#    z 0.000000 0.000000 1.784310 
# 
# From -- ./inp_files/3996.got.cif
#   From: 2010.03.12/outbox.cif.g09.slc.cpg/sg61_2_cif.got.tgz:3996.got - 2010.04.10 19:05:03.
