data_PCOD8248821
_publ_section_title
;
Structure prediction by ZEFSAII (Michael W. Deem and Ramdas Pophale) SiO2 
 PCOD8248821
Probable space group: P B C A
;
_chemical_formula_sum "Si O2"
_cell_formula_units_Z 56
_cell_length_a 35.105954
_cell_length_b 15.798385
_cell_length_c 4.980255
_cell_angle_alpha 90.000000
_cell_angle_beta 90.000000
_cell_angle_gamma 90.000000
_cell_volume 2762.135965
_symmetry_space_group_name_H-M "P B C A"
_symmetry_group_IT_number 61
_symmetry_cell_setting 'orthorhombic'
loop_
_space_group_symop_operation_xyz
x,y,z
1/2-x,-y,1/2+z
1/2+x,1/2-y,-z
-x,1/2+y,1/2-z
-x,-y,-z
1/2+x,y,1/2-z
1/2-x,1/2+y,z
x,1/2-y,1/2+z
loop_
_atom_site_type_symbol
_atom_site_label
_atom_site_fract_x
_atom_site_fract_y
_atom_site_fract_z
Si Si1 0.349078 0.539133 0.807047
Si Si2 0.516079 0.196266 0.707986
Si Si3 0.738101 0.449449 0.262798
Si Si4 0.203991 0.693816 0.770554
Si Si5 0.597104 0.191815 0.820715
Si Si6 0.364088 0.069148 0.800777
Si Si7 0.066960 0.809487 0.269980
O O1 0.304868 0.562614 0.833817
O O2 0.370674 0.622831 0.717769
O O3 0.355298 0.463511 0.597771
O O4 0.364259 0.509191 0.095538
O O5 0.516802 0.218638 0.392567
O O6 0.555236 0.146790 0.782212
O O7 0.476023 0.150348 0.778129
O O8 0.738359 0.493758 0.552602
O O9 0.757438 0.357832 0.283555
O O10 0.203018 0.774709 0.576373
O O11 0.167537 0.636222 0.708684
O O12 0.601560 0.270135 0.616879
O O13 0.405355 0.111509 0.800260
O O14 0.074371 0.739718 0.495516
#
# Coordination Sequence:
#
# PCOD8248821 Si02
#       7
#     8   8   8   8   8   8   8
#     4  12  24  40  63  85 119 159 192 235 310 360
#     4   8  16  32  56  82 114 153 193 239 293 334
#     4  12  23  44  62  82 117 161 192 236 302 360
#     4  12  24  39  63  90 113 147 200 245 282 339
#     4  10  21  39  62  88 115 150 202 252 286 341
#     4  12  23  39  58  89 124 157 189 237 298 357
#     4  10  19  35  58  86 118 159 200 238 281 345
#
# _framework density 20.274166000000001
#
# number of rings (size 3 to 8) (size 9 to 14) (size 15 to 20)
#    0.000    1.143    2.857    4.286    0.000    1.143 
#    0.000    1.429    0.000    0.000    0.000    0.000 
#    0.000    0.000    0.000    0.000    0.000    0.000 
#
# Total GULP energy -694495.686023 kJ/mol
# GULP energy per Si atom -12401.708679 kJ/mol
# Density = 2.022802 g / cm^3
# Si number density = 20.274166 Si / 1000 Ang^3
#
#
#
# Elastic Constant Matrix: (Units=GPa)
#
#
# Indices 1 2 3 4 5 6 
#
# 1 131.4207 35.3491 -3.1310 0.0000 0.0000 0.0000
# 2 35.3491 57.5659 -1.3512 0.0000 0.0000 0.0000
# 3 -3.1310 -1.3512 47.8692 0.0000 0.0000 0.0000
# 4 0.0000 0.0000 0.0000 33.1580 0.0000 0.0000
# 5 0.0000 0.0000 0.0000 0.0000 23.9134 0.0000
# 6 0.0000 0.0000 0.0000 0.0000 0.0000 31.1502
#
#
#
# Elastic Compliance Matrix: (Units=1/GPa)
#
#
# Indices 1 2 3 4 5 6 
#
# 1 0.009124 -0.005592 0.000439 0.000000 0.000000 0.000000
# 2 -0.005592 0.020811 0.000222 0.000000 0.000000 0.000000
# 3 0.000439 0.000222 0.020925 0.000000 0.000000 0.000000
# 4 0.000000 0.000000 0.000000 0.030159 0.000000 0.000000
# 5 0.000000 0.000000 0.000000 0.000000 0.041818 0.000000
# 6 0.000000 0.000000 0.000000 0.000000 0.000000 0.032103
#
#
# Mechanical properties :
#
#
# Convention : Reuss Voigt Hill
#
# Bulk Modulus (GPa) = 24.39252 33.17663 28.78458
# Shear Modulus (GPa) = 28.01635 31.37692 29.69663
#
# Velocity S-wave (km/s) = 3.72139 3.93826 3.83136
# Velocity P-wave (km/s) = 5.52471 6.08928 5.81386
#
# Compressibility (1/GPa) = 0.04099617
#
# Stress axis : x y z
#
# Youngs Moduli (GPa) = 109.60343 48.05243 47.78919
#
# Poissons Ratio (x) = 0.26872 -0.02098
# Poissons Ratio (y) = 0.61293 -0.01059
# Poissons Ratio (z) = -0.04811 -0.01065
#
# Static dielectric constant tensor:
#      x y z
#    x 4.029010 0.000000 0.000000 
#    y 0.000000 3.251080 0.000000 
#    z 0.000000 0.000000 3.837820 
# 
# 
# High freq. dielectric constant tensor:
#      x y z
#    x 1.811420 0.000000 0.000000 
#    y 0.000000 1.751170 0.000000 
#    z 0.000000 0.000000 1.813980 
# 
# From -- ./inp_files/1463.got.cif
#   From: 2010.03.12/outbox.cif.g09.slc.cpg/sg61_1_cif.got.tgz:1463.got - 2010.04.10 19:05:03.
