data_PCOD8248795
_publ_section_title
;
Structure prediction by ZEFSAII (Michael W. Deem and Ramdas Pophale) SiO2 
 PCOD8248795
Probable space group: P B C A
;
_chemical_formula_sum "Si O2"
_cell_formula_units_Z 64
_cell_length_a 9.233785
_cell_length_b 20.080252
_cell_length_c 18.884170
_cell_angle_alpha 90.000000
_cell_angle_beta 90.000000
_cell_angle_gamma 90.000000
_cell_volume 3501.441045
_symmetry_space_group_name_H-M "P B C A"
_symmetry_group_IT_number 61
_symmetry_cell_setting 'orthorhombic'
loop_
_space_group_symop_operation_xyz
x,y,z
1/2-x,-y,1/2+z
1/2+x,1/2-y,-z
-x,1/2+y,1/2-z
-x,-y,-z
1/2+x,y,1/2-z
1/2-x,1/2+y,z
x,1/2-y,1/2+z
loop_
_atom_site_type_symbol
_atom_site_label
_atom_site_fract_x
_atom_site_fract_y
_atom_site_fract_z
Si Si1 0.316649 0.446665 0.538175
Si Si2 0.158845 0.102319 0.171526
Si Si3 0.350856 0.572645 0.447870
Si Si4 0.204292 0.682036 0.951374
Si Si5 0.318222 0.393409 0.813419
Si Si6 0.335524 0.755069 0.172459
Si Si7 0.619805 0.207873 0.978595
Si Si8 0.663482 0.739850 0.694745
O O1 0.206886 0.440792 0.603771
O O2 0.294790 0.518998 0.504443
O O3 0.479176 0.437187 0.567722
O O4 0.281902 0.394239 0.475466
O O5 0.250322 0.079936 0.240128
O O6 0.198313 0.178490 0.153533
O O7 0.988892 0.091509 0.185523
O O8 0.260774 0.566026 0.375733
O O9 0.318641 0.644960 0.479964
O O10 0.213800 0.688720 0.866314
O O11 0.053269 0.712431 0.978322
O O12 0.333401 0.723784 0.985256
O O13 0.283517 0.314870 0.823056
O O14 0.319368 0.797792 0.101288
O O15 0.227356 0.784676 0.230710
O O16 0.493202 0.760969 0.206059
#
# Coordination Sequence:
#
# PCOD8248795 Si02
#       8
#     8   8   8   8   8   8   8   8
#     4  10  21  36  54  78 110 146 179 217 266 318
#     4  10  19  33  54  79 106 137 178 221 265 318
#     4  10  21  36  54  78 110 146 179 217 266 318
#     4  10  19  33  53  77 105 135 174 219 263 311
#     4  10  19  33  54  79 106 137 178 221 265 318
#     4   9  18  31  49  76 104 132 169 217 264 310
#     4  10  19  33  53  77 105 135 174 219 263 311
#     4   9  18  31  49  76 104 132 169 217 264 310
#
# _framework density 18.278189999999999
#
# number of rings (size 3 to 8) (size 9 to 14) (size 15 to 20)
#    0.000    2.250    2.500    0.750    0.000    2.500 
#    0.000    1.250    0.000    3.000    0.000    0.000 
#    0.000    0.000    0.000    0.000    0.000    0.000 
#
# Total GULP energy -793715.725504 kJ/mol
# GULP energy per Si atom -12401.808211 kJ/mol
# Density = 1.823659 g / cm^3
# Si number density = 18.278190 Si / 1000 Ang^3
#
#
#
# Elastic Constant Matrix: (Units=GPa)
#
#
# Indices 1 2 3 4 5 6 
#
# 1 53.5328 12.3966 31.3697 0.0000 0.0000 0.0000
# 2 12.3966 30.5633 6.8361 0.0000 0.0000 0.0000
# 3 31.3697 6.8361 82.6696 0.0000 0.0000 0.0000
# 4 0.0000 0.0000 0.0000 23.2540 0.0000 0.0000
# 5 0.0000 0.0000 0.0000 0.0000 37.9314 0.0000
# 6 0.0000 0.0000 0.0000 0.0000 0.0000 17.0493
#
#
#
# Elastic Compliance Matrix: (Units=1/GPa)
#
#
# Indices 1 2 3 4 5 6 
#
# 1 0.026024 -0.008504 -0.009172 0.000000 0.000000 0.000000
# 2 -0.008504 0.036114 0.000241 0.000000 0.000000 0.000000
# 3 -0.009172 0.000241 0.015557 0.000000 0.000000 0.000000
# 4 0.000000 0.000000 0.000000 0.043003 0.000000 0.000000
# 5 0.000000 0.000000 0.000000 0.000000 0.026363 0.000000
# 6 0.000000 0.000000 0.000000 0.000000 0.000000 0.058653
#
#
# Mechanical properties :
#
#
# Convention : Reuss Voigt Hill
#
# Bulk Modulus (GPa) = 23.35100 29.77450 26.56275
# Shear Modulus (GPa) = 19.61855 23.39116 21.50486
#
# Velocity S-wave (km/s) = 3.27973 3.58121 3.43378
# Velocity P-wave (km/s) = 5.21011 5.78145 5.50320
#
# Compressibility (1/GPa) = 0.04282471
#
# Stress axis : x y z
#
# Youngs Moduli (GPa) = 38.42606 27.68974 64.28064
#
# Poissons Ratio (x) = 0.23547 0.58957
# Poissons Ratio (y) = 0.32677 -0.01546
# Poissons Ratio (z) = 0.35244 -0.00666
#
# Static dielectric constant tensor:
#      x y z
#    x 3.329730 0.000000 0.000000 
#    y 0.000000 3.099750 0.000000 
#    z 0.000000 0.000000 3.428620 
# 
# 
# High freq. dielectric constant tensor:
#      x y z
#    x 1.708960 0.000000 0.000000 
#    y 0.000000 1.673140 0.000000 
#    z 0.000000 0.000000 1.718580 
# 
# From -- ./inp_files/4076.got.cif
#   From: 2010.03.12/outbox.cif.g09.slc.cpg/sg61_3_cif.got.tgz:4076.got - 2010.04.10 19:05:03.
