data_PCOD8248734
_publ_section_title
;
Structure prediction by ZEFSAII (Michael W. Deem and Ramdas Pophale) SiO2 
 PCOD8248734
Probable space group: P B C A
;
_chemical_formula_sum "Si O2"
_cell_formula_units_Z 56
_cell_length_a 8.480968
_cell_length_b 19.547678
_cell_length_c 16.235910
_cell_angle_alpha 90.000000
_cell_angle_beta 90.000000
_cell_angle_gamma 90.000000
_cell_volume 2691.641628
_symmetry_space_group_name_H-M "P B C A"
_symmetry_group_IT_number 61
_symmetry_cell_setting 'orthorhombic'
loop_
_space_group_symop_operation_xyz
x,y,z
1/2-x,-y,1/2+z
1/2+x,1/2-y,-z
-x,1/2+y,1/2-z
-x,-y,-z
1/2+x,y,1/2-z
1/2-x,1/2+y,z
x,1/2-y,1/2+z
loop_
_atom_site_type_symbol
_atom_site_label
_atom_site_fract_x
_atom_site_fract_y
_atom_site_fract_z
Si Si1 0.180774 0.577830 0.214601
Si Si2 0.881001 0.638768 0.155678
Si Si3 0.465230 0.906937 0.458593
Si Si4 0.969186 0.143201 0.714164
Si Si5 0.173960 0.293204 0.357061
Si Si6 0.875684 0.045578 0.109384
Si Si7 0.237536 0.566493 0.660172
O O1 0.313197 0.629532 0.250641
O O2 0.082452 0.545785 0.293008
O O3 0.250684 0.515703 0.161200
O O4 0.066153 0.621872 0.156083
O O5 0.849939 0.714204 0.121553
O O6 0.790678 0.585051 0.096102
O O7 0.380664 0.835792 0.437429
O O8 0.486730 0.915876 0.556872
O O9 0.640730 0.911516 0.420131
O O10 0.357624 0.967559 0.420746
O O11 0.858994 0.193233 0.660117
O O12 0.855640 0.088433 0.757670
O O13 0.064872 0.188478 0.779445
O O14 0.091208 0.102304 0.656228
#
# Coordination Sequence:
#
# PCOD8248734 Si02
#       7
#     8   8   8   8   8   8   8
#     4  10  19  33  60  82 116 145 190 244 279 337
#     4  10  21  34  57  81 114 146 189 233 286 342
#     4  10  20  38  61  79 116 155 189 234 288 347
#     4   9  18  30  54  85 112 139 190 243 275 328
#     4  10  19  34  57  83 113 150 186 238 285 339
#     4   9  21  37  59  81 113 150 189 230 296 338
#     4  10  18  32  57  86 108 144 193 235 287 321
#
# _framework density 20.805149
#
# number of rings (size 3 to 8) (size 9 to 14) (size 15 to 20)
#    0.857    1.429    0.000    5.143    2.000    0.000 
#    0.000    2.143   15.714    0.000    0.000    0.000 
#    0.000    0.000    0.000    0.000    0.000    0.000 
#
# Total GULP energy -694150.288282 kJ/mol
# GULP energy per Si atom -12395.540862 kJ/mol
# Density = 2.075780 g / cm^3
# Si number density = 20.805149 Si / 1000 Ang^3
#
#
#
# Elastic Constant Matrix: (Units=GPa)
#
#
# Indices 1 2 3 4 5 6 
#
# 1 90.2833 32.7428 -3.4086 0.0000 0.0000 0.0000
# 2 32.7428 107.5599 -8.9294 0.0000 0.0000 0.0000
# 3 -3.4086 -8.9294 26.2014 0.0000 0.0000 0.0000
# 4 0.0000 0.0000 0.0000 17.6674 0.0000 0.0000
# 5 0.0000 0.0000 0.0000 0.0000 14.0760 0.0000
# 6 0.0000 0.0000 0.0000 0.0000 0.0000 29.7585
#
#
#
# Elastic Compliance Matrix: (Units=1/GPa)
#
#
# Indices 1 2 3 4 5 6 
#
# 1 0.012454 -0.003763 0.000338 0.000000 0.000000 0.000000
# 2 -0.003763 0.010705 0.003159 0.000000 0.000000 0.000000
# 3 0.000338 0.003159 0.039286 0.000000 0.000000 0.000000
# 4 0.000000 0.000000 0.000000 0.056601 0.000000 0.000000
# 5 0.000000 0.000000 0.000000 0.000000 0.071043 0.000000
# 6 0.000000 0.000000 0.000000 0.000000 0.000000 0.033604
#
#
# Mechanical properties :
#
#
# Convention : Reuss Voigt Hill
#
# Bulk Modulus (GPa) = 16.15209 29.42824 22.79016
# Shear Modulus (GPa) = 20.41954 25.87637 23.14795
#
# Velocity S-wave (km/s) = 3.13623 3.53051 3.33920
# Velocity P-wave (km/s) = 4.57110 5.54930 5.08378
#
# Compressibility (1/GPa) = 0.06191150
#
# Stress axis : x y z
#
# Youngs Moduli (GPa) = 80.29713 93.41509 25.45420
#
# Poissons Ratio (x) = 0.35153 -0.00860
# Poissons Ratio (y) = 0.30216 -0.08040
# Poissons Ratio (z) = -0.02712 -0.29507
#
# Static dielectric constant tensor:
#      x y z
#    x 3.747020 0.000000 0.000000 
#    y 0.000000 3.557090 0.000000 
#    z 0.000000 0.000000 3.369960 
# 
# 
# High freq. dielectric constant tensor:
#      x y z
#    x 1.815680 0.000000 0.000000 
#    y 0.000000 1.805520 0.000000 
#    z 0.000000 0.000000 1.773070 
# 
# From -- ./inp_files/9027.got.cif
#   From: 2010.03.12/outbox.cif.g09.slc.cpg/sg61_5_cif.got.tgz:9027.got - 2010.04.10 19:05:03.
