data_PCOD8248959
_publ_section_title
;
Structure prediction by ZEFSAII (Michael W. Deem and Ramdas Pophale) SiO2 
 PCOD8248959
Probable space group: P B C A
;
_chemical_formula_sum "Si O2"
_cell_formula_units_Z 48
_cell_length_a 8.944841
_cell_length_b 14.726447
_cell_length_c 18.836403
_cell_angle_alpha 90.000000
_cell_angle_beta 90.000000
_cell_angle_gamma 90.000000
_cell_volume 2481.238878
_symmetry_space_group_name_H-M "P B C A"
_symmetry_group_IT_number 61
_symmetry_cell_setting 'orthorhombic'
loop_
_space_group_symop_operation_xyz
x,y,z
1/2-x,-y,1/2+z
1/2+x,1/2-y,-z
-x,1/2+y,1/2-z
-x,-y,-z
1/2+x,y,1/2-z
1/2-x,1/2+y,z
x,1/2-y,1/2+z
loop_
_atom_site_type_symbol
_atom_site_label
_atom_site_fract_x
_atom_site_fract_y
_atom_site_fract_z
Si Si1 0.163233 0.860534 0.942879
Si Si2 0.680758 0.153374 0.912561
Si Si3 0.833605 0.346989 0.077290
Si Si4 0.671106 0.510981 0.819074
Si Si5 0.819968 0.989077 0.170742
Si Si6 0.318143 0.860802 0.566792
O O1 0.202178 0.759660 0.916441
O O2 0.988126 0.871160 0.959605
O O3 0.216957 0.929191 0.882641
O O4 0.250276 0.884952 0.014599
O O5 0.506306 0.130812 0.911035
O O6 0.759483 0.105272 0.846229
O O7 0.712527 0.260072 0.904090
O O8 0.737989 0.394792 0.138400
O O9 0.787033 0.383374 0.999811
O O10 0.494200 0.520469 0.813864
O O11 0.733714 0.487307 0.742283
O O12 0.721292 0.430067 0.870935
#
# Coordination Sequence:
#
# PCOD8248959 Si02
#       6
#     8   8   8   8   8   8
#     4   9  20  38  58  81 110 144 181 223 270 320
#     4  10  20  36  59  85 110 140 181 225 270 321
#     4  10  20  36  59  85 110 140 181 225 270 321
#     4  11  23  38  55  78 111 147 182 222 271 324
#     4  11  23  38  55  78 111 147 182 222 271 324
#     4   9  20  38  58  81 110 144 181 223 270 320
#
# _framework density 19.345175000000001
#
# number of rings (size 3 to 8) (size 9 to 14) (size 15 to 20)
#    0.000    2.000    0.000    3.000    0.000    9.333 
#    0.000    3.333    0.000    0.000    0.000    0.000 
#    0.000    0.000    0.000    0.000    0.000    0.000 
#
# Total GULP energy -595512.690345 kJ/mol
# GULP energy per Si atom -12406.514382 kJ/mol
# Density = 1.930114 g / cm^3
# Si number density = 19.345175 Si / 1000 Ang^3
#
#
#
# Elastic Constant Matrix: (Units=GPa)
#
#
# Indices 1 2 3 4 5 6 
#
# 1 36.5441 20.9790 3.0230 0.0000 0.0000 0.0000
# 2 20.9790 66.6399 28.0888 0.0000 0.0000 0.0000
# 3 3.0230 28.0888 59.2914 0.0000 0.0000 0.0000
# 4 0.0000 0.0000 0.0000 21.8387 0.0000 0.0000
# 5 0.0000 0.0000 0.0000 0.0000 41.0894 0.0000
# 6 0.0000 0.0000 0.0000 0.0000 0.0000 28.6324
#
#
#
# Elastic Compliance Matrix: (Units=1/GPa)
#
#
# Indices 1 2 3 4 5 6 
#
# 1 0.034216 -0.012540 0.004196 0.000000 0.000000 0.000000
# 2 -0.012540 0.023346 -0.010421 0.000000 0.000000 0.000000
# 3 0.004196 -0.010421 0.021589 0.000000 0.000000 0.000000
# 4 0.000000 0.000000 0.000000 0.045790 0.000000 0.000000
# 5 0.000000 0.000000 0.000000 0.000000 0.024337 0.000000
# 6 0.000000 0.000000 0.000000 0.000000 0.000000 0.034925
#
#
# Mechanical properties :
#
#
# Convention : Reuss Voigt Hill
#
# Bulk Modulus (GPa) = 24.02602 29.62857 26.82730
# Shear Modulus (GPa) = 21.22173 25.67105 23.44639
#
# Velocity S-wave (km/s) = 3.31570 3.64675 3.48516
# Velocity P-wave (km/s) = 5.20625 5.75159 5.48570
#
# Compressibility (1/GPa) = 0.04162155
#
# Stress axis : x y z
#
# Youngs Moduli (GPa) = 29.22590 42.83335 46.32066
#
# Poissons Ratio (x) = 0.53715 -0.19438
# Poissons Ratio (y) = 0.36651 0.48270
# Poissons Ratio (z) = -0.12264 0.44636
#
# Static dielectric constant tensor:
#      x y z
#    x 3.576450 0.000000 0.000000 
#    y 0.000000 3.636610 0.000000 
#    z 0.000000 0.000000 3.451860 
# 
# 
# High freq. dielectric constant tensor:
#      x y z
#    x 1.761120 0.000000 0.000000 
#    y 0.000000 1.762560 0.000000 
#    z 0.000000 0.000000 1.748150 
# 
# From -- ./inp_files/2871.got.cif
#   From: 2010.03.12/outbox.cif.g09.slc.cpg/sg61_2_cif.got.tgz:2871.got - 2010.04.10 19:05:03.
