data_PCOD8248138
_publ_section_title
;
Structure prediction by ZEFSAII (Michael W. Deem and Ramdas Pophale) SiO2 
 PCOD8248138
Probable space group: P B C N
;
_chemical_formula_sum "Si O2"
_cell_formula_units_Z 48
_cell_length_a 26.330893
_cell_length_b 8.346758
_cell_length_c 8.762295
_cell_angle_alpha 90.000000
_cell_angle_beta 90.000000
_cell_angle_gamma 90.000000
_cell_volume 1925.756094
_symmetry_space_group_name_H-M "P B C N"
_symmetry_group_IT_number 60
_symmetry_cell_setting 'orthorhombic'
loop_
_space_group_symop_operation_xyz
x,y,z
1/2-x,1/2-y,1/2+z
1/2+x,1/2-y,-z
-x,y,1/2-z
-x,-y,-z
1/2+x,1/2+y,1/2-z
1/2-x,1/2+y,z
x,-y,1/2+z
loop_
_atom_site_type_symbol
_atom_site_label
_atom_site_fract_x
_atom_site_fract_y
_atom_site_fract_z
Si Si1 0.590301 0.461010 0.095702
Si Si2 0.422120 0.723729 0.182141
Si Si3 0.872264 0.789779 0.377766
Si Si4 0.536100 0.941059 0.869993
Si Si5 0.697043 0.212192 0.830821
Si Si6 0.779655 0.604355 0.488627
O O1 0.558180 0.593241 0.192226
O O2 0.621962 0.343381 0.203550
O O3 0.558233 0.344310 0.982693
O O4 0.628774 0.557033 0.987168
O O5 0.360989 0.734955 0.190507
O O6 0.443143 0.899425 0.216015
O O7 0.918289 0.670566 0.426873
O O8 0.818995 0.707016 0.390860
O O9 0.500000 0.846018 0.750000
O O10 0.500000 0.000000 0.000000
O O11 0.719107 0.150136 0.667883
O O12 0.726362 0.364675 0.902106
O O13 0.704473 0.079205 0.963068
#
# Coordination Sequence:
#
# PCOD8248138 Si02
#       6
#     8   8   8   8   8   8
#     4  10  24  42  74  99 140 195 228 298 371 433
#     4  11  24  47  71 105 149 191 246 301 371 435
#     4  11  24  47  71 105 147 193 242 302 368 434
#     4  12  26  46  76 107 140 193 252 304 364 440
#     4  12  28  45  73 107 148 192 247 303 367 448
#     4  12  28  45  73 107 148 191 249 299 372 441
#
# _framework density 24.925273000000001
#
# number of rings (size 3 to 8) (size 9 to 14) (size 15 to 20)
#    0.000    0.667    3.333    3.000    9.333    0.000 
#    0.000   16.667    0.000    0.000    0.000    0.000 
#    0.000    0.000    0.000    0.000    0.000    0.000 
#
# Total GULP energy -594963.941367 kJ/mol
# GULP energy per Si atom -12395.082112 kJ/mol
# Density = 2.486854 g / cm^3
# Si number density = 24.925273 Si / 1000 Ang^3
#
#
#
# Elastic Constant Matrix: (Units=GPa)
#
#
# Indices 1 2 3 4 5 6 
#
# 1 75.9310 1.7580 10.3056 0.0000 0.0000 0.0000
# 2 1.7580 86.5039 9.4469 0.0000 0.0000 0.0000
# 3 10.3056 9.4469 131.1053 0.0000 0.0000 0.0000
# 4 0.0000 0.0000 0.0000 51.8765 0.0000 0.0000
# 5 0.0000 0.0000 0.0000 0.0000 25.3419 0.0000
# 6 0.0000 0.0000 0.0000 0.0000 0.0000 9.3657
#
#
#
# Elastic Compliance Matrix: (Units=1/GPa)
#
#
# Indices 1 2 3 4 5 6 
#
# 1 0.013314 -0.000158 -0.001035 0.000000 0.000000 0.000000
# 2 -0.000158 0.011654 -0.000827 0.000000 0.000000 0.000000
# 3 -0.001035 -0.000827 0.007768 0.000000 0.000000 0.000000
# 4 0.000000 0.000000 0.000000 0.019277 0.000000 0.000000
# 5 0.000000 0.000000 0.000000 0.000000 0.039460 0.000000
# 6 0.000000 0.000000 0.000000 0.000000 0.000000 0.106773
#
#
# Mechanical properties :
#
#
# Convention : Reuss Voigt Hill
#
# Bulk Modulus (GPa) = 34.84802 37.39570 36.12186
# Shear Modulus (GPa) = 23.60143 35.45214 29.52678
#
# Velocity S-wave (km/s) = 3.08049 3.77548 3.44555
# Velocity P-wave (km/s) = 5.16371 5.83450 5.50932
#
# Compressibility (1/GPa) = 0.02869604
#
# Stress axis : x y z
#
# Youngs Moduli (GPa) = 75.10888 85.80944 128.72595
#
# Poissons Ratio (x) = 0.01352 0.13326
# Poissons Ratio (y) = 0.01183 0.10650
# Poissons Ratio (z) = 0.07775 0.07099
#
# Static dielectric constant tensor:
#      x y z
#    x 3.774740 0.000000 0.000000 
#    y 0.000000 5.069720 0.000000 
#    z 0.000000 0.000000 4.402390 
# 
# 
# High freq. dielectric constant tensor:
#      x y z
#    x 1.970300 0.000000 0.000000 
#    y 0.000000 2.006570 0.000000 
#    z 0.000000 0.000000 2.011550 
# 
# From -- ./inp_files/8413.got.cif
#   From: 2010.03.12/outbox.cif.g09.slc.cpg/sg60_5_cif.got.tgz:8413.got - 2010.04.10 18:46:24.
