data_PCOD8248551
_publ_section_title
;
Structure prediction by ZEFSAII (Michael W. Deem and Ramdas Pophale) SiO2 
 PCOD8248551
Probable space group: P B C N
;
_chemical_formula_sum "Si O2"
_cell_formula_units_Z 64
_cell_length_a 26.577558
_cell_length_b 12.110873
_cell_length_c 8.743244
_cell_angle_alpha 90.000000
_cell_angle_beta 90.000000
_cell_angle_gamma 90.000000
_cell_volume 2814.252905
_symmetry_space_group_name_H-M "P B C N"
_symmetry_group_IT_number 60
_symmetry_cell_setting 'orthorhombic'
loop_
_space_group_symop_operation_xyz
x,y,z
1/2-x,1/2-y,1/2+z
1/2+x,1/2-y,-z
-x,y,1/2-z
-x,-y,-z
1/2+x,1/2+y,1/2-z
1/2-x,1/2+y,z
x,-y,1/2+z
loop_
_atom_site_type_symbol
_atom_site_label
_atom_site_fract_x
_atom_site_fract_y
_atom_site_fract_z
Si Si1 0.311194 0.497951 0.010855
Si Si2 0.447970 0.277101 0.322809
Si Si3 0.200721 0.772504 0.858532
Si Si4 0.948298 0.168990 0.333744
Si Si5 0.381341 0.863288 0.199448
Si Si6 0.882735 0.035261 0.738116
Si Si7 0.222916 0.352901 0.652420
Si Si8 0.369524 0.082062 0.357878
O O1 0.334147 0.441127 0.158914
O O2 0.263040 0.568080 0.064640
O O3 0.297719 0.404461 0.885787
O O4 0.358965 0.561256 0.931219
O O5 0.500000 0.236283 0.250000
O O6 0.456216 0.339039 0.484304
O O7 0.424271 0.373391 0.218304
O O8 0.410343 0.173998 0.316765
O O9 0.156484 0.732065 0.751164
O O10 0.251131 0.757893 0.756833
O O11 0.195181 0.706955 0.014609
O O12 0.933750 0.297879 0.310740
O O13 0.000000 0.141825 0.250000
O O14 0.906427 0.086112 0.263649
O O15 0.390818 0.960816 0.320268
O O16 0.359939 0.912256 0.039448
O O17 0.182103 0.412313 0.760231
#
# Coordination Sequence:
#
# PCOD8248551 Si02
#       8
#     8   8   8   8   8   8   8   8
#     4  12  26  45  68 104 146 189 243 294 368 438
#     4  11  27  47  74 108 145 192 249 309 371 443
#     4  12  27  44  70  98 145 190 242 298 360 437
#     4  11  25  44  71 105 142 187 243 305 372 440
#     4  11  25  49  70 103 141 194 240 304 366 436
#     4  12  24  45  72 104 149 194 239 303 371 443
#     4  12  28  42  69 106 140 196 240 300 359 442
#     4  11  27  48  75 103 148 188 249 302 367 435
#
# _framework density 22.741381000000001
#
# number of rings (size 3 to 8) (size 9 to 14) (size 15 to 20)
#    0.000    0.500    3.750    2.625   12.250    3.500 
#    0.000    2.500    0.000    0.000    0.000    0.000 
#    0.000    0.000    0.000    0.000    0.000    0.000 
#
# Total GULP energy -793165.261074 kJ/mol
# GULP energy per Si atom -12393.207204 kJ/mol
# Density = 2.268962 g / cm^3
# Si number density = 22.741381 Si / 1000 Ang^3
#
#
#
# Elastic Constant Matrix: (Units=GPa)
#
#
# Indices 1 2 3 4 5 6 
#
# 1 104.6182 31.1793 33.6035 0.0000 0.0000 0.0000
# 2 31.1793 93.3843 23.2403 0.0000 0.0000 0.0000
# 3 33.6035 23.2403 77.7485 0.0000 0.0000 0.0000
# 4 0.0000 0.0000 0.0000 35.9036 0.0000 0.0000
# 5 0.0000 0.0000 0.0000 0.0000 34.5918 0.0000
# 6 0.0000 0.0000 0.0000 0.0000 0.0000 27.7923
#
#
#
# Elastic Compliance Matrix: (Units=1/GPa)
#
#
# Indices 1 2 3 4 5 6 
#
# 1 0.011775 -0.002879 -0.004229 0.000000 0.000000 0.000000
# 2 -0.002879 0.012273 -0.002424 0.000000 0.000000 0.000000
# 3 -0.004229 -0.002424 0.015414 0.000000 0.000000 0.000000
# 4 0.000000 0.000000 0.000000 0.027852 0.000000 0.000000
# 5 0.000000 0.000000 0.000000 0.000000 0.028909 0.000000
# 6 0.000000 0.000000 0.000000 0.000000 0.000000 0.035981
#
#
# Mechanical properties :
#
#
# Convention : Reuss Voigt Hill
#
# Bulk Modulus (GPa) = 49.02359 50.19969 49.61164
# Shear Modulus (GPa) = 31.63205 32.17272 31.90238
#
# Velocity S-wave (km/s) = 3.73359 3.76536 3.74951
# Velocity P-wave (km/s) = 6.33956 6.40515 6.37244
#
# Compressibility (1/GPa) = 0.02039834
#
# Stress axis : x y z
#
# Youngs Moduli (GPa) = 84.92690 81.47960 64.87495
#
# Poissons Ratio (x) = 0.23458 0.27433
# Poissons Ratio (y) = 0.24451 0.15727
# Poissons Ratio (z) = 0.35912 0.19753
#
# Static dielectric constant tensor:
#      x y z
#    x 3.956270 0.000000 0.000000 
#    y 0.000000 3.953480 0.000000 
#    z 0.000000 0.000000 4.319790 
# 
# 
# High freq. dielectric constant tensor:
#      x y z
#    x 1.894350 0.000000 0.000000 
#    y 0.000000 1.894920 0.000000 
#    z 0.000000 0.000000 1.915330 
# 
# From -- ./inp_files/8514.got.cif
#   From: 2010.03.12/outbox.cif.g09.slc.cpg/sg60_5_cif.got.tgz:8514.got - 2010.04.10 18:46:24.
