data_PCOD8248594
_publ_section_title
;
Structure prediction by ZEFSAII (Michael W. Deem and Ramdas Pophale) SiO2 
 PCOD8248594
Probable space group: P B C N
;
_chemical_formula_sum "Si O2"
_cell_formula_units_Z 20
_cell_length_a 7.679645
_cell_length_b 10.138839
_cell_length_c 8.021126
_cell_angle_alpha 90.000000
_cell_angle_beta 90.000000
_cell_angle_gamma 90.000000
_cell_volume 624.546401
_symmetry_space_group_name_H-M "P B C N"
_symmetry_group_IT_number 60
_symmetry_cell_setting 'orthorhombic'
loop_
_space_group_symop_operation_xyz
x,y,z
1/2-x,1/2-y,1/2+z
1/2+x,1/2-y,-z
-x,y,1/2-z
-x,-y,-z
1/2+x,1/2+y,1/2-z
1/2-x,1/2+y,z
x,-y,1/2+z
loop_
_atom_site_type_symbol
_atom_site_label
_atom_site_fract_x
_atom_site_fract_y
_atom_site_fract_z
Si Si1 0.000000 0.104537 0.750000
Si Si2 0.585182 0.255869 0.567773
Si Si3 0.332563 0.027833 0.349690
O O1 0.967528 0.189209 0.582804
O O2 0.173525 0.016567 0.728240
O O3 0.500000 0.274497 0.750000
O O4 0.763796 0.342475 0.552345
O O5 0.614245 0.099021 0.534411
O O6 0.500000 0.075692 0.250000
#
# Coordination Sequence:
#
# PCOD8248594 Si02
#       3
#     4   8   8
#     4  12  28  54  82 112 182 208 278 354 414 502
#     4  11  28  55  82 123 169 220 278 350 422 502
#     4  11  28  50  84 124 161 223 282 340 426 500
#
# _framework density 32.023243999999998
#
# number of rings (size 3 to 8) (size 9 to 14) (size 15 to 20)
#    0.000    0.800    2.000    1.200   14.000    1.600 
#    0.000    8.000    0.000    0.000    0.000    0.000 
#    0.000    0.000    0.000    0.000    0.000    0.000 
#
# Total GULP energy -247840.318385 kJ/mol
# GULP energy per Si atom -12392.015919 kJ/mol
# Density = 3.195036 g / cm^3
# Si number density = 32.023244 Si / 1000 Ang^3
#
#
#
# Elastic Constant Matrix: (Units=GPa)
#
#
# Indices 1 2 3 4 5 6 
#
# 1 118.5911 15.1804 30.7695 0.0000 0.0000 0.0000
# 2 15.1804 217.3053 47.1367 0.0000 0.0000 0.0000
# 3 30.7695 47.1367 185.7686 0.0000 0.0000 0.0000
# 4 0.0000 0.0000 0.0000 22.2011 0.0000 0.0000
# 5 0.0000 0.0000 0.0000 0.0000 22.2693 0.0000
# 6 0.0000 0.0000 0.0000 0.0000 0.0000 116.9952
#
#
#
# Elastic Compliance Matrix: (Units=1/GPa)
#
#
# Indices 1 2 3 4 5 6 
#
# 1 0.008832 -0.000317 -0.001382 0.000000 0.000000 0.000000
# 2 -0.000317 0.004881 -0.001186 0.000000 0.000000 0.000000
# 3 -0.001382 -0.001186 0.005913 0.000000 0.000000 0.000000
# 4 0.000000 0.000000 0.000000 0.045043 0.000000 0.000000
# 5 0.000000 0.000000 0.000000 0.000000 0.044905 0.000000
# 6 0.000000 0.000000 0.000000 0.000000 0.000000 0.008547
#
#
# Mechanical properties :
#
#
# Convention : Reuss Voigt Hill
#
# Bulk Modulus (GPa) = 72.17710 78.64868 75.41289
# Shear Modulus (GPa) = 38.90745 60.86502 49.88623
#
# Velocity S-wave (km/s) = 3.48943 4.36438 3.95120
# Velocity P-wave (km/s) = 6.23079 7.07179 6.66457
#
# Compressibility (1/GPa) = 0.01385481
#
# Stress axis : x y z
#
# Youngs Moduli (GPa) = 113.22997 204.86595 169.12036
#
# Poissons Ratio (x) = 0.06496 0.23378
# Poissons Ratio (y) = 0.03591 0.20058
# Poissons Ratio (z) = 0.15652 0.24298
#
# Static dielectric constant tensor:
#      x y z
#    x 6.521530 0.000000 0.000000 
#    y 0.000000 6.834300 0.000000 
#    z 0.000000 0.000000 5.613980 
# 
# 
# High freq. dielectric constant tensor:
#      x y z
#    x 2.358370 0.000000 0.000000 
#    y 0.000000 2.356780 0.000000 
#    z 0.000000 0.000000 2.302590 
# 
# From -- ./inp_files/3222.got.cif
#   From: 2010.03.12/outbox.cif.g09.slc.cpg/sg60_2_cif.got.tgz:3222.got - 2010.04.10 18:46:24.
