data_PCOD8248741
_publ_section_title
;
Structure prediction by ZEFSAII (Michael W. Deem and Ramdas Pophale) SiO2 
 PCOD8248741
Probable space group: P B C A
;
_chemical_formula_sum "Si O2"
_cell_formula_units_Z 64
_cell_length_a 16.594229
_cell_length_b 21.709652
_cell_length_c 9.388074
_cell_angle_alpha 90.000000
_cell_angle_beta 90.000000
_cell_angle_gamma 90.000000
_cell_volume 3382.100006
_symmetry_space_group_name_H-M "P B C A"
_symmetry_group_IT_number 61
_symmetry_cell_setting 'orthorhombic'
loop_
_space_group_symop_operation_xyz
x,y,z
1/2-x,-y,1/2+z
1/2+x,1/2-y,-z
-x,1/2+y,1/2-z
-x,-y,-z
1/2+x,y,1/2-z
1/2-x,1/2+y,z
x,1/2-y,1/2+z
loop_
_atom_site_type_symbol
_atom_site_label
_atom_site_fract_x
_atom_site_fract_y
_atom_site_fract_z
Si Si1 0.327059 0.704278 0.850276
Si Si2 0.096220 0.951761 0.611696
Si Si3 0.130942 0.006789 0.904639
Si Si4 0.944702 0.586592 0.964930
Si Si5 0.028640 0.379515 0.357566
Si Si6 0.697723 0.323489 0.473532
Si Si7 0.647603 0.897360 0.397178
Si Si8 0.278295 0.092820 0.901399
O O1 0.416880 0.680514 0.890341
O O2 0.317599 0.705757 0.680428
O O3 0.263734 0.658448 0.922765
O O4 0.307490 0.771588 0.907043
O O5 0.176221 0.920619 0.548205
O O6 0.018581 0.909018 0.576728
O O7 0.105401 0.959236 0.780502
O O8 0.087753 0.017322 0.535498
O O9 0.063008 0.058655 0.933472
O O10 0.212418 0.041604 0.859483
O O11 0.145780 0.967064 0.045076
O O12 0.974644 0.607626 0.810585
O O13 0.870672 0.627919 0.016854
O O14 0.939839 0.365723 0.418862
O O15 0.784852 0.356593 0.476239
O O16 0.660409 0.903881 0.229305
#
# Coordination Sequence:
#
# PCOD8248741 Si02
#       8
#     8   8   8   8   8   8   8   8
#     4   9  21  39  56  75 107 143 186 228 269 322
#     4  10  18  33  56  86 109 142 180 218 267 331
#     4  10  20  32  53  88 118 135 180 222 266 327
#     4   9  18  35  58  78 111 142 181 219 269 332
#     4   9  18  37  55  78 109 151 175 216 278 333
#     4  10  21  40  58  77 105 148 188 227 272 315
#     4  11  20  35  56  82 112 144 177 224 273 328
#     4  10  19  35  57  77 111 153 176 213 278 322
#
# _framework density 18.923152999999999
#
# number of rings (size 3 to 8) (size 9 to 14) (size 15 to 20)
#    0.000    2.250    1.250    4.125    0.000    1.000 
#    4.500    1.250    0.000    0.000    0.000    0.000 
#    0.000    0.000    0.000    0.000    0.000    0.000 
#
# Total GULP energy -793632.747982 kJ/mol
# GULP energy per Si atom -12400.511687 kJ/mol
# Density = 1.888008 g / cm^3
# Si number density = 18.923153 Si / 1000 Ang^3
#
#
#
# Elastic Constant Matrix: (Units=GPa)
#
#
# Indices 1 2 3 4 5 6 
#
# 1 146.0894 54.3747 30.1273 0.0000 0.0000 0.0000
# 2 54.3747 73.9112 24.1512 0.0000 0.0000 0.0000
# 3 30.1273 24.1512 25.3767 0.0000 0.0000 0.0000
# 4 0.0000 0.0000 0.0000 32.1442 0.0000 0.0000
# 5 0.0000 0.0000 0.0000 0.0000 17.3924 0.0000
# 6 0.0000 0.0000 0.0000 0.0000 0.0000 17.8534
#
#
#
# Elastic Compliance Matrix: (Units=1/GPa)
#
#
# Indices 1 2 3 4 5 6 
#
# 1 0.010272 -0.005184 -0.007261 0.000000 0.000000 0.000000
# 2 -0.005184 0.022253 -0.015023 0.000000 0.000000 0.000000
# 3 -0.007261 -0.015023 0.062324 0.000000 0.000000 0.000000
# 4 0.000000 0.000000 0.000000 0.031110 0.000000 0.000000
# 5 0.000000 0.000000 0.000000 0.000000 0.057497 0.000000
# 6 0.000000 0.000000 0.000000 0.000000 0.000000 0.056012
#
#
# Mechanical properties :
#
#
# Convention : Reuss Voigt Hill
#
# Bulk Modulus (GPa) = 25.05523 51.40931 38.23227
# Shear Modulus (GPa) = 16.24914 22.59294 19.42104
#
# Velocity S-wave (km/s) = 2.93352 3.45908 3.20708
# Velocity P-wave (km/s) = 4.97427 6.57115 5.82767
#
# Compressibility (1/GPa) = 0.03991182
#
# Stress axis : x y z
#
# Youngs Moduli (GPa) = 97.35026 44.93839 16.04509
#
# Poissons Ratio (x) = 0.23298 0.11651
# Poissons Ratio (y) = 0.50470 0.24105
# Poissons Ratio (z) = 0.70688 0.67512
#
# Static dielectric constant tensor:
#      x y z
#    x 3.665250 0.000000 0.000000 
#    y 0.000000 3.262550 0.000000 
#    z 0.000000 0.000000 3.192920 
# 
# 
# High freq. dielectric constant tensor:
#      x y z
#    x 1.751320 0.000000 0.000000 
#    y 0.000000 1.715290 0.000000 
#    z 0.000000 0.000000 1.716220 
# 
# From -- ./inp_files/3192.got.cif
#   From: 2010.03.12/outbox.cif.g09.slc.cpg/sg61_2_cif.got.tgz:3192.got - 2010.04.10 19:05:03.
