data_PCOD8248159
_publ_section_title
;
Structure prediction by ZEFSAII (Michael W. Deem and Ramdas Pophale) SiO2 
 PCOD8248159
Probable space group: P B C N
;
_chemical_formula_sum "Si O2"
_cell_formula_units_Z 60
_cell_length_a 11.873042
_cell_length_b 8.962340
_cell_length_c 25.521324
_cell_angle_alpha 90.000000
_cell_angle_beta 90.000000
_cell_angle_gamma 90.000000
_cell_volume 2715.730193
_symmetry_space_group_name_H-M "P B C N"
_symmetry_group_IT_number 60
_symmetry_cell_setting 'orthorhombic'
loop_
_space_group_symop_operation_xyz
x,y,z
1/2-x,1/2-y,1/2+z
1/2+x,1/2-y,-z
-x,y,1/2-z
-x,-y,-z
1/2+x,1/2+y,1/2-z
1/2-x,1/2+y,z
x,-y,1/2+z
loop_
_atom_site_type_symbol
_atom_site_label
_atom_site_fract_x
_atom_site_fract_y
_atom_site_fract_z
Si Si1 0.246711 0.939877 0.503886
Si Si2 0.838804 0.070528 0.163628
Si Si3 0.615525 0.808059 0.443235
Si Si4 0.658814 0.872748 0.327970
Si Si5 0.376958 0.753321 0.813437
Si Si6 0.626793 0.206539 0.307105
Si Si7 0.000000 0.801669 0.750000
Si Si8 0.377903 0.303708 0.947980
O O1 0.200034 0.832568 0.549974
O O2 0.290280 0.831295 0.457617
O O3 0.345361 0.042752 0.527082
O O4 0.151150 0.047642 0.480593
O O5 0.709433 0.114612 0.173648
O O6 0.924985 0.099004 0.211310
O O7 0.883988 0.156196 0.113040
O O8 0.835243 0.893225 0.156172
O O9 0.595986 0.849723 0.382744
O O10 0.497810 0.755791 0.467858
O O11 0.785124 0.811528 0.336974
O O12 0.588278 0.797787 0.281697
O O13 0.674932 0.041359 0.310281
O O14 0.379018 0.730962 0.751436
O O15 0.502996 0.791505 0.833666
#
# Coordination Sequence:
#
# PCOD8248159 Si02
#       8
#     8   8   8   8   8   8   4   8
#     4  10  24  44  68  98 132 168 228 286 332 398
#     4  12  25  42  68  99 136 182 224 271 336 405
#     4  11  23  44  69  99 132 175 220 280 343 397
#     4  12  25  42  68  99 136 182 224 271 336 405
#     4  11  25  42  63  93 136 180 228 271 325 391
#     4  11  25  42  63  93 136 180 228 271 325 391
#     4  12  24  40  68  96 144 176 222 274 324 398
#     4  11  23  44  69  99 132 175 220 280 343 397
#
# _framework density 22.093503999999999
#
# number of rings (size 3 to 8) (size 9 to 14) (size 15 to 20)
#    0.000    0.800    2.667    4.800    3.733    2.133 
#    0.000    6.667    0.000    0.000    0.000    0.000 
#    0.000    0.000    0.000    0.000    0.000    0.000 
#
# Total GULP energy -744132.678844 kJ/mol
# GULP energy per Si atom -12402.211314 kJ/mol
# Density = 2.204322 g / cm^3
# Si number density = 22.093504 Si / 1000 Ang^3
#
#
#
# Elastic Constant Matrix: (Units=GPa)
#
#
# Indices 1 2 3 4 5 6 
#
# 1 127.2961 43.9734 7.0538 0.0000 0.0000 0.0000
# 2 43.9734 126.2630 20.8173 0.0000 0.0000 0.0000
# 3 7.0538 20.8173 88.3764 0.0000 0.0000 0.0000
# 4 0.0000 0.0000 0.0000 23.0286 0.0000 0.0000
# 5 0.0000 0.0000 0.0000 0.0000 24.3931 0.0000
# 6 0.0000 0.0000 0.0000 0.0000 0.0000 33.4979
#
#
#
# Elastic Compliance Matrix: (Units=1/GPa)
#
#
# Indices 1 2 3 4 5 6 
#
# 1 0.008930 -0.003113 0.000021 0.000000 0.000000 0.000000
# 2 -0.003113 0.009325 -0.001948 0.000000 0.000000 0.000000
# 3 0.000021 -0.001948 0.011772 0.000000 0.000000 0.000000
# 4 0.000000 0.000000 0.000000 0.043424 0.000000 0.000000
# 5 0.000000 0.000000 0.000000 0.000000 0.040995 0.000000
# 6 0.000000 0.000000 0.000000 0.000000 0.000000 0.029853
#
#
# Mechanical properties :
#
#
# Convention : Reuss Voigt Hill
#
# Bulk Modulus (GPa) = 50.13512 53.95827 52.04669
# Shear Modulus (GPa) = 31.04994 34.18998 32.61996
#
# Velocity S-wave (km/s) = 3.75292 3.93811 3.84663
# Velocity P-wave (km/s) = 6.44366 6.71967 6.58311
#
# Compressibility (1/GPa) = 0.01994610
#
# Stress axis : x y z
#
# Youngs Moduli (GPa) = 111.98112 107.23297 84.94386
#
# Poissons Ratio (x) = 0.33387 -0.00175
# Poissons Ratio (y) = 0.34865 0.16548
# Poissons Ratio (z) = -0.00231 0.20891
#
# Static dielectric constant tensor:
#      x y z
#    x 4.168390 0.000000 0.000000 
#    y 0.000000 4.010570 0.000000 
#    z 0.000000 0.000000 3.796120 
# 
# 
# High freq. dielectric constant tensor:
#      x y z
#    x 1.879930 0.000000 0.000000 
#    y 0.000000 1.883210 0.000000 
#    z 0.000000 0.000000 1.854850 
# 
# From -- ./inp_files/25335.got.cif
#   From: 2010.03.12/outbox.cif.g09.slc.cpg/sg60_13_cif.got.tgz:25335.got - 2010.04.10 18:46:24.
