data_PCOD8248220
_publ_section_title
;
Structure prediction by ZEFSAII (Michael W. Deem and Ramdas Pophale) SiO2 
 PCOD8248220
Probable space group: P B C N
;
_chemical_formula_sum "Si O2"
_cell_formula_units_Z 60
_cell_length_a 11.268472
_cell_length_b 28.458716
_cell_length_c 8.615535
_cell_angle_alpha 90.000000
_cell_angle_beta 90.000000
_cell_angle_gamma 90.000000
_cell_volume 2762.883563
_symmetry_space_group_name_H-M "P B C N"
_symmetry_group_IT_number 60
_symmetry_cell_setting 'orthorhombic'
loop_
_space_group_symop_operation_xyz
x,y,z
1/2-x,1/2-y,1/2+z
1/2+x,1/2-y,-z
-x,y,1/2-z
-x,-y,-z
1/2+x,1/2+y,1/2-z
1/2-x,1/2+y,z
x,-y,1/2+z
loop_
_atom_site_type_symbol
_atom_site_label
_atom_site_fract_x
_atom_site_fract_y
_atom_site_fract_z
Si Si1 0.000000 0.408583 0.250000
Si Si2 0.366501 0.515281 0.016395
Si Si3 0.071780 0.112208 0.101991
Si Si4 0.899697 0.855334 0.361568
Si Si5 0.765502 0.709163 0.056761
Si Si6 0.247271 0.194674 0.095166
Si Si7 0.754274 0.057970 0.780666
Si Si8 0.002855 0.650486 0.071538
O O1 0.113774 0.441853 0.241795
O O2 0.009996 0.382040 0.417597
O O3 0.364860 0.561637 0.127905
O O4 0.282838 0.472427 0.067129
O O5 0.500000 0.500000 0.000000
O O6 0.320051 0.529715 0.850706
O O7 0.172211 0.148958 0.049924
O O8 0.000000 0.130014 0.250000
O O9 0.971405 0.108574 0.970672
O O10 0.835945 0.812104 0.445824
O O11 0.800447 0.888189 0.281814
O O12 0.000000 0.832840 0.250000
O O13 0.715966 0.708609 0.229888
O O14 0.884368 0.679512 0.044641
O O15 0.792969 0.762758 0.013762
O O16 0.385865 0.185284 0.068085
O O17 0.000000 0.627206 0.250000
#
# Coordination Sequence:
#
# PCOD8248220 Si02
#       8
#     4   8   8   8   8   8   8   8
#     4  12  26  50  78 100 150 202 254 302 364 460
#     4  12  24  45  73 108 146 179 236 310 372 445
#     4  12  24  42  70 101 140 184 232 299 363 432
#     4  12  24  44  71 104 141 180 240 298 366 439
#     4  11  26  45  70 102 149 187 247 309 367 450
#     4  11  27  43  68 110 138 197 247 300 377 438
#     4  12  26  46  71 110 140 192 241 292 386 439
#     4  10  25  48  71 103 148 202 248 301 371 444
#
# _framework density 21.716443000000002
#
# number of rings (size 3 to 8) (size 9 to 14) (size 15 to 20)
#    0.000    0.533    5.333    2.000    5.600    1.067 
#    2.400    0.000    0.000    0.000    0.000    0.000 
#    0.000    0.000    0.000    0.000    0.000    0.000 
#
# Total GULP energy -743731.150746 kJ/mol
# GULP energy per Si atom -12395.519179 kJ/mol
# Density = 2.166702 g / cm^3
# Si number density = 21.716443 Si / 1000 Ang^3
#
#
#
# Elastic Constant Matrix: (Units=GPa)
#
#
# Indices 1 2 3 4 5 6 
#
# 1 118.2003 35.8754 33.8771 0.0000 0.0000 0.0000
# 2 35.8754 107.4051 28.4491 0.0000 0.0000 0.0000
# 3 33.8771 28.4491 110.1137 0.0000 0.0000 0.0000
# 4 0.0000 0.0000 0.0000 38.8238 0.0000 0.0000
# 5 0.0000 0.0000 0.0000 0.0000 38.0457 0.0000
# 6 0.0000 0.0000 0.0000 0.0000 0.0000 25.1859
#
#
#
# Elastic Compliance Matrix: (Units=1/GPa)
#
#
# Indices 1 2 3 4 5 6 
#
# 1 0.009958 -0.002699 -0.002366 0.000000 0.000000 0.000000
# 2 -0.002699 0.010726 -0.001941 0.000000 0.000000 0.000000
# 3 -0.002366 -0.001941 0.010311 0.000000 0.000000 0.000000
# 4 0.000000 0.000000 0.000000 0.025757 0.000000 0.000000
# 5 0.000000 0.000000 0.000000 0.000000 0.026284 0.000000
# 6 0.000000 0.000000 0.000000 0.000000 0.000000 0.039705
#
#
# Mechanical properties :
#
#
# Convention : Reuss Voigt Hill
#
# Bulk Modulus (GPa) = 58.88474 59.12470 59.00472
# Shear Modulus (GPa) = 35.10883 36.24558 35.67721
#
# Velocity S-wave (km/s) = 4.02517 4.08982 4.05763
# Velocity P-wave (km/s) = 6.98404 7.04181 7.01298
#
# Compressibility (1/GPa) = 0.01698233
#
# Stress axis : x y z
#
# Youngs Moduli (GPa) = 100.42539 93.22940 96.98475
#
# Poissons Ratio (x) = 0.25166 0.22948
# Poissons Ratio (y) = 0.27108 0.18823
# Poissons Ratio (z) = 0.23762 0.18094
#
# Static dielectric constant tensor:
#      x y z
#    x 4.008940 0.000000 0.000000 
#    y 0.000000 3.819060 0.000000 
#    z 0.000000 0.000000 4.312810 
# 
# 
# High freq. dielectric constant tensor:
#      x y z
#    x 1.864040 0.000000 0.000000 
#    y 0.000000 1.841000 0.000000 
#    z 0.000000 0.000000 1.869700 
# 
# From -- ./inp_files/5239.got.cif
#   From: 2010.03.12/outbox.cif.g09.slc.cpg/sg60_3_cif.got.tgz:5239.got - 2010.04.10 18:46:24.
