data_PCOD8248100
_publ_section_title
;
Structure prediction by ZEFSAII (Michael W. Deem and Ramdas Pophale) SiO2 
 PCOD8248100
Probable space group: P B C N
;
_chemical_formula_sum "Si O2"
_cell_formula_units_Z 36
_cell_length_a 9.488617
_cell_length_b 20.892978
_cell_length_c 8.647557
_cell_angle_alpha 90.000000
_cell_angle_beta 90.000000
_cell_angle_gamma 90.000000
_cell_volume 1714.338969
_symmetry_space_group_name_H-M "P B C N"
_symmetry_group_IT_number 60
_symmetry_cell_setting 'orthorhombic'
loop_
_space_group_symop_operation_xyz
x,y,z
1/2-x,1/2-y,1/2+z
1/2+x,1/2-y,-z
-x,y,1/2-z
-x,-y,-z
1/2+x,1/2+y,1/2-z
1/2-x,1/2+y,z
x,-y,1/2+z
loop_
_atom_site_type_symbol
_atom_site_label
_atom_site_fract_x
_atom_site_fract_y
_atom_site_fract_z
Si Si1 0.500000 0.981997 0.250000
Si Si2 0.377550 0.790741 0.853336
Si Si3 0.028195 0.067473 0.423849
Si Si4 0.851824 0.421921 0.526520
Si Si5 0.880113 0.805526 0.871152
O O1 0.602831 0.938644 0.352743
O O2 0.604282 0.022818 0.144144
O O3 0.500000 0.759152 0.750000
O O4 0.431995 0.856576 0.930060
O O5 0.253495 0.811301 0.738822
O O6 0.339741 0.743157 0.992455
O O7 0.184800 0.090114 0.466373
O O8 0.000000 0.049901 0.250000
O O9 0.922296 0.127446 0.456923
O O10 0.000000 0.000000 0.500000
O O11 0.000000 0.782317 0.750000
#
# Coordination Sequence:
#
# PCOD8248100 Si02
#       5
#     4   8   8   8   8
#     4  10  24  40  68 100 142 180 224 284 362 424
#     4  12  25  44  70  97 137 184 233 295 351 425
#     4  11  23  43  69  97 135 178 229 292 353 421
#     4  11  22  43  65 100 136 179 230 287 350 426
#     4  11  25  47  68 101 140 183 239 294 358 424
#
# _framework density 20.999348000000001
#
# number of rings (size 3 to 8) (size 9 to 14) (size 15 to 20)
#    0.000    0.889    5.556    2.667    1.556    0.889 
#    4.000    0.000    0.000    0.000    0.000    0.000 
#    0.000    0.000    0.000    0.000    0.000    0.000 
#
# Total GULP energy -446127.926888 kJ/mol
# GULP energy per Si atom -12392.442414 kJ/mol
# Density = 2.095155 g / cm^3
# Si number density = 20.999348 Si / 1000 Ang^3
#
#
#
# Elastic Constant Matrix: (Units=GPa)
#
#
# Indices 1 2 3 4 5 6 
#
# 1 103.4075 33.6825 39.8904 0.0000 0.0000 0.0000
# 2 33.6825 130.7042 71.6040 0.0000 0.0000 0.0000
# 3 39.8904 71.6040 125.4346 0.0000 0.0000 0.0000
# 4 0.0000 0.0000 0.0000 39.1578 0.0000 0.0000
# 5 0.0000 0.0000 0.0000 0.0000 40.8146 0.0000
# 6 0.0000 0.0000 0.0000 0.0000 0.0000 24.2101
#
#
#
# Elastic Compliance Matrix: (Units=1/GPa)
#
#
# Indices 1 2 3 4 5 6 
#
# 1 0.011186 -0.001359 -0.002782 0.000000 0.000000 0.000000
# 2 -0.001359 0.011297 -0.006017 0.000000 0.000000 0.000000
# 3 -0.002782 -0.006017 0.012292 0.000000 0.000000 0.000000
# 4 0.000000 0.000000 0.000000 0.025538 0.000000 0.000000
# 5 0.000000 0.000000 0.000000 0.000000 0.024501 0.000000
# 6 0.000000 0.000000 0.000000 0.000000 0.000000 0.041305
#
#
# Mechanical properties :
#
#
# Convention : Reuss Voigt Hill
#
# Bulk Modulus (GPa) = 69.15504 72.21114 70.68309
# Shear Modulus (GPa) = 33.05701 35.12778 34.09240
#
# Velocity S-wave (km/s) = 3.97191 4.09443 4.03364
# Velocity P-wave (km/s) = 7.35107 7.53754 7.44489
#
# Compressibility (1/GPa) = 0.01446026
#
# Stress axis : x y z
#
# Youngs Moduli (GPa) = 89.39635 88.51691 81.35593
#
# Poissons Ratio (x) = 0.12027 0.22631
# Poissons Ratio (y) = 0.12147 0.48951
# Poissons Ratio (z) = 0.24868 0.53260
#
# Static dielectric constant tensor:
#      x y z
#    x 4.105430 0.000000 0.000000 
#    y 0.000000 4.343190 0.000000 
#    z 0.000000 0.000000 4.058060 
# 
# 
# High freq. dielectric constant tensor:
#      x y z
#    x 1.824190 0.000000 0.000000 
#    y 0.000000 1.829330 0.000000 
#    z 0.000000 0.000000 1.831980 
# 
# From -- ./inp_files/3665.got.cif
#   From: 2010.03.12/outbox.cif.g09.slc.cpg/sg60_2_cif.got.tgz:3665.got - 2010.04.10 18:46:24.
