data_PCOD8248914
_publ_section_title
;
Structure prediction by ZEFSAII (Michael W. Deem and Ramdas Pophale) SiO2 
 PCOD8248914
Probable space group: P B C A
;
_chemical_formula_sum "Si O2"
_cell_formula_units_Z 64
_cell_length_a 8.527937
_cell_length_b 17.917368
_cell_length_c 21.877745
_cell_angle_alpha 90.000000
_cell_angle_beta 90.000000
_cell_angle_gamma 90.000000
_cell_volume 3342.879739
_symmetry_space_group_name_H-M "P B C A"
_symmetry_group_IT_number 61
_symmetry_cell_setting 'orthorhombic'
loop_
_space_group_symop_operation_xyz
x,y,z
1/2-x,-y,1/2+z
1/2+x,1/2-y,-z
-x,1/2+y,1/2-z
-x,-y,-z
1/2+x,y,1/2-z
1/2-x,1/2+y,z
x,1/2-y,1/2+z
loop_
_atom_site_type_symbol
_atom_site_label
_atom_site_fract_x
_atom_site_fract_y
_atom_site_fract_z
Si Si1 0.367771 0.932268 0.146976
Si Si2 0.426687 0.421919 0.931459
Si Si3 0.677492 0.008988 0.143048
Si Si4 0.570116 0.584229 0.931488
Si Si5 0.626853 0.367830 0.173607
Si Si6 0.454568 0.189151 0.786546
Si Si7 0.964506 0.644809 0.312933
Si Si8 0.783081 0.057652 0.258983
O O1 0.517236 0.974697 0.117413
O O2 0.244334 0.914196 0.094948
O O3 0.427816 0.851720 0.167819
O O4 0.300669 0.979989 0.203808
O O5 0.248487 0.442047 0.911834
O O6 0.525737 0.497500 0.929135
O O7 0.496580 0.360118 0.885168
O O8 0.428046 0.386326 0.998928
O O9 0.806569 0.951494 0.171962
O O10 0.646951 0.054094 0.205687
O O11 0.453128 0.639526 0.893827
O O12 0.773715 0.314315 0.190330
O O13 0.483539 0.351104 0.220720
O O14 0.502693 0.274858 0.784698
O O15 0.061354 0.582310 0.276323
O O16 0.781449 0.622312 0.304446
#
# Coordination Sequence:
#
# PCOD8248914 Si02
#       8
#     8   8   8   8   8   8   8   8
#     4  11  20  33  58  85 111 149 196 239 283 348
#     4   9  20  37  56  81 117 151 193 235 289 339
#     4   9  19  32  55  84 111 144 186 239 284 336
#     4  10  20  36  59  83 108 155 198 237 279 342
#     4  10  20  34  54  80 111 146 189 235 280 345
#     4  11  22  35  55  85 117 146 191 241 296 351
#     4  11  22  36  56  84 119 152 184 242 299 341
#     4  11  19  33  54  83 113 146 186 236 294 338
#
# _framework density 19.145168999999999
#
# number of rings (size 3 to 8) (size 9 to 14) (size 15 to 20)
#    0.000    1.750    3.750    1.500    1.750    0.500 
#    0.000    1.250    0.000    0.000    0.000    0.000 
#    0.000    0.000    0.000    0.000    0.000    0.000 
#
# Total GULP energy -792881.764210 kJ/mol
# GULP energy per Si atom -12388.777566 kJ/mol
# Density = 1.910159 g / cm^3
# Si number density = 19.145169 Si / 1000 Ang^3
#
#
#
# Elastic Constant Matrix: (Units=GPa)
#
#
# Indices 1 2 3 4 5 6 
#
# 1 81.2297 15.7620 56.0313 0.0000 0.0000 0.0000
# 2 15.7620 41.6203 12.0296 0.0000 0.0000 0.0000
# 3 56.0313 12.0296 129.7277 0.0000 0.0000 0.0000
# 4 0.0000 0.0000 0.0000 16.3900 0.0000 0.0000
# 5 0.0000 0.0000 0.0000 0.0000 25.4434 0.0000
# 6 0.0000 0.0000 0.0000 0.0000 0.0000 19.3610
#
#
#
# Elastic Compliance Matrix: (Units=1/GPa)
#
#
# Indices 1 2 3 4 5 6 
#
# 1 0.018426 -0.004807 -0.007513 0.000000 0.000000 0.000000
# 2 -0.004807 0.025942 -0.000330 0.000000 0.000000 0.000000
# 3 -0.007513 -0.000330 0.010984 0.000000 0.000000 0.000000
# 4 0.000000 0.000000 0.000000 0.061013 0.000000 0.000000
# 5 0.000000 0.000000 0.000000 0.000000 0.039303 0.000000
# 6 0.000000 0.000000 0.000000 0.000000 0.000000 0.051650
#
#
# Mechanical properties :
#
#
# Convention : Reuss Voigt Hill
#
# Bulk Modulus (GPa) = 33.27319 46.69149 39.98234
# Shear Modulus (GPa) = 20.60725 23.48919 22.04822
#
# Velocity S-wave (km/s) = 3.28436 3.50651 3.39725
# Velocity P-wave (km/s) = 5.63914 6.39025 6.02641
#
# Compressibility (1/GPa) = 0.03005423
#
# Stress axis : x y z
#
# Youngs Moduli (GPa) = 54.27255 38.54708 91.04315
#
# Poissons Ratio (x) = 0.18528 0.68397
# Poissons Ratio (y) = 0.26086 0.03001
# Poissons Ratio (z) = 0.40773 0.01270
#
# Static dielectric constant tensor:
#      x y z
#    x 3.626620 0.000000 0.000000 
#    y 0.000000 3.128390 0.000000 
#    z 0.000000 0.000000 3.578320 
# 
# 
# High freq. dielectric constant tensor:
#      x y z
#    x 1.753670 0.000000 0.000000 
#    y 0.000000 1.711780 0.000000 
#    z 0.000000 0.000000 1.731800 
# 
# From -- ./inp_files/9788.got.cif
#   From: 2010.03.12/outbox.cif.g09.slc.cpg/sg61_5_cif.got.tgz:9788.got - 2010.04.10 19:05:03.
