data_PCOD8248596
_publ_section_title
;
Structure prediction by ZEFSAII (Michael W. Deem and Ramdas Pophale) SiO2 
 PCOD8248596
Probable space group: P B C N
;
_chemical_formula_sum "Si O2"
_cell_formula_units_Z 24
_cell_length_a 14.019708
_cell_length_b 16.300177
_cell_length_c 5.206341
_cell_angle_alpha 90.000000
_cell_angle_beta 90.000000
_cell_angle_gamma 90.000000
_cell_volume 1189.772423
_symmetry_space_group_name_H-M "P B C N"
_symmetry_group_IT_number 60
_symmetry_cell_setting 'orthorhombic'
loop_
_space_group_symop_operation_xyz
x,y,z
1/2-x,1/2-y,1/2+z
1/2+x,1/2-y,-z
-x,y,1/2-z
-x,-y,-z
1/2+x,1/2+y,1/2-z
1/2-x,1/2+y,z
x,-y,1/2+z
loop_
_atom_site_type_symbol
_atom_site_label
_atom_site_fract_x
_atom_site_fract_y
_atom_site_fract_z
Si Si1 0.190606 0.529170 0.735852
Si Si2 0.801946 0.720015 0.836615
Si Si3 0.500000 0.185758 0.750000
Si Si4 0.500000 0.925730 0.750000
O O1 0.245833 0.479629 0.508651
O O2 0.184641 0.622452 0.650756
O O3 0.089543 0.485029 0.814909
O O4 0.732793 0.749168 0.612046
O O5 0.910943 0.748405 0.791646
O O6 0.521461 0.130584 0.497694
#
# Coordination Sequence:
#
# PCOD8248596 Si02
#       4
#     8   8   4   4
#     4  12  20  35  58  90 122 154 195 247 306 379
#     4  12  25  39  56  92 131 165 197 241 314 374
#     4  12  23  40  64  90 134 155 194 257 308 378
#     4  12  19  36  64  98 116 145 198 257 340 360
#
# _framework density 20.171927
#
# number of rings (size 3 to 8) (size 9 to 14) (size 15 to 20)
#    0.000    0.000    6.667    6.000    0.000    0.000 
#    0.000    0.000    0.000    0.000    0.000   23.333 
#    0.000    0.000    0.000    0.000    0.000    0.000 
#
# Total GULP energy -297335.788961 kJ/mol
# GULP energy per Si atom -12388.991207 kJ/mol
# Density = 2.012601 g / cm^3
# Si number density = 20.171927 Si / 1000 Ang^3
#
#
#
# Elastic Constant Matrix: (Units=GPa)
#
#
# Indices 1 2 3 4 5 6 
#
# 1 65.8913 19.6890 -2.5834 0.0000 0.0000 0.0000
# 2 19.6890 49.3548 6.1171 0.0000 0.0000 0.0000
# 3 -2.5834 6.1171 113.1678 0.0000 0.0000 0.0000
# 4 0.0000 0.0000 0.0000 -411.1794 0.0000 0.0000
# 5 0.0000 0.0000 0.0000 0.0000 24.3796 0.0000
# 6 0.0000 0.0000 0.0000 0.0000 0.0000 32.2636
#
#
#
# Elastic Compliance Matrix: (Units=1/GPa)
#
#
# Indices 1 2 3 4 5 6 
#
# 1 0.017297 -0.006996 0.000773 0.000000 0.000000 0.000000
# 2 -0.006996 0.023228 -0.001415 0.000000 0.000000 0.000000
# 3 0.000773 -0.001415 0.008931 0.000000 0.000000 0.000000
# 4 0.000000 0.000000 0.000000 -0.002432 0.000000 0.000000
# 5 0.000000 0.000000 0.000000 0.000000 0.041018 0.000000
# 6 0.000000 0.000000 0.000000 0.000000 0.000000 0.030995
#
#
# Mechanical properties :
#
#
# Convention : Reuss Voigt Hill
#
# Bulk Modulus (GPa) = 29.25778 30.53991 29.89885
# Shear Modulus (GPa) = 34.31565 -57.22782 -11.45608
#
# Velocity S-wave (km/s) = 4.12899 -5.33213 -2.38570
# Velocity P-wave (km/s) = 6.10467 4.76824 2.69545
#
# Compressibility (1/GPa) = 0.03417894
#
# Stress axis : x y z
#
# Youngs Moduli (GPa) = 57.81234 43.05184 111.97479
#
# Poissons Ratio (x) = 0.30120 -0.08656
# Poissons Ratio (y) = 0.40447 0.15847
# Poissons Ratio (z) = -0.04469 0.06093
#
# Static dielectric constant tensor:
#      x y z
#    x 3.793480 0.000000 0.000000 
#    y 0.000000 3.545640 0.000000 
#    z 0.000000 0.000000 4.776350 
# 
# 
# High freq. dielectric constant tensor:
#      x y z
#    x 1.732540 0.000000 0.000000 
#    y 0.000000 1.760590 0.000000 
#    z 0.000000 0.000000 1.846610 
# 
# From -- ./inp_files/573.got.cif
#   From: 2010.03.12/outbox.cif.g09.slc.cpg/sg60_1_cif.got.tgz:573.got - 2010.04.10 18:46:24.
