data_PCOD8248377
_publ_section_title
;
Structure prediction by ZEFSAII (Michael W. Deem and Ramdas Pophale) SiO2 
 PCOD8248377
Probable space group: P B C N
;
_chemical_formula_sum "Si O2"
_cell_formula_units_Z 40
_cell_length_a 10.029854
_cell_length_b 20.984254
_cell_length_c 8.569650
_cell_angle_alpha 90.000000
_cell_angle_beta 90.000000
_cell_angle_gamma 90.000000
_cell_volume 1803.645699
_symmetry_space_group_name_H-M "P B C N"
_symmetry_group_IT_number 60
_symmetry_cell_setting 'orthorhombic'
loop_
_space_group_symop_operation_xyz
x,y,z
1/2-x,1/2-y,1/2+z
1/2+x,1/2-y,-z
-x,y,1/2-z
-x,-y,-z
1/2+x,1/2+y,1/2-z
1/2-x,1/2+y,z
x,-y,1/2+z
loop_
_atom_site_type_symbol
_atom_site_label
_atom_site_fract_x
_atom_site_fract_y
_atom_site_fract_z
Si Si1 0.133698 0.803950 0.668758
Si Si2 0.798260 0.493781 0.555694
Si Si3 0.367706 0.549661 0.173331
Si Si4 0.605265 0.219068 0.127240
Si Si5 0.005632 0.603837 0.575646
O O1 0.113338 0.877279 0.627305
O O2 0.259661 0.798291 0.782948
O O3 0.153044 0.767373 0.506107
O O4 0.000000 0.776969 0.750000
O O5 0.654229 0.508217 0.481374
O O6 0.766670 0.461425 0.721558
O O7 0.872487 0.444605 0.442675
O O8 0.872153 0.562277 0.555679
O O9 0.500000 0.521985 0.250000
O O10 0.500000 0.250027 0.250000
O O11 0.525232 0.159195 0.051995
O O12 0.000000 0.633531 0.750000
#
# Coordination Sequence:
#
# PCOD8248377 Si02
#       5
#     8   8   8   8   8
#     4  11  25  45  68 101 142 187 236 287 352 420
#     4  11  22  41  65 104 134 180 228 286 351 402
#     4  11  23  42  65  95 143 187 226 281 346 427
#     4  12  25  46  73 100 137 186 236 297 350 420
#     4  11  23  39  71 103 139 172 229 295 351 407
#
# _framework density 22.177303999999999
#
# number of rings (size 3 to 8) (size 9 to 14) (size 15 to 20)
#    0.000    0.800    4.000    3.600    0.000    1.600 
#    0.000    1.000    0.000    0.000    0.000    0.000 
#    0.000    0.000    0.000    0.000    0.000    0.000 
#
# Total GULP energy -495810.968542 kJ/mol
# GULP energy per Si atom -12395.274214 kJ/mol
# Density = 2.212683 g / cm^3
# Si number density = 22.177304 Si / 1000 Ang^3
#
#
#
# Elastic Constant Matrix: (Units=GPa)
#
#
# Indices 1 2 3 4 5 6 
#
# 1 78.8087 21.1728 22.4391 0.0000 0.0000 0.0000
# 2 21.1728 72.2589 38.0056 0.0000 0.0000 0.0000
# 3 22.4391 38.0056 111.5231 0.0000 0.0000 0.0000
# 4 0.0000 0.0000 0.0000 26.0453 0.0000 0.0000
# 5 0.0000 0.0000 0.0000 0.0000 45.4135 0.0000
# 6 0.0000 0.0000 0.0000 0.0000 0.0000 27.7572
#
#
#
# Elastic Compliance Matrix: (Units=1/GPa)
#
#
# Indices 1 2 3 4 5 6 
#
# 1 0.014043 -0.003203 -0.001734 0.000000 0.000000 0.000000
# 2 -0.003203 0.017592 -0.005351 0.000000 0.000000 0.000000
# 3 -0.001734 -0.005351 0.011139 0.000000 0.000000 0.000000
# 4 0.000000 0.000000 0.000000 0.038395 0.000000 0.000000
# 5 0.000000 0.000000 0.000000 0.000000 0.022020 0.000000
# 6 0.000000 0.000000 0.000000 0.000000 0.000000 0.036027
#
#
# Mechanical properties :
#
#
# Convention : Reuss Voigt Hill
#
# Bulk Modulus (GPa) = 45.04694 47.31396 46.18045
# Shear Modulus (GPa) = 29.90608 31.90807 30.90707
#
# Velocity S-wave (km/s) = 3.67618 3.79723 3.73719
# Velocity P-wave (km/s) = 6.19478 6.37228 6.28416
#
# Compressibility (1/GPa) = 0.02219907
#
# Stress axis : x y z
#
# Youngs Moduli (GPa) = 71.20904 56.84453 89.77384
#
# Poissons Ratio (x) = 0.18206 0.15568
# Poissons Ratio (y) = 0.22806 0.48035
# Poissons Ratio (z) = 0.12348 0.30416
#
# Static dielectric constant tensor:
#      x y z
#    x 4.062200 0.000000 0.000000 
#    y 0.000000 3.773990 0.000000 
#    z 0.000000 0.000000 4.071890 
# 
# 
# High freq. dielectric constant tensor:
#      x y z
#    x 1.883020 0.000000 0.000000 
#    y 0.000000 1.861080 0.000000 
#    z 0.000000 0.000000 1.885260 
# 
# From -- ./inp_files/3869.got.cif
#   From: 2010.03.12/outbox.cif.g09.slc.cpg/sg60_2_cif.got.tgz:3869.got - 2010.04.10 18:46:24.
