data_PCOD8248699
_publ_section_title
;
Structure prediction by ZEFSAII (Michael W. Deem and Ramdas Pophale) SiO2 
 PCOD8248699
Probable space group: P B C A
;
_chemical_formula_sum "Si O2"
_cell_formula_units_Z 64
_cell_length_a 5.248122
_cell_length_b 26.003794
_cell_length_c 27.549909
_cell_angle_alpha 90.000000
_cell_angle_beta 90.000000
_cell_angle_gamma 90.000000
_cell_volume 3759.765928
_symmetry_space_group_name_H-M "P B C A"
_symmetry_group_IT_number 61
_symmetry_cell_setting 'orthorhombic'
loop_
_space_group_symop_operation_xyz
x,y,z
1/2-x,-y,1/2+z
1/2+x,1/2-y,-z
-x,1/2+y,1/2-z
-x,-y,-z
1/2+x,y,1/2-z
1/2-x,1/2+y,z
x,1/2-y,1/2+z
loop_
_atom_site_type_symbol
_atom_site_label
_atom_site_fract_x
_atom_site_fract_y
_atom_site_fract_z
Si Si1 0.997891 0.882983 0.942300
Si Si2 0.501681 0.057851 0.942292
Si Si3 0.530453 0.216939 0.380987
Si Si4 0.961530 0.807434 0.770800
Si Si5 0.961241 0.807363 0.229144
Si Si6 0.030499 0.283071 0.381019
Si Si7 0.501683 0.442176 0.557733
Si Si8 0.502105 0.382957 0.057650
O O1 0.245805 0.913485 0.923465
O O2 0.003498 0.825900 0.921602
O O3 0.747947 0.912611 0.923088
O O4 0.997334 0.878460 0.999974
O O5 0.252145 0.087457 0.923125
O O6 0.754287 0.086517 0.923504
O O7 0.499911 0.000018 0.921287
O O8 0.499391 0.056108 0.000012
O O9 0.507343 0.191368 0.328304
O O10 0.307375 0.258244 0.387997
O O11 0.807374 0.241756 0.387919
O O12 0.701808 0.836130 0.754197
O O13 0.927674 0.750078 0.749869
O O14 0.701557 0.836011 0.245830
O O15 0.992178 0.808734 0.171636
O O16 0.996274 0.325860 0.421677
#
# Coordination Sequence:
#
# PCOD8248699 Si02
#       8
#     8   8   8   8   8   8   8   8
#     4  10  21  33  46  72 102 127 165 196 224 292
#     4   9  17  33  54  70  90 123 160 208 252 270
#     4  12  21  31  48  68  99 140 160 190 234 279
#     4  10  16  30  47  65  86 120 157 210 237 258
#     4  10  16  30  47  65  86 120 157 210 237 258
#     4  12  21  31  48  68  99 140 160 190 234 279
#     4   9  17  33  54  70  90 123 160 208 252 270
#     4  10  21  33  46  72 102 127 165 196 224 292
#
# _framework density 17.022337
#
# number of rings (size 3 to 8) (size 9 to 14) (size 15 to 20)
#    0.000    1.750    5.000    2.250    0.000    4.000 
#    0.000    0.000    0.000    0.000    0.000    0.000 
#    0.000   20.000    0.000    0.000    0.000    0.000 
#
# Total GULP energy -793501.210014 kJ/mol
# GULP energy per Si atom -12398.456406 kJ/mol
# Density = 1.698359 g / cm^3
# Si number density = 17.022337 Si / 1000 Ang^3
#
#
#
# Elastic Constant Matrix: (Units=GPa)
#
#
# Indices 1 2 3 4 5 6 
#
# 1 145.4631 32.7127 19.5662 0.0000 0.0000 0.0000
# 2 32.7127 64.4778 25.8548 0.0000 0.0000 0.0000
# 3 19.5662 25.8548 36.9510 0.0000 0.0000 0.0000
# 4 0.0000 0.0000 0.0000 1.0644 0.0000 0.0000
# 5 0.0000 0.0000 0.0000 0.0000 16.0134 0.0000
# 6 0.0000 0.0000 0.0000 0.0000 0.0000 13.0816
#
#
#
# Elastic Compliance Matrix: (Units=1/GPa)
#
#
# Indices 1 2 3 4 5 6 
#
# 1 0.007855 -0.003221 -0.001906 0.000000 0.000000 0.000000
# 2 -0.003221 0.022879 -0.014303 0.000000 0.000000 0.000000
# 3 -0.001906 -0.014303 0.038080 0.000000 0.000000 0.000000
# 4 0.000000 0.000000 0.000000 0.939525 0.000000 0.000000
# 5 0.000000 0.000000 0.000000 0.000000 0.062448 0.000000
# 6 0.000000 0.000000 0.000000 0.000000 0.000000 0.076443
#
#
# Mechanical properties :
#
#
# Convention : Reuss Voigt Hill
#
# Bulk Modulus (GPa) = 33.38386 44.79549 39.08968
# Shear Modulus (GPa) = 4.18034 17.28240 10.73137
#
# Velocity S-wave (km/s) = 1.56880 3.18980 2.51356
# Velocity P-wave (km/s) = 4.78914 6.31975 5.60692
#
# Compressibility (1/GPa) = 0.02995459
#
# Stress axis : x y z
#
# Youngs Moduli (GPa) = 127.30189 43.70869 26.26075
#
# Poissons Ratio (x) = 0.14080 0.05004
# Poissons Ratio (y) = 0.41007 0.37560
# Poissons Ratio (z) = 0.24259 0.62515
#
# Static dielectric constant tensor:
#      x y z
#    x 4.264680 0.000000 0.000000 
#    y 0.000000 2.921490 0.000000 
#    z 0.000000 0.000000 2.912050 
# 
# 
# High freq. dielectric constant tensor:
#      x y z
#    x 1.693680 0.000000 0.000000 
#    y 0.000000 1.615860 0.000000 
#    z 0.000000 0.000000 1.624310 
# 
# From -- ./inp_files/11300.got.cif
#   From: 2010.03.12/outbox.cif.g09.slc.cpg/sg61_6_cif.got.tgz:11300.got - 2010.04.10 19:05:03.
