data_PCOD8248857
_publ_section_title
;
Structure prediction by ZEFSAII (Michael W. Deem and Ramdas Pophale) SiO2 
 PCOD8248857
Probable space group: P B C A
;
_chemical_formula_sum "Si O2"
_cell_formula_units_Z 64
_cell_length_a 18.306339
_cell_length_b 18.889823
_cell_length_c 9.721537
_cell_angle_alpha 90.000000
_cell_angle_beta 90.000000
_cell_angle_gamma 90.000000
_cell_volume 3361.741554
_symmetry_space_group_name_H-M "P B C A"
_symmetry_group_IT_number 61
_symmetry_cell_setting 'orthorhombic'
loop_
_space_group_symop_operation_xyz
x,y,z
1/2-x,-y,1/2+z
1/2+x,1/2-y,-z
-x,1/2+y,1/2-z
-x,-y,-z
1/2+x,y,1/2-z
1/2-x,1/2+y,z
x,1/2-y,1/2+z
loop_
_atom_site_type_symbol
_atom_site_label
_atom_site_fract_x
_atom_site_fract_y
_atom_site_fract_z
Si Si1 0.515287 0.399952 0.100621
Si Si2 0.531770 0.080771 0.121453
Si Si3 0.233245 0.554004 0.267425
Si Si4 0.220588 0.572835 0.951407
Si Si5 0.846533 0.687304 0.542770
Si Si6 0.573465 0.553781 0.143466
Si Si7 0.155145 0.179309 0.274316
Si Si8 0.435606 0.077413 0.873362
O O1 0.574899 0.337999 0.099298
O O2 0.560575 0.472709 0.100599
O O3 0.458625 0.392648 0.225646
O O4 0.465108 0.394678 0.965621
O O5 0.458573 0.070017 0.208010
O O6 0.579228 0.144675 0.179052
O O7 0.576877 0.007607 0.125836
O O8 0.503782 0.099326 0.969362
O O9 0.271385 0.486463 0.334573
O O10 0.158860 0.568801 0.349383
O O11 0.280652 0.623375 0.289665
O O12 0.222086 0.539289 0.104657
O O13 0.284409 0.629353 0.931666
O O14 0.141772 0.610076 0.922760
O O15 0.852514 0.706008 0.381853
O O16 0.824171 0.756393 0.626852
#
# Coordination Sequence:
#
# PCOD8248857 Si02
#       8
#     8   8   8   8   8   8   8   8
#     4  10  21  35  63  93 120 153 198 254 306 368
#     4  10  19  37  61  90 123 153 196 254 306 364
#     4  11  23  38  63  93 125 165 204 264 315 370
#     4  11  23  39  62  94 127 161 208 259 314 372
#     4  11  25  44  61  88 125 170 208 251 312 383
#     4  10  19  37  62  91 120 149 198 258 311 352
#     4  11  25  43  62  87 127 169 210 251 314 376
#     4  10  21  35  62  98 121 148 200 256 310 361
#
# _framework density 19.037751
#
# number of rings (size 3 to 8) (size 9 to 14) (size 15 to 20)
#    0.000    1.500    5.000    0.000    3.500    1.000 
#    0.000    2.500    0.000    0.000    0.000    0.000 
#    0.000    0.000    0.000    0.000    0.000    0.000 
#
# Total GULP energy -793732.976265 kJ/mol
# GULP energy per Si atom -12402.077754 kJ/mol
# Density = 1.899442 g / cm^3
# Si number density = 19.037751 Si / 1000 Ang^3
#
#
#
# Elastic Constant Matrix: (Units=GPa)
#
#
# Indices 1 2 3 4 5 6 
#
# 1 105.6785 29.3556 37.2311 0.0000 0.0000 0.0000
# 2 29.3556 60.4690 50.6543 0.0000 0.0000 0.0000
# 3 37.2311 50.6543 105.2804 0.0000 0.0000 0.0000
# 4 0.0000 0.0000 0.0000 27.8570 0.0000 0.0000
# 5 0.0000 0.0000 0.0000 0.0000 20.6512 0.0000
# 6 0.0000 0.0000 0.0000 0.0000 0.0000 16.2375
#
#
#
# Elastic Compliance Matrix: (Units=1/GPa)
#
#
# Indices 1 2 3 4 5 6 
#
# 1 0.011250 -0.003566 -0.002263 0.000000 0.000000 0.000000
# 2 -0.003566 0.028833 -0.012612 0.000000 0.000000 0.000000
# 3 -0.002263 -0.012612 0.016367 0.000000 0.000000 0.000000
# 4 0.000000 0.000000 0.000000 0.035898 0.000000 0.000000
# 5 0.000000 0.000000 0.000000 0.000000 0.048423 0.000000
# 6 0.000000 0.000000 0.000000 0.000000 0.000000 0.061586
#
#
# Mechanical properties :
#
#
# Convention : Reuss Voigt Hill
#
# Bulk Modulus (GPa) = 51.10083 56.21221 53.65652
# Shear Modulus (GPa) = 20.34493 23.22826 21.78660
#
# Velocity S-wave (km/s) = 3.27259 3.49681 3.38655
# Velocity P-wave (km/s) = 6.41716 6.77454 6.59827
#
# Compressibility (1/GPa) = 0.01956915
#
# Stress axis : x y z
#
# Youngs Moduli (GPa) = 88.88512 34.68207 61.10022
#
# Poissons Ratio (x) = 0.12368 0.13825
# Poissons Ratio (y) = 0.31699 0.77057
# Poissons Ratio (z) = 0.20112 0.43740
#
# Static dielectric constant tensor:
#      x y z
#    x 3.517980 0.000000 0.000000 
#    y 0.000000 3.161660 0.000000 
#    z 0.000000 0.000000 3.640470 
# 
# 
# High freq. dielectric constant tensor:
#      x y z
#    x 1.754320 0.000000 0.000000 
#    y 0.000000 1.700860 0.000000 
#    z 0.000000 0.000000 1.756830 
# 
# From -- ./inp_files/3725.got.cif
#   From: 2010.03.12/outbox.cif.g09.slc.cpg/sg61_2_cif.got.tgz:3725.got - 2010.04.10 19:05:03.
