data_PCOD8248502
_publ_section_title
;
Structure prediction by ZEFSAII (Michael W. Deem and Ramdas Pophale) SiO2 
 PCOD8248502
Probable space group: P B C N
;
_chemical_formula_sum "Si O2"
_cell_formula_units_Z 48
_cell_length_a 19.579173
_cell_length_b 8.946208
_cell_length_c 13.519473
_cell_angle_alpha 90.000000
_cell_angle_beta 90.000000
_cell_angle_gamma 90.000000
_cell_volume 2368.062159
_symmetry_space_group_name_H-M "P B C N"
_symmetry_group_IT_number 60
_symmetry_cell_setting 'orthorhombic'
loop_
_space_group_symop_operation_xyz
x,y,z
1/2-x,1/2-y,1/2+z
1/2+x,1/2-y,-z
-x,y,1/2-z
-x,-y,-z
1/2+x,1/2+y,1/2-z
1/2-x,1/2+y,z
x,-y,1/2+z
loop_
_atom_site_type_symbol
_atom_site_label
_atom_site_fract_x
_atom_site_fract_y
_atom_site_fract_z
Si Si1 0.068647 0.876713 0.089516
Si Si2 0.341270 0.579182 0.772124
Si Si3 0.817273 0.633741 0.949454
Si Si4 0.579717 0.345960 0.041364
Si Si5 0.292369 0.752164 0.259882
Si Si6 0.317773 0.199059 0.979869
O O1 0.096258 0.884065 0.200293
O O2 0.114406 0.776358 0.018688
O O3 0.992830 0.805987 0.091209
O O4 0.066960 0.046706 0.051458
O O5 0.370553 0.568883 0.882341
O O6 0.288524 0.715799 0.760984
O O7 0.302828 0.425107 0.747059
O O8 0.826527 0.663133 0.832603
O O9 0.810440 0.459851 0.968860
O O10 0.748869 0.708076 0.991162
O O11 0.884207 0.694716 0.005185
O O12 0.325016 0.814684 0.361273
#
# Coordination Sequence:
#
# PCOD8248502 Si02
#       6
#     8   8   8   8   8   8
#     4  11  24  43  65  93 132 178 221 267 327 393
#     4  12  23  40  67  99 132 168 223 274 329 396
#     4  12  24  42  67  97 136 171 220 279 328 390
#     4  11  24  43  65  93 132 178 221 267 327 393
#     4  12  24  38  67 101 127 168 219 274 332 386
#     4  12  24  42  67  97 136 171 220 279 328 390
#
# _framework density 20.269738
#
# number of rings (size 3 to 8) (size 9 to 14) (size 15 to 20)
#    0.000    0.333    6.667    3.500    0.000    0.667 
#    0.000    0.833    0.000    0.000    0.000    0.000 
#    0.000    0.000    0.000    0.000    0.000    0.000 
#
# Total GULP energy -595469.338169 kJ/mol
# GULP energy per Si atom -12405.611212 kJ/mol
# Density = 2.022360 g / cm^3
# Si number density = 20.269738 Si / 1000 Ang^3
#
#
#
# Elastic Constant Matrix: (Units=GPa)
#
#
# Indices 1 2 3 4 5 6 
#
# 1 104.2974 32.0401 1.9909 0.0000 0.0000 0.0000
# 2 32.0401 75.9105 7.2018 0.0000 0.0000 0.0000
# 3 1.9909 7.2018 101.9026 0.0000 0.0000 0.0000
# 4 0.0000 0.0000 0.0000 29.4082 0.0000 0.0000
# 5 0.0000 0.0000 0.0000 0.0000 33.3395 0.0000
# 6 0.0000 0.0000 0.0000 0.0000 0.0000 29.6167
#
#
#
# Elastic Compliance Matrix: (Units=1/GPa)
#
#
# Indices 1 2 3 4 5 6 
#
# 1 0.011018 -0.004661 0.000114 0.000000 0.000000 0.000000
# 2 -0.004661 0.015234 -0.000986 0.000000 0.000000 0.000000
# 3 0.000114 -0.000986 0.009881 0.000000 0.000000 0.000000
# 4 0.000000 0.000000 0.000000 0.034004 0.000000 0.000000
# 5 0.000000 0.000000 0.000000 0.000000 0.029994 0.000000
# 6 0.000000 0.000000 0.000000 0.000000 0.000000 0.033765
#
#
# Mechanical properties :
#
#
# Convention : Reuss Voigt Hill
#
# Bulk Modulus (GPa) = 39.89222 40.50844 40.20033
# Shear Modulus (GPa) = 32.61217 34.53139 33.57178
#
# Velocity S-wave (km/s) = 4.01547 4.13194 4.07412
# Velocity P-wave (km/s) = 6.42044 6.54156 6.48128
#
# Compressibility (1/GPa) = 0.02506754
#
# Stress axis : x y z
#
# Youngs Moduli (GPa) = 90.76314 65.64145 101.20726
#
# Poissons Ratio (x) = 0.30596 -0.01155
# Poissons Ratio (y) = 0.42306 0.09975
# Poissons Ratio (z) = -0.01036 0.06470
#
# Static dielectric constant tensor:
#      x y z
#    x 3.746800 0.000000 0.000000 
#    y 0.000000 3.534590 0.000000 
#    z 0.000000 0.000000 4.006210 
# 
# 
# High freq. dielectric constant tensor:
#      x y z
#    x 1.788130 0.000000 0.000000 
#    y 0.000000 1.783000 0.000000 
#    z 0.000000 0.000000 1.811460 
# 
# From -- ./inp_files/17623.got.cif
#   From: 2010.03.12/outbox.cif.g09.slc.cpg/sg60_9_cif.got.tgz:17623.got - 2010.04.10 18:46:24.
