data_PCOD8248052
_publ_section_title
;
Structure prediction by ZEFSAII (Michael W. Deem and Ramdas Pophale) SiO2 
 PCOD8248052
Probable space group: P B C N
;
_chemical_formula_sum "Si O2"
_cell_formula_units_Z 48
_cell_length_a 13.987833
_cell_length_b 15.040044
_cell_length_c 11.385027
_cell_angle_alpha 90.000000
_cell_angle_beta 90.000000
_cell_angle_gamma 90.000000
_cell_volume 2395.154927
_symmetry_space_group_name_H-M "P B C N"
_symmetry_group_IT_number 60
_symmetry_cell_setting 'orthorhombic'
loop_
_space_group_symop_operation_xyz
x,y,z
1/2-x,1/2-y,1/2+z
1/2+x,1/2-y,-z
-x,y,1/2-z
-x,-y,-z
1/2+x,1/2+y,1/2-z
1/2-x,1/2+y,z
x,-y,1/2+z
loop_
_atom_site_type_symbol
_atom_site_label
_atom_site_fract_x
_atom_site_fract_y
_atom_site_fract_z
Si Si1 0.820192 0.210511 0.524727
Si Si2 0.658732 0.655804 0.995804
Si Si3 0.891474 0.872269 0.240436
Si Si4 0.544141 0.043152 0.619290
Si Si5 0.236758 0.026707 0.915140
Si Si6 0.496070 0.247314 0.617395
O O1 0.735096 0.277823 0.550791
O O2 0.884712 0.205865 0.642876
O O3 0.775386 0.112585 0.498407
O O4 0.885337 0.247715 0.420188
O O5 0.691123 0.556003 0.019147
O O6 0.555420 0.678226 0.048239
O O7 0.650929 0.669970 0.857453
O O8 0.824996 0.955764 0.203049
O O9 0.000000 0.906076 0.250000
O O10 0.500000 0.017296 0.750000
O O11 0.653780 0.011689 0.621986
O O12 0.537153 0.148572 0.600404
O O13 0.500000 0.000000 0.500000
O O14 0.500000 0.277515 0.750000
#
# Coordination Sequence:
#
# PCOD8248052 Si02
#       6
#     8   8   8   8   8   8
#     4  10  24  43  64 102 132 173 226 273 337 403
#     4  12  23  45  70  94 139 180 218 285 345 393
#     4  10  23  45  68  97 137 167 231 286 325 417
#     4  11  25  48  70 102 141 180 235 284 340 415
#     4  10  25  43  67 102 133 178 224 281 339 409
#     4  11  24  43  70  98 135 181 223 276 344 410
#
# _framework density 20.040458000000001
#
# number of rings (size 3 to 8) (size 9 to 14) (size 15 to 20)
#    1.000    0.333    3.333    1.000    9.333    4.667 
#    6.000    0.000    0.000    0.000    0.000    0.000 
#    0.000    0.000    0.000    0.000    0.000    0.000 
#
# Total GULP energy -594880.855372 kJ/mol
# GULP energy per Si atom -12393.351154 kJ/mol
# Density = 1.999485 g / cm^3
# Si number density = 20.040458 Si / 1000 Ang^3
#
#
#
# Elastic Constant Matrix: (Units=GPa)
#
#
# Indices 1 2 3 4 5 6 
#
# 1 119.0575 13.0081 35.2871 0.0000 0.0000 0.0000
# 2 13.0081 81.7160 26.5751 0.0000 0.0000 0.0000
# 3 35.2871 26.5751 132.2420 0.0000 0.0000 0.0000
# 4 0.0000 0.0000 0.0000 20.3471 0.0000 0.0000
# 5 0.0000 0.0000 0.0000 0.0000 33.0290 0.0000
# 6 0.0000 0.0000 0.0000 0.0000 0.0000 24.3829
#
#
#
# Elastic Compliance Matrix: (Units=1/GPa)
#
#
# Indices 1 2 3 4 5 6 
#
# 1 0.009159 -0.000710 -0.002301 0.000000 0.000000 0.000000
# 2 -0.000710 0.013148 -0.002453 0.000000 0.000000 0.000000
# 3 -0.002301 -0.002453 0.008669 0.000000 0.000000 0.000000
# 4 0.000000 0.000000 0.000000 0.049147 0.000000 0.000000
# 5 0.000000 0.000000 0.000000 0.000000 0.030276 0.000000
# 6 0.000000 0.000000 0.000000 0.000000 0.000000 0.041012
#
#
# Mechanical properties :
#
#
# Convention : Reuss Voigt Hill
#
# Bulk Modulus (GPa) = 49.87927 53.63956 51.75941
# Shear Modulus (GPa) = 29.58192 32.76148 31.17170
#
# Velocity S-wave (km/s) = 3.84619 4.04761 3.94818
# Velocity P-wave (km/s) = 6.68338 6.97624 6.83138
#
# Compressibility (1/GPa) = 0.02004841
#
# Stress axis : x y z
#
# Youngs Moduli (GPa) = 109.18316 76.05621 115.35471
#
# Poissons Ratio (x) = 0.05397 0.26547
# Poissons Ratio (y) = 0.07747 0.28295
# Poissons Ratio (z) = 0.25127 0.18656
#
# Static dielectric constant tensor:
#      x y z
#    x 3.690590 0.000000 0.000000 
#    y 0.000000 3.450400 0.000000 
#    z 0.000000 0.000000 3.660800 
# 
# 
# High freq. dielectric constant tensor:
#      x y z
#    x 1.798260 0.000000 0.000000 
#    y 0.000000 1.769920 0.000000 
#    z 0.000000 0.000000 1.781750 
# 
# From -- ./inp_files/11895.got.cif
#   From: 2010.03.12/outbox.cif.g09.slc.cpg/sg60_6_cif.got.tgz:11895.got - 2010.04.10 18:46:24.
