data_PCOD8248105
_publ_section_title
;
Structure prediction by ZEFSAII (Michael W. Deem and Ramdas Pophale) SiO2 
 PCOD8248105
Probable space group: P B C N
;
_chemical_formula_sum "Si O2"
_cell_formula_units_Z 40
_cell_length_a 8.758668
_cell_length_b 10.583262
_cell_length_c 18.696848
_cell_angle_alpha 90.000000
_cell_angle_beta 90.000000
_cell_angle_gamma 90.000000
_cell_volume 1733.109527
_symmetry_space_group_name_H-M "P B C N"
_symmetry_group_IT_number 60
_symmetry_cell_setting 'orthorhombic'
loop_
_space_group_symop_operation_xyz
x,y,z
1/2-x,1/2-y,1/2+z
1/2+x,1/2-y,-z
-x,y,1/2-z
-x,-y,-z
1/2+x,1/2+y,1/2-z
1/2-x,1/2+y,z
x,-y,1/2+z
loop_
_atom_site_type_symbol
_atom_site_label
_atom_site_fract_x
_atom_site_fract_y
_atom_site_fract_z
Si Si1 0.000000 0.894809 0.250000
Si Si2 0.842496 0.655679 0.482161
Si Si3 0.285998 0.198281 0.180436
Si Si4 0.000000 0.691009 0.750000
Si Si5 0.314645 0.893032 0.954114
Si Si6 0.707727 0.013040 0.198804
O O1 0.897235 0.816375 0.305923
O O2 0.887401 0.978905 0.201365
O O3 0.785685 0.658275 0.401206
O O4 0.803179 0.785252 0.522641
O O5 0.764234 0.532661 0.518763
O O6 0.023854 0.643803 0.487722
O O7 0.111055 0.225147 0.201599
O O8 0.344841 0.082337 0.228429
O O9 0.897325 0.611146 0.694022
O O10 0.322533 0.894903 0.867936
#
# Coordination Sequence:
#
# PCOD8248105 Si02
#       6
#     4   8   8   4   8   8
#     4  10  24  40  72 100 134 178 250 288 360 416
#     4  11  28  47  73 107 148 193 240 297 366 429
#     4  11  24  44  69 103 136 186 239 296 352 428
#     4  10  24  40  74  98 140 178 244 296 358 414
#     4  11  28  48  72 107 149 193 239 299 365 431
#     4  11  24  45  70 103 137 186 239 298 353 425
#
# _framework density 23.079902000000001
#
# number of rings (size 3 to 8) (size 9 to 14) (size 15 to 20)
#    0.000    1.200    0.000    3.600   19.600    2.400 
#    0.000    0.000    0.000    0.000    0.000    0.000 
#    0.000    0.000    0.000    0.000    0.000    0.000 
#
# Total GULP energy -496233.663831 kJ/mol
# GULP energy per Si atom -12405.841596 kJ/mol
# Density = 2.302737 g / cm^3
# Si number density = 23.079902 Si / 1000 Ang^3
#
#
#
# Elastic Constant Matrix: (Units=GPa)
#
#
# Indices 1 2 3 4 5 6 
#
# 1 73.8016 9.7651 -11.9171 0.0000 0.0000 0.0000
# 2 9.7651 96.2214 18.4202 0.0000 0.0000 0.0000
# 3 -11.9171 18.4202 106.3926 0.0000 0.0000 0.0000
# 4 0.0000 0.0000 0.0000 42.4433 0.0000 0.0000
# 5 0.0000 0.0000 0.0000 0.0000 30.6874 0.0000
# 6 0.0000 0.0000 0.0000 0.0000 0.0000 37.3513
#
#
#
# Elastic Compliance Matrix: (Units=1/GPa)
#
#
# Indices 1 2 3 4 5 6 
#
# 1 0.014092 -0.001792 0.001889 0.000000 0.000000 0.000000
# 2 -0.001792 0.010977 -0.002101 0.000000 0.000000 0.000000
# 3 0.001889 -0.002101 0.009974 0.000000 0.000000 0.000000
# 4 0.000000 0.000000 0.000000 0.023561 0.000000 0.000000
# 5 0.000000 0.000000 0.000000 0.000000 0.032587 0.000000
# 6 0.000000 0.000000 0.000000 0.000000 0.000000 0.026773
#
#
# Mechanical properties :
#
#
# Convention : Reuss Voigt Hill
#
# Bulk Modulus (GPa) = 32.22192 34.32798 33.27495
# Shear Modulus (GPa) = 37.78814 39.43957 38.61385
#
# Velocity S-wave (km/s) = 4.05071 4.13828 4.09473
# Velocity P-wave (km/s) = 5.98908 6.14326 6.06666
#
# Compressibility (1/GPa) = 0.03103478
#
# Stress axis : x y z
#
# Youngs Moduli (GPa) = 70.96288 91.10154 100.25592
#
# Poissons Ratio (x) = 0.16322 -0.18935
# Poissons Ratio (y) = 0.12714 0.21065
# Poissons Ratio (z) = -0.13402 0.19142
#
# Static dielectric constant tensor:
#      x y z
#    x 4.252800 0.000000 0.000000 
#    y 0.000000 4.343180 0.000000 
#    z 0.000000 0.000000 3.929620 
# 
# 
# High freq. dielectric constant tensor:
#      x y z
#    x 1.922600 0.000000 0.000000 
#    y 0.000000 1.922870 0.000000 
#    z 0.000000 0.000000 1.900530 
# 
# From -- ./inp_files/19052.got.cif
#   From: 2010.03.12/outbox.cif.g09.slc.cpg/sg60_10_cif.got.tgz:19052.got - 2010.04.10 18:46:24.
