data_PCOD8248476
_publ_section_title
;
Structure prediction by ZEFSAII (Michael W. Deem and Ramdas Pophale) SiO2 
 PCOD8248476
Probable space group: P B C N
;
_chemical_formula_sum "Si O2"
_cell_formula_units_Z 48
_cell_length_a 9.096738
_cell_length_b 18.375854
_cell_length_c 12.876644
_cell_angle_alpha 90.000000
_cell_angle_beta 90.000000
_cell_angle_gamma 90.000000
_cell_volume 2152.464052
_symmetry_space_group_name_H-M "P B C N"
_symmetry_group_IT_number 60
_symmetry_cell_setting 'orthorhombic'
loop_
_space_group_symop_operation_xyz
x,y,z
1/2-x,1/2-y,1/2+z
1/2+x,1/2-y,-z
-x,y,1/2-z
-x,-y,-z
1/2+x,1/2+y,1/2-z
1/2-x,1/2+y,z
x,-y,1/2+z
loop_
_atom_site_type_symbol
_atom_site_label
_atom_site_fract_x
_atom_site_fract_y
_atom_site_fract_z
Si Si1 0.627553 0.749835 0.177148
Si Si2 0.597447 0.157413 0.483836
Si Si3 0.296209 0.094034 0.565018
Si Si4 0.375716 0.722247 0.676413
Si Si5 0.614047 0.588493 0.130453
Si Si6 0.289412 0.449838 0.651789
O O1 0.500000 0.784032 0.250000
O O2 0.768721 0.733441 0.247277
O O3 0.571121 0.674005 0.128583
O O4 0.669421 0.806163 0.085928
O O5 0.455990 0.113053 0.521506
O O6 0.550491 0.221145 0.403871
O O7 0.715969 0.106052 0.428984
O O8 0.219045 0.162672 0.616941
O O9 0.201914 0.064177 0.469644
O O10 0.296268 0.026839 0.644974
O O11 0.500000 0.686013 0.750000
O O12 0.721009 0.574120 0.228471
O O13 0.463439 0.542834 0.128762
#
# Coordination Sequence:
#
# PCOD8248476 Si02
#       6
#     8   8   8   8   8   8
#     4  12  22  45  72 106 136 184 237 298 360 415
#     4  12  26  46  73 103 143 189 235 298 356 427
#     4  12  27  45  69 107 140 188 240 292 359 428
#     4  12  27  41  72 106 139 182 247 304 351 426
#     4  11  23  44  74  97 142 186 236 292 354 422
#     4  11  26  45  70 102 147 190 231 291 365 428
#
# _framework density 22.300022999999999
#
# number of rings (size 3 to 8) (size 9 to 14) (size 15 to 20)
#    0.000    0.333    6.667    2.000    4.667    1.333 
#    0.000    0.000    0.000    0.000    0.000    0.000 
#    0.000    0.000    0.000    0.000    0.000    0.000 
#
# Total GULP energy -595210.778351 kJ/mol
# GULP energy per Si atom -12400.224549 kJ/mol
# Density = 2.224927 g / cm^3
# Si number density = 22.300023 Si / 1000 Ang^3
#
#
#
# Elastic Constant Matrix: (Units=GPa)
#
#
# Indices 1 2 3 4 5 6 
#
# 1 91.5859 24.5939 44.8157 0.0000 0.0000 0.0000
# 2 24.5939 107.0359 35.2067 0.0000 0.0000 0.0000
# 3 44.8157 35.2067 105.9695 0.0000 0.0000 0.0000
# 4 0.0000 0.0000 0.0000 23.2626 0.0000 0.0000
# 5 0.0000 0.0000 0.0000 0.0000 48.0750 0.0000
# 6 0.0000 0.0000 0.0000 0.0000 0.0000 27.5075
#
#
#
# Elastic Compliance Matrix: (Units=1/GPa)
#
#
# Indices 1 2 3 4 5 6 
#
# 1 0.013958 -0.001421 -0.005431 0.000000 0.000000 0.000000
# 2 -0.001421 0.010634 -0.002932 0.000000 0.000000 0.000000
# 3 -0.005431 -0.002932 0.012708 0.000000 0.000000 0.000000
# 4 0.000000 0.000000 0.000000 0.042987 0.000000 0.000000
# 5 0.000000 0.000000 0.000000 0.000000 0.020801 0.000000
# 6 0.000000 0.000000 0.000000 0.000000 0.000000 0.036354
#
#
# Mechanical properties :
#
#
# Convention : Reuss Voigt Hill
#
# Bulk Modulus (GPa) = 56.39645 57.09157 56.74401
# Shear Modulus (GPa) = 30.69021 33.10069 31.89545
#
# Velocity S-wave (km/s) = 3.71380 3.85689 3.78602
# Velocity P-wave (km/s) = 6.61320 6.74472 6.67929
#
# Compressibility (1/GPa) = 0.01773161
#
# Stress axis : x y z
#
# Youngs Moduli (GPa) = 71.64500 94.04240 78.69335
#
# Poissons Ratio (x) = 0.13361 0.42737
# Poissons Ratio (y) = 0.10179 0.23073
# Poissons Ratio (z) = 0.38909 0.27573
#
# Static dielectric constant tensor:
#      x y z
#    x 3.934930 0.000000 0.000000 
#    y 0.000000 3.822570 0.000000 
#    z 0.000000 0.000000 4.356600 
# 
# 
# High freq. dielectric constant tensor:
#      x y z
#    x 1.873120 0.000000 0.000000 
#    y 0.000000 1.866940 0.000000 
#    z 0.000000 0.000000 1.898110 
# 
# From -- ./inp_files/14979.got.cif
#   From: 2010.03.12/outbox.cif.g09.slc.cpg/sg60_8_cif.got.tgz:14979.got - 2010.04.10 18:46:24.
