data_PCOD8248999
_publ_section_title
;
Structure prediction by ZEFSAII (Michael W. Deem and Ramdas Pophale) SiO2 
 PCOD8248999
Probable space group: P B C A
;
_chemical_formula_sum "Si O2"
_cell_formula_units_Z 64
_cell_length_a 19.443142
_cell_length_b 11.287773
_cell_length_c 14.410996
_cell_angle_alpha 90.000000
_cell_angle_beta 90.000000
_cell_angle_gamma 90.000000
_cell_volume 3162.778025
_symmetry_space_group_name_H-M "P B C A"
_symmetry_group_IT_number 61
_symmetry_cell_setting 'orthorhombic'
loop_
_space_group_symop_operation_xyz
x,y,z
1/2-x,-y,1/2+z
1/2+x,1/2-y,-z
-x,1/2+y,1/2-z
-x,-y,-z
1/2+x,y,1/2-z
1/2-x,1/2+y,z
x,1/2-y,1/2+z
loop_
_atom_site_type_symbol
_atom_site_label
_atom_site_fract_x
_atom_site_fract_y
_atom_site_fract_z
Si Si1 0.348147 0.910002 0.791515
Si Si2 0.502922 0.166556 0.199194
Si Si3 0.797936 0.334000 0.710010
Si Si4 0.386105 0.041660 0.603677
Si Si5 0.158565 0.052205 0.911305
Si Si6 0.193887 0.877855 0.410719
Si Si7 0.477681 0.575346 0.809275
Si Si8 0.130554 0.806530 0.601465
O O1 0.417432 0.847570 0.827644
O O2 0.284556 0.820087 0.775735
O O3 0.359751 0.977319 0.695473
O O4 0.327099 0.994956 0.874664
O O5 0.499461 0.301546 0.246144
O O6 0.451994 0.172227 0.110375
O O7 0.477428 0.050866 0.255896
O O8 0.814666 0.433842 0.635935
O O9 0.831502 0.216684 0.665554
O O10 0.832904 0.362794 0.808324
O O11 0.368430 0.965368 0.514723
O O12 0.468402 0.057515 0.607240
O O13 0.349168 0.168632 0.596335
O O14 0.223601 0.140083 0.919917
O O15 0.097198 0.105144 0.849740
O O16 0.157222 0.868435 0.509457
#
# Coordination Sequence:
#
# PCOD8248999 Si02
#       8
#     8   8   8   8   8   8   8   8
#     4  10  22  39  60  89 125 159 208 263 312 372
#     4  10  22  40  65  93 126 167 211 261 314 379
#     4  11  21  38  61  86 121 167 204 261 321 371
#     4  10  20  37  62  90 120 163 212 256 311 382
#     4  11  21  37  61  91 121 162 210 257 315 376
#     4  11  23  37  62  86 123 162 208 262 315 374
#     4  10  21  39  66  93 129 164 212 260 317 376
#     4  11  21  39  61  88 120 164 211 254 318 384
#
# _framework density 20.235375999999999
#
# number of rings (size 3 to 8) (size 9 to 14) (size 15 to 20)
#    0.000    1.500    3.750    1.875    0.000    0.500 
#    0.000    0.000   13.750    0.000    0.000    0.000 
#    0.000    0.000    0.000    0.000    0.000    0.000 
#
# Total GULP energy -792847.263630 kJ/mol
# GULP energy per Si atom -12388.238494 kJ/mol
# Density = 2.018932 g / cm^3
# Si number density = 20.235376 Si / 1000 Ang^3
#
#
#
# Elastic Constant Matrix: (Units=GPa)
#
#
# Indices 1 2 3 4 5 6 
#
# 1 116.1581 16.5522 36.2195 0.0000 0.0000 0.0000
# 2 16.5522 97.5486 34.0924 0.0000 0.0000 0.0000
# 3 36.2195 34.0924 93.9602 0.0000 0.0000 0.0000
# 4 0.0000 0.0000 0.0000 22.6406 0.0000 0.0000
# 5 0.0000 0.0000 0.0000 0.0000 29.1826 0.0000
# 6 0.0000 0.0000 0.0000 0.0000 0.0000 23.0206
#
#
#
# Elastic Compliance Matrix: (Units=1/GPa)
#
#
# Indices 1 2 3 4 5 6 
#
# 1 0.009798 -0.000392 -0.003635 0.000000 0.000000 0.000000
# 2 -0.000392 0.011756 -0.004114 0.000000 0.000000 0.000000
# 3 -0.003635 -0.004114 0.013537 0.000000 0.000000 0.000000
# 4 0.000000 0.000000 0.000000 0.044168 0.000000 0.000000
# 5 0.000000 0.000000 0.000000 0.000000 0.034267 0.000000
# 6 0.000000 0.000000 0.000000 0.000000 0.000000 0.043439
#
#
# Mechanical properties :
#
#
# Convention : Reuss Voigt Hill
#
# Bulk Modulus (GPa) = 53.16801 53.48833 53.32817
# Shear Modulus (GPa) = 27.85250 29.68895 28.77072
#
# Velocity S-wave (km/s) = 3.71405 3.83453 3.77477
# Velocity P-wave (km/s) = 6.68760 6.78935 6.73867
#
# Compressibility (1/GPa) = 0.01880830
#
# Stress axis : x y z
#
# Youngs Moduli (GPa) = 102.05973 85.06472 73.87342
#
# Poissons Ratio (x) = 0.03337 0.26850
# Poissons Ratio (y) = 0.04004 0.30393
# Poissons Ratio (z) = 0.37095 0.34997
#
# Static dielectric constant tensor:
#      x y z
#    x 4.126480 0.000000 0.000000 
#    y 0.000000 3.764370 0.000000 
#    z 0.000000 0.000000 3.337470 
# 
# 
# High freq. dielectric constant tensor:
#      x y z
#    x 1.810440 0.000000 0.000000 
#    y 0.000000 1.793730 0.000000 
#    z 0.000000 0.000000 1.763470 
# 
# From -- ./inp_files/5991.got.cif
#   From: 2010.03.12/outbox.cif.g09.slc.cpg/sg61_3_cif.got.tgz:5991.got - 2010.04.10 19:05:03.
