data_PCOD8248392
_publ_section_title
;
Structure prediction by ZEFSAII (Michael W. Deem and Ramdas Pophale) SiO2 
 PCOD8248392
Probable space group: P B C N
;
_chemical_formula_sum "Si O2"
_cell_formula_units_Z 32
_cell_length_a 24.570135
_cell_length_b 7.094671
_cell_length_c 8.378483
_cell_angle_alpha 90.000000
_cell_angle_beta 90.000000
_cell_angle_gamma 90.000000
_cell_volume 1460.512224
_symmetry_space_group_name_H-M "P B C N"
_symmetry_group_IT_number 60
_symmetry_cell_setting 'orthorhombic'
loop_
_space_group_symop_operation_xyz
x,y,z
1/2-x,1/2-y,1/2+z
1/2+x,1/2-y,-z
-x,y,1/2-z
-x,-y,-z
1/2+x,1/2+y,1/2-z
1/2-x,1/2+y,z
x,-y,1/2+z
loop_
_atom_site_type_symbol
_atom_site_label
_atom_site_fract_x
_atom_site_fract_y
_atom_site_fract_z
Si Si1 0.800611 0.107773 0.719649
Si Si2 0.386113 0.888981 0.638456
Si Si3 0.460385 0.085555 0.872001
Si Si4 0.308197 0.232437 0.629765
O O1 0.841732 0.241793 0.810271
O O2 0.794017 0.165402 0.536545
O O3 0.742231 0.110423 0.806578
O O4 0.821894 0.893211 0.738578
O O5 0.432278 0.916085 0.772312
O O6 0.413157 0.808402 0.472942
O O7 0.359281 0.094416 0.606131
O O8 0.500000 0.206107 0.750000
O O9 0.500000 0.000000 0.000000
#
# Coordination Sequence:
#
# PCOD8248392 Si02
#       4
#     8   8   8   8
#     4  12  26  40  63  96 137 175 215 256 318 393
#     4  11  22  42  68  94 132 171 211 265 329 373
#     4   9  20  40  70  96 116 167 225 271 322 377
#     4  12  26  40  63  96 137 176 213 259 316 395
#
# _framework density 21.910121
#
# number of rings (size 3 to 8) (size 9 to 14) (size 15 to 20)
#    0.000    1.000    5.000    1.500    7.000    0.000 
#    0.000    0.000    0.000   30.000    0.000    0.000 
#    0.000    0.000    0.000    0.000    0.000    0.000 
#
# Total GULP energy -396492.329122 kJ/mol
# GULP energy per Si atom -12390.385285 kJ/mol
# Density = 2.186025 g / cm^3
# Si number density = 21.910121 Si / 1000 Ang^3
#
#
#
# Elastic Constant Matrix: (Units=GPa)
#
#
# Indices 1 2 3 4 5 6 
#
# 1 106.1636 26.6170 50.6799 0.0000 0.0000 0.0000
# 2 26.6170 72.1648 1.9032 0.0000 0.0000 0.0000
# 3 50.6799 1.9032 98.8148 0.0000 0.0000 0.0000
# 4 0.0000 0.0000 0.0000 26.2850 0.0000 0.0000
# 5 0.0000 0.0000 0.0000 0.0000 54.1711 0.0000
# 6 0.0000 0.0000 0.0000 0.0000 0.0000 3.9742
#
#
#
# Elastic Compliance Matrix: (Units=1/GPa)
#
#
# Indices 1 2 3 4 5 6 
#
# 1 0.014073 -0.005003 -0.007122 0.000000 0.000000 0.000000
# 2 -0.005003 0.015643 0.002265 0.000000 0.000000 0.000000
# 3 -0.007122 0.002265 0.013729 0.000000 0.000000 0.000000
# 4 0.000000 0.000000 0.000000 0.038045 0.000000 0.000000
# 5 0.000000 0.000000 0.000000 0.000000 0.018460 0.000000
# 6 0.000000 0.000000 0.000000 0.000000 0.000000 0.251626
#
#
# Mechanical properties :
#
#
# Convention : Reuss Voigt Hill
#
# Bulk Modulus (GPa) = 42.14942 48.39371 45.27156
# Shear Modulus (GPa) = 13.18552 30.08225 21.63389
#
# Velocity S-wave (km/s) = 2.45582 3.70940 3.14569
# Velocity P-wave (km/s) = 5.22691 6.36251 5.82246
#
# Compressibility (1/GPa) = 0.02372512
#
# Stress axis : x y z
#
# Youngs Moduli (GPa) = 71.05584 63.92747 72.83938
#
# Poissons Ratio (x) = 0.31983 0.51873
# Poissons Ratio (y) = 0.35549 -0.16495
# Poissons Ratio (z) = 0.50603 -0.14477
#
# Static dielectric constant tensor:
#      x y z
#    x 4.649580 0.000000 0.000000 
#    y 0.000000 3.879240 0.000000 
#    z 0.000000 0.000000 4.753550 
# 
# 
# High freq. dielectric constant tensor:
#      x y z
#    x 1.881120 0.000000 0.000000 
#    y 0.000000 1.808810 0.000000 
#    z 0.000000 0.000000 1.894280 
# 
# From -- ./inp_files/7693.got.cif
#   From: 2010.03.12/outbox.cif.g09.slc.cpg/sg60_4_cif.got.tgz:7693.got - 2010.04.10 18:46:24.
