data_PCOD8248265
_publ_section_title
;
Structure prediction by ZEFSAII (Michael W. Deem and Ramdas Pophale) SiO2 
 PCOD8248265
Probable space group: P B C N
;
_chemical_formula_sum "Si O2"
_cell_formula_units_Z 56
_cell_length_a 16.293080
_cell_length_b 11.360920
_cell_length_c 14.452349
_cell_angle_alpha 90.000000
_cell_angle_beta 90.000000
_cell_angle_gamma 90.000000
_cell_volume 2675.193079
_symmetry_space_group_name_H-M "P B C N"
_symmetry_group_IT_number 60
_symmetry_cell_setting 'orthorhombic'
loop_
_space_group_symop_operation_xyz
x,y,z
1/2-x,1/2-y,1/2+z
1/2+x,1/2-y,-z
-x,y,1/2-z
-x,-y,-z
1/2+x,1/2+y,1/2-z
1/2-x,1/2+y,z
x,-y,1/2+z
loop_
_atom_site_type_symbol
_atom_site_label
_atom_site_fract_x
_atom_site_fract_y
_atom_site_fract_z
Si Si1 0.919145 0.225140 0.189914
Si Si2 0.023524 0.181919 0.025958
Si Si3 0.328556 0.091763 0.125147
Si Si4 0.416547 0.933386 0.986646
Si Si5 0.144764 0.063087 0.158463
Si Si6 0.091212 0.515306 0.791400
Si Si7 0.061129 0.821696 0.162629
O O1 0.862967 0.132881 0.244440
O O2 0.880640 0.354225 0.179193
O O3 0.000000 0.239178 0.250000
O O4 0.939499 0.184552 0.085845
O O5 0.081648 0.088490 0.075590
O O6 0.073946 0.304457 0.029873
O O7 0.999671 0.145892 0.922131
O O8 0.231318 0.106100 0.117974
O O9 0.384344 0.209148 0.132166
O O10 0.341727 0.019000 0.217560
O O11 0.348293 0.010026 0.037652
O O12 0.398658 0.926201 0.877368
O O13 0.500000 0.000000 0.000000
O O14 0.126590 0.926049 0.182718
O O15 0.000000 0.506411 0.750000
O O16 0.000000 0.797777 0.250000
#
# Coordination Sequence:
#
# PCOD8248265 Si02
#       7
#     8   8   8   8   8   8   8
#     4   9  18  37  66  90 118 169 214 251 315 401
#     4  11  21  43  72  91 129 177 226 262 323 408
#     4  12  25  41  64 100 136 165 217 291 338 374
#     4  12  20  39  68 103 124 168 226 272 328 401
#     4  11  27  42  63  97 135 173 217 279 338 389
#     4  11  19  37  67  96 126 165 214 269 326 394
#     4  12  25  45  68  94 133 183 228 263 328 414
#
# _framework density 20.933067999999999
#
# number of rings (size 3 to 8) (size 9 to 14) (size 15 to 20)
#    0.000    0.857    4.286    4.714    4.000    0.000 
#    5.143    2.857    0.000    0.000    0.000    0.000 
#    0.000    0.000    0.000    0.000    0.000    0.000 
#
# Total GULP energy -694044.142974 kJ/mol
# GULP energy per Si atom -12393.645410 kJ/mol
# Density = 2.088542 g / cm^3
# Si number density = 20.933068 Si / 1000 Ang^3
#
#
#
# Elastic Constant Matrix: (Units=GPa)
#
#
# Indices 1 2 3 4 5 6 
#
# 1 77.6642 30.3560 32.7812 0.0000 0.0000 0.0000
# 2 30.3560 87.8879 13.5220 0.0000 0.0000 0.0000
# 3 32.7812 13.5220 139.2580 0.0000 0.0000 0.0000
# 4 0.0000 0.0000 0.0000 31.8523 0.0000 0.0000
# 5 0.0000 0.0000 0.0000 0.0000 21.9787 0.0000
# 6 0.0000 0.0000 0.0000 0.0000 0.0000 -14.7222
#
#
#
# Elastic Compliance Matrix: (Units=1/GPa)
#
#
# Indices 1 2 3 4 5 6 
#
# 1 0.016282 -0.005110 -0.003336 0.000000 0.000000 0.000000
# 2 -0.005110 0.013155 -0.000074 0.000000 0.000000 0.000000
# 3 -0.003336 -0.000074 0.007974 0.000000 0.000000 0.000000
# 4 0.000000 0.000000 0.000000 0.031395 0.000000 0.000000
# 5 0.000000 0.000000 0.000000 0.000000 0.045499 0.000000
# 6 0.000000 0.000000 0.000000 0.000000 0.000000 -0.067925
#
#
# Mechanical properties :
#
#
# Convention : Reuss Voigt Hill
#
# Bulk Modulus (GPa) = 49.09756 50.90316 50.00036
# Shear Modulus (GPa) = 71.21477 23.03182 47.12329
#
# Velocity S-wave (km/s) = 5.83901 3.32062 4.74977
# Velocity P-wave (km/s) = 8.30447 6.25075 7.34970
#
# Compressibility (1/GPa) = 0.02036761
#
# Stress axis : x y z
#
# Youngs Moduli (GPa) = 61.41881 76.01884 125.41479
#
# Poissons Ratio (x) = 0.38848 0.41844
# Poissons Ratio (y) = 0.31387 0.00933
# Poissons Ratio (z) = 0.20492 0.00565
#
# Static dielectric constant tensor:
#      x y z
#    x 3.664000 0.000000 0.000000 
#    y 0.000000 4.223710 0.000000 
#    z 0.000000 0.000000 3.438580 
# 
# 
# High freq. dielectric constant tensor:
#      x y z
#    x 1.784180 0.000000 0.000000 
#    y 0.000000 1.831370 0.000000 
#    z 0.000000 0.000000 1.833990 
# 
# From -- ./inp_files/16867.got.cif
#   From: 2010.03.12/outbox.cif.g09.slc.cpg/sg60_9_cif.got.tgz:16867.got - 2010.04.10 18:46:24.
