data_PCOD8248140
_publ_section_title
;
Structure prediction by ZEFSAII (Michael W. Deem and Ramdas Pophale) SiO2 
 PCOD8248140
Probable space group: P B C N
;
_chemical_formula_sum "Si O2"
_cell_formula_units_Z 40
_cell_length_a 10.236672
_cell_length_b 18.208608
_cell_length_c 9.311953
_cell_angle_alpha 90.000000
_cell_angle_beta 90.000000
_cell_angle_gamma 90.000000
_cell_volume 1735.706579
_symmetry_space_group_name_H-M "P B C N"
_symmetry_group_IT_number 60
_symmetry_cell_setting 'orthorhombic'
loop_
_space_group_symop_operation_xyz
x,y,z
1/2-x,1/2-y,1/2+z
1/2+x,1/2-y,-z
-x,y,1/2-z
-x,-y,-z
1/2+x,1/2+y,1/2-z
1/2-x,1/2+y,z
x,-y,1/2+z
loop_
_atom_site_type_symbol
_atom_site_label
_atom_site_fract_x
_atom_site_fract_y
_atom_site_fract_z
Si Si1 0.947205 0.150313 0.406510
Si Si2 0.895059 0.311744 0.378426
Si Si3 0.880624 0.878561 0.336573
Si Si4 0.767691 0.978474 0.832064
Si Si5 0.108383 0.446392 0.940572
O O1 0.894170 0.230801 0.448377
O O2 0.827913 0.093434 0.403100
O O3 0.000000 0.157835 0.250000
O O4 0.069519 0.121808 0.498783
O O5 0.751121 0.330663 0.316578
O O6 0.930853 0.363660 0.515157
O O7 0.000000 0.322577 0.250000
O O8 0.000000 0.840524 0.250000
O O9 0.865252 0.960936 0.262571
O O10 0.645293 0.955718 0.728549
O O11 0.732871 0.031513 0.966004
O O12 0.000000 0.500000 0.000000
#
# Coordination Sequence:
#
# PCOD8248140 Si02
#       5
#     8   8   8   8   8
#     4  11  23  40  63  90 128 168 211 266 326 386
#     4  10  24  43  63  93 134 171 211 271 333 387
#     4  11  23  40  65  95 127 168 220 268 320 387
#     4  11  22  39  64  93 126 166 217 270 319 378
#     4  11  22  40  65  93 128 171 216 263 320 388
#
# _framework density 23.045369000000001
#
# number of rings (size 3 to 8) (size 9 to 14) (size 15 to 20)
#    0.000    1.200    0.000    7.800    0.000    6.400 
#    0.000    0.000    0.000    0.000    0.000    0.000 
#    0.000    0.000    0.000    0.000    0.000    0.000 
#
# Total GULP energy -495542.042623 kJ/mol
# GULP energy per Si atom -12388.551066 kJ/mol
# Density = 2.299292 g / cm^3
# Si number density = 23.045369 Si / 1000 Ang^3
#
#
#
# Elastic Constant Matrix: (Units=GPa)
#
#
# Indices 1 2 3 4 5 6 
#
# 1 135.9751 52.4497 25.9930 0.0000 0.0000 0.0000
# 2 52.4497 182.6177 40.9764 0.0000 0.0000 0.0000
# 3 25.9930 40.9764 70.7590 0.0000 0.0000 0.0000
# 4 0.0000 0.0000 0.0000 29.5460 0.0000 0.0000
# 5 0.0000 0.0000 0.0000 0.0000 44.4593 0.0000
# 6 0.0000 0.0000 0.0000 0.0000 0.0000 28.9011
#
#
#
# Elastic Compliance Matrix: (Units=1/GPa)
#
#
# Indices 1 2 3 4 5 6 
#
# 1 0.008502 -0.002001 -0.001964 0.000000 0.000000 0.000000
# 2 -0.002001 0.006765 -0.003182 0.000000 0.000000 0.000000
# 3 -0.001964 -0.003182 0.016697 0.000000 0.000000 0.000000
# 4 0.000000 0.000000 0.000000 0.033846 0.000000 0.000000
# 5 0.000000 0.000000 0.000000 0.000000 0.022493 0.000000
# 6 0.000000 0.000000 0.000000 0.000000 0.000000 0.034601
#
#
# Mechanical properties :
#
#
# Convention : Reuss Voigt Hill
#
# Bulk Modulus (GPa) = 56.59945 69.79888 63.19917
# Shear Modulus (GPa) = 34.94384 38.57678 36.76031
#
# Velocity S-wave (km/s) = 3.89820 4.09583 3.99824
# Velocity P-wave (km/s) = 6.69885 7.26093 6.98555
#
# Compressibility (1/GPa) = 0.01766802
#
# Stress axis : x y z
#
# Youngs Moduli (GPa) = 117.62464 147.82623 59.89120
#
# Poissons Ratio (x) = 0.29580 0.11764
# Poissons Ratio (y) = 0.23537 0.19060
# Poissons Ratio (z) = 0.23104 0.47044
#
# Static dielectric constant tensor:
#      x y z
#    x 3.006120 0.000000 0.000000 
#    y 0.000000 5.574950 0.000000 
#    z 0.000000 0.000000 2.991310 
# 
# 
# High freq. dielectric constant tensor:
#      x y z
#    x 1.921230 0.000000 0.000000 
#    y 0.000000 1.917710 0.000000 
#    z 0.000000 0.000000 1.904070 
# 
# From -- ./inp_files/4751.got.cif
#   From: 2010.03.12/outbox.cif.g09.slc.cpg/sg60_3_cif.got.tgz:4751.got - 2010.04.10 18:46:24.
