data_PCOD8248953
_publ_section_title
;
Structure prediction by ZEFSAII (Michael W. Deem and Ramdas Pophale) SiO2 
 PCOD8248953
Probable space group: P B C A
;
_chemical_formula_sum "Si O2"
_cell_formula_units_Z 48
_cell_length_a 9.819481
_cell_length_b 8.818299
_cell_length_c 27.187747
_cell_angle_alpha 90.000000
_cell_angle_beta 90.000000
_cell_angle_gamma 90.000000
_cell_volume 2354.217449
_symmetry_space_group_name_H-M "P B C A"
_symmetry_group_IT_number 61
_symmetry_cell_setting 'orthorhombic'
loop_
_space_group_symop_operation_xyz
x,y,z
1/2-x,-y,1/2+z
1/2+x,1/2-y,-z
-x,1/2+y,1/2-z
-x,-y,-z
1/2+x,y,1/2-z
1/2-x,1/2+y,z
x,1/2-y,1/2+z
loop_
_atom_site_type_symbol
_atom_site_label
_atom_site_fract_x
_atom_site_fract_y
_atom_site_fract_z
Si Si1 0.939293 0.319246 0.127571
Si Si2 0.279147 0.467006 0.888535
Si Si3 0.903762 0.256860 0.233144
Si Si4 0.820338 0.421101 0.503215
Si Si5 0.375701 0.581414 0.789306
Si Si6 0.916698 0.780409 0.965970
O O1 0.880428 0.489525 0.119286
O O2 0.989885 0.296812 0.183341
O O3 0.059026 0.276768 0.089809
O O4 0.804853 0.212168 0.119069
O O5 0.320801 0.508447 0.944258
O O6 0.370285 0.555688 0.848115
O O7 0.756736 0.334093 0.231150
O O8 0.990401 0.318780 0.278918
O O9 0.885838 0.077610 0.239499
O O10 0.677255 0.341404 0.493126
O O11 0.848009 0.552608 0.463142
O O12 0.940848 0.294785 0.503967
#
# Coordination Sequence:
#
# PCOD8248953 Si02
#       6
#     8   8   8   8   8   8
#     4   9  19  35  55  82 111 144 185 231 275 337
#     4   9  18  34  57  79 109 147 187 222 273 336
#     4  10  20  37  59  83 114 147 188 234 286 339
#     4  10  20  36  57  83 113 150 187 235 278 331
#     4  10  20  36  59  85 112 149 190 235 283 340
#     4  10  21  36  55  80 113 146 187 228 277 329
#
# _framework density 20.388940999999999
#
# number of rings (size 3 to 8) (size 9 to 14) (size 15 to 20)
#    0.000    2.333    0.000    3.000    0.000    4.000 
#    0.000    8.333    0.000    0.000    0.000    0.000 
#    0.000    0.000    0.000    0.000    0.000    0.000 
#
# Total GULP energy -594929.467584 kJ/mol
# GULP energy per Si atom -12394.363908 kJ/mol
# Density = 2.034253 g / cm^3
# Si number density = 20.388941 Si / 1000 Ang^3
#
#
#
# Elastic Constant Matrix: (Units=GPa)
#
#
# Indices 1 2 3 4 5 6 
#
# 1 70.8096 29.1252 32.2185 0.0000 0.0000 0.0000
# 2 29.1252 77.5742 26.2481 0.0000 0.0000 0.0000
# 3 32.2185 26.2481 65.4481 0.0000 0.0000 0.0000
# 4 0.0000 0.0000 0.0000 24.6330 0.0000 0.0000
# 5 0.0000 0.0000 0.0000 0.0000 31.4241 0.0000
# 6 0.0000 0.0000 0.0000 0.0000 0.0000 41.5919
#
#
#
# Elastic Compliance Matrix: (Units=1/GPa)
#
#
# Indices 1 2 3 4 5 6 
#
# 1 0.019595 -0.004736 -0.007747 0.000000 0.000000 0.000000
# 2 -0.004736 0.016059 -0.004109 0.000000 0.000000 0.000000
# 3 -0.007747 -0.004109 0.020741 0.000000 0.000000 0.000000
# 4 0.000000 0.000000 0.000000 0.040596 0.000000 0.000000
# 5 0.000000 0.000000 0.000000 0.000000 0.031823 0.000000
# 6 0.000000 0.000000 0.000000 0.000000 0.000000 0.024043
#
#
# Mechanical properties :
#
#
# Convention : Reuss Voigt Hill
#
# Bulk Modulus (GPa) = 43.08220 43.22393 43.15307
# Shear Modulus (GPa) = 25.80267 27.94582 26.87424
#
# Velocity S-wave (km/s) = 3.56128 3.70623 3.63447
# Velocity P-wave (km/s) = 6.17141 6.28972 6.23085
#
# Compressibility (1/GPa) = 0.02321144
#
# Stress axis : x y z
#
# Youngs Moduli (GPa) = 51.03309 62.26902 48.21373
#
# Poissons Ratio (x) = 0.29489 0.37351
# Poissons Ratio (y) = 0.24168 0.19813
# Poissons Ratio (z) = 0.39535 0.25589
#
# Static dielectric constant tensor:
#      x y z
#    x 3.459210 0.000000 0.000000 
#    y 0.000000 3.759420 0.000000 
#    z 0.000000 0.000000 3.749460 
# 
# 
# High freq. dielectric constant tensor:
#      x y z
#    x 1.770580 0.000000 0.000000 
#    y 0.000000 1.802870 0.000000 
#    z 0.000000 0.000000 1.787410 
# 
# From -- ./inp_files/1902.got.cif
#   From: 2010.03.12/outbox.cif.g09.slc.cpg/sg61_1_cif.got.tgz:1902.got - 2010.04.10 19:05:03.
