data_PCOD8248373
_publ_section_title
;
Structure prediction by ZEFSAII (Michael W. Deem and Ramdas Pophale) SiO2 
 PCOD8248373
Probable space group: P B C N
;
_chemical_formula_sum "Si O2"
_cell_formula_units_Z 48
_cell_length_a 14.335008
_cell_length_b 9.909342
_cell_length_c 16.911459
_cell_angle_alpha 90.000000
_cell_angle_beta 90.000000
_cell_angle_gamma 90.000000
_cell_volume 2402.281153
_symmetry_space_group_name_H-M "P B C N"
_symmetry_group_IT_number 60
_symmetry_cell_setting 'orthorhombic'
loop_
_space_group_symop_operation_xyz
x,y,z
1/2-x,1/2-y,1/2+z
1/2+x,1/2-y,-z
-x,y,1/2-z
-x,-y,-z
1/2+x,1/2+y,1/2-z
1/2-x,1/2+y,z
x,-y,1/2+z
loop_
_atom_site_type_symbol
_atom_site_label
_atom_site_fract_x
_atom_site_fract_y
_atom_site_fract_z
Si Si1 0.531714 0.201781 0.978025
Si Si2 0.758674 0.909154 0.630853
Si Si3 0.104158 0.530659 0.250261
Si Si4 0.068766 0.236968 0.312772
Si Si5 0.125726 0.429795 0.570388
Si Si6 0.209085 0.164662 0.969843
O O1 0.479810 0.233354 0.896428
O O2 0.596274 0.069844 0.970161
O O3 0.454177 0.179194 0.046483
O O4 0.600706 0.324612 0.002747
O O5 0.667545 0.893541 0.685793
O O6 0.847933 0.867408 0.680955
O O7 0.745837 0.810356 0.557065
O O8 0.777421 0.061100 0.602346
O O9 0.104767 0.374370 0.273374
O O10 0.142635 0.552506 0.162887
O O11 0.000000 0.591392 0.250000
O O12 0.000000 0.167074 0.250000
O O13 0.226960 0.383067 0.541812
#
# Coordination Sequence:
#
# PCOD8248373 Si02
#       6
#     8   8   8   8   8   8
#     4  11  22  42  69  95 135 174 226 271 333 411
#     4  12  24  45  65 100 133 174 219 283 339 397
#     4  11  22  40  71  96 129 176 228 267 327 409
#     4  11  23  43  67  95 134 182 215 273 341 400
#     4  11  22  40  68 103 126 179 231 271 331 413
#     4  12  25  42  70  97 134 175 226 281 338 397
#
# _framework density 19.981009
#
# number of rings (size 3 to 8) (size 9 to 14) (size 15 to 20)
#    0.000    0.667    8.333    1.000    2.333    0.667 
#    0.000    2.500    0.000    0.000    0.000    0.000 
#    0.000    0.000    0.000    0.000    0.000    0.000 
#
# Total GULP energy -595216.608730 kJ/mol
# GULP energy per Si atom -12400.346015 kJ/mol
# Density = 1.993553 g / cm^3
# Si number density = 19.981009 Si / 1000 Ang^3
#
#
#
# Elastic Constant Matrix: (Units=GPa)
#
#
# Indices 1 2 3 4 5 6 
#
# 1 140.2407 49.2805 57.1158 0.0000 0.0000 0.0000
# 2 49.2805 57.6499 35.2627 0.0000 0.0000 0.0000
# 3 57.1158 35.2627 124.2140 0.0000 0.0000 0.0000
# 4 0.0000 0.0000 0.0000 20.3162 0.0000 0.0000
# 5 0.0000 0.0000 0.0000 0.0000 44.3059 0.0000
# 6 0.0000 0.0000 0.0000 0.0000 0.0000 15.4258
#
#
#
# Elastic Compliance Matrix: (Units=1/GPa)
#
#
# Indices 1 2 3 4 5 6 
#
# 1 0.010986 -0.007625 -0.002887 0.000000 0.000000 0.000000
# 2 -0.007625 0.026284 -0.003955 0.000000 0.000000 0.000000
# 3 -0.002887 -0.003955 0.010501 0.000000 0.000000 0.000000
# 4 0.000000 0.000000 0.000000 0.049222 0.000000 0.000000
# 5 0.000000 0.000000 0.000000 0.000000 0.022570 0.000000
# 6 0.000000 0.000000 0.000000 0.000000 0.000000 0.064826
#
#
# Mechanical properties :
#
#
# Convention : Reuss Voigt Hill
#
# Bulk Modulus (GPa) = 53.09077 67.26919 60.17998
# Shear Modulus (GPa) = 22.76845 28.03928 25.40387
#
# Velocity S-wave (km/s) = 3.37932 3.75012 3.56954
# Velocity P-wave (km/s) = 6.46952 7.24506 6.86824
#
# Compressibility (1/GPa) = 0.01883566
#
# Stress axis : x y z
#
# Youngs Moduli (GPa) = 91.02682 38.04651 95.23001
#
# Poissons Ratio (x) = 0.29011 0.27491
# Poissons Ratio (y) = 0.69409 0.37667
# Poissons Ratio (z) = 0.26277 0.15049
#
# Static dielectric constant tensor:
#      x y z
#    x 3.987100 0.000000 0.000000 
#    y 0.000000 3.481060 0.000000 
#    z 0.000000 0.000000 3.697100 
# 
# 
# High freq. dielectric constant tensor:
#      x y z
#    x 1.794160 0.000000 0.000000 
#    y 0.000000 1.754700 0.000000 
#    z 0.000000 0.000000 1.786920 
# 
# From -- ./inp_files/20018.got.cif
#   From: 2010.03.12/outbox.cif.g09.slc.cpg/sg60_11_cif.got.tgz:20018.got - 2010.04.10 18:46:24.
