data_PCOD8248595
_publ_section_title
;
Structure prediction by ZEFSAII (Michael W. Deem and Ramdas Pophale) SiO2 
 PCOD8248595
Probable space group: P B C N
;
_chemical_formula_sum "Si O2"
_cell_formula_units_Z 20
_cell_length_a 4.912025
_cell_length_b 15.769199
_cell_length_c 8.726702
_cell_angle_alpha 90.000000
_cell_angle_beta 90.000000
_cell_angle_gamma 90.000000
_cell_volume 675.958990
_symmetry_space_group_name_H-M "P B C N"
_symmetry_group_IT_number 60
_symmetry_cell_setting 'orthorhombic'
loop_
_space_group_symop_operation_xyz
x,y,z
1/2-x,1/2-y,1/2+z
1/2+x,1/2-y,-z
-x,y,1/2-z
-x,-y,-z
1/2+x,1/2+y,1/2-z
1/2-x,1/2+y,z
x,-y,1/2+z
loop_
_atom_site_type_symbol
_atom_site_label
_atom_site_fract_x
_atom_site_fract_y
_atom_site_fract_z
Si Si1 0.150484 0.859520 0.490771
Si Si2 0.000000 0.265149 0.250000
Si Si3 0.246379 0.524664 0.644672
O O1 0.159773 0.792222 0.626996
O O2 0.274224 0.820928 0.336252
O O3 0.157222 0.892737 0.045654
O O4 0.329550 0.943409 0.537622
O O5 0.500000 0.494493 0.750000
O O6 0.000000 0.553554 0.750000
#
# Coordination Sequence:
#
# PCOD8248595 Si02
#       3
#     8   4   8
#     4  11  30  55  93 137 185 239 312 372 474 540
#     4  12  30  56  92 138 186 242 294 402 456 546
#     4  11  28  58  94 131 180 247 307 373 448 571
#
# _framework density 29.587592000000001
#
# number of rings (size 3 to 8) (size 9 to 14) (size 15 to 20)
#    0.000    0.800    2.000    0.000   14.000    6.400 
#    0.000    0.000    0.000    0.000    0.000    0.000 
#    0.000    0.000    0.000    0.000    0.000    0.000 
#
# Total GULP energy -248163.662816 kJ/mol
# GULP energy per Si atom -12408.183141 kJ/mol
# Density = 2.952025 g / cm^3
# Si number density = 29.587592 Si / 1000 Ang^3
#
#
#
# Elastic Constant Matrix: (Units=GPa)
#
#
# Indices 1 2 3 4 5 6 
#
# 1 143.4194 86.5472 73.8312 0.0000 0.0000 0.0000
# 2 86.5472 240.2564 112.0165 0.0000 0.0000 0.0000
# 3 73.8312 112.0165 213.2136 0.0000 0.0000 0.0000
# 4 0.0000 0.0000 0.0000 78.3179 0.0000 0.0000
# 5 0.0000 0.0000 0.0000 0.0000 70.6434 0.0000
# 6 0.0000 0.0000 0.0000 0.0000 0.0000 24.3889
#
#
#
# Elastic Compliance Matrix: (Units=1/GPa)
#
#
# Indices 1 2 3 4 5 6 
#
# 1 0.009498 -0.002501 -0.001975 0.000000 0.000000 0.000000
# 2 -0.002501 0.006171 -0.002376 0.000000 0.000000 0.000000
# 3 -0.001975 -0.002376 0.006622 0.000000 0.000000 0.000000
# 4 0.000000 0.000000 0.000000 0.012768 0.000000 0.000000
# 5 0.000000 0.000000 0.000000 0.000000 0.014156 0.000000
# 6 0.000000 0.000000 0.000000 0.000000 0.000000 0.041002
#
#
# Mechanical properties :
#
#
# Convention : Reuss Voigt Hill
#
# Bulk Modulus (GPa) = 116.44604 126.85327 121.64965
# Shear Modulus (GPa) = 46.82313 56.30300 51.56307
#
# Velocity S-wave (km/s) = 3.98241 4.36699 4.17913
# Velocity P-wave (km/s) = 7.78383 8.27009 8.03064
#
# Compressibility (1/GPa) = 0.00858767
#
# Stress axis : x y z
#
# Youngs Moduli (GPa) = 105.28008 162.05257 151.00105
#
# Poissons Ratio (x) = 0.40524 0.29828
# Poissons Ratio (y) = 0.26327 0.35879
# Poissons Ratio (z) = 0.20796 0.38505
#
# Static dielectric constant tensor:
#      x y z
#    x 5.616000 0.000000 0.000000 
#    y 0.000000 5.820210 0.000000 
#    z 0.000000 0.000000 6.550850 
# 
# 
# High freq. dielectric constant tensor:
#      x y z
#    x 2.206310 0.000000 0.000000 
#    y 0.000000 2.231250 0.000000 
#    z 0.000000 0.000000 2.242400 
# 
# From -- ./inp_files/2813.got.cif
#   From: 2010.03.12/outbox.cif.g09.slc.cpg/sg60_2_cif.got.tgz:2813.got - 2010.04.10 18:46:24.
