data_PCOD8248088
_publ_section_title
;
Structure prediction by ZEFSAII (Michael W. Deem and Ramdas Pophale) SiO2 
 PCOD8248088
Probable space group: P B C N
;
_chemical_formula_sum "Si O2"
_cell_formula_units_Z 56
_cell_length_a 14.145388
_cell_length_b 22.285042
_cell_length_c 8.984954
_cell_angle_alpha 90.000000
_cell_angle_beta 90.000000
_cell_angle_gamma 90.000000
_cell_volume 2832.332132
_symmetry_space_group_name_H-M "P B C N"
_symmetry_group_IT_number 60
_symmetry_cell_setting 'orthorhombic'
loop_
_space_group_symop_operation_xyz
x,y,z
1/2-x,1/2-y,1/2+z
1/2+x,1/2-y,-z
-x,y,1/2-z
-x,-y,-z
1/2+x,1/2+y,1/2-z
1/2-x,1/2+y,z
x,-y,1/2+z
loop_
_atom_site_type_symbol
_atom_site_label
_atom_site_fract_x
_atom_site_fract_y
_atom_site_fract_z
Si Si1 0.852479 0.583892 0.007520
Si Si2 0.518191 0.737935 0.082649
Si Si3 0.299827 0.000348 0.753793
Si Si4 0.191192 0.794698 0.560480
Si Si5 0.730024 0.083339 0.487572
Si Si6 0.210696 0.184372 0.403016
Si Si7 0.033516 0.643400 0.079649
O O1 0.871799 0.540075 0.148126
O O2 0.756441 0.622263 0.038639
O O3 0.941738 0.626305 0.983515
O O4 0.851090 0.544840 0.858977
O O5 0.500000 0.762101 0.250000
O O6 0.419518 0.711647 0.027974
O O7 0.596965 0.685011 0.075486
O O8 0.560037 0.790391 0.977981
O O9 0.233955 0.954233 0.657875
O O10 0.244929 0.041839 0.871140
O O11 0.215943 0.855876 0.475969
O O12 0.243178 0.738044 0.493941
O O13 0.229003 0.804330 0.728398
O O14 0.618642 0.097425 0.455496
O O15 0.000000 0.645422 0.250000
#
# Coordination Sequence:
#
# PCOD8248088 Si02
#       7
#     8   8   8   8   8   8   8
#     4  11  23  40  61  86 122 157 201 246 295 357
#     4  10  24  38  59  90 123 158 194 241 310 360
#     4  10  24  41  60  85 118 166 202 239 294 357
#     4  11  22  39  62  89 120 157 196 250 304 350
#     4  11  23  40  61  86 122 157 201 246 295 357
#     4  11  22  39  62  89 120 157 196 250 304 350
#     4  12  22  35  56  91 124 153 195 246 293 366
#
# _framework density 19.771692000000002
#
# number of rings (size 3 to 8) (size 9 to 14) (size 15 to 20)
#    0.000    1.143    5.714    0.000    4.000    3.429 
#    0.000    0.000    0.000    5.143    0.000    0.000 
#    0.000    0.000    0.000    0.000    0.000    0.000 
#
# Total GULP energy -693898.188895 kJ/mol
# GULP energy per Si atom -12391.039087 kJ/mol
# Density = 1.972669 g / cm^3
# Si number density = 19.771692 Si / 1000 Ang^3
#
#
#
# Elastic Constant Matrix: (Units=GPa)
#
#
# Indices 1 2 3 4 5 6 
#
# 1 87.9451 35.8104 21.1232 0.0000 0.0000 0.0000
# 2 35.8104 99.9480 40.9671 0.0000 0.0000 0.0000
# 3 21.1232 40.9671 88.7259 0.0000 0.0000 0.0000
# 4 0.0000 0.0000 0.0000 26.3817 0.0000 0.0000
# 5 0.0000 0.0000 0.0000 0.0000 15.8436 0.0000
# 6 0.0000 0.0000 0.0000 0.0000 0.0000 -14.5625
#
#
#
# Elastic Compliance Matrix: (Units=1/GPa)
#
#
# Indices 1 2 3 4 5 6 
#
# 1 0.013416 -0.004314 -0.001202 0.000000 0.000000 0.000000
# 2 -0.004314 0.013728 -0.005311 0.000000 0.000000 0.000000
# 3 -0.001202 -0.005311 0.014009 0.000000 0.000000 0.000000
# 4 0.000000 0.000000 0.000000 0.037905 0.000000 0.000000
# 5 0.000000 0.000000 0.000000 0.000000 0.063117 0.000000
# 6 0.000000 0.000000 0.000000 0.000000 0.000000 -0.068670
#
#
# Mechanical properties :
#
#
# Convention : Reuss Voigt Hill
#
# Bulk Modulus (GPa) = 51.28726 52.49115 51.88921
# Shear Modulus (GPa) = 49.18324 17.44712 33.31518
#
# Velocity S-wave (km/s) = 4.99295 2.97379 4.10932
# Velocity P-wave (km/s) = 7.69646 6.19657 6.98688
#
# Compressibility (1/GPa) = 0.01949802
#
# Stress axis : x y z
#
# Youngs Moduli (GPa) = 74.53709 72.84368 71.38120
#
# Poissons Ratio (x) = 0.31426 0.08580
# Poissons Ratio (y) = 0.32157 0.37914
# Poissons Ratio (z) = 0.08960 0.38691
#
# Static dielectric constant tensor:
#      x y z
#    x 3.549430 0.000000 0.000000 
#    y 0.000000 3.800730 0.000000 
#    z 0.000000 0.000000 3.809590 
# 
# 
# High freq. dielectric constant tensor:
#      x y z
#    x 1.737870 0.000000 0.000000 
#    y 0.000000 1.781600 0.000000 
#    z 0.000000 0.000000 1.783150 
# 
# From -- ./inp_files/6143.got.cif
#   From: 2010.03.12/outbox.cif.g09.slc.cpg/sg60_4_cif.got.tgz:6143.got - 2010.04.10 18:46:24.
