data_PCOD8248374
_publ_section_title
;
Structure prediction by ZEFSAII (Michael W. Deem and Ramdas Pophale) SiO2 
 PCOD8248374
Probable space group: P B C N
;
_chemical_formula_sum "Si O2"
_cell_formula_units_Z 60
_cell_length_a 9.003852
_cell_length_b 19.659956
_cell_length_c 16.089029
_cell_angle_alpha 90.000000
_cell_angle_beta 90.000000
_cell_angle_gamma 90.000000
_cell_volume 2848.004845
_symmetry_space_group_name_H-M "P B C N"
_symmetry_group_IT_number 60
_symmetry_cell_setting 'orthorhombic'
loop_
_space_group_symop_operation_xyz
x,y,z
1/2-x,1/2-y,1/2+z
1/2+x,1/2-y,-z
-x,y,1/2-z
-x,-y,-z
1/2+x,1/2+y,1/2-z
1/2-x,1/2+y,z
x,-y,1/2+z
loop_
_atom_site_type_symbol
_atom_site_label
_atom_site_fract_x
_atom_site_fract_y
_atom_site_fract_z
Si Si1 0.438405 0.245257 0.665735
Si Si2 0.584617 0.600247 0.866800
Si Si3 0.912225 0.747172 0.331497
Si Si4 0.951052 0.889253 0.623604
Si Si5 0.951669 0.332866 0.001694
Si Si6 0.319655 0.576970 0.989831
Si Si7 0.000000 0.994766 0.750000
Si Si8 0.707876 0.927147 0.503605
O O1 0.500000 0.207920 0.750000
O O2 0.264231 0.259053 0.677120
O O3 0.523597 0.316594 0.664017
O O4 0.477937 0.205898 0.580597
O O5 0.541982 0.674251 0.834860
O O6 0.614512 0.545877 0.794356
O O7 0.446747 0.572363 0.920807
O O8 0.741135 0.599335 0.913480
O O9 0.000000 0.716662 0.250000
O O10 0.961389 0.712335 0.418229
O O11 0.101170 0.915697 0.578750
O O12 0.811826 0.882853 0.563620
O O13 0.904897 0.945498 0.691105
O O14 0.040059 0.402910 0.983110
O O15 0.784505 0.356835 0.022889
O O16 0.224147 0.507885 0.985497
#
# Coordination Sequence:
#
# PCOD8248374 Si02
#       8
#     8   8   8   8   8   8   4   8
#     4  12  28  45  69 103 138 181 228 283 344 410
#     4  11  22  40  71  94 129 175 231 274 330 406
#     4  12  28  45  69 103 138 181 228 283 344 410
#     4  11  22  40  71  94 129 175 231 274 330 406
#     4  12  27  44  68  99 144 178 222 286 346 409
#     4  11  22  43  67  97 129 179 224 276 339 403
#     4  12  20  38  68 102 124 166 230 290 314 396
#     4  11  22  43  67  97 129 179 224 276 339 403
#
# _framework density 21.067381000000001
#
# number of rings (size 3 to 8) (size 9 to 14) (size 15 to 20)
#    0.000    0.533    6.667    2.800    3.733    0.000 
#    0.000    0.000    0.000    3.200    0.000    0.000 
#    0.000    0.000    0.000    0.000    0.000    0.000 
#
# Total GULP energy -743729.995137 kJ/mol
# GULP energy per Si atom -12395.499919 kJ/mol
# Density = 2.101943 g / cm^3
# Si number density = 21.067381 Si / 1000 Ang^3
#
#
#
# Elastic Constant Matrix: (Units=GPa)
#
#
# Indices 1 2 3 4 5 6 
#
# 1 86.4478 18.9956 40.7864 0.0000 0.0000 0.0000
# 2 18.9956 96.5763 33.8814 0.0000 0.0000 0.0000
# 3 40.7864 33.8814 128.4382 0.0000 0.0000 0.0000
# 4 0.0000 0.0000 0.0000 16.1267 0.0000 0.0000
# 5 0.0000 0.0000 0.0000 0.0000 10.5210 0.0000
# 6 0.0000 0.0000 0.0000 0.0000 0.0000 29.9896
#
#
#
# Elastic Compliance Matrix: (Units=1/GPa)
#
#
# Indices 1 2 3 4 5 6 
#
# 1 0.013751 -0.001292 -0.004026 0.000000 0.000000 0.000000
# 2 -0.001292 0.011532 -0.002632 0.000000 0.000000 0.000000
# 3 -0.004026 -0.002632 0.009758 0.000000 0.000000 0.000000
# 4 0.000000 0.000000 0.000000 0.062009 0.000000 0.000000
# 5 0.000000 0.000000 0.000000 0.000000 0.095048 0.000000
# 6 0.000000 0.000000 0.000000 0.000000 0.000000 0.033345
#
#
# Mechanical properties :
#
#
# Convention : Reuss Voigt Hill
#
# Bulk Modulus (GPa) = 52.24164 55.42100 53.83132
# Shear Modulus (GPa) = 20.18377 25.84739 23.01558
#
# Velocity S-wave (km/s) = 3.09861 3.50650 3.30885
# Velocity P-wave (km/s) = 6.13621 6.53894 6.34077
#
# Compressibility (1/GPa) = 0.01914182
#
# Stress axis : x y z
#
# Youngs Moduli (GPa) = 72.72179 86.71559 102.47485
#
# Poissons Ratio (x) = 0.11207 0.41255
# Poissons Ratio (y) = 0.09398 0.26968
# Poissons Ratio (z) = 0.29276 0.22821
#
# Static dielectric constant tensor:
#      x y z
#    x 3.723240 0.000000 0.000000 
#    y 0.000000 3.802140 0.000000 
#    z 0.000000 0.000000 4.109430 
# 
# 
# High freq. dielectric constant tensor:
#      x y z
#    x 1.807980 0.000000 0.000000 
#    y 0.000000 1.834140 0.000000 
#    z 0.000000 0.000000 1.836950 
# 
# From -- ./inp_files/19568.got.cif
#   From: 2010.03.12/outbox.cif.g09.slc.cpg/sg60_10_cif.got.tgz:19568.got - 2010.04.10 18:46:24.
