data_PCOD8248011
_publ_section_title
;
Structure prediction by ZEFSAII (Michael W. Deem and Ramdas Pophale) SiO2 
 PCOD8248011
Probable space group: P B C N
;
_chemical_formula_sum "Si O2"
_cell_formula_units_Z 52
_cell_length_a 9.135078
_cell_length_b 10.628263
_cell_length_c 26.716553
_cell_angle_alpha 90.000000
_cell_angle_beta 90.000000
_cell_angle_gamma 90.000000
_cell_volume 2593.910438
_symmetry_space_group_name_H-M "P B C N"
_symmetry_group_IT_number 60
_symmetry_cell_setting 'orthorhombic'
loop_
_space_group_symop_operation_xyz
x,y,z
1/2-x,1/2-y,1/2+z
1/2+x,1/2-y,-z
-x,y,1/2-z
-x,-y,-z
1/2+x,1/2+y,1/2-z
1/2-x,1/2+y,z
x,-y,1/2+z
loop_
_atom_site_type_symbol
_atom_site_label
_atom_site_fract_x
_atom_site_fract_y
_atom_site_fract_z
Si Si1 0.555006 0.841407 0.357826
Si Si2 0.685559 0.298033 0.285998
Si Si3 0.000000 0.010935 0.250000
Si Si4 0.110964 0.656303 0.041006
Si Si5 0.000118 0.625640 0.150179
Si Si6 0.697279 0.692460 0.186612
Si Si7 0.656965 0.869500 0.467750
O O1 0.679604 0.780535 0.323503
O O2 0.400452 0.775380 0.350062
O O3 0.590143 0.824630 0.415634
O O4 0.545912 0.983984 0.341356
O O5 0.606822 0.432965 0.286807
O O6 0.564308 0.197615 0.302114
O O7 0.735835 0.279884 0.229384
O O8 0.901249 0.087465 0.211968
O O9 0.205098 0.776796 0.022241
O O10 0.195186 0.520471 0.034059
O O11 0.065832 0.679131 0.098531
O O12 0.960866 0.654146 0.010556
O O13 0.824000 0.634935 0.151603
#
# Coordination Sequence:
#
# PCOD8248011 Si02
#       7
#     8   8   4   8   8   8   8
#     4  11  24  42  64  90 127 171 209 265 318 381
#     4  12  22  41  62  89 124 170 212 258 312 379
#     4  12  24  38  62  92 130 164 222 258 316 378
#     4  10  23  45  68 100 129 169 213 270 326 391
#     4  11  24  42  64  90 129 168 213 263 322 380
#     4  12  24  40  60  94 125 169 213 263 312 377
#     4  10  23  43  69  96 133 165 217 266 326 388
#
# _framework density 20.046952000000001
#
# number of rings (size 3 to 8) (size 9 to 14) (size 15 to 20)
#    0.000    0.923    4.615    1.846    2.154    1.846 
#    0.000    0.000    0.000    0.000    0.000    0.000 
#    0.000    0.000    0.000    0.000    0.000    0.000 
#
# Total GULP energy -644808.144193 kJ/mol
# GULP energy per Si atom -12400.156619 kJ/mol
# Density = 2.000132 g / cm^3
# Si number density = 20.046952 Si / 1000 Ang^3
#
#
#
# Elastic Constant Matrix: (Units=GPa)
#
#
# Indices 1 2 3 4 5 6 
#
# 1 93.7758 32.8696 13.6929 0.0000 0.0000 0.0000
# 2 32.8696 79.7177 17.1733 0.0000 0.0000 0.0000
# 3 13.6929 17.1733 39.1985 0.0000 0.0000 0.0000
# 4 0.0000 0.0000 0.0000 26.8968 0.0000 0.0000
# 5 0.0000 0.0000 0.0000 0.0000 37.4447 0.0000
# 6 0.0000 0.0000 0.0000 0.0000 0.0000 47.6577
#
#
#
# Elastic Compliance Matrix: (Units=1/GPa)
#
#
# Indices 1 2 3 4 5 6 
#
# 1 0.012660 -0.004712 -0.002358 0.000000 0.000000 0.000000
# 2 -0.004712 0.015605 -0.005191 0.000000 0.000000 0.000000
# 3 -0.002358 -0.005191 0.028609 0.000000 0.000000 0.000000
# 4 0.000000 0.000000 0.000000 0.037179 0.000000 0.000000
# 5 0.000000 0.000000 0.000000 0.000000 0.026706 0.000000
# 6 0.000000 0.000000 0.000000 0.000000 0.000000 0.020983
#
#
# Mechanical properties :
#
#
# Convention : Reuss Voigt Hill
#
# Bulk Modulus (GPa) = 30.90948 37.79593 34.35270
# Shear Modulus (GPa) = 28.24095 32.33025 30.28560
#
# Velocity S-wave (km/s) = 3.75739 4.02023 3.89103
# Velocity P-wave (km/s) = 5.85457 6.35959 6.11230
#
# Compressibility (1/GPa) = 0.03235254
#
# Stress axis : x y z
#
# Youngs Moduli (GPa) = 78.99134 64.08061 34.95398
#
# Poissons Ratio (x) = 0.30194 0.08242
# Poissons Ratio (y) = 0.37220 0.18144
# Poissons Ratio (z) = 0.18626 0.33264
#
# Static dielectric constant tensor:
#      x y z
#    x 4.006800 0.000000 0.000000 
#    y 0.000000 3.921940 0.000000 
#    z 0.000000 0.000000 3.627150 
# 
# 
# High freq. dielectric constant tensor:
#      x y z
#    x 1.791420 0.000000 0.000000 
#    y 0.000000 1.788750 0.000000 
#    z 0.000000 0.000000 1.782140 
# 
# From -- ./inp_files/25165.got.cif
#   From: 2010.03.12/outbox.cif.g09.slc.cpg/sg60_13_cif.got.tgz:25165.got - 2010.04.10 18:46:24.
