data_PCOD8248990
_publ_section_title
;
Structure prediction by ZEFSAII (Michael W. Deem and Ramdas Pophale) SiO2 
 PCOD8248990
Probable space group: P B C A
;
_chemical_formula_sum "Si O2"
_cell_formula_units_Z 48
_cell_length_a 9.156164
_cell_length_b 9.362975
_cell_length_c 28.604338
_cell_angle_alpha 90.000000
_cell_angle_beta 90.000000
_cell_angle_gamma 90.000000
_cell_volume 2452.219422
_symmetry_space_group_name_H-M "P B C A"
_symmetry_group_IT_number 61
_symmetry_cell_setting 'orthorhombic'
loop_
_space_group_symop_operation_xyz
x,y,z
1/2-x,-y,1/2+z
1/2+x,1/2-y,-z
-x,1/2+y,1/2-z
-x,-y,-z
1/2+x,y,1/2-z
1/2-x,1/2+y,z
x,1/2-y,1/2+z
loop_
_atom_site_type_symbol
_atom_site_label
_atom_site_fract_x
_atom_site_fract_y
_atom_site_fract_z
Si Si1 0.885737 0.553060 0.287919
Si Si2 0.559159 0.431028 0.373447
Si Si3 0.580126 0.887090 0.031501
Si Si4 0.888378 0.615777 0.484352
Si Si5 0.204021 0.141268 0.116212
Si Si6 0.906588 0.621630 0.772669
O O1 0.902157 0.578280 0.343527
O O2 0.744215 0.460222 0.277766
O O3 0.882202 0.709247 0.262636
O O4 0.017280 0.454245 0.270896
O O5 0.432441 0.419991 0.412671
O O6 0.629733 0.590063 0.373958
O O7 0.687777 0.313412 0.384286
O O8 0.499264 0.400280 0.320947
O O9 0.486688 0.753019 0.017404
O O10 0.751002 0.868741 0.019564
O O11 0.500000 0.000000 0.000000
O O12 0.833711 0.572098 0.433283
O O13 0.000000 0.500000 0.500000
#
# Coordination Sequence:
#
# PCOD8248990 Si02
#       6
#     8   8   8   8   8   8
#     4  10  20  37  60  85 116 156 198 243 300 355
#     4   9  19  35  58  84 117 153 194 241 290 354
#     4  11  21  37  60  85 119 156 195 245 293 349
#     4  11  23  38  58  86 117 154 202 246 293 357
#     4   9  19  35  58  83 115 151 194 237 292 356
#     4  10  20  37  60  86 118 156 198 246 298 357
#
# _framework density 19.574103999999998
#
# number of rings (size 3 to 8) (size 9 to 14) (size 15 to 20)
#    0.000    2.000    1.667    2.000    2.333    1.333 
#    3.000    0.000    0.000    0.000    0.000    0.000 
#    0.000    0.000    0.000    0.000    0.000    0.000 
#
# Total GULP energy -594693.198437 kJ/mol
# GULP energy per Si atom -12389.441634 kJ/mol
# Density = 1.952955 g / cm^3
# Si number density = 19.574104 Si / 1000 Ang^3
#
#
#
# Elastic Constant Matrix: (Units=GPa)
#
#
# Indices 1 2 3 4 5 6 
#
# 1 56.6247 3.1280 3.1033 0.0000 0.0000 0.0000
# 2 3.1280 76.0133 11.9593 0.0000 0.0000 0.0000
# 3 3.1033 11.9593 54.8596 0.0000 0.0000 0.0000
# 4 0.0000 0.0000 0.0000 25.6517 0.0000 0.0000
# 5 0.0000 0.0000 0.0000 0.0000 29.7263 0.0000
# 6 0.0000 0.0000 0.0000 0.0000 0.0000 34.3470
#
#
#
# Elastic Compliance Matrix: (Units=1/GPa)
#
#
# Indices 1 2 3 4 5 6 
#
# 1 0.017741 -0.000592 -0.000874 0.000000 0.000000 0.000000
# 2 -0.000592 0.013643 -0.002941 0.000000 0.000000 0.000000
# 3 -0.000874 -0.002941 0.018919 0.000000 0.000000 0.000000
# 4 0.000000 0.000000 0.000000 0.038984 0.000000 0.000000
# 5 0.000000 0.000000 0.000000 0.000000 0.033640 0.000000
# 6 0.000000 0.000000 0.000000 0.000000 0.000000 0.029115
#
#
# Mechanical properties :
#
#
# Convention : Reuss Voigt Hill
#
# Bulk Modulus (GPa) = 24.10370 24.87542 24.48956
# Shear Modulus (GPa) = 28.62297 29.23213 28.92755
#
# Velocity S-wave (km/s) = 3.82814 3.86866 3.84845
# Velocity P-wave (km/s) = 5.64626 5.71763 5.68206
#
# Compressibility (1/GPa) = 0.04148740
#
# Stress axis : x y z
#
# Youngs Moduli (GPa) = 56.36733 73.29976 52.85736
#
# Poissons Ratio (x) = 0.04343 0.04622
# Poissons Ratio (y) = 0.03340 0.15543
# Poissons Ratio (z) = 0.04929 0.21554
#
# Static dielectric constant tensor:
#      x y z
#    x 3.445550 0.000000 0.000000 
#    y 0.000000 -0.010510 0.000000 
#    z 0.000000 0.000000 4.889190 
# 
# 
# High freq. dielectric constant tensor:
#      x y z
#    x 1.727920 0.000000 0.000000 
#    y 0.000000 1.780300 0.000000 
#    z 0.000000 0.000000 1.772210 
# 
# From -- ./inp_files/1856.got.cif
#   From: 2010.03.12/outbox.cif.g09.slc.cpg/sg61_1_cif.got.tgz:1856.got - 2010.04.10 19:05:03.
