data_PCOD8248684
_publ_section_title
;
Structure prediction by ZEFSAII (Michael W. Deem and Ramdas Pophale) SiO2 
 PCOD8248684
Probable space group: P B C N
;
_chemical_formula_sum "Si O2"
_cell_formula_units_Z 32
_cell_length_a 10.389796
_cell_length_b 9.593290
_cell_length_c 13.394604
_cell_angle_alpha 90.000000
_cell_angle_beta 90.000000
_cell_angle_gamma 90.000000
_cell_volume 1335.071337
_symmetry_space_group_name_H-M "P B C N"
_symmetry_group_IT_number 60
_symmetry_cell_setting 'orthorhombic'
loop_
_space_group_symop_operation_xyz
x,y,z
1/2-x,1/2-y,1/2+z
1/2+x,1/2-y,-z
-x,y,1/2-z
-x,-y,-z
1/2+x,1/2+y,1/2-z
1/2-x,1/2+y,z
x,-y,1/2+z
loop_
_atom_site_type_symbol
_atom_site_label
_atom_site_fract_x
_atom_site_fract_y
_atom_site_fract_z
Si Si1 0.268329 0.549662 0.314996
Si Si2 0.722047 0.823395 0.315021
Si Si3 0.908803 0.631255 0.014772
Si Si4 0.490777 0.410656 0.099160
O O1 0.263021 0.675891 0.237274
O O2 0.171528 0.432263 0.269036
O O3 0.220214 0.588406 0.425706
O O4 0.409979 0.481141 0.323328
O O5 0.625365 0.805120 0.406944
O O6 0.850075 0.902480 0.353770
O O7 0.976920 0.749322 0.079031
O O8 0.000000 0.500000 0.000000
O O9 0.500000 0.500000 0.000000
#
# Coordination Sequence:
#
# PCOD8248684 Si02
#       4
#     8   8   8   8
#     4  12  27  49  76 115 153 204 261 320 389 473
#     4  12  27  49  79 111 155 205 261 320 399 473
#     4  12  29  49  78 114 157 198 262 333 394 471
#     4  12  26  50  80 110 157 205 260 323 397 466
#
# _framework density 23.968757
#
# number of rings (size 3 to 8) (size 9 to 14) (size 15 to 20)
#    0.000    0.000    5.000    3.750    7.000    3.000 
#    0.000    0.000    0.000    0.000    0.000    0.000 
#    0.000    0.000    0.000    0.000    0.000    0.000 
#
# Total GULP energy -396761.729247 kJ/mol
# GULP energy per Si atom -12398.804039 kJ/mol
# Density = 2.391420 g / cm^3
# Si number density = 23.968757 Si / 1000 Ang^3
#
#
#
# Elastic Constant Matrix: (Units=GPa)
#
#
# Indices 1 2 3 4 5 6 
#
# 1 66.1766 25.0655 19.3247 0.0000 0.0000 0.0000
# 2 25.0655 143.0493 26.5043 0.0000 0.0000 0.0000
# 3 19.3247 26.5043 106.6038 0.0000 0.0000 0.0000
# 4 0.0000 0.0000 0.0000 57.2902 0.0000 0.0000
# 5 0.0000 0.0000 0.0000 0.0000 29.2132 0.0000
# 6 0.0000 0.0000 0.0000 0.0000 0.0000 40.9060
#
#
#
# Elastic Compliance Matrix: (Units=1/GPa)
#
#
# Indices 1 2 3 4 5 6 
#
# 1 0.016760 -0.002488 -0.002420 0.000000 0.000000 0.000000
# 2 -0.002488 0.007698 -0.001463 0.000000 0.000000 0.000000
# 3 -0.002420 -0.001463 0.010183 0.000000 0.000000 0.000000
# 4 0.000000 0.000000 0.000000 0.017455 0.000000 0.000000
# 5 0.000000 0.000000 0.000000 0.000000 0.034231 0.000000
# 6 0.000000 0.000000 0.000000 0.000000 0.000000 0.024446
#
#
# Mechanical properties :
#
#
# Convention : Reuss Voigt Hill
#
# Bulk Modulus (GPa) = 45.66378 50.84651 48.25514
# Shear Modulus (GPa) = 38.22214 41.81089 40.01651
#
# Velocity S-wave (km/s) = 3.99766 4.18112 4.09042
# Velocity P-wave (km/s) = 6.35619 6.67598 6.51805
#
# Compressibility (1/GPa) = 0.02189920
#
# Stress axis : x y z
#
# Youngs Moduli (GPa) = 59.66522 129.90975 98.20481
#
# Poissons Ratio (x) = 0.32328 0.23761
# Poissons Ratio (y) = 0.14848 0.14365
# Poissons Ratio (z) = 0.14436 0.19002
#
# Static dielectric constant tensor:
#      x y z
#    x 4.201520 0.000000 0.000000 
#    y 0.000000 4.484970 0.000000 
#    z 0.000000 0.000000 5.097020 
# 
# 
# High freq. dielectric constant tensor:
#      x y z
#    x 1.931380 0.000000 0.000000 
#    y 0.000000 1.972100 0.000000 
#    z 0.000000 0.000000 1.984520 
# 
# From -- ./inp_files/15588.got.cif
#   From: 2010.03.12/outbox.cif.g09.slc.cpg/sg60_8_cif.got.tgz:15588.got - 2010.04.10 18:46:24.
