data_PCOD8248620
_publ_section_title
;
Structure prediction by ZEFSAII (Michael W. Deem and Ramdas Pophale) SiO2 
 PCOD8248620
Probable space group: P B C N
;
_chemical_formula_sum "Si O2"
_cell_formula_units_Z 40
_cell_length_a 6.786577
_cell_length_b 10.206939
_cell_length_c 25.946378
_cell_angle_alpha 90.000000
_cell_angle_beta 90.000000
_cell_angle_gamma 90.000000
_cell_volume 1797.310208
_symmetry_space_group_name_H-M "P B C N"
_symmetry_group_IT_number 60
_symmetry_cell_setting 'orthorhombic'
loop_
_space_group_symop_operation_xyz
x,y,z
1/2-x,1/2-y,1/2+z
1/2+x,1/2-y,-z
-x,y,1/2-z
-x,-y,-z
1/2+x,1/2+y,1/2-z
1/2-x,1/2+y,z
x,-y,1/2+z
loop_
_atom_site_type_symbol
_atom_site_label
_atom_site_fract_x
_atom_site_fract_y
_atom_site_fract_z
Si Si1 0.675523 0.322786 0.849615
Si Si2 0.823077 0.588244 0.017330
Si Si3 0.927647 0.796332 0.430590
Si Si4 0.662837 0.496534 0.122864
Si Si5 0.050442 0.546507 0.690701
O O1 0.773917 0.308199 0.906306
O O2 0.454784 0.379836 0.854236
O O3 0.807707 0.422020 0.816426
O O4 0.661535 0.180546 0.823526
O O5 0.711047 0.517869 0.063207
O O6 0.900737 0.727931 0.036919
O O7 0.683146 0.604303 0.968246
O O8 0.000000 0.500000 0.000000
O O9 0.020278 0.870089 0.380615
O O10 0.854515 0.470120 0.156682
O O11 0.000000 0.553951 0.750000
#
# Coordination Sequence:
#
# PCOD8248620 Si02
#       5
#     8   8   8   8   8
#     4  12  26  52  73 111 149 191 252 313 377 453
#     4  12  23  40  68 107 149 200 245 299 369 448
#     4  12  23  43  70 108 151 198 251 301 374 453
#     4  12  25  47  73 107 152 197 249 312 374 446
#     4  12  30  49  80 109 145 198 253 321 388 448
#
# _framework density 22.255481
#
# number of rings (size 3 to 8) (size 9 to 14) (size 15 to 20)
#    0.000    0.000    4.000    6.600    2.800    0.000 
#    0.000    0.000    0.000    0.000    0.000    0.000 
#    0.000    0.000    0.000    0.000    0.000    0.000 
#
# Total GULP energy -496181.590370 kJ/mol
# GULP energy per Si atom -12404.539759 kJ/mol
# Density = 2.220483 g / cm^3
# Si number density = 22.255481 Si / 1000 Ang^3
#
#
#
# Elastic Constant Matrix: (Units=GPa)
#
#
# Indices 1 2 3 4 5 6 
#
# 1 123.2339 57.6354 50.8756 0.0000 0.0000 0.0000
# 2 57.6354 121.5345 39.1763 0.0000 0.0000 0.0000
# 3 50.8756 39.1763 107.1223 0.0000 0.0000 0.0000
# 4 0.0000 0.0000 0.0000 30.8631 0.0000 0.0000
# 5 0.0000 0.0000 0.0000 0.0000 33.2333 0.0000
# 6 0.0000 0.0000 0.0000 0.0000 0.0000 50.7226
#
#
#
# Elastic Compliance Matrix: (Units=1/GPa)
#
#
# Indices 1 2 3 4 5 6 
#
# 1 0.011784 -0.004290 -0.004028 0.000000 0.000000 0.000000
# 2 -0.004290 0.010890 -0.001945 0.000000 0.000000 0.000000
# 3 -0.004028 -0.001945 0.011959 0.000000 0.000000 0.000000
# 4 0.000000 0.000000 0.000000 0.032401 0.000000 0.000000
# 5 0.000000 0.000000 0.000000 0.000000 0.030090 0.000000
# 6 0.000000 0.000000 0.000000 0.000000 0.000000 0.019715
#
#
# Mechanical properties :
#
#
# Convention : Reuss Voigt Hill
#
# Bulk Modulus (GPa) = 70.88456 71.91835 71.40145
# Shear Modulus (GPa) = 35.19475 36.57736 35.88606
#
# Velocity S-wave (km/s) = 3.98099 4.05844 4.01990
# Velocity P-wave (km/s) = 7.28358 7.37199 7.32792
#
# Compressibility (1/GPa) = 0.01410745
#
# Stress axis : x y z
#
# Youngs Moduli (GPa) = 84.86273 91.83149 83.61723
#
# Poissons Ratio (x) = 0.39395 0.33677
# Poissons Ratio (y) = 0.36406 0.16264
# Poissons Ratio (z) = 0.34179 0.17862
#
# Static dielectric constant tensor:
#      x y z
#    x 4.353470 0.000000 0.000000 
#    y 0.000000 3.910020 0.000000 
#    z 0.000000 0.000000 3.834490 
# 
# 
# High freq. dielectric constant tensor:
#      x y z
#    x 1.896470 0.000000 0.000000 
#    y 0.000000 1.893130 0.000000 
#    z 0.000000 0.000000 1.867730 
# 
# From -- ./inp_files/24733.got.cif
#   From: 2010.03.12/outbox.cif.g09.slc.cpg/sg60_13_cif.got.tgz:24733.got - 2010.04.10 18:46:24.
