data_PCOD8248902
_publ_section_title
;
Structure prediction by ZEFSAII (Michael W. Deem and Ramdas Pophale) SiO2 
 PCOD8248902
Probable space group: P B C A
;
_chemical_formula_sum "Si O2"
_cell_formula_units_Z 48
_cell_length_a 21.088915
_cell_length_b 4.951652
_cell_length_c 24.393433
_cell_angle_alpha 90.000000
_cell_angle_beta 90.000000
_cell_angle_gamma 90.000000
_cell_volume 2547.283464
_symmetry_space_group_name_H-M "P B C A"
_symmetry_group_IT_number 61
_symmetry_cell_setting 'orthorhombic'
loop_
_space_group_symop_operation_xyz
x,y,z
1/2-x,-y,1/2+z
1/2+x,1/2-y,-z
-x,1/2+y,1/2-z
-x,-y,-z
1/2+x,y,1/2-z
1/2-x,1/2+y,z
x,1/2-y,1/2+z
loop_
_atom_site_type_symbol
_atom_site_label
_atom_site_fract_x
_atom_site_fract_y
_atom_site_fract_z
Si Si1 0.533954 0.449064 0.315845
Si Si2 0.002226 0.276692 0.568941
Si Si3 0.711204 0.067318 0.204100
Si Si4 0.916982 0.456219 0.257912
Si Si5 0.709621 0.397312 0.576373
Si Si6 0.572989 0.265850 0.537403
O O1 0.535817 0.349555 0.378093
O O2 0.461889 0.420778 0.294924
O O3 0.563356 0.746952 0.306301
O O4 0.578250 0.256602 0.280493
O O5 0.057760 0.332720 0.524557
O O6 0.962324 0.554907 0.579217
O O7 0.951989 0.066111 0.545612
O O8 0.770738 0.874102 0.218787
O O9 0.654637 0.933102 0.238201
O O10 0.692877 0.079687 0.140373
O O11 0.733002 0.695514 0.560053
O O12 0.648136 0.284969 0.545150
#
# Coordination Sequence:
#
# PCOD8248902 Si02
#       6
#     8   8   8   8   8   8
#     4  10  20  33  52  77 103 133 167 210 258 305
#     4  10  20  34  54  79 104 134 170 213 264 312
#     4  10  20  33  51  74 101 134 169 208 253 302
#     4  10  20  33  51  75 103 134 168 209 257 304
#     4  10  20  33  52  77 104 136 171 212 261 310
#     4  10  20  34  54  78 105 135 169 214 263 313
#
# _framework density 18.843606000000001
#
# number of rings (size 3 to 8) (size 9 to 14) (size 15 to 20)
#    0.000    2.000    0.000    4.000    0.000    5.333 
#    0.000    0.000    0.000    6.000    0.000    0.000 
#    0.000    0.000    0.000    0.000    0.000    0.000 
#
# Total GULP energy -594970.562275 kJ/mol
# GULP energy per Si atom -12395.220047 kJ/mol
# Density = 1.880072 g / cm^3
# Si number density = 18.843606 Si / 1000 Ang^3
#
#
#
# Elastic Constant Matrix: (Units=GPa)
#
#
# Indices 1 2 3 4 5 6 
#
# 1 107.0307 24.9249 38.3424 0.0000 0.0000 0.0000
# 2 24.9249 77.7302 5.9139 0.0000 0.0000 0.0000
# 3 38.3424 5.9139 62.3968 0.0000 0.0000 0.0000
# 4 0.0000 0.0000 0.0000 18.9702 0.0000 0.0000
# 5 0.0000 0.0000 0.0000 0.0000 18.8571 0.0000
# 6 0.0000 0.0000 0.0000 0.0000 0.0000 22.3514
#
#
#
# Elastic Compliance Matrix: (Units=1/GPa)
#
#
# Indices 1 2 3 4 5 6 
#
# 1 0.012887 -0.003556 -0.007582 0.000000 0.000000 0.000000
# 2 -0.003556 0.013939 0.000864 0.000000 0.000000 0.000000
# 3 -0.007582 0.000864 0.020604 0.000000 0.000000 0.000000
# 4 0.000000 0.000000 0.000000 0.052714 0.000000 0.000000
# 5 0.000000 0.000000 0.000000 0.000000 0.053030 0.000000
# 6 0.000000 0.000000 0.000000 0.000000 0.000000 0.044740
#
#
# Mechanical properties :
#
#
# Convention : Reuss Voigt Hill
#
# Bulk Modulus (GPa) = 37.19893 42.83554 40.01724
# Shear Modulus (GPa) = 21.98537 23.90086 22.94312
#
# Velocity S-wave (km/s) = 3.41945 3.56530 3.49313
# Velocity P-wave (km/s) = 5.94760 6.30317 6.12796
#
# Compressibility (1/GPa) = 0.02688249
#
# Stress axis : x y z
#
# Youngs Moduli (GPa) = 77.59555 71.73898 48.53475
#
# Poissons Ratio (x) = 0.25507 0.36800
# Poissons Ratio (y) = 0.27590 -0.04192
# Poissons Ratio (z) = 0.58834 -0.06196
#
# Static dielectric constant tensor:
#      x y z
#    x 3.213390 0.000000 0.000000 
#    y 0.000000 3.699430 0.000000 
#    z 0.000000 0.000000 3.243800 
# 
# 
# High freq. dielectric constant tensor:
#      x y z
#    x 1.716530 0.000000 0.000000 
#    y 0.000000 1.758090 0.000000 
#    z 0.000000 0.000000 1.702110 
# 
# From -- ./inp_files/9954.got.cif
#   From: 2010.03.12/outbox.cif.g09.slc.cpg/sg61_5_cif.got.tgz:9954.got - 2010.04.10 19:05:03.
