data_PCOD8248997
_publ_section_title
;
Structure prediction by ZEFSAII (Michael W. Deem and Ramdas Pophale) SiO2 
 PCOD8248997
Probable space group: P B C A
;
_chemical_formula_sum "Si O2"
_cell_formula_units_Z 64
_cell_length_a 12.665319
_cell_length_b 10.229716
_cell_length_c 23.860120
_cell_angle_alpha 90.000000
_cell_angle_beta 90.000000
_cell_angle_gamma 90.000000
_cell_volume 3091.379575
_symmetry_space_group_name_H-M "P B C A"
_symmetry_group_IT_number 61
_symmetry_cell_setting 'orthorhombic'
loop_
_space_group_symop_operation_xyz
x,y,z
1/2-x,-y,1/2+z
1/2+x,1/2-y,-z
-x,1/2+y,1/2-z
-x,-y,-z
1/2+x,y,1/2-z
1/2-x,1/2+y,z
x,1/2-y,1/2+z
loop_
_atom_site_type_symbol
_atom_site_label
_atom_site_fract_x
_atom_site_fract_y
_atom_site_fract_z
Si Si1 0.196629 0.849060 0.216023
Si Si2 0.275048 0.097600 0.148579
Si Si3 0.232120 0.138081 0.837549
Si Si4 0.793627 0.607243 0.091730
Si Si5 0.395263 0.165471 0.491295
Si Si6 0.972657 0.335313 0.918465
Si Si7 0.494012 0.601439 0.840359
Si Si8 0.414717 0.573329 0.075097
O O1 0.241597 0.711129 0.194534
O O2 0.197349 0.865657 0.282506
O O3 0.071513 0.849405 0.207373
O O4 0.252213 0.960971 0.178991
O O5 0.394980 0.089178 0.124481
O O6 0.197996 0.131045 0.095522
O O7 0.221201 0.286134 0.859373
O O8 0.120401 0.087985 0.813513
O O9 0.269080 0.038135 0.885699
O O10 0.713265 0.653755 0.043314
O O11 0.915101 0.593109 0.069572
O O12 0.404751 0.301880 0.525484
O O13 0.502156 0.170797 0.453742
O O14 0.391403 0.043983 0.532978
O O15 0.010249 0.198399 0.893055
O O16 0.530262 0.464661 0.866234
#
# Coordination Sequence:
#
# PCOD8248997 Si02
#       8
#     8   8   8   8   8   8   8   8
#     4  10  21  39  64  87 118 162 205 248 309 356
#     4  10  21  41  61  90 120 155 208 252 300 360
#     4  11  22  41  61  88 123 160 204 253 305 360
#     4  11  24  41  60  91 126 159 205 252 304 364
#     4  10  20  37  62  85 118 169 199 230 308 376
#     4   9  21  37  58  87 127 153 190 262 305 343
#     4   8  17  38  58  81 114 163 198 233 293 378
#     4   9  18  36  64  82 111 163 209 230 280 388
#
# _framework density 20.702732000000001
#
# number of rings (size 3 to 8) (size 9 to 14) (size 15 to 20)
#    0.000    2.250    1.250    1.500    3.500    1.000 
#    4.500    5.000    0.000    0.000    0.000    0.000 
#    0.000    0.000    0.000    0.000    0.000    0.000 
#
# Total GULP energy -792916.875899 kJ/mol
# GULP energy per Si atom -12389.326186 kJ/mol
# Density = 2.065561 g / cm^3
# Si number density = 20.702732 Si / 1000 Ang^3
#
#
#
# Elastic Constant Matrix: (Units=GPa)
#
#
# Indices 1 2 3 4 5 6 
#
# 1 103.0610 13.1756 22.2213 0.0000 0.0000 0.0000
# 2 13.1756 50.9634 0.3239 0.0000 0.0000 0.0000
# 3 22.2213 0.3239 73.5050 0.0000 0.0000 0.0000
# 4 0.0000 0.0000 0.0000 24.8313 0.0000 0.0000
# 5 0.0000 0.0000 0.0000 0.0000 30.4254 0.0000
# 6 0.0000 0.0000 0.0000 0.0000 0.0000 19.7672
#
#
#
# Elastic Compliance Matrix: (Units=1/GPa)
#
#
# Indices 1 2 3 4 5 6 
#
# 1 0.010754 -0.002760 -0.003239 0.000000 0.000000 0.000000
# 2 -0.002760 0.020331 0.000745 0.000000 0.000000 0.000000
# 3 -0.003239 0.000745 0.014580 0.000000 0.000000 0.000000
# 4 0.000000 0.000000 0.000000 0.040272 0.000000 0.000000
# 5 0.000000 0.000000 0.000000 0.000000 0.032867 0.000000
# 6 0.000000 0.000000 0.000000 0.000000 0.000000 0.050589
#
#
# Mechanical properties :
#
#
# Convention : Reuss Voigt Hill
#
# Bulk Modulus (GPa) = 28.44357 33.21903 30.83130
# Shear Modulus (GPa) = 26.09330 27.79202 26.94266
#
# Velocity S-wave (km/s) = 3.55403 3.66790 3.61141
# Velocity P-wave (km/s) = 5.53267 5.83254 5.68458
#
# Compressibility (1/GPa) = 0.03515733
#
# Stress axis : x y z
#
# Youngs Moduli (GPa) = 92.98731 49.18684 68.58527
#
# Poissons Ratio (x) = 0.13574 0.22214
# Poissons Ratio (y) = 0.25662 -0.05108
# Poissons Ratio (z) = 0.30118 -0.03663
#
# Static dielectric constant tensor:
#      x y z
#    x 4.012620 0.000000 0.000000 
#    y 0.000000 3.555400 0.000000 
#    z 0.000000 0.000000 3.630000 
# 
# 
# High freq. dielectric constant tensor:
#      x y z
#    x 1.822110 0.000000 0.000000 
#    y 0.000000 1.787650 0.000000 
#    z 0.000000 0.000000 1.803870 
# 
# From -- ./inp_files/11012.got.cif
#   From: 2010.03.12/outbox.cif.g09.slc.cpg/sg61_6_cif.got.tgz:11012.got - 2010.04.10 19:05:03.
