data_PCOD8248304
_publ_section_title
;
Structure prediction by ZEFSAII (Michael W. Deem and Ramdas Pophale) SiO2 
 PCOD8248304
Probable space group: P B C N
;
_chemical_formula_sum "Si O2"
_cell_formula_units_Z 24
_cell_length_a 7.931752
_cell_length_b 27.293224
_cell_length_c 5.010482
_cell_angle_alpha 90.000000
_cell_angle_beta 90.000000
_cell_angle_gamma 90.000000
_cell_volume 1084.684596
_symmetry_space_group_name_H-M "P B C N"
_symmetry_group_IT_number 60
_symmetry_cell_setting 'orthorhombic'
loop_
_space_group_symop_operation_xyz
x,y,z
1/2-x,1/2-y,1/2+z
1/2+x,1/2-y,-z
-x,y,1/2-z
-x,-y,-z
1/2+x,1/2+y,1/2-z
1/2-x,1/2+y,z
x,-y,1/2+z
loop_
_atom_site_type_symbol
_atom_site_label
_atom_site_fract_x
_atom_site_fract_y
_atom_site_fract_z
Si Si1 0.887050 0.371476 0.504716
Si Si2 0.809856 0.222666 0.843261
Si Si3 0.305278 0.024998 0.307179
O O1 0.753777 0.330606 0.425540
O O2 0.782981 0.418605 0.606940
O O3 0.000000 0.351195 0.750000
O O4 0.000000 0.386596 0.250000
O O5 0.695602 0.241787 0.599291
O O6 0.000000 0.218693 0.750000
O O7 0.500000 0.012258 0.250000
O O8 0.219217 0.988676 0.525163
#
# Coordination Sequence:
#
# PCOD8248304 Si02
#       3
#     8   8   8
#     4  11  21  35  58  86 116 150 192 238 286 339
#     4  12  25  42  62  85 116 153 196 243 295 351
#     4   9  16  28  49  80 113 145 185 232 276 326
#
# _framework density 22.126246999999999
#
# number of rings (size 3 to 8) (size 9 to 14) (size 15 to 20)
#    0.000    1.333    0.000   11.000    0.000    0.000 
#    0.000    0.000    0.000    2.000    0.000    0.000 
#    0.000    5.333    0.000    0.000    0.000    0.000 
#
# Total GULP energy -297538.311713 kJ/mol
# GULP energy per Si atom -12397.429655 kJ/mol
# Density = 2.207589 g / cm^3
# Si number density = 22.126247 Si / 1000 Ang^3
#
#
#
# Elastic Constant Matrix: (Units=GPa)
#
#
# Indices 1 2 3 4 5 6 
#
# 1 61.3364 59.0413 34.2617 0.0000 0.0000 0.0000
# 2 59.0413 181.0904 88.4146 0.0000 0.0000 0.0000
# 3 34.2617 88.4146 171.9623 0.0000 0.0000 0.0000
# 4 0.0000 0.0000 0.0000 26.7837 0.0000 0.0000
# 5 0.0000 0.0000 0.0000 0.0000 24.5587 0.0000
# 6 0.0000 0.0000 0.0000 0.0000 0.0000 11.2450
#
#
#
# Elastic Compliance Matrix: (Units=1/GPa)
#
#
# Indices 1 2 3 4 5 6 
#
# 1 0.023891 -0.007297 -0.001008 0.000000 0.000000 0.000000
# 2 -0.007297 0.009602 -0.003483 0.000000 0.000000 0.000000
# 3 -0.001008 -0.003483 0.007807 0.000000 0.000000 0.000000
# 4 0.000000 0.000000 0.000000 0.037336 0.000000 0.000000
# 5 0.000000 0.000000 0.000000 0.000000 0.040719 0.000000
# 6 0.000000 0.000000 0.000000 0.000000 0.000000 0.088929
#
#
# Mechanical properties :
#
#
# Convention : Reuss Voigt Hill
#
# Bulk Modulus (GPa) = 56.42370 86.42492 71.42431
# Shear Modulus (GPa) = 21.02910 28.02891 24.52900
#
# Velocity S-wave (km/s) = 3.08622 3.56304 3.33317
# Velocity P-wave (km/s) = 6.18513 7.48810 6.86759
#
# Compressibility (1/GPa) = 0.01772305
#
# Stress axis : x y z
#
# Youngs Moduli (GPa) = 41.85761 104.15006 128.09318
#
# Poissons Ratio (x) = 0.75996 0.12915
# Poissons Ratio (y) = 0.30543 0.44613
# Poissons Ratio (z) = 0.04220 0.36274
#
# Static dielectric constant tensor:
#      x y z
#    x 3.283010 0.000000 0.000000 
#    y 0.000000 3.923320 0.000000 
#    z 0.000000 0.000000 5.048310 
# 
# 
# High freq. dielectric constant tensor:
#      x y z
#    x 1.806990 0.000000 0.000000 
#    y 0.000000 1.880850 0.000000 
#    z 0.000000 0.000000 1.911750 
# 
# From -- ./inp_files/276.got.cif
#   From: 2010.03.12/outbox.cif.g09.slc.cpg/sg60_1_cif.got.tgz:276.got - 2010.04.10 18:46:24.
