data_PCOD8248825
_publ_section_title
;
Structure prediction by ZEFSAII (Michael W. Deem and Ramdas Pophale) SiO2 
 PCOD8248825
Probable space group: P B C A
;
_chemical_formula_sum "Si O2"
_cell_formula_units_Z 64
_cell_length_a 19.414111
_cell_length_b 9.019997
_cell_length_c 18.132948
_cell_angle_alpha 90.000000
_cell_angle_beta 90.000000
_cell_angle_gamma 90.000000
_cell_volume 3175.355232
_symmetry_space_group_name_H-M "P B C A"
_symmetry_group_IT_number 61
_symmetry_cell_setting 'orthorhombic'
loop_
_space_group_symop_operation_xyz
x,y,z
1/2-x,-y,1/2+z
1/2+x,1/2-y,-z
-x,1/2+y,1/2-z
-x,-y,-z
1/2+x,y,1/2-z
1/2-x,1/2+y,z
x,1/2-y,1/2+z
loop_
_atom_site_type_symbol
_atom_site_label
_atom_site_fract_x
_atom_site_fract_y
_atom_site_fract_z
Si Si1 0.504857 0.027187 0.197105
Si Si2 0.648836 0.102568 0.027988
Si Si3 0.896968 0.333793 0.117725
Si Si4 0.116873 0.167823 0.633643
Si Si5 0.050873 0.197790 0.882431
Si Si6 0.263806 0.137116 0.360736
Si Si7 0.991087 0.901553 0.867174
Si Si8 0.672935 0.145268 0.715232
O O1 0.502218 0.173819 0.147302
O O2 0.493959 0.074742 0.280704
O O3 0.576576 0.934541 0.186971
O O4 0.445422 0.931153 0.161543
O O5 0.602081 0.242731 0.054010
O O6 0.727168 0.109836 0.059792
O O7 0.613757 0.946322 0.049608
O O8 0.652810 0.109331 0.940077
O O9 0.826071 0.252337 0.135910
O O10 0.953953 0.211780 0.096779
O O11 0.175466 0.151649 0.696076
O O12 0.086062 0.335212 0.622643
O O13 0.094598 0.136432 0.812872
O O14 0.002638 0.059748 0.908887
O O15 0.204095 0.198969 0.309129
O O16 0.285072 0.986184 0.322114
#
# Coordination Sequence:
#
# PCOD8248825 Si02
#       8
#     8   8   8   8   8   8   8   8
#     4  10  19  35  62  92 124 154 193 254 316 377
#     4  10  24  40  57  86 128 167 205 252 305 372
#     4  10  20  36  63  85 117 165 201 241 311 374
#     4  11  23  40  60  93 130 156 202 264 321 355
#     4  10  19  35  60  92 119 159 198 241 311 378
#     4  11  21  40  65  85 114 170 223 241 300 374
#     4  11  19  34  66  95 123 152 203 257 312 375
#     4  11  21  38  63  88 118 161 212 259 297 369
#
# _framework density 20.155224
#
# number of rings (size 3 to 8) (size 9 to 14) (size 15 to 20)
#    0.000    1.500    5.000    0.750    0.000    5.000 
#    2.250    0.000    0.000    0.000    0.000    0.000 
#    0.000    0.000    0.000    0.000    0.000    0.000 
#
# Total GULP energy -793205.013600 kJ/mol
# GULP energy per Si atom -12393.828338 kJ/mol
# Density = 2.010935 g / cm^3
# Si number density = 20.155224 Si / 1000 Ang^3
#
#
#
# Elastic Constant Matrix: (Units=GPa)
#
#
# Indices 1 2 3 4 5 6 
#
# 1 56.9747 12.3675 22.2066 0.0000 0.0000 0.0000
# 2 12.3675 84.5072 2.7292 0.0000 0.0000 0.0000
# 3 22.2066 2.7292 103.7764 0.0000 0.0000 0.0000
# 4 0.0000 0.0000 0.0000 17.7504 0.0000 0.0000
# 5 0.0000 0.0000 0.0000 0.0000 19.4605 0.0000
# 6 0.0000 0.0000 0.0000 0.0000 0.0000 -0.7709
#
#
#
# Elastic Compliance Matrix: (Units=1/GPa)
#
#
# Indices 1 2 3 4 5 6 
#
# 1 0.019771 -0.002759 -0.004158 0.000000 0.000000 0.000000
# 2 -0.002759 0.012228 0.000269 0.000000 0.000000 0.000000
# 3 -0.004158 0.000269 0.010519 0.000000 0.000000 0.000000
# 4 0.000000 0.000000 0.000000 0.056337 0.000000 0.000000
# 5 0.000000 0.000000 0.000000 0.000000 0.051386 0.000000
# 6 0.000000 0.000000 0.000000 0.000000 0.000000 -1.297258
#
#
# Mechanical properties :
#
#
# Convention : Reuss Voigt Hill
#
# Bulk Modulus (GPa) = 34.22150 35.54057 34.88103
# Shear Modulus (GPa) = -4.44848 21.15169 8.35160
#
# Velocity S-wave (km/s) = -1.48725 3.24302 2.03780
# Velocity P-wave (km/s) = 3.75055 5.62980 4.78337
#
# Compressibility (1/GPa) = 0.02922140
#
# Stress axis : x y z
#
# Youngs Moduli (GPa) = 50.57837 81.77659 95.06770
#
# Poissons Ratio (x) = 0.22564 0.39531
# Poissons Ratio (y) = 0.13956 -0.02556
# Poissons Ratio (z) = 0.21031 -0.02198
#
# Static dielectric constant tensor:
#      x y z
#    x 3.646010 0.000000 0.000000 
#    y 0.000000 4.090710 0.000000 
#    z 0.000000 0.000000 3.459890 
# 
# 
# High freq. dielectric constant tensor:
#      x y z
#    x 1.771280 0.000000 0.000000 
#    y 0.000000 1.807540 0.000000 
#    z 0.000000 0.000000 1.760910 
# 
# From -- ./inp_files/9793.got.cif
#   From: 2010.03.12/outbox.cif.g09.slc.cpg/sg61_5_cif.got.tgz:9793.got - 2010.04.10 19:05:03.
