data_PCOD8248711
_publ_section_title
;
Structure prediction by ZEFSAII (Michael W. Deem and Ramdas Pophale) SiO2 
 PCOD8248711
Probable space group: P B C A
;
_chemical_formula_sum "Si O2"
_cell_formula_units_Z 56
_cell_length_a 18.392613
_cell_length_b 8.912900
_cell_length_c 17.783129
_cell_angle_alpha 90.000000
_cell_angle_beta 90.000000
_cell_angle_gamma 90.000000
_cell_volume 2915.215375
_symmetry_space_group_name_H-M "P B C A"
_symmetry_group_IT_number 61
_symmetry_cell_setting 'orthorhombic'
loop_
_space_group_symop_operation_xyz
x,y,z
1/2-x,-y,1/2+z
1/2+x,1/2-y,-z
-x,1/2+y,1/2-z
-x,-y,-z
1/2+x,y,1/2-z
1/2-x,1/2+y,z
x,1/2-y,1/2+z
loop_
_atom_site_type_symbol
_atom_site_label
_atom_site_fract_x
_atom_site_fract_y
_atom_site_fract_z
Si Si1 0.754851 0.157770 0.609296
Si Si2 0.156294 0.408510 0.949432
Si Si3 0.085635 0.425675 0.794116
Si Si4 0.325061 0.091320 0.304538
Si Si5 0.218847 0.070701 0.183352
Si Si6 0.943629 0.908726 0.254682
Si Si7 0.332642 0.639042 0.616222
O O1 0.691683 0.250393 0.570572
O O2 0.817992 0.272370 0.637101
O O3 0.787397 0.046282 0.547734
O O4 0.720408 0.060350 0.676298
O O5 0.097548 0.443700 0.884229
O O6 0.130653 0.394924 0.035261
O O7 0.157723 0.470407 0.746956
O O8 0.026124 0.547657 0.770497
O O9 0.058426 0.256442 0.780741
O O10 0.286646 0.147589 0.227539
O O11 0.408869 0.038222 0.299289
O O12 0.181268 0.183912 0.124969
O O13 0.253703 0.936498 0.133745
O O14 0.894669 0.917499 0.328481
#
# Coordination Sequence:
#
# PCOD8248711 Si02
#       7
#     8   8   8   8   8   8   8
#     4  10  18  31  58  86 109 140 188 237 275 333
#     4  11  21  35  57  88 115 152 181 234 289 347
#     4  11  22  36  59  82 113 150 198 229 281 329
#     4  10  17  34  56  84 107 138 191 241 275 320
#     4  10  19  36  59  84 110 145 186 245 276 334
#     4  10  23  37  55  84 111 151 189 239 274 336
#     4  10  22  37  56  85 121 144 184 231 299 334
#
# _framework density 19.209558999999999
#
# number of rings (size 3 to 8) (size 9 to 14) (size 15 to 20)
#    0.000    1.714    4.286    2.571    2.000    1.714 
#    0.000    0.000    0.000    3.429    0.000    0.000 
#    0.000    0.000    0.000    0.000    0.000    0.000 
#
# Total GULP energy -693812.647828 kJ/mol
# GULP energy per Si atom -12389.511568 kJ/mol
# Density = 1.916584 g / cm^3
# Si number density = 19.209559 Si / 1000 Ang^3
#
#
#
# Elastic Constant Matrix: (Units=GPa)
#
#
# Indices 1 2 3 4 5 6 
#
# 1 77.0345 20.6611 16.4976 0.0000 0.0000 0.0000
# 2 20.6611 64.2468 21.4007 0.0000 0.0000 0.0000
# 3 16.4976 21.4007 89.0393 0.0000 0.0000 0.0000
# 4 0.0000 0.0000 0.0000 16.9269 0.0000 0.0000
# 5 0.0000 0.0000 0.0000 0.0000 14.9099 0.0000
# 6 0.0000 0.0000 0.0000 0.0000 0.0000 27.2637
#
#
#
# Elastic Compliance Matrix: (Units=1/GPa)
#
#
# Indices 1 2 3 4 5 6 
#
# 1 0.014438 -0.004079 -0.001695 0.000000 0.000000 0.000000
# 2 -0.004079 0.018072 -0.003588 0.000000 0.000000 0.000000
# 3 -0.001695 -0.003588 0.012407 0.000000 0.000000 0.000000
# 4 0.000000 0.000000 0.000000 0.059078 0.000000 0.000000
# 5 0.000000 0.000000 0.000000 0.000000 0.067070 0.000000
# 6 0.000000 0.000000 0.000000 0.000000 0.000000 0.036679
#
#
# Mechanical properties :
#
#
# Convention : Reuss Voigt Hill
#
# Bulk Modulus (GPa) = 38.17586 38.60439 38.39012
# Shear Modulus (GPa) = 21.25873 23.27082 22.26477
#
# Velocity S-wave (km/s) = 3.33028 3.48432 3.40817
# Velocity P-wave (km/s) = 5.89103 6.02722 5.95951
#
# Compressibility (1/GPa) = 0.02619456
#
# Stress axis : x y z
#
# Youngs Moduli (GPa) = 69.26132 55.33506 80.59724
#
# Poissons Ratio (x) = 0.22569 0.13660
# Poissons Ratio (y) = 0.28249 0.28917
# Poissons Ratio (z) = 0.11739 0.19853
#
# Static dielectric constant tensor:
#      x y z
#    x 3.365900 0.000000 0.000000 
#    y 0.000000 3.598310 0.000000 
#    z 0.000000 0.000000 3.475250 
# 
# 
# High freq. dielectric constant tensor:
#      x y z
#    x 1.720480 0.000000 0.000000 
#    y 0.000000 1.760500 0.000000 
#    z 0.000000 0.000000 1.730740 
# 
# From -- ./inp_files/9747.got.cif
#   From: 2010.03.12/outbox.cif.g09.slc.cpg/sg61_5_cif.got.tgz:9747.got - 2010.04.10 19:05:03.
