data_PCOD8248351
_publ_section_title
;
Structure prediction by ZEFSAII (Michael W. Deem and Ramdas Pophale) SiO2 
 PCOD8248351
Probable space group: P B C N
;
_chemical_formula_sum "Si O2"
_cell_formula_units_Z 44
_cell_length_a 14.902274
_cell_length_b 8.695054
_cell_length_c 14.045604
_cell_angle_alpha 90.000000
_cell_angle_beta 90.000000
_cell_angle_gamma 90.000000
_cell_volume 1819.974268
_symmetry_space_group_name_H-M "P B C N"
_symmetry_group_IT_number 60
_symmetry_cell_setting 'orthorhombic'
loop_
_space_group_symop_operation_xyz
x,y,z
1/2-x,1/2-y,1/2+z
1/2+x,1/2-y,-z
-x,y,1/2-z
-x,-y,-z
1/2+x,1/2+y,1/2-z
1/2-x,1/2+y,z
x,-y,1/2+z
loop_
_atom_site_type_symbol
_atom_site_label
_atom_site_fract_x
_atom_site_fract_y
_atom_site_fract_z
Si Si1 0.984862 0.430038 0.397336
Si Si2 0.152013 0.348083 0.675615
Si Si3 0.000000 0.122258 0.750000
Si Si4 0.046072 0.907278 0.916853
Si Si5 0.329266 0.041596 0.368708
Si Si6 0.775630 0.251733 0.020436
O O1 0.988039 0.245856 0.394479
O O2 0.068326 0.504018 0.339222
O O3 0.000000 0.500000 0.500000
O O4 0.891131 0.490384 0.357760
O O5 0.211030 0.387809 0.769858
O O6 0.218511 0.292324 0.591336
O O7 0.074812 0.222554 0.695315
O O8 0.948039 0.014485 0.675511
O O9 0.145465 0.865274 0.950960
O O10 0.000000 0.000000 0.000000
O O11 0.318735 0.168577 0.453787
O O12 0.278833 0.893600 0.407542
#
# Coordination Sequence:
#
# PCOD8248351 Si02
#       6
#     8   8   4   8   8   8
#     4  11  21  45  75 102 139 187 242 295 359 431
#     4  12  24  47  76 104 136 199 237 291 371 425
#     4  12  24  40  74 110 138 174 246 302 346 430
#     4  11  24  42  70 112 141 182 239 302 356 423
#     4  11  26  44  71  98 149 184 241 293 360 437
#     4  11  27  48  67 105 145 189 234 297 370 424
#
# _framework density 24.176165999999998
#
# number of rings (size 3 to 8) (size 9 to 14) (size 15 to 20)
#    0.000    0.727    7.273    0.000    7.636    1.455 
#    0.000    0.000    0.000    0.000    0.000    0.000 
#    0.000    0.000    0.000    0.000    0.000    0.000 
#
# Total GULP energy -545398.781665 kJ/mol
# GULP energy per Si atom -12395.426856 kJ/mol
# Density = 2.412114 g / cm^3
# Si number density = 24.176166 Si / 1000 Ang^3
#
#
#
# Elastic Constant Matrix: (Units=GPa)
#
#
# Indices 1 2 3 4 5 6 
#
# 1 18.6350 42.2773 15.8596 0.0000 0.0000 0.0000
# 2 42.2773 129.0514 60.6850 0.0000 0.0000 0.0000
# 3 15.8596 60.6850 161.6261 0.0000 0.0000 0.0000
# 4 0.0000 0.0000 0.0000 46.9709 0.0000 0.0000
# 5 0.0000 0.0000 0.0000 0.0000 31.7583 0.0000
# 6 0.0000 0.0000 0.0000 0.0000 0.0000 26.4996
#
#
#
# Elastic Compliance Matrix: (Units=1/GPa)
#
#
# Indices 1 2 3 4 5 6 
#
# 1 0.214430 -0.073294 0.006478 0.000000 0.000000 0.000000
# 2 -0.073294 0.034463 -0.005748 0.000000 0.000000 0.000000
# 3 0.006478 -0.005748 0.007709 0.000000 0.000000 0.000000
# 4 0.000000 0.000000 0.000000 0.021290 0.000000 0.000000
# 5 0.000000 0.000000 0.000000 0.000000 0.031488 0.000000
# 6 0.000000 0.000000 0.000000 0.000000 0.000000 0.037736
#
#
# Mechanical properties :
#
#
# Convention : Reuss Voigt Hill
#
# Bulk Modulus (GPa) = 8.97052 60.77291 34.87171
# Shear Modulus (GPa) = 9.44464 33.74514 21.59489
#
# Velocity S-wave (km/s) = 1.97865 3.74010 2.99194
# Velocity P-wave (km/s) = 2.98975 6.62142 5.13721
#
# Compressibility (1/GPa) = 0.11147621
#
# Stress axis : x y z
#
# Youngs Moduli (GPa) = 4.66352 29.01700 129.71106
#
# Poissons Ratio (x) = 2.12676 -0.84029
# Poissons Ratio (y) = 0.34181 0.74552
# Poissons Ratio (z) = -0.03021 0.16678
#
# Static dielectric constant tensor:
#      x y z
#    x 4.736530 0.000000 0.000000 
#    y 0.000000 4.801960 0.000000 
#    z 0.000000 0.000000 4.668610 
# 
# 
# High freq. dielectric constant tensor:
#      x y z
#    x 1.927650 0.000000 0.000000 
#    y 0.000000 1.978160 0.000000 
#    z 0.000000 0.000000 1.979210 
# 
# From -- ./inp_files/17279.got.cif
#   From: 2010.03.12/outbox.cif.g09.slc.cpg/sg60_9_cif.got.tgz:17279.got - 2010.04.10 18:46:24.
