data_PCOD8248613
_publ_section_title
;
Structure prediction by ZEFSAII (Michael W. Deem and Ramdas Pophale) SiO2 
 PCOD8248613
Probable space group: P B C N
;
_chemical_formula_sum "Si O2"
_cell_formula_units_Z 40
_cell_length_a 16.497178
_cell_length_b 17.078127
_cell_length_c 5.554732
_cell_angle_alpha 90.000000
_cell_angle_beta 90.000000
_cell_angle_gamma 90.000000
_cell_volume 1564.995199
_symmetry_space_group_name_H-M "P B C N"
_symmetry_group_IT_number 60
_symmetry_cell_setting 'orthorhombic'
loop_
_space_group_symop_operation_xyz
x,y,z
1/2-x,1/2-y,1/2+z
1/2+x,1/2-y,-z
-x,y,1/2-z
-x,-y,-z
1/2+x,1/2+y,1/2-z
1/2-x,1/2+y,z
x,-y,1/2+z
loop_
_atom_site_type_symbol
_atom_site_label
_atom_site_fract_x
_atom_site_fract_y
_atom_site_fract_z
Si Si1 0.500000 0.050376 0.750000
Si Si2 0.000000 0.058315 0.250000
Si Si3 0.867781 0.317203 0.254300
Si Si4 0.668883 0.469087 0.652702
Si Si5 0.695041 0.687570 0.943923
Si Si6 0.065298 0.189354 0.932221
O O1 0.582369 0.102168 0.723029
O O2 0.500000 0.000000 0.500000
O O3 0.925984 0.004591 0.149847
O O4 0.969546 0.109464 0.470667
O O5 0.790977 0.327700 0.429694
O O6 0.929006 0.255002 0.365218
O O7 0.830246 0.276793 0.012583
O O8 0.710907 0.500533 0.402809
O O9 0.668010 0.373879 0.652739
O O10 0.651303 0.667874 0.692995
O O11 0.000000 0.226219 0.750000
#
# Coordination Sequence:
#
# PCOD8248613 Si02
#       6
#     4   4   8   8   8   8
#     4  12  33  58  86 123 170 232 286 348 439 520
#     4  12  23  40  66 103 150 202 248 302 371 478
#     4  12  27  51  83 114 156 208 283 356 407 488
#     4  12  27  44  67 107 161 204 244 303 393 479
#     4  12  26  45  81 117 152 209 274 344 413 476
#     4  12  22  43  77 112 151 193 263 337 399 470
#
# _framework density 25.559183999999998
#
# number of rings (size 3 to 8) (size 9 to 14) (size 15 to 20)
#    0.000    0.000    6.000    3.600    4.200    1.600 
#    0.000    0.000    0.000    0.000    0.000    0.000 
#    0.000    0.000    0.000    0.000    0.000    0.000 
#
# Total GULP energy -495734.636397 kJ/mol
# GULP energy per Si atom -12393.365910 kJ/mol
# Density = 2.550101 g / cm^3
# Si number density = 25.559184 Si / 1000 Ang^3
#
#
#
# Elastic Constant Matrix: (Units=GPa)
#
#
# Indices 1 2 3 4 5 6 
#
# 1 119.2654 31.4471 30.0238 0.0000 0.0000 0.0000
# 2 31.4471 107.2920 52.8467 0.0000 0.0000 0.0000
# 3 30.0238 52.8467 152.1137 0.0000 0.0000 0.0000
# 4 0.0000 0.0000 0.0000 49.0805 0.0000 0.0000
# 5 0.0000 0.0000 0.0000 0.0000 38.4363 0.0000
# 6 0.0000 0.0000 0.0000 0.0000 0.0000 34.0703
#
#
#
# Elastic Compliance Matrix: (Units=1/GPa)
#
#
# Indices 1 2 3 4 5 6 
#
# 1 0.009227 -0.002181 -0.001064 0.000000 0.000000 0.000000
# 2 -0.002181 0.011760 -0.003655 0.000000 0.000000 0.000000
# 3 -0.001064 -0.003655 0.008054 0.000000 0.000000 0.000000
# 4 0.000000 0.000000 0.000000 0.020375 0.000000 0.000000
# 5 0.000000 0.000000 0.000000 0.000000 0.026017 0.000000
# 6 0.000000 0.000000 0.000000 0.000000 0.000000 0.029351
#
#
# Mechanical properties :
#
#
# Convention : Reuss Voigt Hill
#
# Bulk Modulus (GPa) = 65.60753 67.47850 66.54302
# Shear Modulus (GPa) = 40.43227 41.94098 41.18662
#
# Velocity S-wave (km/s) = 3.98164 4.05524 4.01861
# Velocity P-wave (km/s) = 6.84562 6.95592 6.90099
#
# Compressibility (1/GPa) = 0.01524215
#
# Stress axis : x y z
#
# Youngs Moduli (GPa) = 108.37283 85.03512 124.16436
#
# Poissons Ratio (x) = 0.18543 0.13207
# Poissons Ratio (y) = 0.23632 0.45384
# Poissons Ratio (z) = 0.11528 0.31082
#
# Static dielectric constant tensor:
#      x y z
#    x 4.729010 0.000000 0.000000 
#    y 0.000000 4.619770 0.000000 
#    z 0.000000 0.000000 4.779530 
# 
# 
# High freq. dielectric constant tensor:
#      x y z
#    x 2.011510 0.000000 0.000000 
#    y 0.000000 2.018210 0.000000 
#    z 0.000000 0.000000 2.036030 
# 
# From -- ./inp_files/1659.got.cif
#   From: 2010.03.12/outbox.cif.g09.slc.cpg/sg60_1_cif.got.tgz:1659.got - 2010.04.10 18:46:24.
