data_PCOD8248390
_publ_section_title
;
Structure prediction by ZEFSAII (Michael W. Deem and Ramdas Pophale) SiO2 
 PCOD8248390
Probable space group: P B C N
;
_chemical_formula_sum "Si O2"
_cell_formula_units_Z 64
_cell_length_a 15.112005
_cell_length_b 9.708844
_cell_length_c 21.121478
_cell_angle_alpha 90.000000
_cell_angle_beta 90.000000
_cell_angle_gamma 90.000000
_cell_volume 3098.945345
_symmetry_space_group_name_H-M "P B C N"
_symmetry_group_IT_number 60
_symmetry_cell_setting 'orthorhombic'
loop_
_space_group_symop_operation_xyz
x,y,z
1/2-x,1/2-y,1/2+z
1/2+x,1/2-y,-z
-x,y,1/2-z
-x,-y,-z
1/2+x,1/2+y,1/2-z
1/2-x,1/2+y,z
x,-y,1/2+z
loop_
_atom_site_type_symbol
_atom_site_label
_atom_site_fract_x
_atom_site_fract_y
_atom_site_fract_z
Si Si1 0.543951 0.277511 0.920790
Si Si2 0.146188 0.489368 0.110432
Si Si3 0.331021 0.493542 0.044515
Si Si4 0.597088 0.954875 0.747410
Si Si5 0.746492 0.115578 0.574746
Si Si6 0.428802 0.741007 0.300485
Si Si7 0.403684 0.199538 0.013507
Si Si8 0.755217 0.635870 0.162294
O O1 0.587224 0.428449 0.923000
O O2 0.465811 0.282896 0.870249
O O3 0.500384 0.239915 0.988332
O O4 0.618502 0.166911 0.903427
O O5 0.246690 0.511536 0.089386
O O6 0.138100 0.518316 0.184164
O O7 0.083476 0.595752 0.072329
O O8 0.318126 0.565924 0.976374
O O9 0.350409 0.333181 0.036679
O O10 0.500000 0.884122 0.750000
O O11 0.662745 0.852347 0.710663
O O12 0.585952 0.097785 0.710118
O O13 0.650627 0.121501 0.541690
O O14 0.771183 0.264910 0.602386
O O15 0.746457 0.017748 0.635417
O O16 0.500000 0.680904 0.250000
O O17 0.334418 0.664498 0.297833
#
# Coordination Sequence:
#
# PCOD8248390 Si02
#       8
#     8   8   8   8   8   8   8   8
#     4  12  22  42  71  95 131 182 225 270 341 410
#     4  11  24  40  67  99 133 177 228 278 336 403
#     4  11  25  41  64 103 141 173 214 283 346 403
#     4  11  24  45  68  99 134 180 236 276 337 408
#     4  11  22  42  67  99 137 172 230 268 342 400
#     4  11  23  44  69  97 136 181 225 277 342 410
#     4  11  23  42  64 100 138 172 221 281 339 398
#     4  12  23  42  73  98 133 183 226 282 327 409
#
# _framework density 20.652187999999999
#
# number of rings (size 3 to 8) (size 9 to 14) (size 15 to 20)
#    0.000    0.750    6.250    2.250    3.500    2.000 
#    0.000    0.625    0.000    0.000    0.000    0.000 
#    0.000    0.000    0.000    0.000    0.000    0.000 
#
# Total GULP energy -793869.429290 kJ/mol
# GULP energy per Si atom -12404.209833 kJ/mol
# Density = 2.060518 g / cm^3
# Si number density = 20.652188 Si / 1000 Ang^3
#
#
#
# Elastic Constant Matrix: (Units=GPa)
#
#
# Indices 1 2 3 4 5 6 
#
# 1 109.6704 21.1933 33.5367 0.0000 0.0000 0.0000
# 2 21.1933 53.2399 10.4167 0.0000 0.0000 0.0000
# 3 33.5367 10.4167 69.1557 0.0000 0.0000 0.0000
# 4 0.0000 0.0000 0.0000 25.3907 0.0000 0.0000
# 5 0.0000 0.0000 0.0000 0.0000 34.2604 0.0000
# 6 0.0000 0.0000 0.0000 0.0000 0.0000 24.3923
#
#
#
# Elastic Compliance Matrix: (Units=1/GPa)
#
#
# Indices 1 2 3 4 5 6 
#
# 1 0.011317 -0.003535 -0.004955 0.000000 0.000000 0.000000
# 2 -0.003535 0.020458 -0.001367 0.000000 0.000000 0.000000
# 3 -0.004955 -0.001367 0.017069 0.000000 0.000000 0.000000
# 4 0.000000 0.000000 0.000000 0.039384 0.000000 0.000000
# 5 0.000000 0.000000 0.000000 0.000000 0.029188 0.000000
# 6 0.000000 0.000000 0.000000 0.000000 0.000000 0.040997
#
#
# Mechanical properties :
#
#
# Convention : Reuss Voigt Hill
#
# Bulk Modulus (GPa) = 34.33131 40.26216 37.29673
# Shear Modulus (GPa) = 26.61869 27.93664 27.27766
#
# Velocity S-wave (km/s) = 3.59403 3.68192 3.63824
# Velocity P-wave (km/s) = 5.82086 6.13295 5.97894
#
# Compressibility (1/GPa) = 0.02912793
#
# Stress axis : x y z
#
# Youngs Moduli (GPa) = 88.36430 48.88137 58.58517
#
# Poissons Ratio (x) = 0.17281 0.29032
# Poissons Ratio (y) = 0.31240 0.08009
# Poissons Ratio (z) = 0.43789 0.06682
#
# Static dielectric constant tensor:
#      x y z
#    x 3.842760 0.000000 0.000000 
#    y 0.000000 3.656240 0.000000 
#    z 0.000000 0.000000 3.840230 
# 
# 
# High freq. dielectric constant tensor:
#      x y z
#    x 1.812610 0.000000 0.000000 
#    y 0.000000 1.798640 0.000000 
#    z 0.000000 0.000000 1.813090 
# 
# From -- ./inp_files/24464.got.cif
#   From: 2010.03.12/outbox.cif.g09.slc.cpg/sg60_13_cif.got.tgz:24464.got - 2010.04.10 18:46:24.
