data_PCOD8248868
_publ_section_title
;
Structure prediction by ZEFSAII (Michael W. Deem and Ramdas Pophale) SiO2 
 PCOD8248868
Probable space group: P B C A
;
_chemical_formula_sum "Si O2"
_cell_formula_units_Z 48
_cell_length_a 10.715928
_cell_length_b 15.027601
_cell_length_c 14.056516
_cell_angle_alpha 90.000000
_cell_angle_beta 90.000000
_cell_angle_gamma 90.000000
_cell_volume 2263.586701
_symmetry_space_group_name_H-M "P B C A"
_symmetry_group_IT_number 61
_symmetry_cell_setting 'orthorhombic'
loop_
_space_group_symop_operation_xyz
x,y,z
1/2-x,-y,1/2+z
1/2+x,1/2-y,-z
-x,1/2+y,1/2-z
-x,-y,-z
1/2+x,y,1/2-z
1/2-x,1/2+y,z
x,1/2-y,1/2+z
loop_
_atom_site_type_symbol
_atom_site_label
_atom_site_fract_x
_atom_site_fract_y
_atom_site_fract_z
Si Si1 0.228282 0.043225 0.423192
Si Si2 0.518274 0.340122 0.644058
Si Si3 0.057527 0.871331 0.438679
Si Si4 0.908919 0.496892 0.737288
Si Si5 0.574116 0.827695 0.260720
Si Si6 0.776087 0.599414 0.880376
O O1 0.291284 0.063921 0.525124
O O2 0.159595 0.130681 0.380764
O O3 0.119354 0.969022 0.434184
O O4 0.349712 0.015635 0.365777
O O5 0.432623 0.334908 0.546929
O O6 0.466360 0.407029 0.722909
O O7 0.520847 0.245355 0.697337
O O8 0.114524 0.811832 0.351149
O O9 0.912158 0.869214 0.412341
O O10 0.791904 0.520499 0.804519
O O11 0.011380 0.574930 0.731918
O O12 0.696371 0.823779 0.328092
#
# Coordination Sequence:
#
# PCOD8248868 Si02
#       6
#     8   8   8   8   8   8
#     4  11  20  40  68  86 124 173 210 247 319 385
#     4  11  22  42  64  92 122 171 212 249 319 382
#     4  10  20  41  67  83 121 172 205 246 316 389
#     4  11  21  39  65  90 124 167 208 260 311 368
#     4  11  24  38  62  97 128 151 217 272 303 359
#     4  10  19  38  61  90 117 166 206 250 304 378
#
# _framework density 21.205283999999999
#
# number of rings (size 3 to 8) (size 9 to 14) (size 15 to 20)
#    0.000    1.333    6.667    1.000    0.000    4.667 
#    6.000    1.667    0.000    0.000    0.000    0.000 
#    0.000    0.000    0.000    0.000    0.000    0.000 
#
# Total GULP energy -594627.122583 kJ/mol
# GULP energy per Si atom -12388.065054 kJ/mol
# Density = 2.115702 g / cm^3
# Si number density = 21.205284 Si / 1000 Ang^3
#
#
#
# Elastic Constant Matrix: (Units=GPa)
#
#
# Indices 1 2 3 4 5 6 
#
# 1 45.7814 15.6332 17.4831 0.0000 0.0000 0.0000
# 2 15.6332 73.9038 37.1463 0.0000 0.0000 0.0000
# 3 17.4831 37.1463 108.4247 0.0000 0.0000 0.0000
# 4 0.0000 0.0000 0.0000 27.0577 0.0000 0.0000
# 5 0.0000 0.0000 0.0000 0.0000 34.3373 0.0000
# 6 0.0000 0.0000 0.0000 0.0000 0.0000 15.2944
#
#
#
# Elastic Compliance Matrix: (Units=1/GPa)
#
#
# Indices 1 2 3 4 5 6 
#
# 1 0.024130 -0.003804 -0.002588 0.000000 0.000000 0.000000
# 2 -0.003804 0.016945 -0.005192 0.000000 0.000000 0.000000
# 3 -0.002588 -0.005192 0.011419 0.000000 0.000000 0.000000
# 4 0.000000 0.000000 0.000000 0.036958 0.000000 0.000000
# 5 0.000000 0.000000 0.000000 0.000000 0.029123 0.000000
# 6 0.000000 0.000000 0.000000 0.000000 0.000000 0.065384
#
#
# Mechanical properties :
#
#
# Convention : Reuss Voigt Hill
#
# Bulk Modulus (GPa) = 34.09784 40.95946 37.52865
# Shear Modulus (GPa) = 23.05189 25.86102 24.45646
#
# Velocity S-wave (km/s) = 3.30067 3.49600 3.39974
# Velocity P-wave (km/s) = 5.53540 5.97107 5.75736
#
# Compressibility (1/GPa) = 0.02932737
#
# Stress axis : x y z
#
# Youngs Moduli (GPa) = 41.44223 59.01285 87.57254
#
# Poissons Ratio (x) = 0.22446 0.22661
# Poissons Ratio (y) = 0.15763 0.45469
# Poissons Ratio (z) = 0.10724 0.30641
#
# Static dielectric constant tensor:
#      x y z
#    x 3.513830 0.000000 0.000000 
#    y 0.000000 3.489710 0.000000 
#    z 0.000000 0.000000 4.857720 
# 
# 
# High freq. dielectric constant tensor:
#      x y z
#    x 1.807850 0.000000 0.000000 
#    y 0.000000 1.797020 0.000000 
#    z 0.000000 0.000000 1.864050 
# 
# From -- ./inp_files/7462.got.cif
#   From: 2010.03.12/outbox.cif.g09.slc.cpg/sg61_4_cif.got.tgz:7462.got - 2010.04.10 19:05:03.
