data_PCOD8248670
_publ_section_title
;
Structure prediction by ZEFSAII (Michael W. Deem and Ramdas Pophale) SiO2 
 PCOD8248670
Probable space group: P B C N
;
_chemical_formula_sum "Si O2"
_cell_formula_units_Z 40
_cell_length_a 7.953553
_cell_length_b 22.351745
_cell_length_c 9.477637
_cell_angle_alpha 90.000000
_cell_angle_beta 90.000000
_cell_angle_gamma 90.000000
_cell_volume 1684.894391
_symmetry_space_group_name_H-M "P B C N"
_symmetry_group_IT_number 60
_symmetry_cell_setting 'orthorhombic'
loop_
_space_group_symop_operation_xyz
x,y,z
1/2-x,1/2-y,1/2+z
1/2+x,1/2-y,-z
-x,y,1/2-z
-x,-y,-z
1/2+x,1/2+y,1/2-z
1/2-x,1/2+y,z
x,-y,1/2+z
loop_
_atom_site_type_symbol
_atom_site_label
_atom_site_fract_x
_atom_site_fract_y
_atom_site_fract_z
Si Si1 0.319566 0.450996 0.707702
Si Si2 0.980736 0.815643 0.091504
Si Si3 0.000000 0.632224 0.250000
Si Si4 0.281634 0.565218 0.893721
Si Si5 0.340144 0.799997 0.002983
Si Si6 0.500000 0.865047 0.250000
O O1 0.500000 0.420968 0.750000
O O2 0.317674 0.515438 0.778905
O O3 0.292780 0.466652 0.544204
O O4 0.167632 0.407538 0.747686
O O5 0.919696 0.883129 0.104730
O O6 0.000000 0.789672 0.250000
O O7 0.145049 0.816951 0.991020
O O8 0.850645 0.772120 0.009966
O O9 0.029493 0.672272 0.389080
O O10 0.100696 0.593424 0.859631
O O11 0.381514 0.821821 0.160567
#
# Coordination Sequence:
#
# PCOD8248670 Si02
#       6
#     8   8   4   8   8   4
#     4  12  28  48  78 111 158 208 263 321 393 471
#     4  12  26  49  79 115 158 205 266 329 409 482
#     4  12  27  50  76 124 150 201 268 328 396 470
#     4  12  27  50  76 114 155 211 261 326 391 477
#     4  12  27  47  79 114 156 204 261 338 402 484
#     4  12  25  46  78 112 158 203 258 332 408 464
#
# _framework density 23.740362000000001
#
# number of rings (size 3 to 8) (size 9 to 14) (size 15 to 20)
#    0.000    0.000    5.000    4.200    2.800    1.600 
#    1.800    0.000    0.000    0.000    0.000    0.000 
#    0.000    0.000    0.000    0.000    0.000    0.000 
#
# Total GULP energy -495916.886152 kJ/mol
# GULP energy per Si atom -12397.922154 kJ/mol
# Density = 2.368633 g / cm^3
# Si number density = 23.740362 Si / 1000 Ang^3
#
#
#
# Elastic Constant Matrix: (Units=GPa)
#
#
# Indices 1 2 3 4 5 6 
#
# 1 129.2124 35.3880 31.1196 0.0000 0.0000 0.0000
# 2 35.3880 115.4284 53.4286 0.0000 0.0000 0.0000
# 3 31.1196 53.4286 143.1527 0.0000 0.0000 0.0000
# 4 0.0000 0.0000 0.0000 26.5342 0.0000 0.0000
# 5 0.0000 0.0000 0.0000 0.0000 44.3872 0.0000
# 6 0.0000 0.0000 0.0000 0.0000 0.0000 33.0970
#
#
#
# Elastic Compliance Matrix: (Units=1/GPa)
#
#
# Indices 1 2 3 4 5 6 
#
# 1 0.008582 -0.002137 -0.001068 0.000000 0.000000 0.000000
# 2 -0.002137 0.011005 -0.003643 0.000000 0.000000 0.000000
# 3 -0.001068 -0.003643 0.008577 0.000000 0.000000 0.000000
# 4 0.000000 0.000000 0.000000 0.037687 0.000000 0.000000
# 5 0.000000 0.000000 0.000000 0.000000 0.022529 0.000000
# 6 0.000000 0.000000 0.000000 0.000000 0.000000 0.030214
#
#
# Mechanical properties :
#
#
# Convention : Reuss Voigt Hill
#
# Bulk Modulus (GPa) = 69.11501 69.74066 69.42783
# Shear Modulus (GPa) = 36.46664 38.66082 37.56373
#
# Velocity S-wave (km/s) = 3.92351 4.03983 3.98209
# Velocity P-wave (km/s) = 7.04992 7.15545 7.10288
#
# Compressibility (1/GPa) = 0.01446864
#
# Stress axis : x y z
#
# Youngs Moduli (GPa) = 116.52863 90.87179 116.58664
#
# Poissons Ratio (x) = 0.19415 0.12453
# Poissons Ratio (y) = 0.24897 0.42469
# Poissons Ratio (z) = 0.12447 0.33102
#
# Static dielectric constant tensor:
#      x y z
#    x 4.497160 0.000000 0.000000 
#    y 0.000000 4.143300 0.000000 
#    z 0.000000 0.000000 4.833910 
# 
# 
# High freq. dielectric constant tensor:
#      x y z
#    x 1.951790 0.000000 0.000000 
#    y 0.000000 1.945390 0.000000 
#    z 0.000000 0.000000 1.949950 
# 
# From -- ./inp_files/3914.got.cif
#   From: 2010.03.12/outbox.cif.g09.slc.cpg/sg60_2_cif.got.tgz:3914.got - 2010.04.10 18:46:24.
