data_PCOD8248462
_publ_section_title
;
Structure prediction by ZEFSAII (Michael W. Deem and Ramdas Pophale) SiO2 
 PCOD8248462
Probable space group: P B C N
;
_chemical_formula_sum "Si O2"
_cell_formula_units_Z 48
_cell_length_a 17.280037
_cell_length_b 9.402417
_cell_length_c 13.914891
_cell_angle_alpha 90.000000
_cell_angle_beta 90.000000
_cell_angle_gamma 90.000000
_cell_volume 2260.809582
_symmetry_space_group_name_H-M "P B C N"
_symmetry_group_IT_number 60
_symmetry_cell_setting 'orthorhombic'
loop_
_space_group_symop_operation_xyz
x,y,z
1/2-x,1/2-y,1/2+z
1/2+x,1/2-y,-z
-x,y,1/2-z
-x,-y,-z
1/2+x,1/2+y,1/2-z
1/2-x,1/2+y,z
x,-y,1/2+z
loop_
_atom_site_type_symbol
_atom_site_label
_atom_site_fract_x
_atom_site_fract_y
_atom_site_fract_z
Si Si1 0.161515 0.860957 0.337697
Si Si2 0.670276 0.460428 0.954378
Si Si3 0.340489 0.847819 0.333053
Si Si4 0.329016 0.200339 0.050640
Si Si5 0.589565 0.887715 0.758317
Si Si6 0.412555 0.596831 0.229254
O O1 0.138412 0.915069 0.442426
O O2 0.251443 0.890454 0.317288
O O3 0.141092 0.696102 0.320964
O O4 0.106100 0.936939 0.261221
O O5 0.748533 0.377907 0.928895
O O6 0.683693 0.629668 0.946473
O O7 0.604033 0.400282 0.884006
O O8 0.361472 0.846990 0.446380
O O9 0.353573 0.692104 0.290329
O O10 0.395762 0.949251 0.270606
O O11 0.387489 0.147432 0.132181
O O12 0.500000 0.850461 0.750000
O O13 0.500000 0.642341 0.250000
#
# Coordination Sequence:
#
# PCOD8248462 Si02
#       6
#     8   8   8   8   8   8
#     4  11  23  43  70  95 128 178 227 276 324 391
#     4  11  25  42  70 101 131 177 232 276 325 398
#     4  11  25  45  68  97 133 178 226 278 326 396
#     4  11  25  44  69 100 132 176 232 276 329 393
#     4  12  27  44  68 101 142 177 217 276 346 401
#     4  12  25  42  67 101 136 174 218 275 341 394
#
# _framework density 21.231334
#
# number of rings (size 3 to 8) (size 9 to 14) (size 15 to 20)
#    0.000    0.667    3.333    4.000    9.333    2.667 
#    0.000    0.000    0.000    0.000    0.000    0.000 
#    0.000    0.000    0.000    0.000    0.000    0.000 
#
# Total GULP energy -595362.910512 kJ/mol
# GULP energy per Si atom -12403.393969 kJ/mol
# Density = 2.118301 g / cm^3
# Si number density = 21.231334 Si / 1000 Ang^3
#
#
#
# Elastic Constant Matrix: (Units=GPa)
#
#
# Indices 1 2 3 4 5 6 
#
# 1 82.1143 27.4635 61.2321 0.0000 0.0000 0.0000
# 2 27.4635 79.7148 31.5780 0.0000 0.0000 0.0000
# 3 61.2321 31.5780 127.9135 0.0000 0.0000 0.0000
# 4 0.0000 0.0000 0.0000 40.8064 0.0000 0.0000
# 5 0.0000 0.0000 0.0000 0.0000 22.8093 0.0000
# 6 0.0000 0.0000 0.0000 0.0000 0.0000 29.8706
#
#
#
# Elastic Compliance Matrix: (Units=1/GPa)
#
#
# Indices 1 2 3 4 5 6 
#
# 1 0.019731 -0.003387 -0.008609 0.000000 0.000000 0.000000
# 2 -0.003387 0.014486 -0.001955 0.000000 0.000000 0.000000
# 3 -0.008609 -0.001955 0.012421 0.000000 0.000000 0.000000
# 4 0.000000 0.000000 0.000000 0.024506 0.000000 0.000000
# 5 0.000000 0.000000 0.000000 0.000000 0.043842 0.000000
# 6 0.000000 0.000000 0.000000 0.000000 0.000000 0.033478
#
#
# Mechanical properties :
#
#
# Convention : Reuss Voigt Hill
#
# Bulk Modulus (GPa) = 53.37204 58.92109 56.14657
# Shear Modulus (GPa) = 27.38069 29.99519 28.68794
#
# Velocity S-wave (km/s) = 3.59505 3.76277 3.67987
# Velocity P-wave (km/s) = 6.51348 6.83302 6.67516
#
# Compressibility (1/GPa) = 0.01873640
#
# Stress axis : x y z
#
# Youngs Moduli (GPa) = 50.68282 69.03191 80.50667
#
# Poissons Ratio (x) = 0.23384 0.69306
# Poissons Ratio (y) = 0.17168 0.15736
# Poissons Ratio (z) = 0.43632 0.13493
#
# Static dielectric constant tensor:
#      x y z
#    x 3.537420 0.000000 0.000000 
#    y 0.000000 3.875840 0.000000 
#    z 0.000000 0.000000 4.018540 
# 
# 
# High freq. dielectric constant tensor:
#      x y z
#    x 1.819790 0.000000 0.000000 
#    y 0.000000 1.847700 0.000000 
#    z 0.000000 0.000000 1.847850 
# 
# From -- ./inp_files/17316.got.cif
#   From: 2010.03.12/outbox.cif.g09.slc.cpg/sg60_9_cif.got.tgz:17316.got - 2010.04.10 18:46:24.
