data_PCOD8248361
_publ_section_title
;
Structure prediction by ZEFSAII (Michael W. Deem and Ramdas Pophale) SiO2 
 PCOD8248361
Probable space group: P B C N
;
_chemical_formula_sum "Si O2"
_cell_formula_units_Z 48
_cell_length_a 5.320714
_cell_length_b 27.320238
_cell_length_c 14.328631
_cell_angle_alpha 90.000000
_cell_angle_beta 90.000000
_cell_angle_gamma 90.000000
_cell_volume 2082.855264
_symmetry_space_group_name_H-M "P B C N"
_symmetry_group_IT_number 60
_symmetry_cell_setting 'orthorhombic'
loop_
_space_group_symop_operation_xyz
x,y,z
1/2-x,1/2-y,1/2+z
1/2+x,1/2-y,-z
-x,y,1/2-z
-x,-y,-z
1/2+x,1/2+y,1/2-z
1/2-x,1/2+y,z
x,-y,1/2+z
loop_
_atom_site_type_symbol
_atom_site_label
_atom_site_fract_x
_atom_site_fract_y
_atom_site_fract_z
Si Si1 0.743077 0.457315 0.807178
Si Si2 0.286623 0.692896 0.979998
Si Si3 0.333151 0.661730 0.661952
Si Si4 0.844738 0.412467 0.997576
Si Si5 0.328080 0.559671 0.596483
Si Si6 0.479442 0.252901 0.647680
O O1 0.500000 0.438490 0.750000
O O2 0.787013 0.418223 0.888742
O O3 0.671789 0.510327 0.846013
O O4 0.000000 0.460720 0.750000
O O5 0.102695 0.645345 0.980860
O O6 0.302773 0.711961 0.086602
O O7 0.544728 0.671838 0.939434
O O8 0.222810 0.740780 0.916035
O O9 0.500000 0.676651 0.750000
O O10 0.263126 0.604407 0.667222
O O11 0.099094 0.697165 0.667529
O O12 0.605611 0.434456 0.052975
O O13 0.101187 0.441812 0.021037
O O14 0.500000 0.278435 0.750000
#
# Coordination Sequence:
#
# PCOD8248361 Si02
#       6
#     8   8   8   8   8   8
#     4  12  25  43  67 100 139 174 225 282 338 409
#     4  11  24  41  64  95 134 179 225 282 343 409
#     4  11  22  38  63  97 129 169 223 288 345 401
#     4  11  24  44  68  96 133 184 227 275 342 412
#     4  11  23  42  69  98 133 179 224 281 340 408
#     4  12  23  40  66  93 133 172 227 283 346 406
#
# _framework density 23.045286999999998
#
# number of rings (size 3 to 8) (size 9 to 14) (size 15 to 20)
#    0.000    0.667    5.000    3.500    0.000    2.667 
#    0.000    2.500    0.000    0.000    0.000    0.000 
#    0.000    0.000    0.000    0.000    0.000    0.000 
#
# Total GULP energy -594821.360364 kJ/mol
# GULP energy per Si atom -12392.111674 kJ/mol
# Density = 2.299284 g / cm^3
# Si number density = 23.045287 Si / 1000 Ang^3
#
#
#
# Elastic Constant Matrix: (Units=GPa)
#
#
# Indices 1 2 3 4 5 6 
#
# 1 91.8458 1.3334 19.1662 0.0000 0.0000 0.0000
# 2 1.3334 46.5376 11.5628 0.0000 0.0000 0.0000
# 3 19.1662 11.5628 135.4881 0.0000 0.0000 0.0000
# 4 0.0000 0.0000 0.0000 27.4064 0.0000 0.0000
# 5 0.0000 0.0000 0.0000 0.0000 31.9809 0.0000
# 6 0.0000 0.0000 0.0000 0.0000 0.0000 21.0368
#
#
#
# Elastic Compliance Matrix: (Units=1/GPa)
#
#
# Indices 1 2 3 4 5 6 
#
# 1 0.011219 0.000074 -0.001593 0.000000 0.000000 0.000000
# 2 0.000074 0.021954 -0.001884 0.000000 0.000000 0.000000
# 3 -0.001593 -0.001884 0.007767 0.000000 0.000000 0.000000
# 4 0.000000 0.000000 0.000000 0.036488 0.000000 0.000000
# 5 0.000000 0.000000 0.000000 0.000000 0.031269 0.000000
# 6 0.000000 0.000000 0.000000 0.000000 0.000000 0.047536
#
#
# Mechanical properties :
#
#
# Convention : Reuss Voigt Hill
#
# Bulk Modulus (GPa) = 29.29634 37.55515 33.42574
# Shear Modulus (GPa) = 28.66697 32.20541 30.43619
#
# Velocity S-wave (km/s) = 3.53078 3.74235 3.63810
# Velocity P-wave (km/s) = 5.41867 5.91652 5.67306
#
# Compressibility (1/GPa) = 0.03413396
#
# Stress axis : x y z
#
# Youngs Moduli (GPa) = 89.13249 45.54975 128.75108
#
# Poissons Ratio (x) = -0.00339 0.20516
# Poissons Ratio (y) = -0.00664 0.24258
# Poissons Ratio (z) = 0.14203 0.08582
#
# Static dielectric constant tensor:
#      x y z
#    x 4.221080 0.000000 0.000000 
#    y 0.000000 4.235360 0.000000 
#    z 0.000000 0.000000 4.706250 
# 
# 
# High freq. dielectric constant tensor:
#      x y z
#    x 1.907450 0.000000 0.000000 
#    y 0.000000 1.905690 0.000000 
#    z 0.000000 0.000000 1.917310 
# 
# From -- ./inp_files/13947.got.cif
#   From: 2010.03.12/outbox.cif.g09.slc.cpg/sg60_7_cif.got.tgz:13947.got - 2010.04.10 18:46:24.
