data_PCOD8248539
_publ_section_title
;
Structure prediction by ZEFSAII (Michael W. Deem and Ramdas Pophale) SiO2 
 PCOD8248539
Probable space group: P B C N
;
_chemical_formula_sum "Si O2"
_cell_formula_units_Z 28
_cell_length_a 6.052356
_cell_length_b 15.504159
_cell_length_c 12.646942
_cell_angle_alpha 90.000000
_cell_angle_beta 90.000000
_cell_angle_gamma 90.000000
_cell_volume 1186.747173
_symmetry_space_group_name_H-M "P B C N"
_symmetry_group_IT_number 60
_symmetry_cell_setting 'orthorhombic'
loop_
_space_group_symop_operation_xyz
x,y,z
1/2-x,1/2-y,1/2+z
1/2+x,1/2-y,-z
-x,y,1/2-z
-x,-y,-z
1/2+x,1/2+y,1/2-z
1/2-x,1/2+y,z
x,-y,1/2+z
loop_
_atom_site_type_symbol
_atom_site_label
_atom_site_fract_x
_atom_site_fract_y
_atom_site_fract_z
Si Si1 0.708734 0.999789 0.925964
Si Si2 0.482854 0.357976 0.961717
Si Si3 0.000000 0.396502 0.250000
Si Si4 0.170259 0.238162 0.846485
O O1 0.655713 0.039512 0.813308
O O2 0.886343 0.062990 0.974812
O O3 0.798438 0.901420 0.909150
O O4 0.500000 0.000000 0.000000
O O5 0.319985 0.322442 0.870373
O O6 0.538666 0.282302 0.045405
O O7 0.839768 0.338913 0.177954
O O8 0.000000 0.255380 0.750000
#
# Coordination Sequence:
#
# PCOD8248539 Si02
#       4
#     8   8   4   8
#     4  11  24  48  74 107 149 196 248 313 373 454
#     4  11  26  48  74 107 150 196 250 312 382 445
#     4  12  24  48  76 106 146 198 248 310 382 446
#     4  12  26  48  75 111 150 199 252 315 378 458
#
# _framework density 23.593903000000001
#
# number of rings (size 3 to 8) (size 9 to 14) (size 15 to 20)
#    0.000    0.571    5.714    1.714    0.000    0.000 
#    7.714    0.000    0.000    0.000    0.000    0.000 
#    0.000    0.000    0.000    0.000    0.000    0.000 
#
# Total GULP energy -347166.231246 kJ/mol
# GULP energy per Si atom -12398.793973 kJ/mol
# Density = 2.354020 g / cm^3
# Si number density = 23.593903 Si / 1000 Ang^3
#
#
#
# Elastic Constant Matrix: (Units=GPa)
#
#
# Indices 1 2 3 4 5 6 
#
# 1 121.3877 61.0386 49.9582 0.0000 0.0000 0.0000
# 2 61.0386 125.4179 63.7253 0.0000 0.0000 0.0000
# 3 49.9582 63.7253 108.0126 0.0000 0.0000 0.0000
# 4 0.0000 0.0000 0.0000 90.3158 0.0000 0.0000
# 5 0.0000 0.0000 0.0000 0.0000 41.1702 0.0000
# 6 0.0000 0.0000 0.0000 0.0000 0.0000 34.7422
#
#
#
# Elastic Compliance Matrix: (Units=1/GPa)
#
#
# Indices 1 2 3 4 5 6 
#
# 1 0.011503 -0.004134 -0.002881 0.000000 0.000000 0.000000
# 2 -0.004134 0.012873 -0.005682 0.000000 0.000000 0.000000
# 3 -0.002881 -0.005682 0.013943 0.000000 0.000000 0.000000
# 4 0.000000 0.000000 0.000000 0.011072 0.000000 0.000000
# 5 0.000000 0.000000 0.000000 0.000000 0.024289 0.000000
# 6 0.000000 0.000000 0.000000 0.000000 0.000000 0.028783
#
#
# Mechanical properties :
#
#
# Convention : Reuss Voigt Hill
#
# Bulk Modulus (GPa) = 77.38125 78.25140 77.81633
# Shear Modulus (GPa) = 37.83091 45.25204 41.54147
#
# Velocity S-wave (km/s) = 4.00862 4.38420 4.20061
# Velocity P-wave (km/s) = 7.36842 7.67243 7.52196
#
# Compressibility (1/GPa) = 0.01292303
#
# Stress axis : x y z
#
# Youngs Moduli (GPa) = 86.93625 77.68396 71.71908
#
# Poissons Ratio (x) = 0.32116 0.20663
# Poissons Ratio (y) = 0.35941 0.40754
# Poissons Ratio (z) = 0.25047 0.44143
#
# Static dielectric constant tensor:
#      x y z
#    x 5.203630 0.000000 0.000000 
#    y 0.000000 4.449240 0.000000 
#    z 0.000000 0.000000 4.320480 
# 
# 
# High freq. dielectric constant tensor:
#      x y z
#    x 1.953720 0.000000 0.000000 
#    y 0.000000 1.940620 0.000000 
#    z 0.000000 0.000000 1.927730 
# 
# From -- ./inp_files/13550.got.cif
#   From: 2010.03.12/outbox.cif.g09.slc.cpg/sg60_7_cif.got.tgz:13550.got - 2010.04.10 18:46:24.
