data_PCOD8248501
_publ_section_title
;
Structure prediction by ZEFSAII (Michael W. Deem and Ramdas Pophale) SiO2 
 PCOD8248501
Probable space group: P B C N
;
_chemical_formula_sum "Si O2"
_cell_formula_units_Z 48
_cell_length_a 16.264849
_cell_length_b 8.763012
_cell_length_c 15.799663
_cell_angle_alpha 90.000000
_cell_angle_beta 90.000000
_cell_angle_gamma 90.000000
_cell_volume 2251.911226
_symmetry_space_group_name_H-M "P B C N"
_symmetry_group_IT_number 60
_symmetry_cell_setting 'orthorhombic'
loop_
_space_group_symop_operation_xyz
x,y,z
1/2-x,1/2-y,1/2+z
1/2+x,1/2-y,-z
-x,y,1/2-z
-x,-y,-z
1/2+x,1/2+y,1/2-z
1/2-x,1/2+y,z
x,-y,1/2+z
loop_
_atom_site_type_symbol
_atom_site_label
_atom_site_fract_x
_atom_site_fract_y
_atom_site_fract_z
Si Si1 0.098048 0.360803 0.557897
Si Si2 0.928076 0.460440 0.612680
Si Si3 0.323460 0.574837 0.521644
Si Si4 0.184199 0.366611 0.279247
Si Si5 0.261421 0.602416 0.169457
Si Si6 0.201347 0.226886 0.925465
O O1 0.096674 0.473794 0.478832
O O2 0.096415 0.186849 0.521147
O O3 0.181276 0.365072 0.612394
O O4 0.022539 0.407249 0.618654
O O5 0.906900 0.578741 0.689275
O O6 0.873319 0.309043 0.621886
O O7 0.320928 0.505348 0.615800
O O8 0.332803 0.436591 0.455856
O O9 0.240344 0.673848 0.502310
O O10 0.235157 0.517138 0.254882
O O11 0.186155 0.251584 0.198930
O O12 0.224519 0.292184 0.360792
#
# Coordination Sequence:
#
# PCOD8248501 Si02
#       6
#     8   8   8   8   8   8
#     4  11  24  42  64  95 133 171 219 276 337 392
#     4  11  24  42  64  96 134 174 217 277 338 395
#     4  12  20  39  68  95 127 171 232 276 317 407
#     4  12  22  37  64  97 127 173 220 271 330 396
#     4  12  22  37  66  99 125 172 225 274 329 402
#     4  12  20  39  66  94 124 173 227 271 322 407
#
# _framework density 21.315228000000001
#
# number of rings (size 3 to 8) (size 9 to 14) (size 15 to 20)
#    0.000    0.333   10.000    0.000    0.000    1.333 
#    0.000    0.000    0.000    0.000    0.000    0.000 
#    0.000    0.000    0.000    0.000    0.000    0.000 
#
# Total GULP energy -594854.787531 kJ/mol
# GULP energy per Si atom -12392.808074 kJ/mol
# Density = 2.126671 g / cm^3
# Si number density = 21.315228 Si / 1000 Ang^3
#
#
#
# Elastic Constant Matrix: (Units=GPa)
#
#
# Indices 1 2 3 4 5 6 
#
# 1 70.1552 29.3516 18.4233 0.0000 0.0000 0.0000
# 2 29.3516 111.5924 19.9374 0.0000 0.0000 0.0000
# 3 18.4233 19.9374 60.1209 0.0000 0.0000 0.0000
# 4 0.0000 0.0000 0.0000 49.9359 0.0000 0.0000
# 5 0.0000 0.0000 0.0000 0.0000 27.0477 0.0000
# 6 0.0000 0.0000 0.0000 0.0000 0.0000 25.6414
#
#
#
# Elastic Compliance Matrix: (Units=1/GPa)
#
#
# Indices 1 2 3 4 5 6 
#
# 1 0.016845 -0.003729 -0.003925 0.000000 0.000000 0.000000
# 2 -0.003729 0.010351 -0.002290 0.000000 0.000000 0.000000
# 3 -0.003925 -0.002290 0.018595 0.000000 0.000000 0.000000
# 4 0.000000 0.000000 0.000000 0.020026 0.000000 0.000000
# 5 0.000000 0.000000 0.000000 0.000000 0.036972 0.000000
# 6 0.000000 0.000000 0.000000 0.000000 0.000000 0.038999
#
#
# Mechanical properties :
#
#
# Convention : Reuss Voigt Hill
#
# Bulk Modulus (GPa) = 38.60593 41.92145 40.26369
# Shear Modulus (GPa) = 29.35789 32.13541 30.74665
#
# Velocity S-wave (km/s) = 3.71525 3.88703 3.80211
# Velocity P-wave (km/s) = 6.04610 6.31311 6.18105
#
# Compressibility (1/GPa) = 0.02590275
#
# Stress axis : x y z
#
# Youngs Moduli (GPa) = 59.36394 96.60691 53.77685
#
# Poissons Ratio (x) = 0.36029 0.21109
# Poissons Ratio (y) = 0.22139 0.12314
# Poissons Ratio (z) = 0.23302 0.22122
#
# Static dielectric constant tensor:
#      x y z
#    x 3.669320 0.000000 0.000000 
#    y 0.000000 4.315470 0.000000 
#    z 0.000000 0.000000 3.829660 
# 
# 
# High freq. dielectric constant tensor:
#      x y z
#    x 1.788890 0.000000 0.000000 
#    y 0.000000 1.856720 0.000000 
#    z 0.000000 0.000000 1.842260 
# 
# From -- ./inp_files/17307.got.cif
#   From: 2010.03.12/outbox.cif.g09.slc.cpg/sg60_9_cif.got.tgz:17307.got - 2010.04.10 18:46:24.
