data_PCOD8248445
_publ_section_title
;
Structure prediction by ZEFSAII (Michael W. Deem and Ramdas Pophale) SiO2 
 PCOD8248445
Probable space group: P B C N
;
_chemical_formula_sum "Si O2"
_cell_formula_units_Z 40
_cell_length_a 12.305385
_cell_length_b 16.186910
_cell_length_c 8.571813
_cell_angle_alpha 90.000000
_cell_angle_beta 90.000000
_cell_angle_gamma 90.000000
_cell_volume 1707.386512
_symmetry_space_group_name_H-M "P B C N"
_symmetry_group_IT_number 60
_symmetry_cell_setting 'orthorhombic'
loop_
_space_group_symop_operation_xyz
x,y,z
1/2-x,1/2-y,1/2+z
1/2+x,1/2-y,-z
-x,y,1/2-z
-x,-y,-z
1/2+x,1/2+y,1/2-z
1/2-x,1/2+y,z
x,-y,1/2+z
loop_
_atom_site_type_symbol
_atom_site_label
_atom_site_fract_x
_atom_site_fract_y
_atom_site_fract_z
Si Si1 0.110918 0.937075 0.325037
Si Si2 0.545806 0.126461 0.922418
Si Si3 0.840859 0.234911 0.570360
Si Si4 0.745267 0.015823 0.929964
Si Si5 0.838165 0.342296 0.882219
O O1 0.088777 0.848398 0.404150
O O2 0.163540 0.006568 0.435890
O O3 0.000000 0.972750 0.250000
O O4 0.202449 0.921154 0.193566
O O5 0.500000 0.107653 0.750000
O O6 0.629821 0.055041 0.979957
O O7 0.605389 0.215316 0.926481
O O8 0.454484 0.129286 0.054804
O O9 0.844058 0.291703 0.723191
O O10 0.718748 0.211515 0.519042
O O11 0.729556 0.925720 0.852665
#
# Coordination Sequence:
#
# PCOD8248445 Si02
#       5
#     8   8   8   8   8
#     4  11  23  43  65  93 131 175 223 279 336 398
#     4  12  24  42  68  99 136 177 223 281 339 400
#     4  11  24  42  66  96 133 177 227 275 332 407
#     4  11  24  41  66  97 132 173 227 277 335 407
#     4  11  23  42  65  97 136 178 223 280 337 396
#
# _framework density 23.427619
#
# number of rings (size 3 to 8) (size 9 to 14) (size 15 to 20)
#    0.000    0.800    0.000    9.000    0.000    1.600 
#    0.000   12.000    0.000    0.000    0.000    0.000 
#    0.000    0.000    0.000    0.000    0.000    0.000 
#
# Total GULP energy -495912.172514 kJ/mol
# GULP energy per Si atom -12397.804313 kJ/mol
# Density = 2.337430 g / cm^3
# Si number density = 23.427619 Si / 1000 Ang^3
#
#
#
# Elastic Constant Matrix: (Units=GPa)
#
#
# Indices 1 2 3 4 5 6 
#
# 1 94.2286 41.9759 27.5941 0.0000 0.0000 0.0000
# 2 41.9759 106.0439 43.9693 0.0000 0.0000 0.0000
# 3 27.5941 43.9693 85.2665 0.0000 0.0000 0.0000
# 4 0.0000 0.0000 0.0000 35.4258 0.0000 0.0000
# 5 0.0000 0.0000 0.0000 0.0000 43.5133 0.0000
# 6 0.0000 0.0000 0.0000 0.0000 0.0000 39.8982
#
#
#
# Elastic Compliance Matrix: (Units=1/GPa)
#
#
# Indices 1 2 3 4 5 6 
#
# 1 0.013147 -0.004375 -0.001998 0.000000 0.000000 0.000000
# 2 -0.004375 0.013451 -0.005520 0.000000 0.000000 0.000000
# 3 -0.001998 -0.005520 0.015221 0.000000 0.000000 0.000000
# 4 0.000000 0.000000 0.000000 0.028228 0.000000 0.000000
# 5 0.000000 0.000000 0.000000 0.000000 0.022981 0.000000
# 6 0.000000 0.000000 0.000000 0.000000 0.000000 0.025064
#
#
# Mechanical properties :
#
#
# Convention : Reuss Voigt Hill
#
# Bulk Modulus (GPa) = 55.46002 56.95751 56.20876
# Shear Modulus (GPa) = 33.80882 35.23410 34.52146
#
# Velocity S-wave (km/s) = 3.80296 3.88229 3.84283
# Velocity P-wave (km/s) = 6.55802 6.66792 6.61320
#
# Compressibility (1/GPa) = 0.01803101
#
# Stress axis : x y z
#
# Youngs Moduli (GPa) = 76.06425 74.34473 65.69761
#
# Poissons Ratio (x) = 0.32529 0.13129
# Poissons Ratio (y) = 0.33281 0.36267
# Poissons Ratio (z) = 0.15200 0.41040
#
# Static dielectric constant tensor:
#      x y z
#    x 4.330220 0.000000 0.000000 
#    y 0.000000 4.250780 0.000000 
#    z 0.000000 0.000000 4.226650 
# 
# 
# High freq. dielectric constant tensor:
#      x y z
#    x 1.934300 0.000000 0.000000 
#    y 0.000000 1.929670 0.000000 
#    z 0.000000 0.000000 1.926090 
# 
# From -- ./inp_files/4726.got.cif
#   From: 2010.03.12/outbox.cif.g09.slc.cpg/sg60_3_cif.got.tgz:4726.got - 2010.04.10 18:46:24.
