data_PCOD8248663
_publ_section_title
;
Structure prediction by ZEFSAII (Michael W. Deem and Ramdas Pophale) SiO2 
 PCOD8248663
Probable space group: P B C N
;
_chemical_formula_sum "Si O2"
_cell_formula_units_Z 32
_cell_length_a 4.834235
_cell_length_b 16.988640
_cell_length_c 15.993278
_cell_angle_alpha 90.000000
_cell_angle_beta 90.000000
_cell_angle_gamma 90.000000
_cell_volume 1313.481191
_symmetry_space_group_name_H-M "P B C N"
_symmetry_group_IT_number 60
_symmetry_cell_setting 'orthorhombic'
loop_
_space_group_symop_operation_xyz
x,y,z
1/2-x,1/2-y,1/2+z
1/2+x,1/2-y,-z
-x,y,1/2-z
-x,-y,-z
1/2+x,1/2+y,1/2-z
1/2-x,1/2+y,z
x,-y,1/2+z
loop_
_atom_site_type_symbol
_atom_site_label
_atom_site_fract_x
_atom_site_fract_y
_atom_site_fract_z
Si Si1 0.112633 0.523442 0.158310
Si Si2 0.877321 0.106461 0.086714
Si Si3 0.631176 0.363861 0.397619
Si Si4 0.383026 0.771373 0.342959
O O1 0.354258 0.585054 0.140046
O O2 0.229114 0.435759 0.151712
O O3 0.000000 0.540104 0.250000
O O4 0.858395 0.539467 0.094893
O O5 0.764535 0.188860 0.123189
O O6 0.961845 0.111006 0.989901
O O7 0.364398 0.334796 0.346150
O O8 0.864411 0.296245 0.403606
O O9 0.500000 0.765611 0.250000
#
# Coordination Sequence:
#
# PCOD8248663 Si02
#       4
#     8   8   8   8
#     4  12  25  44  70 103 140 183 231 285 346 411
#     4  12  25  46  71 102 140 184 232 287 345 413
#     4  12  25  45  70 103 140 184 233 286 346 413
#     4  12  25  43  69 102 140 185 232 286 346 411
#
# _framework density 24.362741
#
# number of rings (size 3 to 8) (size 9 to 14) (size 15 to 20)
#    0.000    0.000    0.000   11.250    0.000    2.000 
#    0.000    0.000    0.000    0.000    0.000    0.000 
#    0.000    0.000    0.000    0.000    0.000    0.000 
#
# Total GULP energy -397104.610516 kJ/mol
# GULP energy per Si atom -12409.519079 kJ/mol
# Density = 2.430729 g / cm^3
# Si number density = 24.362741 Si / 1000 Ang^3
#
#
#
# Elastic Constant Matrix: (Units=GPa)
#
#
# Indices 1 2 3 4 5 6 
#
# 1 144.4538 21.1867 38.9952 0.0000 0.0000 0.0000
# 2 21.1867 48.1749 28.1581 0.0000 0.0000 0.0000
# 3 38.9952 28.1581 82.9282 0.0000 0.0000 0.0000
# 4 0.0000 0.0000 0.0000 35.9921 0.0000 0.0000
# 5 0.0000 0.0000 0.0000 0.0000 41.5085 0.0000
# 6 0.0000 0.0000 0.0000 0.0000 0.0000 48.7683
#
#
#
# Elastic Compliance Matrix: (Units=1/GPa)
#
#
# Indices 1 2 3 4 5 6 
#
# 1 0.008033 -0.001653 -0.003216 0.000000 0.000000 0.000000
# 2 -0.001653 0.026238 -0.008132 0.000000 0.000000 0.000000
# 3 -0.003216 -0.008132 0.016332 0.000000 0.000000 0.000000
# 4 0.000000 0.000000 0.000000 0.027784 0.000000 0.000000
# 5 0.000000 0.000000 0.000000 0.000000 0.024091 0.000000
# 6 0.000000 0.000000 0.000000 0.000000 0.000000 0.020505
#
#
# Mechanical properties :
#
#
# Convention : Reuss Voigt Hill
#
# Bulk Modulus (GPa) = 40.64843 50.24856 45.44849
# Shear Modulus (GPa) = 31.80955 37.73491 34.77223
#
# Velocity S-wave (km/s) = 3.61732 3.93985 3.78202
# Velocity P-wave (km/s) = 5.84530 6.43168 6.14549
#
# Compressibility (1/GPa) = 0.02460120
#
# Stress axis : x y z
#
# Youngs Moduli (GPa) = 124.48201 38.11322 61.22938
#
# Poissons Ratio (x) = 0.06300 0.19692
# Poissons Ratio (y) = 0.20578 0.49789
# Poissons Ratio (z) = 0.40036 0.30992
#
# Static dielectric constant tensor:
#      x y z
#    x 4.620050 0.000000 0.000000 
#    y 0.000000 4.497530 0.000000 
#    z 0.000000 0.000000 4.225090 
# 
# 
# High freq. dielectric constant tensor:
#      x y z
#    x 1.984910 0.000000 0.000000 
#    y 0.000000 1.978380 0.000000 
#    z 0.000000 0.000000 1.971270 
# 
# From -- ./inp_files/13620.got.cif
#   From: 2010.03.12/outbox.cif.g09.slc.cpg/sg60_7_cif.got.tgz:13620.got - 2010.04.10 18:46:24.
