data_PCOD8248096
_publ_section_title
;
Structure prediction by ZEFSAII (Michael W. Deem and Ramdas Pophale) SiO2 
 PCOD8248096
Probable space group: P B C N
;
_chemical_formula_sum "Si O2"
_cell_formula_units_Z 48
_cell_length_a 18.884617
_cell_length_b 20.825705
_cell_length_c 5.436008
_cell_angle_alpha 90.000000
_cell_angle_beta 90.000000
_cell_angle_gamma 90.000000
_cell_volume 2137.902921
_symmetry_space_group_name_H-M "P B C N"
_symmetry_group_IT_number 60
_symmetry_cell_setting 'orthorhombic'
loop_
_space_group_symop_operation_xyz
x,y,z
1/2-x,1/2-y,1/2+z
1/2+x,1/2-y,-z
-x,y,1/2-z
-x,-y,-z
1/2+x,1/2+y,1/2-z
1/2-x,1/2+y,z
x,-y,1/2+z
loop_
_atom_site_type_symbol
_atom_site_label
_atom_site_fract_x
_atom_site_fract_y
_atom_site_fract_z
Si Si1 0.828928 0.701723 0.027904
Si Si2 0.428355 0.268721 0.863208
Si Si3 0.067255 0.356475 0.620905
Si Si4 0.296916 0.464579 0.359763
Si Si5 0.870617 0.534149 0.644617
Si Si6 0.815741 0.170089 0.822332
O O1 0.867788 0.647700 0.188891
O O2 0.805625 0.764344 0.176223
O O3 0.878048 0.727624 0.812530
O O4 0.759276 0.661420 0.956993
O O5 0.500000 0.300098 0.750000
O O6 0.456687 0.215819 0.054338
O O7 0.382525 0.324589 0.991831
O O8 0.093238 0.395857 0.381139
O O9 0.000000 0.390228 0.750000
O O10 0.323299 0.496726 0.615308
O O11 0.213049 0.459574 0.359180
O O12 0.329187 0.392346 0.347310
O O13 0.897166 0.495768 0.400789
#
# Coordination Sequence:
#
# PCOD8248096 Si02
#       6
#     8   8   8   8   8   8
#     4  11  23  39  62  97 130 163 221 274 336 396
#     4  11  23  41  64  95 133 169 212 279 348 407
#     4  11  24  39  61  87 131 181 220 274 335 402
#     4  10  24  42  67  95 133 174 220 278 337 396
#     4  10  24  40  61  91 128 180 234 279 319 381
#     4  11  24  38  67 100 126 171 221 276 333 404
#
# _framework density 22.451909000000001
#
# number of rings (size 3 to 8) (size 9 to 14) (size 15 to 20)
#    0.000    1.333    3.333    1.000   14.000    0.667 
#    0.000    0.000    0.000    1.000    0.000    0.000 
#    0.000    0.000    0.000    0.000    0.000    0.000 
#
# Total GULP energy -595069.101445 kJ/mol
# GULP energy per Si atom -12397.272947 kJ/mol
# Density = 2.240081 g / cm^3
# Si number density = 22.451909 Si / 1000 Ang^3
#
#
#
# Elastic Constant Matrix: (Units=GPa)
#
#
# Indices 1 2 3 4 5 6 
#
# 1 86.4572 19.2204 32.2937 0.0000 0.0000 0.0000
# 2 19.2204 74.9784 32.8461 0.0000 0.0000 0.0000
# 3 32.2937 32.8461 115.6129 0.0000 0.0000 0.0000
# 4 0.0000 0.0000 0.0000 24.0172 0.0000 0.0000
# 5 0.0000 0.0000 0.0000 0.0000 31.2606 0.0000
# 6 0.0000 0.0000 0.0000 0.0000 0.0000 11.7303
#
#
#
# Elastic Compliance Matrix: (Units=1/GPa)
#
#
# Indices 1 2 3 4 5 6 
#
# 1 0.013175 -0.002016 -0.003107 0.000000 0.000000 0.000000
# 2 -0.002016 0.015542 -0.003852 0.000000 0.000000 0.000000
# 3 -0.003107 -0.003852 0.010612 0.000000 0.000000 0.000000
# 4 0.000000 0.000000 0.000000 0.041637 0.000000 0.000000
# 5 0.000000 0.000000 0.000000 0.000000 0.031989 0.000000
# 6 0.000000 0.000000 0.000000 0.000000 0.000000 0.085250
#
#
# Mechanical properties :
#
#
# Convention : Reuss Voigt Hill
#
# Bulk Modulus (GPa) = 46.77879 49.52987 48.15433
# Shear Modulus (GPa) = 22.39322 26.24750 24.32036
#
# Velocity S-wave (km/s) = 3.16157 3.42285 3.29480
# Velocity P-wave (km/s) = 5.84873 6.14244 5.99738
#
# Compressibility (1/GPa) = 0.02137721
#
# Stress axis : x y z
#
# Youngs Moduli (GPa) = 75.89948 64.34353 94.23318
#
# Poissons Ratio (x) = 0.12973 0.29282
# Poissons Ratio (y) = 0.15303 0.36301
# Poissons Ratio (z) = 0.23585 0.24787
#
# Static dielectric constant tensor:
#      x y z
#    x 3.865720 0.000000 0.000000 
#    y 0.000000 3.951500 0.000000 
#    z 0.000000 0.000000 4.423550 
# 
# 
# High freq. dielectric constant tensor:
#      x y z
#    x 1.864280 0.000000 0.000000 
#    y 0.000000 1.870550 0.000000 
#    z 0.000000 0.000000 1.896770 
# 
# From -- ./inp_files/1741.got.cif
#   From: 2010.03.12/outbox.cif.g09.slc.cpg/sg60_1_cif.got.tgz:1741.got - 2010.04.10 18:46:24.
