data_PCOD8248862
_publ_section_title
;
Structure prediction by ZEFSAII (Michael W. Deem and Ramdas Pophale) SiO2 
 PCOD8248862
Probable space group: P B C A
;
_chemical_formula_sum "Si O2"
_cell_formula_units_Z 40
_cell_length_a 5.566698
_cell_length_b 12.266323
_cell_length_c 20.975511
_cell_angle_alpha 90.000000
_cell_angle_beta 90.000000
_cell_angle_gamma 90.000000
_cell_volume 1432.269050
_symmetry_space_group_name_H-M "P B C A"
_symmetry_group_IT_number 61
_symmetry_cell_setting 'orthorhombic'
loop_
_space_group_symop_operation_xyz
x,y,z
1/2-x,-y,1/2+z
1/2+x,1/2-y,-z
-x,1/2+y,1/2-z
-x,-y,-z
1/2+x,y,1/2-z
1/2-x,1/2+y,z
x,1/2-y,1/2+z
loop_
_atom_site_type_symbol
_atom_site_label
_atom_site_fract_x
_atom_site_fract_y
_atom_site_fract_z
Si Si1 0.645181 0.493395 0.769480
Si Si2 0.460551 0.743076 0.084716
Si Si3 0.624455 0.759408 0.221395
Si Si4 0.724274 0.589067 0.505799
Si Si5 0.837864 0.438079 0.408990
O O1 0.384472 0.433028 0.759172
O O2 0.615727 0.610461 0.734809
O O3 0.686299 0.494931 0.844531
O O4 0.638369 0.736341 0.145298
O O5 0.393459 0.627099 0.055230
O O6 0.226883 0.812891 0.107249
O O7 0.568757 0.807543 0.024019
O O8 0.368946 0.709256 0.247270
O O9 0.634560 0.481691 0.463282
O O10 0.892640 0.553203 0.564131
#
# Coordination Sequence:
#
# PCOD8248862 Si02
#       5
#     8   8   8   8   8
#     4  10  19  37  65  91 122 176 213 265 335 386
#     4  12  22  41  67  91 134 170 221 272 330 401
#     4  10  20  36  66  92 122 176 217 265 336 388
#     4  11  25  40  63  99 125 176 217 270 335 393
#     4  11  23  42  64  92 133 168 221 271 329 399
#
# _framework density 27.927712
#
# number of rings (size 3 to 8) (size 9 to 14) (size 15 to 20)
#    0.000    1.200    6.000    3.000    0.000    0.000 
#    0.000    2.000    0.000    0.000    0.000    0.000 
#    0.000    0.000    0.000    0.000    0.000    0.000 
#
# Total GULP energy -495846.281596 kJ/mol
# GULP energy per Si atom -12396.157040 kJ/mol
# Density = 2.786415 g / cm^3
# Si number density = 27.927712 Si / 1000 Ang^3
#
#
#
# Elastic Constant Matrix: (Units=GPa)
#
#
# Indices 1 2 3 4 5 6 
#
# 1 126.8696 21.0615 29.4705 0.0000 0.0000 0.0000
# 2 21.0615 41.2344 14.5474 0.0000 0.0000 0.0000
# 3 29.4705 14.5474 155.0242 0.0000 0.0000 0.0000
# 4 0.0000 0.0000 0.0000 43.4891 0.0000 0.0000
# 5 0.0000 0.0000 0.0000 0.0000 48.3855 0.0000
# 6 0.0000 0.0000 0.0000 0.0000 0.0000 49.6643
#
#
#
# Elastic Compliance Matrix: (Units=1/GPa)
#
#
# Indices 1 2 3 4 5 6 
#
# 1 0.008860 -0.004066 -0.001303 0.000000 0.000000 0.000000
# 2 -0.004066 0.026948 -0.001756 0.000000 0.000000 0.000000
# 3 -0.001303 -0.001756 0.006863 0.000000 0.000000 0.000000
# 4 0.000000 0.000000 0.000000 0.022994 0.000000 0.000000
# 5 0.000000 0.000000 0.000000 0.000000 0.020667 0.000000
# 6 0.000000 0.000000 0.000000 0.000000 0.000000 0.020135
#
#
# Mechanical properties :
#
#
# Convention : Reuss Voigt Hill
#
# Bulk Modulus (GPa) = 35.18421 50.36523 42.77472
# Shear Modulus (GPa) = 38.40549 45.51105 41.95827
#
# Velocity S-wave (km/s) = 3.71236 4.04121 3.88027
# Velocity P-wave (km/s) = 5.56787 6.31257 5.95187
#
# Compressibility (1/GPa) = 0.02842184
#
# Stress axis : x y z
#
# Youngs Moduli (GPa) = 112.87110 37.10888 145.70837
#
# Poissons Ratio (x) = 0.15087 0.18982
# Poissons Ratio (y) = 0.45890 0.25584
# Poissons Ratio (z) = 0.14704 0.06516
#
# Static dielectric constant tensor:
#      x y z
#    x 5.837650 0.000000 0.000000 
#    y 0.000000 5.301210 0.000000 
#    z 0.000000 0.000000 4.953780 
# 
# 
# High freq. dielectric constant tensor:
#      x y z
#    x 2.139010 0.000000 0.000000 
#    y 0.000000 2.180360 0.000000 
#    z 0.000000 0.000000 2.132750 
# 
# From -- ./inp_files/698.got.cif
#   From: 2010.03.12/outbox.cif.g09.slc.cpg/sg61_1_cif.got.tgz:698.got - 2010.04.10 19:05:03.
