data_PCOD8248270
_publ_section_title
;
Structure prediction by ZEFSAII (Michael W. Deem and Ramdas Pophale) SiO2 
 PCOD8248270
Probable space group: P B C N
;
_chemical_formula_sum "Si O2"
_cell_formula_units_Z 48
_cell_length_a 9.232884
_cell_length_b 17.093223
_cell_length_c 15.063909
_cell_angle_alpha 90.000000
_cell_angle_beta 90.000000
_cell_angle_gamma 90.000000
_cell_volume 2377.382279
_symmetry_space_group_name_H-M "P B C N"
_symmetry_group_IT_number 60
_symmetry_cell_setting 'orthorhombic'
loop_
_space_group_symop_operation_xyz
x,y,z
1/2-x,1/2-y,1/2+z
1/2+x,1/2-y,-z
-x,y,1/2-z
-x,-y,-z
1/2+x,1/2+y,1/2-z
1/2-x,1/2+y,z
x,-y,1/2+z
loop_
_atom_site_type_symbol
_atom_site_label
_atom_site_fract_x
_atom_site_fract_y
_atom_site_fract_z
Si Si1 0.595805 0.890699 0.535604
Si Si2 0.342510 0.200839 0.288941
Si Si3 0.199192 0.820476 0.418734
Si Si4 0.214447 0.543621 0.028597
Si Si5 0.480118 0.256385 0.959943
Si Si6 0.602141 0.374619 0.826256
O O1 0.664394 0.853314 0.623628
O O2 0.444898 0.932737 0.563113
O O3 0.566863 0.826327 0.459045
O O4 0.712816 0.952202 0.496357
O O5 0.500000 0.203111 0.250000
O O6 0.296893 0.290653 0.316765
O O7 0.239645 0.168306 0.214033
O O8 0.244962 0.909886 0.436961
O O9 0.037436 0.806063 0.456125
O O10 0.311300 0.763899 0.473448
O O11 0.336758 0.561408 0.103724
O O12 0.505702 0.306562 0.871195
O O13 0.500000 0.413887 0.750000
#
# Coordination Sequence:
#
# PCOD8248270 Si02
#       6
#     8   8   8   8   8   8
#     4   9  18  35  58  81 108 148 197 228 283 351
#     4  11  20  34  56  85 110 148 193 241 284 333
#     4   9  18  32  54  81 107 139 187 227 278 337
#     4   9  18  35  58  81 110 149 189 235 282 351
#     4   9  18  32  54  81 104 142 183 230 275 341
#     4  11  20  34  56  83 115 147 190 242 292 332
#
# _framework density 20.190273999999999
#
# number of rings (size 3 to 8) (size 9 to 14) (size 15 to 20)
#    0.000    2.333    3.333    0.000    2.333    0.000 
#    0.000    2.500    0.000    2.000    0.000    0.000 
#    0.000    0.000    0.000    0.000    0.000    0.000 
#
# Total GULP energy -594635.381201 kJ/mol
# GULP energy per Si atom -12388.237108 kJ/mol
# Density = 2.014432 g / cm^3
# Si number density = 20.190274 Si / 1000 Ang^3
#
#
#
# Elastic Constant Matrix: (Units=GPa)
#
#
# Indices 1 2 3 4 5 6 
#
# 1 54.7424 4.5977 10.9730 0.0000 0.0000 0.0000
# 2 4.5977 76.9827 33.2041 0.0000 0.0000 0.0000
# 3 10.9730 33.2041 72.3984 0.0000 0.0000 0.0000
# 4 0.0000 0.0000 0.0000 17.2250 0.0000 0.0000
# 5 0.0000 0.0000 0.0000 0.0000 30.7092 0.0000
# 6 0.0000 0.0000 0.0000 0.0000 0.0000 20.1216
#
#
#
# Elastic Compliance Matrix: (Units=1/GPa)
#
#
# Indices 1 2 3 4 5 6 
#
# 1 0.018841 0.000133 -0.002916 0.000000 0.000000 0.000000
# 2 0.000133 0.016194 -0.007447 0.000000 0.000000 0.000000
# 3 -0.002916 -0.007447 0.017670 0.000000 0.000000 0.000000
# 4 0.000000 0.000000 0.000000 0.058055 0.000000 0.000000
# 5 0.000000 0.000000 0.000000 0.000000 0.032563 0.000000
# 6 0.000000 0.000000 0.000000 0.000000 0.000000 0.049698
#
#
# Mechanical properties :
#
#
# Convention : Reuss Voigt Hill
#
# Bulk Modulus (GPa) = 31.01452 33.51924 32.26688
# Shear Modulus (GPa) = 22.29844 23.96776 23.13310
#
# Velocity S-wave (km/s) = 3.32688 3.44916 3.38857
# Velocity P-wave (km/s) = 5.49108 5.70088 5.59696
#
# Compressibility (1/GPa) = 0.03224297
#
# Stress axis : x y z
#
# Youngs Moduli (GPa) = 53.07624 61.75080 56.59313
#
# Poissons Ratio (x) = -0.00819 0.16505
# Poissons Ratio (y) = -0.00704 0.42146
# Poissons Ratio (z) = 0.15479 0.45987
#
# Static dielectric constant tensor:
#      x y z
#    x 3.803120 0.000000 0.000000 
#    y 0.000000 3.631620 0.000000 
#    z 0.000000 0.000000 3.670480 
# 
# 
# High freq. dielectric constant tensor:
#      x y z
#    x 1.803360 0.000000 0.000000 
#    y 0.000000 1.765020 0.000000 
#    z 0.000000 0.000000 1.761620 
# 
# From -- ./inp_files/15000.got.cif
#   From: 2010.03.12/outbox.cif.g09.slc.cpg/sg60_8_cif.got.tgz:15000.got - 2010.04.10 18:46:24.
