data_PCOD8248660
_publ_section_title
;
Structure prediction by ZEFSAII (Michael W. Deem and Ramdas Pophale) SiO2 
 PCOD8248660
Probable space group: P B C N
;
_chemical_formula_sum "Si O2"
_cell_formula_units_Z 40
_cell_length_a 11.468762
_cell_length_b 9.506566
_cell_length_c 15.801626
_cell_angle_alpha 90.000000
_cell_angle_beta 90.000000
_cell_angle_gamma 90.000000
_cell_volume 1722.828258
_symmetry_space_group_name_H-M "P B C N"
_symmetry_group_IT_number 60
_symmetry_cell_setting 'orthorhombic'
loop_
_space_group_symop_operation_xyz
x,y,z
1/2-x,1/2-y,1/2+z
1/2+x,1/2-y,-z
-x,y,1/2-z
-x,-y,-z
1/2+x,1/2+y,1/2-z
1/2-x,1/2+y,z
x,-y,1/2+z
loop_
_atom_site_type_symbol
_atom_site_label
_atom_site_fract_x
_atom_site_fract_y
_atom_site_fract_z
Si Si1 0.510724 0.314835 0.340806
Si Si2 0.277356 0.306230 0.430221
Si Si3 0.698231 0.090573 0.308259
Si Si4 0.865337 0.688216 0.726578
Si Si5 0.301847 0.436938 0.040230
O O1 0.500000 0.398691 0.250000
O O2 0.385778 0.258768 0.372268
O O3 0.579055 0.173827 0.317801
O O4 0.575387 0.408647 0.411913
O O5 0.159969 0.290041 0.373566
O O6 0.258351 0.209312 0.512515
O O7 0.313053 0.464010 0.458093
O O8 0.802796 0.194970 0.284062
O O9 0.688024 0.966262 0.240581
O O10 0.715253 0.016223 0.397939
O O11 0.000000 0.695920 0.750000
#
# Coordination Sequence:
#
# PCOD8248660 Si02
#       5
#     8   8   8   8   8
#     4  12  25  49  78 104 153 203 250 314 376 470
#     4  12  27  47  75 116 154 198 254 319 388 443
#     4  12  24  51  74 108 152 202 258 314 381 466
#     4  12  28  48  78 112 152 208 262 311 382 473
#     4  12  26  48  72 114 151 196 253 318 386 450
#
# _framework density 23.217638000000001
#
# number of rings (size 3 to 8) (size 9 to 14) (size 15 to 20)
#    0.000    0.000    6.000    2.400    2.800    8.000 
#    0.000    0.000    0.000    0.000    0.000    0.000 
#    0.000    0.000    0.000    0.000    0.000    0.000 
#
# Total GULP energy -496046.152255 kJ/mol
# GULP energy per Si atom -12401.153806 kJ/mol
# Density = 2.316479 g / cm^3
# Si number density = 23.217638 Si / 1000 Ang^3
#
#
#
# Elastic Constant Matrix: (Units=GPa)
#
#
# Indices 1 2 3 4 5 6 
#
# 1 144.1978 48.1034 58.6282 0.0000 0.0000 0.0000
# 2 48.1034 130.8398 40.7579 0.0000 0.0000 0.0000
# 3 58.6282 40.7579 134.6953 0.0000 0.0000 0.0000
# 4 0.0000 0.0000 0.0000 41.6726 0.0000 0.0000
# 5 0.0000 0.0000 0.0000 0.0000 50.7950 0.0000
# 6 0.0000 0.0000 0.0000 0.0000 0.0000 17.0978
#
#
#
# Elastic Compliance Matrix: (Units=1/GPa)
#
#
# Indices 1 2 3 4 5 6 
#
# 1 0.009017 -0.002310 -0.003226 0.000000 0.000000 0.000000
# 2 -0.002310 0.009030 -0.001727 0.000000 0.000000 0.000000
# 3 -0.003226 -0.001727 0.009351 0.000000 0.000000 0.000000
# 4 0.000000 0.000000 0.000000 0.023997 0.000000 0.000000
# 5 0.000000 0.000000 0.000000 0.000000 0.019687 0.000000
# 6 0.000000 0.000000 0.000000 0.000000 0.000000 0.058487
#
#
# Mechanical properties :
#
#
# Convention : Reuss Voigt Hill
#
# Bulk Modulus (GPa) = 77.68652 78.30130 77.99391
# Shear Modulus (GPa) = 33.69602 39.39598 36.54600
#
# Velocity S-wave (km/s) = 3.81374 4.12371 3.97175
# Velocity P-wave (km/s) = 7.27500 7.51475 7.39584
#
# Compressibility (1/GPa) = 0.01287225
#
# Stress axis : x y z
#
# Youngs Moduli (GPa) = 110.89969 110.73864 106.94295
#
# Poissons Ratio (x) = 0.25584 0.34497
# Poissons Ratio (y) = 0.25621 0.18468
# Poissons Ratio (z) = 0.35774 0.19123
#
# Static dielectric constant tensor:
#      x y z
#    x 4.007980 0.000000 0.000000 
#    y 0.000000 4.391000 0.000000 
#    z 0.000000 0.000000 4.412490 
# 
# 
# High freq. dielectric constant tensor:
#      x y z
#    x 1.911560 0.000000 0.000000 
#    y 0.000000 1.925870 0.000000 
#    z 0.000000 0.000000 1.936110 
# 
# From -- ./inp_files/19825.got.cif
#   From: 2010.03.12/outbox.cif.g09.slc.cpg/sg60_10_cif.got.tgz:19825.got - 2010.04.10 18:46:24.
