data_PCOD8248245
_publ_section_title
;
Structure prediction by ZEFSAII (Michael W. Deem and Ramdas Pophale) SiO2 
 PCOD8248245
Probable space group: P B C N
;
_chemical_formula_sum "Si O2"
_cell_formula_units_Z 60
_cell_length_a 9.119098
_cell_length_b 11.600287
_cell_length_c 26.036248
_cell_angle_alpha 90.000000
_cell_angle_beta 90.000000
_cell_angle_gamma 90.000000
_cell_volume 2754.222468
_symmetry_space_group_name_H-M "P B C N"
_symmetry_group_IT_number 60
_symmetry_cell_setting 'orthorhombic'
loop_
_space_group_symop_operation_xyz
x,y,z
1/2-x,1/2-y,1/2+z
1/2+x,1/2-y,-z
-x,y,1/2-z
-x,-y,-z
1/2+x,1/2+y,1/2-z
1/2-x,1/2+y,z
x,-y,1/2+z
loop_
_atom_site_type_symbol
_atom_site_label
_atom_site_fract_x
_atom_site_fract_y
_atom_site_fract_z
Si Si1 0.115293 0.605602 0.443099
Si Si2 0.500000 0.108172 0.750000
Si Si3 0.696115 0.914732 0.791717
Si Si4 0.447695 0.878758 0.059771
Si Si5 0.570067 0.636697 0.093595
Si Si6 0.818704 0.784825 0.696080
Si Si7 0.015081 0.748243 0.348336
Si Si8 0.159904 0.035168 0.616742
O O1 0.060871 0.641290 0.499098
O O2 0.290516 0.618198 0.442945
O O3 0.034144 0.690878 0.403980
O O4 0.070547 0.475059 0.428541
O O5 0.439557 0.186032 0.796300
O O6 0.634729 0.035103 0.771235
O O7 0.796043 0.853891 0.749009
O O8 0.559193 0.836357 0.807378
O O9 0.792089 0.939981 0.841731
O O10 0.496423 0.760464 0.085405
O O11 0.292027 0.919802 0.081913
O O12 0.624439 0.627109 0.152671
O O13 0.456279 0.533729 0.081219
O O14 0.671809 0.721706 0.676194
O O15 0.916637 0.860609 0.353686
#
# Coordination Sequence:
#
# PCOD8248245 Si02
#       8
#     8   4   8   8   8   8   8   8
#     4  10  26  46  75 101 143 185 237 291 366 425
#     4  12  24  40  70  92 134 186 228 288 344 416
#     4  12  23  44  66  98 138 184 233 288 354 410
#     4  11  25  48  72 106 144 185 236 302 353 425
#     4  11  27  45  73 104 139 187 236 291 357 431
#     4  11  25  43  66 100 137 182 238 284 352 422
#     4  11  24  45  66 102 141 187 227 297 352 421
#     4  12  26  42  74 102 145 181 241 294 355 427
#
# _framework density 21.784734
#
# number of rings (size 3 to 8) (size 9 to 14) (size 15 to 20)
#    0.000    0.800    2.667    3.200    7.467    1.600 
#    0.000    0.000    0.000    0.000    0.000    0.000 
#    0.000    0.000    0.000    0.000    0.000    0.000 
#
# Total GULP energy -744396.818258 kJ/mol
# GULP energy per Si atom -12406.613638 kJ/mol
# Density = 2.173515 g / cm^3
# Si number density = 21.784734 Si / 1000 Ang^3
#
#
#
# Elastic Constant Matrix: (Units=GPa)
#
#
# Indices 1 2 3 4 5 6 
#
# 1 105.4017 44.2066 16.6600 0.0000 0.0000 0.0000
# 2 44.2066 88.7965 21.1746 0.0000 0.0000 0.0000
# 3 16.6600 21.1746 74.3284 0.0000 0.0000 0.0000
# 4 0.0000 0.0000 0.0000 23.2204 0.0000 0.0000
# 5 0.0000 0.0000 0.0000 0.0000 30.9330 0.0000
# 6 0.0000 0.0000 0.0000 0.0000 0.0000 38.3011
#
#
#
# Elastic Compliance Matrix: (Units=1/GPa)
#
#
# Indices 1 2 3 4 5 6 
#
# 1 0.012069 -0.005755 -0.001066 0.000000 0.000000 0.000000
# 2 -0.005755 0.014826 -0.002934 0.000000 0.000000 0.000000
# 3 -0.001066 -0.002934 0.014529 0.000000 0.000000 0.000000
# 4 0.000000 0.000000 0.000000 0.043066 0.000000 0.000000
# 5 0.000000 0.000000 0.000000 0.000000 0.032328 0.000000
# 6 0.000000 0.000000 0.000000 0.000000 0.000000 0.026109
#
#
# Mechanical properties :
#
#
# Convention : Reuss Voigt Hill
#
# Bulk Modulus (GPa) = 45.62959 48.06768 46.84864
# Shear Modulus (GPa) = 29.45674 30.92325 30.19000
#
# Velocity S-wave (km/s) = 3.68118 3.77170 3.72672
# Velocity P-wave (km/s) = 6.24974 6.40940 6.33007
#
# Compressibility (1/GPa) = 0.02191560
#
# Stress axis : x y z
#
# Youngs Moduli (GPa) = 82.85350 67.44841 68.83013
#
# Poissons Ratio (x) = 0.38813 0.07337
# Poissons Ratio (y) = 0.47678 0.20194
# Poissons Ratio (z) = 0.08832 0.19788
#
# Static dielectric constant tensor:
#      x y z
#    x 4.079780 0.000000 0.000000 
#    y 0.000000 3.855830 0.000000 
#    z 0.000000 0.000000 3.915460 
# 
# 
# High freq. dielectric constant tensor:
#      x y z
#    x 1.872200 0.000000 0.000000 
#    y 0.000000 1.856220 0.000000 
#    z 0.000000 0.000000 1.860450 
# 
# From -- ./inp_files/25213.got.cif
#   From: 2010.03.12/outbox.cif.g09.slc.cpg/sg60_13_cif.got.tgz:25213.got - 2010.04.10 18:46:24.
