data_PCOD8248242
_publ_section_title
;
Structure prediction by ZEFSAII (Michael W. Deem and Ramdas Pophale) SiO2 
 PCOD8248242
Probable space group: P B C N
;
_chemical_formula_sum "Si O2"
_cell_formula_units_Z 44
_cell_length_a 5.010752
_cell_length_b 16.210870
_cell_length_c 23.896949
_cell_angle_alpha 90.000000
_cell_angle_beta 90.000000
_cell_angle_gamma 90.000000
_cell_volume 1941.116889
_symmetry_space_group_name_H-M "P B C N"
_symmetry_group_IT_number 60
_symmetry_cell_setting 'orthorhombic'
loop_
_space_group_symop_operation_xyz
x,y,z
1/2-x,1/2-y,1/2+z
1/2+x,1/2-y,-z
-x,y,1/2-z
-x,-y,-z
1/2+x,1/2+y,1/2-z
1/2-x,1/2+y,z
x,-y,1/2+z
loop_
_atom_site_type_symbol
_atom_site_label
_atom_site_fract_x
_atom_site_fract_y
_atom_site_fract_z
Si Si1 0.249435 0.303256 0.486817
Si Si2 0.334867 0.599577 0.089813
Si Si3 0.845640 0.471004 0.645276
Si Si4 0.790157 0.843440 0.142355
Si Si5 0.293838 0.253901 0.670240
Si Si6 0.500000 0.865975 0.750000
O O1 0.457596 0.230070 0.497838
O O2 0.313441 0.385376 0.523319
O O3 0.252472 0.333364 0.423474
O O4 0.630615 0.571445 0.105063
O O5 0.268787 0.688757 0.115804
O O6 0.126449 0.531363 0.112220
O O7 0.766728 0.563447 0.660373
O O8 0.858398 0.421773 0.703357
O O9 0.588465 0.783723 0.175880
O O10 0.085834 0.820874 0.162452
O O11 0.232226 0.308881 0.724503
#
# Coordination Sequence:
#
# PCOD8248242 Si02
#       6
#     8   8   8   8   8   4
#     4  12  22  39  70 101 137 178 222 273 332 399
#     4  11  22  42  66  97 136 183 215 265 337 413
#     4  11  26  42  66  97 142 168 224 284 342 393
#     4  12  24  43  67 105 133 171 223 288 326 400
#     4  11  23  42  69  93 129 173 233 267 327 403
#     4  10  26  46  68  96 128 188 222 282 346 402
#
# _framework density 22.667363999999999
#
# number of rings (size 3 to 8) (size 9 to 14) (size 15 to 20)
#    0.000    0.727    3.636    4.364    0.000    9.455 
#    0.000    0.000    0.000    0.000    0.000    0.000 
#    0.000    0.000    0.000    0.000    0.000    0.000 
#
# Total GULP energy -545919.708511 kJ/mol
# GULP energy per Si atom -12407.266103 kJ/mol
# Density = 2.261577 g / cm^3
# Si number density = 22.667364 Si / 1000 Ang^3
#
#
#
# Elastic Constant Matrix: (Units=GPa)
#
#
# Indices 1 2 3 4 5 6 
#
# 1 84.5062 0.2342 15.3467 0.0000 0.0000 0.0000
# 2 0.2342 87.4771 29.8618 0.0000 0.0000 0.0000
# 3 15.3467 29.8618 103.2263 0.0000 0.0000 0.0000
# 4 0.0000 0.0000 0.0000 26.3483 0.0000 0.0000
# 5 0.0000 0.0000 0.0000 0.0000 31.9508 0.0000
# 6 0.0000 0.0000 0.0000 0.0000 0.0000 34.8459
#
#
#
# Elastic Compliance Matrix: (Units=1/GPa)
#
#
# Indices 1 2 3 4 5 6 
#
# 1 0.012195 0.000651 -0.002001 0.000000 0.000000 0.000000
# 2 0.000651 0.012719 -0.003776 0.000000 0.000000 0.000000
# 3 -0.002001 -0.003776 0.011077 0.000000 0.000000 0.000000
# 4 0.000000 0.000000 0.000000 0.037953 0.000000 0.000000
# 5 0.000000 0.000000 0.000000 0.000000 0.031298 0.000000
# 6 0.000000 0.000000 0.000000 0.000000 0.000000 0.028698
#
#
# Mechanical properties :
#
#
# Convention : Reuss Voigt Hill
#
# Bulk Modulus (GPa) = 38.85358 40.67723 39.76541
# Shear Modulus (GPa) = 32.72828 33.94681 33.33755
#
# Velocity S-wave (km/s) = 3.80393 3.87409 3.83917
# Velocity P-wave (km/s) = 6.03913 6.16406 6.10192
#
# Compressibility (1/GPa) = 0.02573765
#
# Stress axis : x y z
#
# Youngs Moduli (GPa) = 82.00032 78.62347 90.27441
#
# Poissons Ratio (x) = -0.05114 0.18066
# Poissons Ratio (y) = -0.05334 0.34088
# Poissons Ratio (z) = 0.16410 0.29689
#
# Static dielectric constant tensor:
#      x y z
#    x 4.194570 0.000000 0.000000 
#    y 0.000000 3.989980 0.000000 
#    z 0.000000 0.000000 4.189720 
# 
# 
# High freq. dielectric constant tensor:
#      x y z
#    x 1.908320 0.000000 0.000000 
#    y 0.000000 1.885530 0.000000 
#    z 0.000000 0.000000 1.898770 
# 
# From -- ./inp_files/24806.got.cif
#   From: 2010.03.12/outbox.cif.g09.slc.cpg/sg60_13_cif.got.tgz:24806.got - 2010.04.10 18:46:24.
