data_PCOD8248114
_publ_section_title
;
Structure prediction by ZEFSAII (Michael W. Deem and Ramdas Pophale) SiO2 
 PCOD8248114
Probable space group: P B C N
;
_chemical_formula_sum "Si O2"
_cell_formula_units_Z 36
_cell_length_a 7.681846
_cell_length_b 11.076778
_cell_length_c 20.261900
_cell_angle_alpha 90.000000
_cell_angle_beta 90.000000
_cell_angle_gamma 90.000000
_cell_volume 1724.087153
_symmetry_space_group_name_H-M "P B C N"
_symmetry_group_IT_number 60
_symmetry_cell_setting 'orthorhombic'
loop_
_space_group_symop_operation_xyz
x,y,z
1/2-x,1/2-y,1/2+z
1/2+x,1/2-y,-z
-x,y,1/2-z
-x,-y,-z
1/2+x,1/2+y,1/2-z
1/2-x,1/2+y,z
x,-y,1/2+z
loop_
_atom_site_type_symbol
_atom_site_label
_atom_site_fract_x
_atom_site_fract_y
_atom_site_fract_z
Si Si1 0.704552 0.510086 0.655579
Si Si2 0.533048 0.146035 0.360093
Si Si3 0.500000 0.334422 0.250000
Si Si4 0.930866 0.159517 0.547046
Si Si5 0.881322 0.938049 0.911970
O O1 0.656326 0.582363 0.722359
O O2 0.722876 0.604696 0.594121
O O3 0.546227 0.417172 0.637121
O O4 0.882203 0.439315 0.668619
O O5 0.576167 0.253186 0.308988
O O6 0.474080 0.204710 0.429849
O O7 0.705189 0.067150 0.370020
O O8 0.876297 0.162280 0.470317
O O9 0.101100 0.071974 0.555419
#
# Coordination Sequence:
#
# PCOD8248114 Si02
#       5
#     8   8   4   8   8
#     4   9  21  42  57  85 123 155 200 259 289 360
#     4  11  22  38  67  84 118 173 194 242 320 355
#     4  10  24  42  56  92 126 148 228 250 276 380
#     4   8  20  40  56  95 126 141 202 258 288 375
#     4   9  20  40  59  89 127 150 201 253 296 365
#
# _framework density 20.880617000000001
#
# number of rings (size 3 to 8) (size 9 to 14) (size 15 to 20)
#    1.333    1.333    0.000    0.000    6.222    0.889 
#    8.000    2.222    0.000    0.000    0.000    0.000 
#    0.000    0.000    0.000    0.000    0.000    0.000 
#
# Total GULP energy -446091.069047 kJ/mol
# GULP energy per Si atom -12391.418585 kJ/mol
# Density = 2.083309 g / cm^3
# Si number density = 20.880617 Si / 1000 Ang^3
#
#
#
# Elastic Constant Matrix: (Units=GPa)
#
#
# Indices 1 2 3 4 5 6 
#
# 1 135.2172 42.7867 51.9731 0.0000 0.0000 0.0000
# 2 42.7867 54.9827 25.2136 0.0000 0.0000 0.0000
# 3 51.9731 25.2136 91.5705 0.0000 0.0000 0.0000
# 4 0.0000 0.0000 0.0000 22.6435 0.0000 0.0000
# 5 0.0000 0.0000 0.0000 0.0000 18.6580 0.0000
# 6 0.0000 0.0000 0.0000 0.0000 0.0000 17.7522
#
#
#
# Elastic Compliance Matrix: (Units=1/GPa)
#
#
# Indices 1 2 3 4 5 6 
#
# 1 0.011256 -0.006672 -0.004552 0.000000 0.000000 0.000000
# 2 -0.006672 0.024771 -0.003034 0.000000 0.000000 0.000000
# 3 -0.004552 -0.003034 0.014339 0.000000 0.000000 0.000000
# 4 0.000000 0.000000 0.000000 0.044163 0.000000 0.000000
# 5 0.000000 0.000000 0.000000 0.000000 0.053596 0.000000
# 6 0.000000 0.000000 0.000000 0.000000 0.000000 0.056331
#
#
# Mechanical properties :
#
#
# Convention : Reuss Voigt Hill
#
# Bulk Modulus (GPa) = 45.76335 57.96858 51.86597
# Shear Modulus (GPa) = 20.81119 22.59720 21.70420
#
# Velocity S-wave (km/s) = 3.16044 3.29326 3.22754
# Velocity P-wave (km/s) = 5.93987 6.50254 6.22756
#
# Compressibility (1/GPa) = 0.02185155
#
# Stress axis : x y z
#
# Youngs Moduli (GPa) = 88.83915 40.36993 69.73885
#
# Poissons Ratio (x) = 0.26936 0.31742
# Poissons Ratio (y) = 0.59276 0.21156
# Poissons Ratio (z) = 0.40436 0.12247
#
# Static dielectric constant tensor:
#      x y z
#    x 3.297810 0.000000 0.000000 
#    y 0.000000 3.505230 0.000000 
#    z 0.000000 0.000000 3.816990 
# 
# 
# High freq. dielectric constant tensor:
#      x y z
#    x 1.781380 0.000000 0.000000 
#    y 0.000000 1.795350 0.000000 
#    z 0.000000 0.000000 1.822470 
# 
# From -- ./inp_files/23467.got.cif
#   From: 2010.03.12/outbox.cif.g09.slc.cpg/sg60_12_cif.got.tgz:23467.got - 2010.04.10 18:46:24.
