data_PCOD8248534
_publ_section_title
;
Structure prediction by ZEFSAII (Michael W. Deem and Ramdas Pophale) SiO2 
 PCOD8248534
Probable space group: P B C N
;
_chemical_formula_sum "Si O2"
_cell_formula_units_Z 56
_cell_length_a 12.596858
_cell_length_b 13.433090
_cell_length_c 14.555764
_cell_angle_alpha 90.000000
_cell_angle_beta 90.000000
_cell_angle_gamma 90.000000
_cell_volume 2463.049635
_symmetry_space_group_name_H-M "P B C N"
_symmetry_group_IT_number 60
_symmetry_cell_setting 'orthorhombic'
loop_
_space_group_symop_operation_xyz
x,y,z
1/2-x,1/2-y,1/2+z
1/2+x,1/2-y,-z
-x,y,1/2-z
-x,-y,-z
1/2+x,1/2+y,1/2-z
1/2-x,1/2+y,z
x,-y,1/2+z
loop_
_atom_site_type_symbol
_atom_site_label
_atom_site_fract_x
_atom_site_fract_y
_atom_site_fract_z
Si Si1 0.698712 0.022901 0.974893
Si Si2 0.573240 0.521511 0.913277
Si Si3 0.019350 0.779191 0.350902
Si Si4 0.447493 0.135301 0.655207
Si Si5 0.116282 0.167052 0.213568
Si Si6 0.119705 0.310807 0.491195
Si Si7 0.731419 0.176901 0.116155
O O1 0.814541 0.061397 0.947025
O O2 0.614214 0.046482 0.895092
O O3 0.674232 0.079544 0.071703
O O4 0.695076 0.904797 0.988784
O O5 0.510495 0.603740 0.853978
O O6 0.602309 0.424719 0.854248
O O7 0.500000 0.500000 0.000000
O O8 0.144176 0.762678 0.368252
O O9 0.000000 0.736667 0.250000
O O10 0.947316 0.716409 0.419553
O O11 0.500000 0.096164 0.750000
O O12 0.360988 0.226576 0.664170
O O13 0.544246 0.168388 0.593170
O O14 0.205257 0.145781 0.290971
O O15 0.000000 0.191418 0.250000
O O16 0.190100 0.217990 0.461263
#
# Coordination Sequence:
#
# PCOD8248534 Si02
#       7
#     8   8   8   8   8   8   8
#     4  12  28  42  78 109 145 204 254 311 389 456
#     4  12  26  47  76 110 154 199 250 317 383 462
#     4  12  29  47  75 113 157 192 255 321 383 452
#     4  11  24  47  75 105 148 197 257 311 377 460
#     4  11  24  46  75 107 146 197 260 308 380 466
#     4  12  25  52  72 107 152 194 251 319 378 463
#     4  12  26  49  78 109 152 205 253 314 392 457
#
# _framework density 22.736042000000001
#
# number of rings (size 3 to 8) (size 9 to 14) (size 15 to 20)
#    0.000    0.286    5.714    3.429    6.000    2.857 
#    0.000    0.000    0.000    0.000    0.000    0.000 
#    0.000    0.000    0.000    0.000    0.000    0.000 
#
# Total GULP energy -694295.256791 kJ/mol
# GULP energy per Si atom -12398.129586 kJ/mol
# Density = 2.268429 g / cm^3
# Si number density = 22.736042 Si / 1000 Ang^3
#
#
#
# Elastic Constant Matrix: (Units=GPa)
#
#
# Indices 1 2 3 4 5 6 
#
# 1 104.4481 19.9494 51.3127 0.0000 0.0000 0.0000
# 2 19.9494 90.7270 32.3465 0.0000 0.0000 0.0000
# 3 51.3127 32.3465 137.4287 0.0000 0.0000 0.0000
# 4 0.0000 0.0000 0.0000 -104.1178 0.0000 0.0000
# 5 0.0000 0.0000 0.0000 0.0000 48.0958 0.0000
# 6 0.0000 0.0000 0.0000 0.0000 0.0000 32.2348
#
#
#
# Elastic Compliance Matrix: (Units=1/GPa)
#
#
# Indices 1 2 3 4 5 6 
#
# 1 0.011828 -0.001120 -0.004153 0.000000 0.000000 0.000000
# 2 -0.001120 0.012138 -0.002439 0.000000 0.000000 0.000000
# 3 -0.004153 -0.002439 0.009401 0.000000 0.000000 0.000000
# 4 0.000000 0.000000 0.000000 -0.009605 0.000000 0.000000
# 5 0.000000 0.000000 0.000000 0.000000 0.020792 0.000000
# 6 0.000000 0.000000 0.000000 0.000000 0.000000 0.031022
#
#
# Mechanical properties :
#
#
# Convention : Reuss Voigt Hill
#
# Bulk Modulus (GPa) = 55.72927 59.98011 57.85469
# Shear Modulus (GPa) = 51.55637 10.50889 31.03263
#
# Velocity S-wave (km/s) = 4.76710 2.15225 3.69848
# Velocity P-wave (km/s) = 7.40709 5.71092 6.61361
#
# Compressibility (1/GPa) = 0.01794389
#
# Stress axis : x y z
#
# Youngs Moduli (GPa) = 84.54351 82.38703 106.37170
#
# Poissons Ratio (x) = 0.09230 0.44173
# Poissons Ratio (y) = 0.09471 0.25940
# Poissons Ratio (z) = 0.35108 0.20091
#
# Static dielectric constant tensor:
#      x y z
#    x 4.290790 0.000000 0.000000 
#    y 0.000000 4.345050 0.000000 
#    z 0.000000 0.000000 4.252800 
# 
# 
# High freq. dielectric constant tensor:
#      x y z
#    x 1.902870 0.000000 0.000000 
#    y 0.000000 1.901760 0.000000 
#    z 0.000000 0.000000 1.907990 
# 
# From -- ./inp_files/16186.got.cif
#   From: 2010.03.12/outbox.cif.g09.slc.cpg/sg60_9_cif.got.tgz:16186.got - 2010.04.10 18:46:24.
