data_PCOD8248754
_publ_section_title
;
Structure prediction by ZEFSAII (Michael W. Deem and Ramdas Pophale) SiO2 
 PCOD8248754
Probable space group: P B C A
;
_chemical_formula_sum "Si O2"
_cell_formula_units_Z 64
_cell_length_a 18.647263
_cell_length_b 18.627962
_cell_length_c 9.318644
_cell_angle_alpha 90.000000
_cell_angle_beta 90.000000
_cell_angle_gamma 90.000000
_cell_volume 3236.928900
_symmetry_space_group_name_H-M "P B C A"
_symmetry_group_IT_number 61
_symmetry_cell_setting 'orthorhombic'
loop_
_space_group_symop_operation_xyz
x,y,z
1/2-x,-y,1/2+z
1/2+x,1/2-y,-z
-x,1/2+y,1/2-z
-x,-y,-z
1/2+x,y,1/2-z
1/2-x,1/2+y,z
x,1/2-y,1/2+z
loop_
_atom_site_type_symbol
_atom_site_label
_atom_site_fract_x
_atom_site_fract_y
_atom_site_fract_z
Si Si1 0.479869 0.904026 0.970144
Si Si2 0.380243 0.016702 0.053898
Si Si3 0.354277 0.408891 0.057007
Si Si4 0.652234 0.460038 0.148227
Si Si5 0.372166 0.238940 0.427711
Si Si6 0.709193 0.879078 0.146773
Si Si7 0.526474 0.730655 0.329932
Si Si8 0.993915 0.613883 0.693362
O O1 0.502884 0.889757 0.134971
O O2 0.403445 0.945466 0.962657
O O3 0.543502 0.949633 0.895743
O O4 0.471862 0.832476 0.874561
O O5 0.335720 0.994299 0.194288
O O6 0.335821 0.072085 0.961168
O O7 0.302394 0.404780 0.191924
O O8 0.435342 0.414345 0.114385
O O9 0.333370 0.479086 0.968860
O O10 0.338522 0.339117 0.957845
O O11 0.706728 0.393888 0.118658
O O12 0.572045 0.430978 0.133149
O O13 0.312725 0.294975 0.367214
O O14 0.442123 0.226307 0.329520
O O15 0.401957 0.273410 0.573467
O O16 0.481845 0.803451 0.349749
#
# Coordination Sequence:
#
# PCOD8248754 Si02
#       8
#     8   8   8   8   8   8   8   8
#     4  10  18  34  62  89 112 151 200 247 294 347
#     4  10  20  37  60  84 116 158 194 238 297 356
#     4  11  22  40  64  89 115 155 205 245 289 351
#     4  11  25  38  60  88 123 158 192 243 306 350
#     4  11  21  36  65  86 111 154 198 240 291 351
#     4  12  22  43  58  88 124 154 196 246 293 358
#     4  11  17  36  61  89 113 149 202 248 289 345
#     4  10  20  38  58  89 121 153 196 256 290 341
#
# _framework density 19.771826999999998
#
# number of rings (size 3 to 8) (size 9 to 14) (size 15 to 20)
#    0.000    1.250    6.250    1.875    0.000    0.000 
#    4.500    3.750    0.000    0.000    0.000    0.000 
#    0.000    0.000    0.000    0.000    0.000    0.000 
#
# Total GULP energy -793415.974293 kJ/mol
# GULP energy per Si atom -12397.124598 kJ/mol
# Density = 1.972683 g / cm^3
# Si number density = 19.771827 Si / 1000 Ang^3
#
#
#
# Elastic Constant Matrix: (Units=GPa)
#
#
# Indices 1 2 3 4 5 6 
#
# 1 69.0983 33.9335 21.2603 0.0000 0.0000 0.0000
# 2 33.9335 107.1015 32.6754 0.0000 0.0000 0.0000
# 3 21.2603 32.6754 57.1813 0.0000 0.0000 0.0000
# 4 0.0000 0.0000 0.0000 37.2063 0.0000 0.0000
# 5 0.0000 0.0000 0.0000 0.0000 17.3739 0.0000
# 6 0.0000 0.0000 0.0000 0.0000 0.0000 31.6787
#
#
#
# Elastic Compliance Matrix: (Units=1/GPa)
#
#
# Indices 1 2 3 4 5 6 
#
# 1 0.017912 -0.004413 -0.004138 0.000000 0.000000 0.000000
# 2 -0.004413 0.012395 -0.005443 0.000000 0.000000 0.000000
# 3 -0.004138 -0.005443 0.022137 0.000000 0.000000 0.000000
# 4 0.000000 0.000000 0.000000 0.026877 0.000000 0.000000
# 5 0.000000 0.000000 0.000000 0.000000 0.057558 0.000000
# 6 0.000000 0.000000 0.000000 0.000000 0.000000 0.031567
#
#
# Mechanical properties :
#
#
# Convention : Reuss Voigt Hill
#
# Bulk Modulus (GPa) = 40.88701 45.45773 43.17237
# Shear Modulus (GPa) = 24.43953 26.95256 25.69605
#
# Velocity S-wave (km/s) = 3.51961 3.69613 3.60895
# Velocity P-wave (km/s) = 6.10255 6.42310 6.26488
#
# Compressibility (1/GPa) = 0.02445765
#
# Stress axis : x y z
#
# Youngs Moduli (GPa) = 55.82697 80.67445 45.17334
#
# Poissons Ratio (x) = 0.35600 0.18694
# Poissons Ratio (y) = 0.24635 0.24586
# Poissons Ratio (z) = 0.23103 0.43907
#
# Static dielectric constant tensor:
#      x y z
#    x 3.360550 0.000000 0.000000 
#    y 0.000000 3.846940 0.000000 
#    z 0.000000 0.000000 3.652810 
# 
# 
# High freq. dielectric constant tensor:
#      x y z
#    x 1.735890 0.000000 0.000000 
#    y 0.000000 1.781950 0.000000 
#    z 0.000000 0.000000 1.773730 
# 
# From -- ./inp_files/4063.got.cif
#   From: 2010.03.12/outbox.cif.g09.slc.cpg/sg61_3_cif.got.tgz:4063.got - 2010.04.10 19:05:03.
