data_PCOD8248418
_publ_section_title
;
Structure prediction by ZEFSAII (Michael W. Deem and Ramdas Pophale) SiO2 
 PCOD8248418
Probable space group: P B C N
;
_chemical_formula_sum "Si O2"
_cell_formula_units_Z 56
_cell_length_a 22.997065
_cell_length_b 13.436685
_cell_length_c 8.822412
_cell_angle_alpha 90.000000
_cell_angle_beta 90.000000
_cell_angle_gamma 90.000000
_cell_volume 2726.163406
_symmetry_space_group_name_H-M "P B C N"
_symmetry_group_IT_number 60
_symmetry_cell_setting 'orthorhombic'
loop_
_space_group_symop_operation_xyz
x,y,z
1/2-x,1/2-y,1/2+z
1/2+x,1/2-y,-z
-x,y,1/2-z
-x,-y,-z
1/2+x,1/2+y,1/2-z
1/2-x,1/2+y,z
x,-y,1/2+z
loop_
_atom_site_type_symbol
_atom_site_label
_atom_site_fract_x
_atom_site_fract_y
_atom_site_fract_z
Si Si1 0.381352 0.617152 0.110572
Si Si2 0.172560 0.088519 0.623960
Si Si3 0.166927 0.613572 0.861902
Si Si4 0.789448 0.794489 0.085468
Si Si5 0.299665 0.080664 0.527085
Si Si6 0.592392 0.710579 0.082834
Si Si7 0.510172 0.606744 0.572693
O O1 0.370922 0.502589 0.159484
O O2 0.413738 0.672103 0.246380
O O3 0.319413 0.665217 0.068244
O O4 0.423133 0.632472 0.964801
O O5 0.179095 0.158433 0.769526
O O6 0.234529 0.045411 0.569333
O O7 0.145967 0.151678 0.489157
O O8 0.222129 0.677131 0.917770
O O9 0.165412 0.604842 0.680131
O O10 0.108857 0.672140 0.915170
O O11 0.166950 0.505137 0.936678
O O12 0.796386 0.675409 0.084843
O O13 0.532424 0.691459 0.994925
O O14 0.500000 0.601899 0.750000
O O15 0.500000 0.500000 0.500000
#
# Coordination Sequence:
#
# PCOD8248418 Si02
#       7
#     8   8   8   8   8   8   8
#     4  12  23  42  64  99 133 172 217 270 331 398
#     4  11  23  35  64  95 136 181 212 269 323 401
#     4  11  25  40  65  97 132 178 220 276 326 393
#     4  11  23  40  61  96 138 178 218 264 332 391
#     4  11  24  41  62  93 137 179 226 268 327 396
#     4  12  24  41  64  98 132 171 222 268 336 395
#     4  12  26  44  66  97 131 173 215 274 339 399
#
# _framework density 20.541688000000001
#
# number of rings (size 3 to 8) (size 9 to 14) (size 15 to 20)
#    0.000    0.571    5.714    3.000    4.000    0.000 
#    0.000    0.000    0.000    0.857    0.000    0.000 
#    0.000    0.000    0.000    0.000    0.000    0.000 
#
# Total GULP energy -694562.219071 kJ/mol
# GULP energy per Si atom -12402.896769 kJ/mol
# Density = 2.049493 g / cm^3
# Si number density = 20.541688 Si / 1000 Ang^3
#
#
#
# Elastic Constant Matrix: (Units=GPa)
#
#
# Indices 1 2 3 4 5 6 
#
# 1 75.5981 45.9871 34.2345 0.0000 0.0000 0.0000
# 2 45.9871 151.2124 46.2322 0.0000 0.0000 0.0000
# 3 34.2345 46.2322 105.0469 0.0000 0.0000 0.0000
# 4 0.0000 0.0000 0.0000 24.0340 0.0000 0.0000
# 5 0.0000 0.0000 0.0000 0.0000 31.2270 0.0000
# 6 0.0000 0.0000 0.0000 0.0000 0.0000 32.9655
#
#
#
# Elastic Compliance Matrix: (Units=1/GPa)
#
#
# Indices 1 2 3 4 5 6 
#
# 1 0.017502 -0.004135 -0.003884 0.000000 0.000000 0.000000
# 2 -0.004135 0.008619 -0.002445 0.000000 0.000000 0.000000
# 3 -0.003884 -0.002445 0.011862 0.000000 0.000000 0.000000
# 4 0.000000 0.000000 0.000000 0.041608 0.000000 0.000000
# 5 0.000000 0.000000 0.000000 0.000000 0.032024 0.000000
# 6 0.000000 0.000000 0.000000 0.000000 0.000000 0.030335
#
#
# Mechanical properties :
#
#
# Convention : Reuss Voigt Hill
#
# Bulk Modulus (GPa) = 58.64074 64.97390 61.80732
# Shear Modulus (GPa) = 29.66266 31.33887 30.50077
#
# Velocity S-wave (km/s) = 3.80415 3.91016 3.85752
# Velocity P-wave (km/s) = 6.92131 7.21697 7.07069
#
# Compressibility (1/GPa) = 0.01705299
#
# Stress axis : x y z
#
# Youngs Moduli (GPa) = 57.13550 116.02903 84.30584
#
# Poissons Ratio (x) = 0.47982 0.32744
# Poissons Ratio (y) = 0.23627 0.20616
# Poissons Ratio (z) = 0.22191 0.28374
#
# Static dielectric constant tensor:
#      x y z
#    x 3.731710 0.000000 0.000000 
#    y 0.000000 3.740010 0.000000 
#    z 0.000000 0.000000 3.844050 
# 
# 
# High freq. dielectric constant tensor:
#      x y z
#    x 1.784620 0.000000 0.000000 
#    y 0.000000 1.794660 0.000000 
#    z 0.000000 0.000000 1.815100 
# 
# From -- ./inp_files/7405.got.cif
#   From: 2010.03.12/outbox.cif.g09.slc.cpg/sg60_4_cif.got.tgz:7405.got - 2010.04.10 18:46:24.
