data_PCOD8248918
_publ_section_title
;
Structure prediction by ZEFSAII (Michael W. Deem and Ramdas Pophale) SiO2 
 PCOD8248918
Probable space group: P B C A
;
_chemical_formula_sum "Si O2"
_cell_formula_units_Z 48
_cell_length_a 8.673329
_cell_length_b 19.914838
_cell_length_c 11.356729
_cell_angle_alpha 90.000000
_cell_angle_beta 90.000000
_cell_angle_gamma 90.000000
_cell_volume 1961.624428
_symmetry_space_group_name_H-M "P B C A"
_symmetry_group_IT_number 61
_symmetry_cell_setting 'orthorhombic'
loop_
_space_group_symop_operation_xyz
x,y,z
1/2-x,-y,1/2+z
1/2+x,1/2-y,-z
-x,1/2+y,1/2-z
-x,-y,-z
1/2+x,y,1/2-z
1/2-x,1/2+y,z
x,1/2-y,1/2+z
loop_
_atom_site_type_symbol
_atom_site_label
_atom_site_fract_x
_atom_site_fract_y
_atom_site_fract_z
Si Si1 0.579108 0.844420 0.094873
Si Si2 0.070665 0.521857 0.628075
Si Si3 0.920892 0.844420 0.094873
Si Si4 0.923710 0.305229 0.638015
Si Si5 0.923710 0.805229 0.638015
Si Si6 0.570665 0.478143 0.371925
O O1 0.575859 0.774555 0.164395
O O2 0.455629 0.897934 0.142931
O O3 0.750000 0.877000 0.099683
O O4 0.540026 0.826312 0.961961
O O5 0.044371 0.602066 0.642931
O O6 0.000000 0.488997 0.750000
O O7 0.250000 0.504636 0.625287
O O8 0.000000 0.500000 0.500000
O O9 0.924140 0.774555 0.164395
O O10 0.959974 0.826312 0.961961
O O11 0.750000 0.331115 0.613433
O O12 1.000000 0.341235 0.750000
O O13 0.500000 0.500000 0.500000
#
# Coordination Sequence:
#
# PCOD8248918 Si02
#       6
#     8   8   8   8   8   8
#     4  10  21  38  60  88 122 161 206 255 311 374
#     4  12  26  46  70  97 129 168 216 268 324 384
#     4  10  21  38  60  88 122 161 206 255 311 374
#     4  10  20  34  56  87 123 162 204 253 309 372
#     4  10  20  34  56  87 123 162 204 253 309 372
#     4  12  26  46  70  97 129 168 216 268 324 384
#
# _framework density 24.469515000000001
#
# number of rings (size 3 to 8) (size 9 to 14) (size 15 to 20)
#    0.000    1.333    0.000    6.000    0.000    8.000 
#    0.000    6.667    0.000    0.000    0.000    0.000 
#    0.000    0.000    0.000    0.000    0.000    0.000 
#
# Total GULP energy -594632.358388 kJ/mol
# GULP energy per Si atom -12388.174133 kJ/mol
# Density = 2.441382 g / cm^3
# Si number density = 24.469515 Si / 1000 Ang^3
#
#
#
# Elastic Constant Matrix: (Units=GPa)
#
#
# Indices 1 2 3 4 5 6 
#
# 1 165.9357 8.9487 71.8828 0.0000 0.0000 0.0000
# 2 8.9487 42.6312 0.3521 0.0000 0.0000 0.0000
# 3 71.8828 0.3521 150.0600 0.0000 0.0000 0.0000
# 4 0.0000 0.0000 0.0000 -30.7410 0.0000 0.0000
# 5 0.0000 0.0000 0.0000 0.0000 35.9286 0.0000
# 6 0.0000 0.0000 0.0000 0.0000 0.0000 35.1232
#
#
#
# Elastic Compliance Matrix: (Units=1/GPa)
#
#
# Indices 1 2 3 4 5 6 
#
# 1 0.007710 -0.001588 -0.003690 0.000000 0.000000 0.000000
# 2 -0.001588 0.023784 0.000705 0.000000 0.000000 0.000000
# 3 -0.003690 0.000705 0.008430 0.000000 0.000000 0.000000
# 4 0.000000 0.000000 0.000000 -0.032530 0.000000 0.000000
# 5 0.000000 0.000000 0.000000 0.000000 0.027833 0.000000
# 6 0.000000 0.000000 0.000000 0.000000 0.000000 0.028471
#
#
# Mechanical properties :
#
#
# Convention : Reuss Voigt Hill
#
# Bulk Modulus (GPa) = 32.48971 57.88825 45.18898
# Shear Modulus (GPa) = 60.16510 26.55839 43.36175
#
# Velocity S-wave (km/s) = 4.96399 3.29806 4.21417
# Velocity P-wave (km/s) = 6.79421 6.18155 6.49511
#
# Compressibility (1/GPa) = 0.03077897
#
# Stress axis : x y z
#
# Youngs Moduli (GPa) = 129.69361 42.04419 118.62589
#
# Poissons Ratio (x) = 0.06677 0.43771
# Poissons Ratio (y) = 0.20596 -0.08362
# Poissons Ratio (z) = 0.47854 -0.02964
#
# Static dielectric constant tensor:
#      x y z
#    x 4.439070 0.000000 0.000000 
#    y 0.000000 4.352770 0.000000 
#    z 0.000000 0.000000 4.793100 
# 
# 
# High freq. dielectric constant tensor:
#      x y z
#    x 1.975010 0.000000 0.000000 
#    y 0.000000 1.947250 0.000000 
#    z 0.000000 0.000000 1.999600 
# 
# From -- ./inp_files/4862.got.cif
#   From: 2010.03.12/outbox.cif.g09.slc.cpg/sg61_3_cif.got.tgz:4862.got - 2010.04.10 19:05:03.
