data_PCOD8248687
_publ_section_title
;
Structure prediction by ZEFSAII (Michael W. Deem and Ramdas Pophale) SiO2 
 PCOD8248687
Probable space group: P B C N
;
_chemical_formula_sum "Si O2"
_cell_formula_units_Z 20
_cell_length_a 12.922029
_cell_length_b 6.706912
_cell_length_c 9.011232
_cell_angle_alpha 90.000000
_cell_angle_beta 90.000000
_cell_angle_gamma 90.000000
_cell_volume 780.975645
_symmetry_space_group_name_H-M "P B C N"
_symmetry_group_IT_number 60
_symmetry_cell_setting 'orthorhombic'
loop_
_space_group_symop_operation_xyz
x,y,z
1/2-x,1/2-y,1/2+z
1/2+x,1/2-y,-z
-x,y,1/2-z
-x,-y,-z
1/2+x,1/2+y,1/2-z
1/2-x,1/2+y,z
x,-y,1/2+z
loop_
_atom_site_type_symbol
_atom_site_label
_atom_site_fract_x
_atom_site_fract_y
_atom_site_fract_z
Si Si1 0.160867 0.731324 0.781305
Si Si2 0.000000 0.936780 0.250000
Si Si3 0.637971 0.861043 0.891876
O O1 0.271318 0.790259 0.716826
O O2 0.104251 0.580896 0.665431
O O3 0.093387 0.928161 0.808848
O O4 0.177216 0.623322 0.939691
O O5 0.958323 0.792208 0.381172
#
# Coordination Sequence:
#
# PCOD8248687 Si02
#       3
#     8   4   8
#     4  12  27  48  77 112 152 198 251 310 373 445
#     4  12  28  48  80 110 154 200 252 300 382 444
#     4  12  27  48  77 112 152 198 251 310 373 445
#
# _framework density 25.608995
#
# number of rings (size 3 to 8) (size 9 to 14) (size 15 to 20)
#    0.000    0.000    4.000    4.800    0.000   12.800 
#    0.000    0.000    0.000    0.000    0.000    0.000 
#    0.000    0.000    0.000    0.000    0.000    0.000 
#
# Total GULP energy -248087.348796 kJ/mol
# GULP energy per Si atom -12404.367440 kJ/mol
# Density = 2.555071 g / cm^3
# Si number density = 25.608995 Si / 1000 Ang^3
#
#
#
# Elastic Constant Matrix: (Units=GPa)
#
#
# Indices 1 2 3 4 5 6 
#
# 1 76.9222 31.6056 0.5331 0.0000 0.0000 0.0000
# 2 31.6056 120.6055 -2.5394 0.0000 0.0000 0.0000
# 3 0.5331 -2.5394 119.6165 0.0000 0.0000 0.0000
# 4 0.0000 0.0000 0.0000 28.2943 0.0000 0.0000
# 5 0.0000 0.0000 0.0000 0.0000 21.3340 0.0000
# 6 0.0000 0.0000 0.0000 0.0000 0.0000 48.4787
#
#
#
# Elastic Compliance Matrix: (Units=1/GPa)
#
#
# Indices 1 2 3 4 5 6 
#
# 1 0.014571 -0.003822 -0.000146 0.000000 0.000000 0.000000
# 2 -0.003822 0.009297 0.000214 0.000000 0.000000 0.000000
# 3 -0.000146 0.000214 0.008365 0.000000 0.000000 0.000000
# 4 0.000000 0.000000 0.000000 0.035343 0.000000 0.000000
# 5 0.000000 0.000000 0.000000 0.000000 0.046873 0.000000
# 6 0.000000 0.000000 0.000000 0.000000 0.000000 0.020628
#
#
# Mechanical properties :
#
#
# Convention : Reuss Voigt Hill
#
# Bulk Modulus (GPa) = 40.44069 41.81587 41.12828
# Shear Modulus (GPa) = 33.15053 38.79105 35.97079
#
# Velocity S-wave (km/s) = 3.60180 3.89619 3.75189
# Velocity P-wave (km/s) = 5.75527 6.05016 5.90456
#
# Compressibility (1/GPa) = 0.02472757
#
# Stress axis : x y z
#
# Youngs Moduli (GPa) = 68.62770 107.55583 119.54210
#
# Poissons Ratio (x) = 0.41104 0.01746
# Poissons Ratio (y) = 0.26227 -0.02563
# Poissons Ratio (z) = 0.01002 -0.02306
#
# Static dielectric constant tensor:
#      x y z
#    x 4.536270 0.000000 0.000000 
#    y 0.000000 5.285630 0.000000 
#    z 0.000000 0.000000 4.290080 
# 
# 
# High freq. dielectric constant tensor:
#      x y z
#    x 2.022280 0.000000 0.000000 
#    y 0.000000 2.046290 0.000000 
#    z 0.000000 0.000000 2.015590 
# 
# From -- ./inp_files/3259.got.cif
#   From: 2010.03.12/outbox.cif.g09.slc.cpg/sg60_2_cif.got.tgz:3259.got - 2010.04.10 18:46:24.
