data_PCOD8248099
_publ_section_title
;
Structure prediction by ZEFSAII (Michael W. Deem and Ramdas Pophale) SiO2 
 PCOD8248099
Probable space group: P B C N
;
_chemical_formula_sum "Si O2"
_cell_formula_units_Z 56
_cell_length_a 13.542656
_cell_length_b 30.371942
_cell_length_c 5.067341
_cell_angle_alpha 90.000000
_cell_angle_beta 90.000000
_cell_angle_gamma 90.000000
_cell_volume 2084.282295
_symmetry_space_group_name_H-M "P B C N"
_symmetry_group_IT_number 60
_symmetry_cell_setting 'orthorhombic'
loop_
_space_group_symop_operation_xyz
x,y,z
1/2-x,1/2-y,1/2+z
1/2+x,1/2-y,-z
-x,y,1/2-z
-x,-y,-z
1/2+x,1/2+y,1/2-z
1/2-x,1/2+y,z
x,-y,1/2+z
loop_
_atom_site_type_symbol
_atom_site_label
_atom_site_fract_x
_atom_site_fract_y
_atom_site_fract_z
Si Si1 0.193710 0.475787 0.995718
Si Si2 0.500000 0.531745 0.250000
Si Si3 0.500000 0.956982 0.750000
Si Si4 0.319168 0.403038 0.810922
Si Si5 0.388393 0.825104 0.096337
Si Si6 0.127158 0.379749 0.586386
Si Si7 0.911862 0.773068 0.922925
Si Si8 0.333434 0.686356 0.551479
O O1 0.240124 0.500646 0.745974
O O2 0.235109 0.426010 0.998229
O O3 0.072928 0.481468 0.966112
O O4 0.500000 0.500000 0.500000
O O5 0.596271 0.562966 0.272953
O O6 0.578780 0.928429 0.922767
O O7 0.248392 0.384429 0.570694
O O8 0.369314 0.362718 0.967657
O O9 0.424066 0.849194 0.364409
O O10 0.439097 0.778162 0.041390
O O11 0.275497 0.814825 0.161657
O O12 0.406146 0.857942 0.858606
O O13 0.823525 0.782657 0.713792
O O14 0.000000 0.796160 0.750000
O O15 0.902198 0.794594 0.213328
#
# Coordination Sequence:
#
# PCOD8248099 Si02
#       8
#     8   4   4   8   8   8   8   8
#     4  11  24  43  70 102 141 179 226 278 350 422
#     4  12  28  48  76 104 135 180 231 296 366 420
#     4  10  24  40  66 104 145 184 225 280 342 420
#     4  10  25  47  72 103 137 182 234 295 346 424
#     4  11  23  44  69  96 137 188 233 284 336 410
#     4  10  24  40  69 101 139 188 234 278 344 404
#     4  12  26  42  67 104 138 179 231 291 343 409
#     4  11  24  45  69  95 137 184 229 283 354 403
#
# _framework density 26.867763
#
# number of rings (size 3 to 8) (size 9 to 14) (size 15 to 20)
#    0.000    1.143    0.000    5.143    3.000   12.571 
#    2.571    0.000    0.000    0.000    0.000    0.000 
#    0.000    0.000    0.000    0.000    0.000    0.000 
#
# Total GULP energy -694041.204674 kJ/mol
# GULP energy per Si atom -12393.592941 kJ/mol
# Density = 2.680661 g / cm^3
# Si number density = 26.867763 Si / 1000 Ang^3
#
#
#
# Elastic Constant Matrix: (Units=GPa)
#
#
# Indices 1 2 3 4 5 6 
#
# 1 78.9202 15.0880 8.2758 0.0000 0.0000 0.0000
# 2 15.0880 109.7593 58.8128 0.0000 0.0000 0.0000
# 3 8.2758 58.8128 154.9000 0.0000 0.0000 0.0000
# 4 0.0000 0.0000 0.0000 28.6156 0.0000 0.0000
# 5 0.0000 0.0000 0.0000 0.0000 29.9713 0.0000
# 6 0.0000 0.0000 0.0000 0.0000 0.0000 43.0671
#
#
#
# Elastic Compliance Matrix: (Units=1/GPa)
#
#
# Indices 1 2 3 4 5 6 
#
# 1 0.013013 -0.001778 -0.000020 0.000000 0.000000 0.000000
# 2 -0.001778 0.011681 -0.004340 0.000000 0.000000 0.000000
# 3 -0.000020 -0.004340 0.008105 0.000000 0.000000 0.000000
# 4 0.000000 0.000000 0.000000 0.034946 0.000000 0.000000
# 5 0.000000 0.000000 0.000000 0.000000 0.033365 0.000000
# 6 0.000000 0.000000 0.000000 0.000000 0.000000 0.023220
#
#
# Mechanical properties :
#
#
# Convention : Reuss Voigt Hill
#
# Bulk Modulus (GPa) = 48.72783 56.43697 52.58240
# Shear Modulus (GPa) = 34.85623 37.75767 36.30695
#
# Velocity S-wave (km/s) = 3.60575 3.75282 3.68002
# Velocity P-wave (km/s) = 5.95909 6.31104 6.13759
#
# Compressibility (1/GPa) = 0.02052215
#
# Stress axis : x y z
#
# Youngs Moduli (GPa) = 76.84585 85.61072 123.38559
#
# Poissons Ratio (x) = 0.15222 0.00249
# Poissons Ratio (y) = 0.13663 0.53549
# Poissons Ratio (z) = 0.00155 0.37155
#
# Static dielectric constant tensor:
#      x y z
#    x 5.208320 0.000000 0.000000 
#    y 0.000000 5.080970 0.000000 
#    z 0.000000 0.000000 4.759000 
# 
# 
# High freq. dielectric constant tensor:
#      x y z
#    x 2.092520 0.000000 0.000000 
#    y 0.000000 2.095190 0.000000 
#    z 0.000000 0.000000 2.073530 
# 
# From -- ./inp_files/1506.got.cif
#   From: 2010.03.12/outbox.cif.g09.slc.cpg/sg60_1_cif.got.tgz:1506.got - 2010.04.10 18:46:24.
