data_PCOD8248143
_publ_section_title
;
Structure prediction by ZEFSAII (Michael W. Deem and Ramdas Pophale) SiO2 
 PCOD8248143
Probable space group: P B C N
;
_chemical_formula_sum "Si O2"
_cell_formula_units_Z 64
_cell_length_a 8.507545
_cell_length_b 10.942676
_cell_length_c 28.578607
_cell_angle_alpha 90.000000
_cell_angle_beta 90.000000
_cell_angle_gamma 90.000000
_cell_volume 2660.534235
_symmetry_space_group_name_H-M "P B C N"
_symmetry_group_IT_number 60
_symmetry_cell_setting 'orthorhombic'
loop_
_space_group_symop_operation_xyz
x,y,z
1/2-x,1/2-y,1/2+z
1/2+x,1/2-y,-z
-x,y,1/2-z
-x,-y,-z
1/2+x,1/2+y,1/2-z
1/2-x,1/2+y,z
x,-y,1/2+z
loop_
_atom_site_type_symbol
_atom_site_label
_atom_site_fract_x
_atom_site_fract_y
_atom_site_fract_z
Si Si1 0.435043 0.010497 0.299266
Si Si2 0.271965 0.048139 0.432511
Si Si3 0.827074 0.702432 0.517475
Si Si4 0.445107 0.718461 0.700148
Si Si5 0.601786 0.503826 0.162996
Si Si6 0.149297 0.705235 0.561556
Si Si7 0.347079 0.309737 0.656600
Si Si8 0.097990 0.515724 0.111863
O O1 0.500000 0.960049 0.250000
O O2 0.465703 0.154023 0.305636
O O3 0.247569 0.991630 0.301301
O O4 0.524598 0.942080 0.342127
O O5 0.230397 0.168871 0.461228
O O6 0.250661 0.921227 0.461605
O O7 0.155358 0.037728 0.388772
O O8 0.450013 0.067927 0.416337
O O9 0.786508 0.712691 0.461689
O O10 0.013608 0.696201 0.522573
O O11 0.500000 0.663080 0.750000
O O12 0.507906 0.624116 0.661125
O O13 0.253356 0.729630 0.694438
O O14 0.479105 0.607812 0.181656
O O15 0.074712 0.747766 0.611111
O O16 0.202011 0.568298 0.576627
O O17 0.206383 0.380237 0.631088
#
# Coordination Sequence:
#
# PCOD8248143 Si02
#       8
#     8   8   8   8   8   8   8   8
#     4   9  21  43  69  99 137 178 233 296 361 434
#     4  10  24  44  69  98 137 187 239 293 359 426
#     4  11  26  43  66 100 142 181 242 297 354 437
#     4  10  24  43  65 100 137 178 232 292 364 437
#     4  11  23  41  73  98 139 185 237 293 365 433
#     4  11  25  41  64  99 137 179 239 287 361 419
#     4  11  23  42  67  98 137 182 231 293 355 432
#     4   9  22  40  63  89 136 179 223 284 359 417
#
# _framework density 24.055319999999998
#
# number of rings (size 3 to 8) (size 9 to 14) (size 15 to 20)
#    0.000    1.750    1.250    0.750    8.750    7.500 
#    0.000    0.000    0.000    0.750    0.000    0.000 
#    0.000    0.000    0.000    0.000    0.000    0.000 
#
# Total GULP energy -792838.102146 kJ/mol
# GULP energy per Si atom -12388.095346 kJ/mol
# Density = 2.400057 g / cm^3
# Si number density = 24.055320 Si / 1000 Ang^3
#
#
#
# Elastic Constant Matrix: (Units=GPa)
#
#
# Indices 1 2 3 4 5 6 
#
# 1 64.2302 9.6800 19.1447 0.0000 0.0000 0.0000
# 2 9.6800 63.8819 11.6785 0.0000 0.0000 0.0000
# 3 19.1447 11.6785 86.8077 0.0000 0.0000 0.0000
# 4 0.0000 0.0000 0.0000 28.3618 0.0000 0.0000
# 5 0.0000 0.0000 0.0000 0.0000 35.5125 0.0000
# 6 0.0000 0.0000 0.0000 0.0000 0.0000 34.0266
#
#
#
# Elastic Compliance Matrix: (Units=1/GPa)
#
#
# Indices 1 2 3 4 5 6 
#
# 1 0.016892 -0.001926 -0.003466 0.000000 0.000000 0.000000
# 2 -0.001926 0.016268 -0.001764 0.000000 0.000000 0.000000
# 3 -0.003466 -0.001764 0.012521 0.000000 0.000000 0.000000
# 4 0.000000 0.000000 0.000000 0.035259 0.000000 0.000000
# 5 0.000000 0.000000 0.000000 0.000000 0.028159 0.000000
# 6 0.000000 0.000000 0.000000 0.000000 0.000000 0.029389
#
#
# Mechanical properties :
#
#
# Convention : Reuss Voigt Hill
#
# Bulk Modulus (GPa) = 31.87789 32.88068 32.37928
# Shear Modulus (GPa) = 30.62641 31.20794 30.91717
#
# Velocity S-wave (km/s) = 3.57202 3.60577 3.58893
# Velocity P-wave (km/s) = 5.50391 5.57081 5.53746
#
# Compressibility (1/GPa) = 0.03136970
#
# Stress axis : x y z
#
# Youngs Moduli (GPa) = 59.19799 61.46963 79.86266
#
# Poissons Ratio (x) = 0.11839 0.27683
# Poissons Ratio (y) = 0.11402 0.14087
# Poissons Ratio (z) = 0.20520 0.10842
#
# Static dielectric constant tensor:
#      x y z
#    x 4.376090 0.000000 0.000000 
#    y 0.000000 4.276770 0.000000 
#    z 0.000000 0.000000 4.850060 
# 
# 
# High freq. dielectric constant tensor:
#      x y z
#    x 1.950010 0.000000 0.000000 
#    y 0.000000 1.953150 0.000000 
#    z 0.000000 0.000000 1.958230 
# 
# From -- ./inp_files/26019.got.cif
#   From: 2010.03.12/outbox.cif.g09.slc.cpg/sg60_14_cif.got.tgz:26019.got - 2010.04.10 18:46:24.
