data_PCOD8248753
_publ_section_title
;
Structure prediction by ZEFSAII (Michael W. Deem and Ramdas Pophale) SiO2 
 PCOD8248753
Probable space group: P B C A
;
_chemical_formula_sum "Si O2"
_cell_formula_units_Z 40
_cell_length_a 7.886750
_cell_length_b 13.083527
_cell_length_c 14.147729
_cell_angle_alpha 90.000000
_cell_angle_beta 90.000000
_cell_angle_gamma 90.000000
_cell_volume 1459.854731
_symmetry_space_group_name_H-M "P B C A"
_symmetry_group_IT_number 61
_symmetry_cell_setting 'orthorhombic'
loop_
_space_group_symop_operation_xyz
x,y,z
1/2-x,-y,1/2+z
1/2+x,1/2-y,-z
-x,1/2+y,1/2-z
-x,-y,-z
1/2+x,y,1/2-z
1/2-x,1/2+y,z
x,1/2-y,1/2+z
loop_
_atom_site_type_symbol
_atom_site_label
_atom_site_fract_x
_atom_site_fract_y
_atom_site_fract_z
Si Si1 0.472759 0.631815 0.793083
Si Si2 0.883882 0.134044 0.604127
Si Si3 0.727695 0.751738 0.420903
Si Si4 0.055825 0.069738 0.118728
Si Si5 0.228428 0.444797 0.975438
O O1 0.284433 0.633336 0.831510
O O2 0.471316 0.664108 0.682049
O O3 0.576272 0.712408 0.855275
O O4 0.556571 0.517503 0.800519
O O5 0.863833 0.207370 0.514096
O O6 0.918316 0.014526 0.572024
O O7 0.841486 0.673868 0.359302
O O8 0.842088 0.851618 0.458426
O O9 0.861098 0.104638 0.099336
O O10 0.150468 0.026417 0.026862
#
# Coordination Sequence:
#
# PCOD8248753 Si02
#       5
#     8   8   8   8   8
#     4  10  22  39  59  86 122 163 204 250 304 362
#     4  10  22  39  59  86 122 163 204 250 304 362
#     4  10  18  34  62  88 114 152 200 246 298 354
#     4   8  16  33  54  77 109 148 189 237 293 350
#     4   8  16  33  54  77 109 148 189 237 293 350
#
# _framework density 27.399988
#
# number of rings (size 3 to 8) (size 9 to 14) (size 15 to 20)
#    0.000    2.800    0.000    3.600    0.000    4.800 
#    0.000    8.000    0.000   18.000    0.000    0.000 
#    0.000    0.000    0.000    0.000    0.000    0.000 
#
# Total GULP energy -495648.458003 kJ/mol
# GULP energy per Si atom -12391.211450 kJ/mol
# Density = 2.733762 g / cm^3
# Si number density = 27.399988 Si / 1000 Ang^3
#
#
#
# Elastic Constant Matrix: (Units=GPa)
#
#
# Indices 1 2 3 4 5 6 
#
# 1 48.4756 46.8563 37.4149 0.0000 0.0000 0.0000
# 2 46.8563 133.8658 48.4852 0.0000 0.0000 0.0000
# 3 37.4149 48.4852 153.4864 0.0000 0.0000 0.0000
# 4 0.0000 0.0000 0.0000 32.5403 0.0000 0.0000
# 5 0.0000 0.0000 0.0000 0.0000 44.5784 0.0000
# 6 0.0000 0.0000 0.0000 0.0000 0.0000 48.6859
#
#
#
# Elastic Compliance Matrix: (Units=1/GPa)
#
#
# Indices 1 2 3 4 5 6 
#
# 1 0.034483 -0.010191 -0.005186 0.000000 0.000000 0.000000
# 2 -0.010191 0.011447 -0.001132 0.000000 0.000000 0.000000
# 3 -0.005186 -0.001132 0.008137 0.000000 0.000000 0.000000
# 4 0.000000 0.000000 0.000000 0.030731 0.000000 0.000000
# 5 0.000000 0.000000 0.000000 0.000000 0.022432 0.000000
# 6 0.000000 0.000000 0.000000 0.000000 0.000000 0.020540
#
#
# Mechanical properties :
#
#
# Convention : Reuss Voigt Hill
#
# Bulk Modulus (GPa) = 47.51026 66.81562 57.16294
# Shear Modulus (GPa) = 29.79635 38.69901 34.24768
#
# Velocity S-wave (km/s) = 3.30124 3.76223 3.53925
# Velocity P-wave (km/s) = 5.64872 6.58109 6.13265
#
# Compressibility (1/GPa) = 0.02104809
#
# Stress axis : x y z
#
# Youngs Moduli (GPa) = 28.99988 87.35662 122.89473
#
# Poissons Ratio (x) = 0.89028 0.63738
# Poissons Ratio (y) = 0.29555 0.13909
# Poissons Ratio (z) = 0.15041 0.09887
#
# Static dielectric constant tensor:
#      x y z
#    x 5.072750 0.000000 0.000000 
#    y 0.000000 5.392300 0.000000 
#    z 0.000000 0.000000 4.915980 
# 
# 
# High freq. dielectric constant tensor:
#      x y z
#    x 2.125130 0.000000 0.000000 
#    y 0.000000 2.115080 0.000000 
#    z 0.000000 0.000000 2.089780 
# 
# From -- ./inp_files/5109.got.cif
#   From: 2010.03.12/outbox.cif.g09.slc.cpg/sg61_3_cif.got.tgz:5109.got - 2010.04.10 19:05:03.
