data_PCOD8248556
_publ_section_title
;
Structure prediction by ZEFSAII (Michael W. Deem and Ramdas Pophale) SiO2 
 PCOD8248556
Probable space group: P B C N
;
_chemical_formula_sum "Si O2"
_cell_formula_units_Z 48
_cell_length_a 11.234985
_cell_length_b 9.419592
_cell_length_c 21.735649
_cell_angle_alpha 90.000000
_cell_angle_beta 90.000000
_cell_angle_gamma 90.000000
_cell_volume 2300.261451
_symmetry_space_group_name_H-M "P B C N"
_symmetry_group_IT_number 60
_symmetry_cell_setting 'orthorhombic'
loop_
_space_group_symop_operation_xyz
x,y,z
1/2-x,1/2-y,1/2+z
1/2+x,1/2-y,-z
-x,y,1/2-z
-x,-y,-z
1/2+x,1/2+y,1/2-z
1/2-x,1/2+y,z
x,-y,1/2+z
loop_
_atom_site_type_symbol
_atom_site_label
_atom_site_fract_x
_atom_site_fract_y
_atom_site_fract_z
Si Si1 0.794049 0.405188 0.110049
Si Si2 0.737765 0.009424 0.881921
Si Si3 0.131705 0.251151 0.680432
Si Si4 0.471109 0.872842 0.046501
Si Si5 0.378495 0.580474 0.001204
Si Si6 0.633678 0.808011 0.677287
O O1 0.842028 0.538946 0.148222
O O2 0.737581 0.297447 0.157944
O O3 0.903335 0.325430 0.076042
O O4 0.694666 0.448515 0.060659
O O5 0.814255 0.094593 0.830611
O O6 0.611663 0.082375 0.896389
O O7 0.716780 0.852068 0.858261
O O8 0.807407 0.994622 0.944864
O O9 0.136297 0.308972 0.749342
O O10 0.996148 0.253767 0.655265
O O11 0.405148 0.747462 0.009655
O O12 0.500000 0.000000 0.000000
O O13 0.500000 0.500000 0.000000
#
# Coordination Sequence:
#
# PCOD8248556 Si02
#       6
#     8   8   8   8   8   8
#     4  12  24  43  69  97 138 174 224 275 341 406
#     4  12  24  45  68  98 133 176 224 279 343 402
#     4  11  25  46  69  95 134 178 231 281 335 398
#     4  12  25  42  66 102 136 177 218 274 341 410
#     4  12  27  40  68 102 135 175 218 278 344 407
#     4  11  25  45  69  97 131 181 228 281 335 397
#
# _framework density 20.867193
#
# number of rings (size 3 to 8) (size 9 to 14) (size 15 to 20)
#    0.000    0.333    5.000    4.000    4.667    0.000 
#    0.000    0.000    0.000    0.000    0.000    0.000 
#    0.000    0.000    0.000    0.000    0.000    0.000 
#
# Total GULP energy -595343.367643 kJ/mol
# GULP energy per Si atom -12402.986826 kJ/mol
# Density = 2.081970 g / cm^3
# Si number density = 20.867193 Si / 1000 Ang^3
#
#
#
# Elastic Constant Matrix: (Units=GPa)
#
#
# Indices 1 2 3 4 5 6 
#
# 1 113.9275 27.6660 19.7892 0.0000 0.0000 0.0000
# 2 27.6660 67.3157 10.2847 0.0000 0.0000 0.0000
# 3 19.7892 10.2847 69.8560 0.0000 0.0000 0.0000
# 4 0.0000 0.0000 0.0000 39.3980 0.0000 0.0000
# 5 0.0000 0.0000 0.0000 0.0000 41.9957 0.0000
# 6 0.0000 0.0000 0.0000 0.0000 0.0000 44.1722
#
#
#
# Elastic Compliance Matrix: (Units=1/GPa)
#
#
# Indices 1 2 3 4 5 6 
#
# 1 0.010100 -0.003799 -0.002302 0.000000 0.000000 0.000000
# 2 -0.003799 0.016626 -0.001372 0.000000 0.000000 0.000000
# 3 -0.002302 -0.001372 0.015169 0.000000 0.000000 0.000000
# 4 0.000000 0.000000 0.000000 0.025382 0.000000 0.000000
# 5 0.000000 0.000000 0.000000 0.000000 0.023812 0.000000
# 6 0.000000 0.000000 0.000000 0.000000 0.000000 0.022639
#
#
# Mechanical properties :
#
#
# Convention : Reuss Voigt Hill
#
# Bulk Modulus (GPa) = 37.10553 40.73100 38.91826
# Shear Modulus (GPa) = 36.32220 38.00381 37.16300
#
# Velocity S-wave (km/s) = 4.17662 4.27221 4.22468
# Velocity P-wave (km/s) = 6.40931 6.62550 6.51830
#
# Compressibility (1/GPa) = 0.02695016
#
# Stress axis : x y z
#
# Youngs Moduli (GPa) = 99.01039 60.14534 65.92321
#
# Poissons Ratio (x) = 0.22851 0.15174
# Poissons Ratio (y) = 0.37617 0.09042
# Poissons Ratio (z) = 0.22790 0.08249
#
# Static dielectric constant tensor:
#      x y z
#    x 4.097460 0.000000 0.000000 
#    y 0.000000 3.798120 0.000000 
#    z 0.000000 0.000000 3.808560 
# 
# 
# High freq. dielectric constant tensor:
#      x y z
#    x 1.841310 0.000000 0.000000 
#    y 0.000000 1.817270 0.000000 
#    z 0.000000 0.000000 1.820210 
# 
# From -- ./inp_files/24251.got.cif
#   From: 2010.03.12/outbox.cif.g09.slc.cpg/sg60_13_cif.got.tgz:24251.got - 2010.04.10 18:46:24.
