data_PCOD8248758
_publ_section_title
;
Structure prediction by ZEFSAII (Michael W. Deem and Ramdas Pophale) SiO2 
 PCOD8248758
Probable space group: P B C A
;
_chemical_formula_sum "Si O2"
_cell_formula_units_Z 64
_cell_length_a 17.422866
_cell_length_b 11.475926
_cell_length_c 16.027803
_cell_angle_alpha 90.000000
_cell_angle_beta 90.000000
_cell_angle_gamma 90.000000
_cell_volume 3204.655364
_symmetry_space_group_name_H-M "P B C A"
_symmetry_group_IT_number 61
_symmetry_cell_setting 'orthorhombic'
loop_
_space_group_symop_operation_xyz
x,y,z
1/2-x,-y,1/2+z
1/2+x,1/2-y,-z
-x,1/2+y,1/2-z
-x,-y,-z
1/2+x,y,1/2-z
1/2-x,1/2+y,z
x,1/2-y,1/2+z
loop_
_atom_site_type_symbol
_atom_site_label
_atom_site_fract_x
_atom_site_fract_y
_atom_site_fract_z
Si Si1 0.361370 0.699013 0.733109
Si Si2 0.683226 0.677750 0.752032
Si Si3 0.399190 0.943517 0.755345
Si Si4 0.968413 0.552010 0.656369
Si Si5 0.540025 0.358731 0.408299
Si Si6 0.532427 0.103590 0.084777
Si Si7 0.908994 0.286818 0.417636
Si Si8 0.093339 0.688218 0.392640
O O1 0.273853 0.680407 0.755171
O O2 0.371616 0.833345 0.700801
O O3 0.414537 0.655622 0.809895
O O4 0.388640 0.622260 0.653598
O O5 0.663435 0.543416 0.736268
O O6 0.656269 0.708485 0.846288
O O7 0.648985 0.761731 0.679899
O O8 0.406776 0.874759 0.842792
O O9 0.481610 0.996779 0.731279
O O10 0.916163 0.451028 0.616489
O O11 0.029273 0.607380 0.591109
O O12 0.480706 0.465110 0.415152
O O13 0.572771 0.344605 0.501850
O O14 0.489853 0.247206 0.379919
O O15 0.450550 0.164701 0.098993
O O16 0.875104 0.289702 0.512494
#
# Coordination Sequence:
#
# PCOD8248758 Si02
#       8
#     8   8   8   8   8   8   8   8
#     4  12  24  40  61  92 127 170 202 255 323 379
#     4  11  26  41  59  89 133 170 202 247 326 391
#     4  11  21  41  63  87 121 160 212 256 306 375
#     4  11  21  37  66  91 118 159 212 262 311 364
#     4  10  20  35  61  93 114 157 207 267 302 352
#     4  10  18  35  65  90 114 146 219 264 297 351
#     4  10  22  40  64  91 121 166 209 261 311 367
#     4  11  21  41  65  89 125 162 208 264 310 365
#
# _framework density 19.970946000000001
#
# number of rings (size 3 to 8) (size 9 to 14) (size 15 to 20)
#    0.000    1.250    5.000    1.875    1.750    0.000 
#    2.250    0.000    0.000    0.000    0.000    0.000 
#    0.000    0.000    0.000    0.000    0.000    0.000 
#
# Total GULP energy -793107.655636 kJ/mol
# GULP energy per Si atom -12392.307119 kJ/mol
# Density = 1.992549 g / cm^3
# Si number density = 19.970946 Si / 1000 Ang^3
#
#
#
# Elastic Constant Matrix: (Units=GPa)
#
#
# Indices 1 2 3 4 5 6 
#
# 1 93.7051 24.3846 46.9242 0.0000 0.0000 0.0000
# 2 24.3846 103.6886 12.8714 0.0000 0.0000 0.0000
# 3 46.9242 12.8714 108.4570 0.0000 0.0000 0.0000
# 4 0.0000 0.0000 0.0000 26.2199 0.0000 0.0000
# 5 0.0000 0.0000 0.0000 0.0000 19.1055 0.0000
# 6 0.0000 0.0000 0.0000 0.0000 0.0000 18.1224
#
#
#
# Elastic Compliance Matrix: (Units=1/GPa)
#
#
# Indices 1 2 3 4 5 6 
#
# 1 0.014298 -0.002633 -0.005874 0.000000 0.000000 0.000000
# 2 -0.002633 0.010273 -0.000080 0.000000 0.000000 0.000000
# 3 -0.005874 -0.000080 0.011771 0.000000 0.000000 0.000000
# 4 0.000000 0.000000 0.000000 0.038139 0.000000 0.000000
# 5 0.000000 0.000000 0.000000 0.000000 0.052341 0.000000
# 6 0.000000 0.000000 0.000000 0.000000 0.000000 0.055180
#
#
# Mechanical properties :
#
#
# Convention : Reuss Voigt Hill
#
# Bulk Modulus (GPa) = 52.16797 52.69013 52.42905
# Shear Modulus (GPa) = 24.32298 27.46759 25.89528
#
# Velocity S-wave (km/s) = 3.49365 3.71263 3.60481
# Velocity P-wave (km/s) = 6.51558 6.69469 6.60574
#
# Compressibility (1/GPa) = 0.01916885
#
# Stress axis : x y z
#
# Youngs Moduli (GPa) = 69.93780 97.33795 84.95454
#
# Poissons Ratio (x) = 0.25633 0.49900
# Poissons Ratio (y) = 0.18418 0.00678
# Poissons Ratio (z) = 0.41079 0.00777
#
# Static dielectric constant tensor:
#      x y z
#    x 3.138870 0.000000 0.000000 
#    y 0.000000 3.872870 0.000000 
#    z 0.000000 0.000000 3.978230 
# 
# 
# High freq. dielectric constant tensor:
#      x y z
#    x 1.731260 0.000000 0.000000 
#    y 0.000000 1.798510 0.000000 
#    z 0.000000 0.000000 1.788960 
# 
# From -- ./inp_files/9525.got.cif
#   From: 2010.03.12/outbox.cif.g09.slc.cpg/sg61_5_cif.got.tgz:9525.got - 2010.04.10 19:05:03.
