data_PCOD8248067
_publ_section_title
;
Structure prediction by ZEFSAII (Michael W. Deem and Ramdas Pophale) SiO2 
 PCOD8248067
Probable space group: P B C N
;
_chemical_formula_sum "Si O2"
_cell_formula_units_Z 40
_cell_length_a 9.158965
_cell_length_b 22.507885
_cell_length_c 8.673924
_cell_angle_alpha 90.000000
_cell_angle_beta 90.000000
_cell_angle_gamma 90.000000
_cell_volume 1788.120160
_symmetry_space_group_name_H-M "P B C N"
_symmetry_group_IT_number 60
_symmetry_cell_setting 'orthorhombic'
loop_
_space_group_symop_operation_xyz
x,y,z
1/2-x,1/2-y,1/2+z
1/2+x,1/2-y,-z
-x,y,1/2-z
-x,-y,-z
1/2+x,1/2+y,1/2-z
1/2-x,1/2+y,z
x,-y,1/2+z
loop_
_atom_site_type_symbol
_atom_site_label
_atom_site_fract_x
_atom_site_fract_y
_atom_site_fract_z
Si Si1 0.934081 0.444255 0.080723
Si Si2 0.830095 0.790793 0.499094
Si Si3 0.497098 0.819524 0.932543
Si Si4 0.500000 0.631933 0.250000
Si Si5 0.891903 0.943879 0.005317
Si Si6 0.000000 0.852693 0.250000
O O1 0.763811 0.461089 0.074421
O O2 0.000000 0.437133 0.250000
O O3 0.000000 0.500000 0.000000
O O4 0.972788 0.385815 0.986480
O O5 0.656958 0.794695 0.508146
O O6 0.903761 0.828199 0.636233
O O7 0.878648 0.722021 0.509147
O O8 0.874973 0.812091 0.326857
O O9 0.500000 0.817776 0.750000
O O10 0.613124 0.587875 0.338197
O O11 0.945936 0.893007 0.114894
O O12 0.000000 0.000000 0.000000
#
# Coordination Sequence:
#
# PCOD8248067 Si02
#       6
#     8   8   8   4   8   4
#     4  12  30  48  73 104 149 195 246 307 374 446
#     4  11  26  44  75 107 147 190 244 311 371 443
#     4  12  28  48  75 107 153 194 252 303 379 446
#     4  10  25  42  74 106 145 188 248 308 378 440
#     4  11  25  44  76 101 143 190 251 298 367 441
#     4  10  23  46  70 104 141 182 246 298 372 430
#
# _framework density 22.369859000000002
#
# number of rings (size 3 to 8) (size 9 to 14) (size 15 to 20)
#    0.000    0.800    1.000    3.600   21.000    0.000 
#    0.000    0.000    0.000    0.000    0.000    0.000 
#    0.000    0.000    0.000    0.000    0.000    0.000 
#
# Total GULP energy -495929.830030 kJ/mol
# GULP energy per Si atom -12398.245751 kJ/mol
# Density = 2.231894 g / cm^3
# Si number density = 22.369859 Si / 1000 Ang^3
#
#
#
# Elastic Constant Matrix: (Units=GPa)
#
#
# Indices 1 2 3 4 5 6 
#
# 1 152.6457 60.2603 32.0285 0.0000 0.0000 0.0000
# 2 60.2603 177.3153 48.7560 0.0000 0.0000 0.0000
# 3 32.0285 48.7560 120.3120 0.0000 0.0000 0.0000
# 4 0.0000 0.0000 0.0000 12.9804 0.0000 0.0000
# 5 0.0000 0.0000 0.0000 0.0000 37.5219 0.0000
# 6 0.0000 0.0000 0.0000 0.0000 0.0000 32.5799
#
#
#
# Elastic Compliance Matrix: (Units=1/GPa)
#
#
# Indices 1 2 3 4 5 6 
#
# 1 0.007696 -0.002310 -0.001113 0.000000 0.000000 0.000000
# 2 -0.002310 0.007040 -0.002238 0.000000 0.000000 0.000000
# 3 -0.001113 -0.002238 0.009515 0.000000 0.000000 0.000000
# 4 0.000000 0.000000 0.000000 0.077039 0.000000 0.000000
# 5 0.000000 0.000000 0.000000 0.000000 0.026651 0.000000
# 6 0.000000 0.000000 0.000000 0.000000 0.000000 0.030694
#
#
# Mechanical properties :
#
#
# Convention : Reuss Voigt Hill
#
# Bulk Modulus (GPa) = 77.33858 81.37362 79.35610
# Shear Modulus (GPa) = 28.69170 37.23167 32.96168
#
# Velocity S-wave (km/s) = 3.58523 4.08409 3.84277
# Velocity P-wave (km/s) = 7.19627 7.66128 7.43241
#
# Compressibility (1/GPa) = 0.01293016
#
# Stress axis : x y z
#
# Youngs Moduli (GPa) = 129.93093 142.04581 105.09750
#
# Poissons Ratio (x) = 0.32807 0.11697
# Poissons Ratio (y) = 0.30009 0.23522
# Poissons Ratio (z) = 0.14460 0.31791
#
# Static dielectric constant tensor:
#      x y z
#    x 4.030720 0.000000 0.000000 
#    y 0.000000 4.320030 0.000000 
#    z 0.000000 0.000000 4.200310 
# 
# 
# High freq. dielectric constant tensor:
#      x y z
#    x 1.882290 0.000000 0.000000 
#    y 0.000000 1.905620 0.000000 
#    z 0.000000 0.000000 1.901380 
# 
# From -- ./inp_files/3887.got.cif
#   From: 2010.03.12/outbox.cif.g09.slc.cpg/sg60_2_cif.got.tgz:3887.got - 2010.04.10 18:46:24.
