data_PCOD8248883
_publ_section_title
;
Structure prediction by ZEFSAII (Michael W. Deem and Ramdas Pophale) SiO2 
 PCOD8248883
Probable space group: P B C A
;
_chemical_formula_sum "Si O2"
_cell_formula_units_Z 32
_cell_length_a 15.157504
_cell_length_b 5.293396
_cell_length_c 18.306724
_cell_angle_alpha 90.000000
_cell_angle_beta 90.000000
_cell_angle_gamma 90.000000
_cell_volume 1468.833978
_symmetry_space_group_name_H-M "P B C A"
_symmetry_group_IT_number 61
_symmetry_cell_setting 'orthorhombic'
loop_
_space_group_symop_operation_xyz
x,y,z
1/2-x,-y,1/2+z
1/2+x,1/2-y,-z
-x,1/2+y,1/2-z
-x,-y,-z
1/2+x,y,1/2-z
1/2-x,1/2+y,z
x,1/2-y,1/2+z
loop_
_atom_site_type_symbol
_atom_site_label
_atom_site_fract_x
_atom_site_fract_y
_atom_site_fract_z
Si Si1 0.841838 0.493593 0.955746
Si Si2 0.443508 0.525451 0.255331
Si Si3 0.852385 0.506363 0.394189
Si Si4 0.196770 0.512439 0.873946
O O1 0.751902 0.500916 0.908790
O O2 0.895229 0.747487 0.934108
O O3 0.895997 0.244862 0.930709
O O4 0.821572 0.485060 0.040515
O O5 0.513184 0.301578 0.244877
O O6 0.370614 0.513134 0.191655
O O7 0.395870 0.486332 0.332442
O O8 0.249896 0.762603 0.851306
#
# Coordination Sequence:
#
# PCOD8248883 Si02
#       4
#     8   8   8   8
#     4  10  19  39  67 102 117 159 230 285 312 366
#     4  12  28  46  62 100 146 182 212 266 350 412
#     4  10  20  38  66  91 133 162 219 270 321 387
#     4  12  23  43  72 101 129 170 233 284 323 389
#
# _framework density 21.785990000000002
#
# number of rings (size 3 to 8) (size 9 to 14) (size 15 to 20)
#    0.000    1.000    5.000    3.000    7.000    0.000 
#    0.000    7.500    0.000    0.000    0.000    0.000 
#    0.000    0.000    0.000    0.000    0.000    0.000 
#
# Total GULP energy -396736.973096 kJ/mol
# GULP energy per Si atom -12398.030409 kJ/mol
# Density = 2.173640 g / cm^3
# Si number density = 21.785990 Si / 1000 Ang^3
#
#
#
# Elastic Constant Matrix: (Units=GPa)
#
#
# Indices 1 2 3 4 5 6 
#
# 1 44.9702 6.7989 54.8028 0.0000 0.0000 0.0000
# 2 6.7989 200.5372 23.9286 0.0000 0.0000 0.0000
# 3 54.8028 23.9286 102.6195 0.0000 0.0000 0.0000
# 4 0.0000 0.0000 0.0000 25.9754 0.0000 0.0000
# 5 0.0000 0.0000 0.0000 0.0000 14.1677 0.0000
# 6 0.0000 0.0000 0.0000 0.0000 0.0000 31.4733
#
#
#
# Elastic Compliance Matrix: (Units=1/GPa)
#
#
# Indices 1 2 3 4 5 6 
#
# 1 0.064433 0.001976 -0.034871 0.000000 0.000000 0.000000
# 2 0.001976 0.005190 -0.002266 0.000000 0.000000 0.000000
# 3 -0.034871 -0.002266 0.028895 0.000000 0.000000 0.000000
# 4 0.000000 0.000000 0.000000 0.038498 0.000000 0.000000
# 5 0.000000 0.000000 0.000000 0.000000 0.070583 0.000000
# 6 0.000000 0.000000 0.000000 0.000000 0.000000 0.031773
#
#
# Mechanical properties :
#
#
# Convention : Reuss Voigt Hill
#
# Bulk Modulus (GPa) = 35.46273 57.68751 46.57512
# Shear Modulus (GPa) = 15.66945 31.82973 23.74959
#
# Velocity S-wave (km/s) = 2.68478 3.82647 3.30530
# Velocity P-wave (km/s) = 5.09155 6.78669 5.99929
#
# Compressibility (1/GPa) = 0.02819862
#
# Stress axis : x y z
#
# Youngs Moduli (GPa) = 15.51989 192.68037 34.60758
#
# Poissons Ratio (x) = -0.38081 1.20679
# Poissons Ratio (y) = -0.03067 0.07841
# Poissons Ratio (z) = 0.54119 0.43654
#
# Static dielectric constant tensor:
#      x y z
#    x 3.453770 0.000000 0.000000 
#    y 0.000000 6.897420 0.000000 
#    z 0.000000 0.000000 3.862380 
# 
# 
# High freq. dielectric constant tensor:
#      x y z
#    x 1.806770 0.000000 0.000000 
#    y 0.000000 1.901240 0.000000 
#    z 0.000000 0.000000 1.863790 
# 
# From -- ./inp_files/339.got.cif
#   From: 2010.03.12/outbox.cif.g09.slc.cpg/sg61_1_cif.got.tgz:339.got - 2010.04.10 19:05:03.
