data_PCOD8248724
_publ_section_title
;
Structure prediction by ZEFSAII (Michael W. Deem and Ramdas Pophale) SiO2 
 PCOD8248724
Probable space group: P B C A
;
_chemical_formula_sum "Si O2"
_cell_formula_units_Z 64
_cell_length_a 5.412177
_cell_length_b 17.324228
_cell_length_c 30.077707
_cell_angle_alpha 90.000000
_cell_angle_beta 90.000000
_cell_angle_gamma 90.000000
_cell_volume 2820.139597
_symmetry_space_group_name_H-M "P B C A"
_symmetry_group_IT_number 61
_symmetry_cell_setting 'orthorhombic'
loop_
_space_group_symop_operation_xyz
x,y,z
1/2-x,-y,1/2+z
1/2+x,1/2-y,-z
-x,1/2+y,1/2-z
-x,-y,-z
1/2+x,y,1/2-z
1/2-x,1/2+y,z
x,1/2-y,1/2+z
loop_
_atom_site_type_symbol
_atom_site_label
_atom_site_fract_x
_atom_site_fract_y
_atom_site_fract_z
Si Si1 0.951895 0.944675 0.068087
Si Si2 0.954460 0.751105 0.429174
Si Si3 0.274851 0.602201 0.426103
Si Si4 0.779531 0.372698 0.235566
Si Si5 0.239884 0.199652 0.229178
Si Si6 0.226025 0.333975 0.361561
Si Si7 0.418061 0.188875 0.135836
Si Si8 0.448892 0.604765 0.520501
O O1 0.920833 0.034009 0.082443
O O2 0.956928 0.892150 0.112441
O O3 0.716858 0.922095 0.037613
O O4 0.786511 0.063131 0.956540
O O5 0.702161 0.716725 0.410365
O O6 0.915241 0.802222 0.473490
O O7 0.141513 0.682150 0.438518
O O8 0.045957 0.813407 0.392957
O O9 0.429758 0.613105 0.380115
O O10 0.447750 0.582816 0.468449
O O11 0.517849 0.416814 0.243723
O O12 0.738091 0.291455 0.261821
O O13 0.832162 0.370106 0.183233
O O14 0.489860 0.162919 0.250237
O O15 0.230484 0.175250 0.176720
O O16 0.095511 0.255540 0.345811
#
# Coordination Sequence:
#
# PCOD8248724 Si02
#       8
#     8   8   8   8   8   8   8   8
#     4  11  25  45  64  90 127 175 219 263 320 387
#     4  10  23  37  63  92 127 162 213 272 322 369
#     4  11  27  39  64  93 132 170 214 266 333 386
#     4  10  18  29  56  88 116 149 201 256 305 359
#     4  10  19  32  56  85 120 152 199 252 309 368
#     4  10  20  37  59  91 123 161 209 262 311 373
#     4  11  21  37  59  93 126 159 207 269 319 371
#     4  11  25  44  67  89 125 172 224 263 314 384
#
# _framework density 22.693909999999999
#
# number of rings (size 3 to 8) (size 9 to 14) (size 15 to 20)
#    0.000    1.500    3.750    2.250    7.000    0.000 
#    0.000    0.000    0.000    1.500    0.000    0.000 
#    0.000    0.000    0.000    0.000    0.000    0.000 
#
# Total GULP energy -793194.873168 kJ/mol
# GULP energy per Si atom -12393.669893 kJ/mol
# Density = 2.264226 g / cm^3
# Si number density = 22.693910 Si / 1000 Ang^3
#
#
#
# Elastic Constant Matrix: (Units=GPa)
#
#
# Indices 1 2 3 4 5 6 
#
# 1 107.6823 -1.9321 0.6633 0.0000 0.0000 0.0000
# 2 -1.9321 43.8023 13.1002 0.0000 0.0000 0.0000
# 3 0.6633 13.1002 80.0558 0.0000 0.0000 0.0000
# 4 0.0000 0.0000 0.0000 11.8196 0.0000 0.0000
# 5 0.0000 0.0000 0.0000 0.0000 26.0767 0.0000
# 6 0.0000 0.0000 0.0000 0.0000 0.0000 18.4858
#
#
#
# Elastic Compliance Matrix: (Units=1/GPa)
#
#
# Indices 1 2 3 4 5 6 
#
# 1 0.009296 0.000455 -0.000152 0.000000 0.000000 0.000000
# 2 0.000455 0.024027 -0.003935 0.000000 0.000000 0.000000
# 3 -0.000152 -0.003935 0.013137 0.000000 0.000000 0.000000
# 4 0.000000 0.000000 0.000000 0.084605 0.000000 0.000000
# 5 0.000000 0.000000 0.000000 0.000000 0.038348 0.000000
# 6 0.000000 0.000000 0.000000 0.000000 0.000000 0.054096
#
#
# Mechanical properties :
#
#
# Convention : Reuss Voigt Hill
#
# Bulk Modulus (GPa) = 25.51294 28.35591 26.93442
# Shear Modulus (GPa) = 20.50548 25.92368 23.21458
#
# Velocity S-wave (km/s) = 3.00920 3.38349 3.20182
# Velocity P-wave (km/s) = 4.83118 5.27125 5.05600
#
# Compressibility (1/GPa) = 0.03919579
#
# Stress axis : x y z
#
# Youngs Moduli (GPa) = 107.57681 41.61998 76.12358
#
# Poissons Ratio (x) = -0.01895 0.01153
# Poissons Ratio (y) = -0.04898 0.29958
# Poissons Ratio (z) = 0.01630 0.16379
#
# Static dielectric constant tensor:
#      x y z
#    x 4.426550 0.000000 0.000000 
#    y 0.000000 3.903060 0.000000 
#    z 0.000000 0.000000 4.048150 
# 
# 
# High freq. dielectric constant tensor:
#      x y z
#    x 1.907370 0.000000 0.000000 
#    y 0.000000 1.846960 0.000000 
#    z 0.000000 0.000000 1.894220 
# 
# From -- ./inp_files/11633.got.cif
#   From: 2010.03.12/outbox.cif.g09.slc.cpg/sg61_6_cif.got.tgz:11633.got - 2010.04.10 19:05:03.
