data_PCOD8248178
_publ_section_title
;
Structure prediction by ZEFSAII (Michael W. Deem and Ramdas Pophale) SiO2 
 PCOD8248178
Probable space group: P B C N
;
_chemical_formula_sum "Si O2"
_cell_formula_units_Z 24
_cell_length_a 9.771360
_cell_length_b 9.394296
_cell_length_c 10.064446
_cell_angle_alpha 90.000000
_cell_angle_beta 90.000000
_cell_angle_gamma 90.000000
_cell_volume 923.866305
_symmetry_space_group_name_H-M "P B C N"
_symmetry_group_IT_number 60
_symmetry_cell_setting 'orthorhombic'
loop_
_space_group_symop_operation_xyz
x,y,z
1/2-x,1/2-y,1/2+z
1/2+x,1/2-y,-z
-x,y,1/2-z
-x,-y,-z
1/2+x,1/2+y,1/2-z
1/2-x,1/2+y,z
x,-y,1/2+z
loop_
_atom_site_type_symbol
_atom_site_label
_atom_site_fract_x
_atom_site_fract_y
_atom_site_fract_z
Si Si1 0.000000 0.679941 0.750000
Si Si2 0.500000 0.542649 0.750000
Si Si3 0.096371 0.788438 0.020511
Si Si4 0.227916 0.492433 0.636035
O O1 0.130342 0.579772 0.733726
O O2 0.975974 0.780776 0.621785
O O3 0.518208 0.647186 0.621756
O O4 0.361179 0.448345 0.726354
O O5 0.223635 0.899344 0.018534
O O6 0.147759 0.636669 0.071561
#
# Coordination Sequence:
#
# PCOD8248178 Si02
#       4
#     4   4   8   8
#     4  12  25  41  82 108 153 207 260 316 389 467
#     4   8  23  45  78 104 167 191 260 314 399 469
#     4  10  24  46  77 110 154 206 254 321 387 462
#     4  10  24  45  77 111 156 204 258 319 394 467
#
# _framework density 25.977782000000001
#
# number of rings (size 3 to 8) (size 9 to 14) (size 15 to 20)
#    2.000    0.000    0.000    2.000    4.667    4.000 
#    0.000    3.333    7.333    2.000    0.000    0.000 
#    0.000    0.000    0.000    0.000    0.000    0.000 
#
# Total GULP energy -297373.122133 kJ/mol
# GULP energy per Si atom -12390.546756 kJ/mol
# Density = 2.591866 g / cm^3
# Si number density = 25.977782 Si / 1000 Ang^3
#
#
#
# Elastic Constant Matrix: (Units=GPa)
#
#
# Indices 1 2 3 4 5 6 
#
# 1 123.3086 10.7310 52.5871 0.0000 0.0000 0.0000
# 2 10.7310 87.8519 33.2120 0.0000 0.0000 0.0000
# 3 52.5871 33.2120 164.3160 0.0000 0.0000 0.0000
# 4 0.0000 0.0000 0.0000 41.3809 0.0000 0.0000
# 5 0.0000 0.0000 0.0000 0.0000 52.1263 0.0000
# 6 0.0000 0.0000 0.0000 0.0000 0.0000 33.8771
#
#
#
# Elastic Compliance Matrix: (Units=1/GPa)
#
#
# Indices 1 2 3 4 5 6 
#
# 1 0.009392 -0.000012 -0.003003 0.000000 0.000000 0.000000
# 2 -0.000012 0.012325 -0.002487 0.000000 0.000000 0.000000
# 3 -0.003003 -0.002487 0.007550 0.000000 0.000000 0.000000
# 4 0.000000 0.000000 0.000000 0.024166 0.000000 0.000000
# 5 0.000000 0.000000 0.000000 0.000000 0.019184 0.000000
# 6 0.000000 0.000000 0.000000 0.000000 0.000000 0.029518
#
#
# Mechanical properties :
#
#
# Convention : Reuss Voigt Hill
#
# Bulk Modulus (GPa) = 54.76113 63.17073 58.96593
# Shear Modulus (GPa) = 41.93721 44.07331 43.00526
#
# Velocity S-wave (km/s) = 4.02226 4.12342 4.07315
# Velocity P-wave (km/s) = 6.53430 6.85858 6.69841
#
# Compressibility (1/GPa) = 0.01826113
#
# Stress axis : x y z
#
# Youngs Moduli (GPa) = 106.47874 81.13888 132.45525
#
# Poissons Ratio (x) = 0.00096 0.39780
# Poissons Ratio (y) = 0.00126 0.32945
# Poissons Ratio (z) = 0.31978 0.20182
#
# Static dielectric constant tensor:
#      x y z
#    x 4.621920 0.000000 0.000000 
#    y 0.000000 4.649570 0.000000 
#    z 0.000000 0.000000 4.590090 
# 
# 
# High freq. dielectric constant tensor:
#      x y z
#    x 2.037090 0.000000 0.000000 
#    y 0.000000 2.059610 0.000000 
#    z 0.000000 0.000000 2.037480 
# 
# From -- ./inp_files/4408.got.cif
#   From: 2010.03.12/outbox.cif.g09.slc.cpg/sg60_3_cif.got.tgz:4408.got - 2010.04.10 18:46:24.
