data_PCOD8248437
_publ_section_title
;
Structure prediction by ZEFSAII (Michael W. Deem and Ramdas Pophale) SiO2 
 PCOD8248437
Probable space group: P B C N
;
_chemical_formula_sum "Si O2"
_cell_formula_units_Z 32
_cell_length_a 4.845550
_cell_length_b 24.513298
_cell_length_c 12.424470
_cell_angle_alpha 90.000000
_cell_angle_beta 90.000000
_cell_angle_gamma 90.000000
_cell_volume 1475.783655
_symmetry_space_group_name_H-M "P B C N"
_symmetry_group_IT_number 60
_symmetry_cell_setting 'orthorhombic'
loop_
_space_group_symop_operation_xyz
x,y,z
1/2-x,1/2-y,1/2+z
1/2+x,1/2-y,-z
-x,y,1/2-z
-x,-y,-z
1/2+x,1/2+y,1/2-z
1/2-x,1/2+y,z
x,-y,1/2+z
loop_
_atom_site_type_symbol
_atom_site_label
_atom_site_fract_x
_atom_site_fract_y
_atom_site_fract_z
Si Si1 0.517857 0.213228 0.504180
Si Si2 0.574363 0.891741 0.626362
Si Si3 0.588551 0.438361 0.987765
Si Si4 0.751806 0.135130 0.678728
O O1 0.220228 0.238213 0.531671
O O2 0.496342 0.169846 0.407948
O O3 0.629408 0.185085 0.611560
O O4 0.500000 0.898509 0.750000
O O5 0.392406 0.935831 0.562381
O O6 0.888733 0.905184 0.593907
O O7 0.500000 0.500000 0.000000
O O8 0.606065 0.411347 0.105459
O O9 0.500000 0.110326 0.750000
O O10 0.000000 0.158863 0.750000
#
# Coordination Sequence:
#
# PCOD8248437 Si02
#       4
#     8   8   8   8
#     4  11  23  41  63  90 124 162 206 255 307 366
#     4  11  24  43  64  93 127 163 207 257 307 369
#     4  11  24  43  65  93 127 163 206 257 309 369
#     4  11  23  41  63  92 125 162 208 259 309 370
#
# _framework density 21.683395000000001
#
# number of rings (size 3 to 8) (size 9 to 14) (size 15 to 20)
#    0.000    1.000    0.000    9.000    0.000    6.000 
#    0.000    2.500    0.000    0.000    0.000    0.000 
#    0.000    0.000    0.000    0.000    0.000    0.000 
#
# Total GULP energy -396909.128101 kJ/mol
# GULP energy per Si atom -12403.410253 kJ/mol
# Density = 2.163404 g / cm^3
# Si number density = 21.683395 Si / 1000 Ang^3
#
#
#
# Elastic Constant Matrix: (Units=GPa)
#
#
# Indices 1 2 3 4 5 6 
#
# 1 89.5323 7.5755 16.5875 0.0000 0.0000 0.0000
# 2 7.5755 104.9173 25.0294 0.0000 0.0000 0.0000
# 3 16.5875 25.0294 104.4657 0.0000 0.0000 0.0000
# 4 0.0000 0.0000 0.0000 9.4263 0.0000 0.0000
# 5 0.0000 0.0000 0.0000 0.0000 52.6275 0.0000
# 6 0.0000 0.0000 0.0000 0.0000 0.0000 37.0989
#
#
#
# Elastic Compliance Matrix: (Units=1/GPa)
#
#
# Indices 1 2 3 4 5 6 
#
# 1 0.011525 -0.000420 -0.001729 0.000000 0.000000 0.000000
# 2 -0.000420 0.010124 -0.002359 0.000000 0.000000 0.000000
# 3 -0.001729 -0.002359 0.010412 0.000000 0.000000 0.000000
# 4 0.000000 0.000000 0.000000 0.106086 0.000000 0.000000
# 5 0.000000 0.000000 0.000000 0.000000 0.019001 0.000000
# 6 0.000000 0.000000 0.000000 0.000000 0.000000 0.026955
#
#
# Mechanical properties :
#
#
# Convention : Reuss Voigt Hill
#
# Bulk Modulus (GPa) = 43.39241 44.14445 43.76843
# Shear Modulus (GPa) = 24.90009 36.47873 30.68941
#
# Velocity S-wave (km/s) = 3.39240 4.10608 3.76618
# Velocity P-wave (km/s) = 5.94977 6.54849 6.25630
#
# Compressibility (1/GPa) = 0.02304550
#
# Stress axis : x y z
#
# Youngs Moduli (GPa) = 86.76732 98.77111 96.03963
#
# Poissons Ratio (x) = 0.04144 0.16610
# Poissons Ratio (y) = 0.03640 0.22657
# Poissons Ratio (z) = 0.15006 0.23301
#
# Static dielectric constant tensor:
#      x y z
#    x 4.346650 0.000000 0.000000 
#    y 0.000000 3.687510 0.000000 
#    z 0.000000 0.000000 3.957670 
# 
# 
# High freq. dielectric constant tensor:
#      x y z
#    x 1.878660 0.000000 0.000000 
#    y 0.000000 1.842100 0.000000 
#    z 0.000000 0.000000 1.853490 
# 
# From -- ./inp_files/8839.got.cif
#   From: 2010.03.12/outbox.cif.g09.slc.cpg/sg60_5_cif.got.tgz:8839.got - 2010.04.10 18:46:24.
