data_PCOD8248365
_publ_section_title
;
Structure prediction by ZEFSAII (Michael W. Deem and Ramdas Pophale) SiO2 
 PCOD8248365
Probable space group: P B C N
;
_chemical_formula_sum "Si O2"
_cell_formula_units_Z 40
_cell_length_a 24.881753
_cell_length_b 9.392111
_cell_length_c 8.305717
_cell_angle_alpha 90.000000
_cell_angle_beta 90.000000
_cell_angle_gamma 90.000000
_cell_volume 1940.981162
_symmetry_space_group_name_H-M "P B C N"
_symmetry_group_IT_number 60
_symmetry_cell_setting 'orthorhombic'
loop_
_space_group_symop_operation_xyz
x,y,z
1/2-x,1/2-y,1/2+z
1/2+x,1/2-y,-z
-x,y,1/2-z
-x,-y,-z
1/2+x,1/2+y,1/2-z
1/2-x,1/2+y,z
x,-y,1/2+z
loop_
_atom_site_type_symbol
_atom_site_label
_atom_site_fract_x
_atom_site_fract_y
_atom_site_fract_z
Si Si1 0.899303 0.658614 0.945156
Si Si2 0.992280 0.841333 0.060744
Si Si3 0.086152 0.350002 0.433149
Si Si4 0.699550 0.186832 0.451061
Si Si5 0.285875 0.113854 0.416493
O O1 0.901319 0.655566 0.754251
O O2 0.932478 0.790899 0.015880
O O3 0.923651 0.512829 0.015834
O O4 0.837681 0.680680 0.996179
O O5 0.000000 0.831806 0.250000
O O6 0.033344 0.739122 0.969065
O O7 0.000000 0.000000 0.000000
O O8 0.136013 0.282499 0.531668
O O9 0.732106 0.325217 0.503838
O O10 0.713233 0.148325 0.270022
O O11 0.715552 0.056036 0.566577
#
# Coordination Sequence:
#
# PCOD8248365 Si02
#       5
#     8   8   8   8   8
#     4  11  22  40  63  89 118 156 198 241 289 348
#     4  12  25  42  61  88 120 154 194 244 297 350
#     4  11  22  40  63  89 118 156 198 241 289 348
#     4  11  22  39  61  89 120 156 197 243 292 347
#     4  11  22  39  61  89 120 156 197 243 292 347
#
# _framework density 20.608135999999998
#
# number of rings (size 3 to 8) (size 9 to 14) (size 15 to 20)
#    0.000    0.800    0.000   12.000    0.000    1.600 
#    0.000    8.000    0.000    0.000    0.000    0.000 
#    0.000    0.000    0.000    0.000    0.000    0.000 
#
# Total GULP energy -496292.782169 kJ/mol
# GULP energy per Si atom -12407.319554 kJ/mol
# Density = 2.056123 g / cm^3
# Si number density = 20.608136 Si / 1000 Ang^3
#
#
#
# Elastic Constant Matrix: (Units=GPa)
#
#
# Indices 1 2 3 4 5 6 
#
# 1 73.2498 30.6007 -12.9159 0.0000 0.0000 0.0000
# 2 30.6007 71.7614 -6.9705 0.0000 0.0000 0.0000
# 3 -12.9159 -6.9705 113.8024 0.0000 0.0000 0.0000
# 4 0.0000 0.0000 0.0000 32.5800 0.0000 0.0000
# 5 0.0000 0.0000 0.0000 0.0000 38.5882 0.0000
# 6 0.0000 0.0000 0.0000 0.0000 0.0000 44.8813
#
#
#
# Elastic Compliance Matrix: (Units=1/GPa)
#
#
# Indices 1 2 3 4 5 6 
#
# 1 0.016856 -0.007044 0.001482 0.000000 0.000000 0.000000
# 2 -0.007044 0.016962 0.000240 0.000000 0.000000 0.000000
# 3 0.001482 0.000240 0.008970 0.000000 0.000000 0.000000
# 4 0.000000 0.000000 0.000000 0.030694 0.000000 0.000000
# 5 0.000000 0.000000 0.000000 0.000000 0.025915 0.000000
# 6 0.000000 0.000000 0.000000 0.000000 0.000000 0.022281
#
#
# Mechanical properties :
#
#
# Convention : Reuss Voigt Hill
#
# Bulk Modulus (GPa) = 31.11158 31.13801 31.12479
# Shear Modulus (GPa) = 34.95613 39.74985 37.35299
#
# Velocity S-wave (km/s) = 4.12300 4.39662 4.26201
# Velocity P-wave (km/s) = 6.14776 6.39657 6.27340
#
# Compressibility (1/GPa) = 0.03214237
#
# Stress axis : x y z
#
# Youngs Moduli (GPa) = 59.32695 58.95546 111.48290
#
# Poissons Ratio (x) = 0.41527 -0.16517
# Poissons Ratio (y) = 0.41788 -0.02670
# Poissons Ratio (z) = -0.08790 -0.01412
#
# Static dielectric constant tensor:
#      x y z
#    x 4.354780 0.000000 0.000000 
#    y 0.000000 5.213800 0.000000 
#    z 0.000000 0.000000 4.002460 
# 
# 
# High freq. dielectric constant tensor:
#      x y z
#    x 1.815660 0.000000 0.000000 
#    y 0.000000 1.796720 0.000000 
#    z 0.000000 0.000000 1.832100 
# 
# From -- ./inp_files/7741.got.cif
#   From: 2010.03.12/outbox.cif.g09.slc.cpg/sg60_4_cif.got.tgz:7741.got - 2010.04.10 18:46:24.
