data_PCOD8248572
_publ_section_title
;
Structure prediction by ZEFSAII (Michael W. Deem and Ramdas Pophale) SiO2 
 PCOD8248572
Probable space group: P B C N
;
_chemical_formula_sum "Si O2"
_cell_formula_units_Z 64
_cell_length_a 9.349862
_cell_length_b 10.462253
_cell_length_c 29.570474
_cell_angle_alpha 90.000000
_cell_angle_beta 90.000000
_cell_angle_gamma 90.000000
_cell_volume 2892.602152
_symmetry_space_group_name_H-M "P B C N"
_symmetry_group_IT_number 60
_symmetry_cell_setting 'orthorhombic'
loop_
_space_group_symop_operation_xyz
x,y,z
1/2-x,1/2-y,1/2+z
1/2+x,1/2-y,-z
-x,y,1/2-z
-x,-y,-z
1/2+x,1/2+y,1/2-z
1/2-x,1/2+y,z
x,-y,1/2+z
loop_
_atom_site_type_symbol
_atom_site_label
_atom_site_fract_x
_atom_site_fract_y
_atom_site_fract_z
Si Si1 0.882756 0.030938 0.463024
Si Si2 0.290067 0.701790 0.855938
Si Si3 0.916635 0.373112 0.995777
Si Si4 0.787951 0.741280 0.844116
Si Si5 0.142930 0.460650 0.807491
Si Si6 0.030768 0.763822 0.910238
Si Si7 0.438357 0.292409 0.086282
Si Si8 0.190245 0.483633 0.703501
O O1 0.751533 0.104245 0.486393
O O2 0.955035 0.104091 0.421542
O O3 0.839606 0.900254 0.437996
O O4 0.000000 0.000000 0.500000
O O5 0.220831 0.570575 0.837175
O O6 0.322504 0.812331 0.819256
O O7 0.187309 0.777161 0.890128
O O8 0.426820 0.657568 0.885149
O O9 0.989434 0.300316 0.953832
O O10 0.950345 0.307145 0.042647
O O11 0.000000 0.500000 0.000000
O O12 0.666573 0.780199 0.879972
O O13 0.744477 0.617273 0.814610
O O14 0.933525 0.703102 0.870329
O O15 0.793746 0.867651 0.812687
O O16 0.197863 0.486136 0.757322
O O17 0.972911 0.471633 0.812918
#
# Coordination Sequence:
#
# PCOD8248572 Si02
#       8
#     8   8   8   8   8   8   8   8
#     4  12  25  45  65  98 137 184 245 288 346 417
#     4  12  26  46  76 108 147 187 238 303 364 432
#     4  12  29  43  69  98 141 192 234 295 350 412
#     4  12  24  47  74 107 140 194 240 297 358 438
#     4  11  25  49  73 112 145 187 233 303 373 437
#     4  12  26  44  71 102 144 186 239 294 357 416
#     4  12  26  45  71 100 143 186 242 291 351 429
#     4  11  25  48  77 106 148 185 238 299 371 442
#
# _framework density 22.125408
#
# number of rings (size 3 to 8) (size 9 to 14) (size 15 to 20)
#    0.000    0.250    5.000    3.750    5.250    0.000 
#    0.000    1.250    0.000    0.000    0.000    0.000 
#    0.000    0.000    0.000    0.000    0.000    0.000 
#
# Total GULP energy -793219.236371 kJ/mol
# GULP energy per Si atom -12394.050568 kJ/mol
# Density = 2.207505 g / cm^3
# Si number density = 22.125408 Si / 1000 Ang^3
#
#
#
# Elastic Constant Matrix: (Units=GPa)
#
#
# Indices 1 2 3 4 5 6 
#
# 1 68.1637 3.7731 20.4682 0.0000 0.0000 0.0000
# 2 3.7731 121.0176 41.1534 0.0000 0.0000 0.0000
# 3 20.4682 41.1534 111.2788 0.0000 0.0000 0.0000
# 4 0.0000 0.0000 0.0000 21.8429 0.0000 0.0000
# 5 0.0000 0.0000 0.0000 0.0000 19.7587 0.0000
# 6 0.0000 0.0000 0.0000 0.0000 0.0000 36.0499
#
#
#
# Elastic Compliance Matrix: (Units=1/GPa)
#
#
# Indices 1 2 3 4 5 6 
#
# 1 0.015561 0.000558 -0.003069 0.000000 0.000000 0.000000
# 2 0.000558 0.009472 -0.003606 0.000000 0.000000 0.000000
# 3 -0.003069 -0.003606 0.010884 0.000000 0.000000 0.000000
# 4 0.000000 0.000000 0.000000 0.045781 0.000000 0.000000
# 5 0.000000 0.000000 0.000000 0.000000 0.050611 0.000000
# 6 0.000000 0.000000 0.000000 0.000000 0.000000 0.027739
#
#
# Mechanical properties :
#
#
# Convention : Reuss Voigt Hill
#
# Bulk Modulus (GPa) = 42.22004 47.91661 45.06833
# Shear Modulus (GPa) = 27.75062 31.20132 29.47597
#
# Velocity S-wave (km/s) = 3.54537 3.75934 3.65392
# Velocity P-wave (km/s) = 5.99025 6.36768 6.18185
#
# Compressibility (1/GPa) = 0.02368543
#
# Stress axis : x y z
#
# Youngs Moduli (GPa) = 64.26258 105.57430 91.87496
#
# Poissons Ratio (x) = -0.05895 0.28194
# Poissons Ratio (y) = -0.03588 0.33127
# Poissons Ratio (z) = 0.19721 0.38067
#
# Static dielectric constant tensor:
#      x y z
#    x 0.825850 0.000000 0.000000 
#    y 0.000000 4.037920 0.000000 
#    z 0.000000 0.000000 4.127770 
# 
# 
# High freq. dielectric constant tensor:
#      x y z
#    x 1.868220 0.000000 0.000000 
#    y 0.000000 1.879140 0.000000 
#    z 0.000000 0.000000 1.888890 
# 
# From -- ./inp_files/26022.got.cif
#   From: 2010.03.12/outbox.cif.g09.slc.cpg/sg60_14_cif.got.tgz:26022.got - 2010.04.10 18:46:24.
