data_PCOD8248628
_publ_section_title
;
Structure prediction by ZEFSAII (Michael W. Deem and Ramdas Pophale) SiO2 
 PCOD8248628
Probable space group: P B C N
;
_chemical_formula_sum "Si O2"
_cell_formula_units_Z 40
_cell_length_a 10.591505
_cell_length_b 16.628831
_cell_length_c 9.534560
_cell_angle_alpha 90.000000
_cell_angle_beta 90.000000
_cell_angle_gamma 90.000000
_cell_volume 1679.268151
_symmetry_space_group_name_H-M "P B C N"
_symmetry_group_IT_number 60
_symmetry_cell_setting 'orthorhombic'
loop_
_space_group_symop_operation_xyz
x,y,z
1/2-x,1/2-y,1/2+z
1/2+x,1/2-y,-z
-x,y,1/2-z
-x,-y,-z
1/2+x,1/2+y,1/2-z
1/2-x,1/2+y,z
x,-y,1/2+z
loop_
_atom_site_type_symbol
_atom_site_label
_atom_site_fract_x
_atom_site_fract_y
_atom_site_fract_z
Si Si1 0.274038 0.175012 0.008848
Si Si2 0.424531 0.038700 0.872590
Si Si3 0.495684 0.724585 0.902764
Si Si4 0.892359 0.942760 0.453577
Si Si5 0.263160 0.434617 0.752904
O O1 0.404689 0.225960 0.000790
O O2 0.234562 0.148104 0.165674
O O3 0.305939 0.093276 0.923081
O O4 0.150770 0.224135 0.955217
O O5 0.500000 0.087689 0.750000
O O6 0.378225 0.960158 0.788525
O O7 0.500000 0.000000 0.000000
O O8 0.500000 0.765646 0.750000
O O9 0.549031 0.635592 0.883658
O O10 0.825039 0.916791 0.597167
O O11 0.814335 0.989017 0.335273
O O12 0.000000 0.000000 0.500000
#
# Coordination Sequence:
#
# PCOD8248628 Si02
#       5
#     8   8   8   8   8
#     4  12  29  50  77 116 158 214 258 326 400 473
#     4  12  24  45  79 113 151 199 258 323 393 466
#     4  12  30  51  76 113 165 209 263 326 398 472
#     4  12  23  46  80 109 149 197 262 329 383 467
#     4  12  24  46  78 114 149 198 263 320 393 465
#
# _framework density 23.819901000000002
#
# number of rings (size 3 to 8) (size 9 to 14) (size 15 to 20)
#    0.000    0.000    6.000    3.000    5.600    3.200 
#    0.000    0.000    0.000    0.000    0.000    0.000 
#    0.000    0.000    0.000    0.000    0.000    0.000 
#
# Total GULP energy -495530.829460 kJ/mol
# GULP energy per Si atom -12388.270736 kJ/mol
# Density = 2.376569 g / cm^3
# Si number density = 23.819901 Si / 1000 Ang^3
#
#
#
# Elastic Constant Matrix: (Units=GPa)
#
#
# Indices 1 2 3 4 5 6 
#
# 1 161.8197 30.3321 49.1224 0.0000 0.0000 0.0000
# 2 30.3321 57.9463 4.0683 0.0000 0.0000 0.0000
# 3 49.1224 4.0683 116.5331 0.0000 0.0000 0.0000
# 4 0.0000 0.0000 0.0000 27.0887 0.0000 0.0000
# 5 0.0000 0.0000 0.0000 0.0000 41.8414 0.0000
# 6 0.0000 0.0000 0.0000 0.0000 0.0000 50.9934
#
#
#
# Elastic Compliance Matrix: (Units=1/GPa)
#
#
# Indices 1 2 3 4 5 6 
#
# 1 0.007877 -0.003900 -0.003184 0.000000 0.000000 0.000000
# 2 -0.003900 0.019230 0.000973 0.000000 0.000000 0.000000
# 3 -0.003184 0.000973 0.009890 0.000000 0.000000 0.000000
# 4 0.000000 0.000000 0.000000 0.036916 0.000000 0.000000
# 5 0.000000 0.000000 0.000000 0.000000 0.023900 0.000000
# 6 0.000000 0.000000 0.000000 0.000000 0.000000 0.019610
#
#
# Mechanical properties :
#
#
# Convention : Reuss Voigt Hill
#
# Bulk Modulus (GPa) = 40.36483 55.92719 48.14601
# Shear Modulus (GPa) = 36.25689 40.83646 38.54667
#
# Velocity S-wave (km/s) = 3.90568 4.14500 4.02712
# Velocity P-wave (km/s) = 6.10915 6.81456 6.47147
#
# Compressibility (1/GPa) = 0.02477404
#
# Stress axis : x y z
#
# Youngs Moduli (GPa) = 126.94552 52.00080 101.11600
#
# Poissons Ratio (x) = 0.20280 0.32200
# Poissons Ratio (y) = 0.49507 -0.09834
# Poissons Ratio (z) = 0.40425 -0.05057
#
# Static dielectric constant tensor:
#      x y z
#    x 4.482750 0.000000 0.000000 
#    y 0.000000 4.076030 0.000000 
#    z 0.000000 0.000000 4.551250 
# 
# 
# High freq. dielectric constant tensor:
#      x y z
#    x 1.959210 0.000000 0.000000 
#    y 0.000000 1.926710 0.000000 
#    z 0.000000 0.000000 1.965790 
# 
# From -- ./inp_files/4744.got.cif
#   From: 2010.03.12/outbox.cif.g09.slc.cpg/sg60_3_cif.got.tgz:4744.got - 2010.04.10 18:46:24.
