data_PCOD8248494
_publ_section_title
;
Structure prediction by ZEFSAII (Michael W. Deem and Ramdas Pophale) SiO2 
 PCOD8248494
Probable space group: P B C N
;
_chemical_formula_sum "Si O2"
_cell_formula_units_Z 52
_cell_length_a 21.482374
_cell_length_b 8.074164
_cell_length_c 11.290146
_cell_angle_alpha 90.000000
_cell_angle_beta 90.000000
_cell_angle_gamma 90.000000
_cell_volume 1958.300784
_symmetry_space_group_name_H-M "P B C N"
_symmetry_group_IT_number 60
_symmetry_cell_setting 'orthorhombic'
loop_
_space_group_symop_operation_xyz
x,y,z
1/2-x,1/2-y,1/2+z
1/2+x,1/2-y,-z
-x,y,1/2-z
-x,-y,-z
1/2+x,1/2+y,1/2-z
1/2-x,1/2+y,z
x,-y,1/2+z
loop_
_atom_site_type_symbol
_atom_site_label
_atom_site_fract_x
_atom_site_fract_y
_atom_site_fract_z
Si Si1 0.169130 0.752699 0.676078
Si Si2 0.544731 0.341751 0.958593
Si Si3 0.414740 0.832881 0.815435
Si Si4 0.237901 0.013290 0.567384
Si Si5 0.000000 0.371490 0.250000
Si Si6 0.606407 0.327792 0.425546
Si Si7 0.838450 0.410182 0.083869
O O1 0.112853 0.824328 0.598959
O O2 0.198804 0.598704 0.609194
O O3 0.150870 0.716909 0.809026
O O4 0.221292 0.895290 0.677398
O O5 0.499806 0.248810 0.865423
O O6 0.547515 0.550857 0.969502
O O7 0.539938 0.255671 0.088294
O O8 0.399746 0.696565 0.715494
O O9 0.442075 0.002155 0.757870
O O10 0.352893 0.898211 0.880504
O O11 0.175995 0.114344 0.533527
O O12 0.265642 0.906428 0.456945
O O13 0.607468 0.149143 0.489852
#
# Coordination Sequence:
#
# PCOD8248494 Si02
#       7
#     8   8   8   8   4   8   8
#     4  11  24  40  67 103 147 192 251 299 369 453
#     4  11  26  48  76 110 148 192 250 318 378 445
#     4  12  26  50  81 105 154 196 257 310 379 458
#     4  11  24  41  66 109 147 200 246 293 381 445
#     4  12  26  52  80 120 138 202 254 318 394 446
#     4  11  28  46  71 115 153 193 253 306 376 457
#     4  12  24  45  70 102 154 199 250 313 365 456
#
# _framework density 26.553633000000001
#
# number of rings (size 3 to 8) (size 9 to 14) (size 15 to 20)
#    0.000    0.615    4.615    2.308    6.462    1.846 
#    0.000    2.308    0.000    0.000    0.000    0.000 
#    0.000    0.000    0.000    0.000    0.000    0.000 
#
# Total GULP energy -644320.295626 kJ/mol
# GULP energy per Si atom -12390.774916 kJ/mol
# Density = 2.649320 g / cm^3
# Si number density = 26.553633 Si / 1000 Ang^3
#
#
#
# Elastic Constant Matrix: (Units=GPa)
#
#
# Indices 1 2 3 4 5 6 
#
# 1 56.9551 3.8585 -13.6003 0.0000 0.0000 0.0000
# 2 3.8585 91.9077 11.5165 0.0000 0.0000 0.0000
# 3 -13.6003 11.5165 87.2757 0.0000 0.0000 0.0000
# 4 0.0000 0.0000 0.0000 54.1232 0.0000 0.0000
# 5 0.0000 0.0000 0.0000 0.0000 35.0840 0.0000
# 6 0.0000 0.0000 0.0000 0.0000 0.0000 17.2966
#
#
#
# Elastic Compliance Matrix: (Units=1/GPa)
#
#
# Indices 1 2 3 4 5 6 
#
# 1 0.018355 -0.001148 0.003012 0.000000 0.000000 0.000000
# 2 -0.001148 0.011135 -0.001648 0.000000 0.000000 0.000000
# 3 0.003012 -0.001648 0.012145 0.000000 0.000000 0.000000
# 4 0.000000 0.000000 0.000000 0.018476 0.000000 0.000000
# 5 0.000000 0.000000 0.000000 0.000000 0.028503 0.000000
# 6 0.000000 0.000000 0.000000 0.000000 0.000000 0.057815
#
#
# Mechanical properties :
#
#
# Convention : Reuss Voigt Hill
#
# Bulk Modulus (GPa) = 23.77237 26.63197 25.20217
# Shear Modulus (GPa) = 31.24620 36.92503 34.08561
#
# Velocity S-wave (km/s) = 3.43406 3.73310 3.58670
# Velocity P-wave (km/s) = 4.96948 5.35095 5.16373
#
# Compressibility (1/GPa) = 0.04206565
#
# Stress axis : x y z
#
# Youngs Moduli (GPa) = 54.48216 89.80523 82.34007
#
# Poissons Ratio (x) = 0.10309 -0.24798
# Poissons Ratio (y) = 0.06254 0.13572
# Poissons Ratio (z) = -0.16408 0.14802
#
# Static dielectric constant tensor:
#      x y z
#    x 5.126350 0.000000 0.000000 
#    y 0.000000 5.550700 0.000000 
#    z 0.000000 0.000000 4.802370 
# 
# 
# High freq. dielectric constant tensor:
#      x y z
#    x 2.083090 0.000000 0.000000 
#    y 0.000000 2.082840 0.000000 
#    z 0.000000 0.000000 2.061240 
# 
# From -- ./inp_files/13259.got.cif
#   From: 2010.03.12/outbox.cif.g09.slc.cpg/sg60_7_cif.got.tgz:13259.got - 2010.04.10 18:46:24.
