data_PCOD8248992
_publ_section_title
;
Structure prediction by ZEFSAII (Michael W. Deem and Ramdas Pophale) SiO2 
 PCOD8248992
Probable space group: P B C A
;
_chemical_formula_sum "Si O2"
_cell_formula_units_Z 64
_cell_length_a 17.408558
_cell_length_b 14.416375
_cell_length_c 13.447374
_cell_angle_alpha 90.000000
_cell_angle_beta 90.000000
_cell_angle_gamma 90.000000
_cell_volume 3374.864597
_symmetry_space_group_name_H-M "P B C A"
_symmetry_group_IT_number 61
_symmetry_cell_setting 'orthorhombic'
loop_
_space_group_symop_operation_xyz
x,y,z
1/2-x,-y,1/2+z
1/2+x,1/2-y,-z
-x,1/2+y,1/2-z
-x,-y,-z
1/2+x,y,1/2-z
1/2-x,1/2+y,z
x,1/2-y,1/2+z
loop_
_atom_site_type_symbol
_atom_site_label
_atom_site_fract_x
_atom_site_fract_y
_atom_site_fract_z
Si Si1 0.425852 0.346234 0.342163
Si Si2 0.418757 0.254588 0.141594
Si Si3 0.169022 0.003984 0.254381
Si Si4 0.952278 0.715389 0.993406
Si Si5 0.733616 0.850365 0.369141
Si Si6 0.171760 0.077024 0.458907
Si Si7 0.669967 0.878810 0.977996
Si Si8 0.176368 0.174658 0.113855
O O1 0.434857 0.265035 0.259526
O O2 0.407921 0.445119 0.286493
O O3 0.503074 0.343170 0.407921
O O4 0.355170 0.327416 0.418785
O O5 0.493979 0.267732 0.073412
O O6 0.355983 0.331453 0.111956
O O7 0.379130 0.156152 0.116946
O O8 0.206692 0.048762 0.352598
O O9 0.148822 0.090398 0.183627
O O10 0.235014 0.937401 0.206742
O O11 0.902628 0.641329 0.054881
O O12 0.899600 0.793472 0.943359
O O13 0.764051 0.870403 0.478778
O O14 0.783381 0.762287 0.327422
O O15 0.147167 0.985802 0.518831
O O16 0.760745 0.863101 0.964673
#
# Coordination Sequence:
#
# PCOD8248992 Si02
#       8
#     8   8   8   8   8   8   8   8
#     4   9  20  38  59  83 124 157 195 246 305 356
#     4   9  19  37  56  83 116 162 187 238 303 355
#     4  10  20  37  62  85 116 162 192 243 309 355
#     4  10  22  38  57  89 123 155 207 248 292 362
#     4   9  19  40  56  84 127 144 197 258 289 353
#     4  10  20  37  60  88 115 154 201 253 299 352
#     4   9  18  37  61  83 112 156 197 252 300 347
#     4  10  20  38  61  87 119 158 202 250 296 360
#
# _framework density 18.963723999999999
#
# number of rings (size 3 to 8) (size 9 to 14) (size 15 to 20)
#    0.000    2.500    1.250    0.000    1.750    4.500 
#   33.750    2.500    2.750    0.000    0.000    0.000 
#    0.000    0.000    0.000    0.000    0.000    0.000 
#
# Total GULP energy -792838.061971 kJ/mol
# GULP energy per Si atom -12388.094718 kJ/mol
# Density = 1.892056 g / cm^3
# Si number density = 18.963724 Si / 1000 Ang^3
#
#
#
# Elastic Constant Matrix: (Units=GPa)
#
#
# Indices 1 2 3 4 5 6 
#
# 1 85.6451 18.9060 41.0811 0.0000 0.0000 0.0000
# 2 18.9060 88.9348 45.9998 0.0000 0.0000 0.0000
# 3 41.0811 45.9998 94.5823 0.0000 0.0000 0.0000
# 4 0.0000 0.0000 0.0000 31.8833 0.0000 0.0000
# 5 0.0000 0.0000 0.0000 0.0000 22.2683 0.0000
# 6 0.0000 0.0000 0.0000 0.0000 0.0000 16.2638
#
#
#
# Elastic Compliance Matrix: (Units=1/GPa)
#
#
# Indices 1 2 3 4 5 6 
#
# 1 0.014753 0.000238 -0.006523 0.000000 0.000000 0.000000
# 2 0.000238 0.015027 -0.007412 0.000000 0.000000 0.000000
# 3 -0.006523 -0.007412 0.017011 0.000000 0.000000 0.000000
# 4 0.000000 0.000000 0.000000 0.031364 0.000000 0.000000
# 5 0.000000 0.000000 0.000000 0.000000 0.044907 0.000000
# 6 0.000000 0.000000 0.000000 0.000000 0.000000 0.061486
#
#
# Mechanical properties :
#
#
# Convention : Reuss Voigt Hill
#
# Bulk Modulus (GPa) = 51.55638 53.45954 52.50796
# Shear Modulus (GPa) = 22.89290 24.96142 23.92716
#
# Velocity S-wave (km/s) = 3.47824 3.63198 3.55594
# Velocity P-wave (km/s) = 6.58610 6.77053 6.67895
#
# Compressibility (1/GPa) = 0.01939624
#
# Stress axis : x y z
#
# Youngs Moduli (GPa) = 67.78452 66.54592 58.78585
#
# Poissons Ratio (x) = -0.01584 0.38348
# Poissons Ratio (y) = -0.01613 0.43571
# Poissons Ratio (z) = 0.44219 0.49322
#
# Static dielectric constant tensor:
#      x y z
#    x 3.397970 0.000000 0.000000 
#    y 0.000000 3.709950 0.000000 
#    z 0.000000 0.000000 3.611200 
# 
# 
# High freq. dielectric constant tensor:
#      x y z
#    x 1.720950 0.000000 0.000000 
#    y 0.000000 1.737660 0.000000 
#    z 0.000000 0.000000 1.732580 
# 
# From -- ./inp_files/6293.got.cif
#   From: 2010.03.12/outbox.cif.g09.slc.cpg/sg61_4_cif.got.tgz:6293.got - 2010.04.10 19:05:03.
