data_PCOD8248735
_publ_section_title
;
Structure prediction by ZEFSAII (Michael W. Deem and Ramdas Pophale) SiO2 
 PCOD8248735
Probable space group: P B C A
;
_chemical_formula_sum "Si O2"
_cell_formula_units_Z 40
_cell_length_a 11.968009
_cell_length_b 23.449772
_cell_length_c 5.087386
_cell_angle_alpha 90.000000
_cell_angle_beta 90.000000
_cell_angle_gamma 90.000000
_cell_volume 1427.760038
_symmetry_space_group_name_H-M "P B C A"
_symmetry_group_IT_number 61
_symmetry_cell_setting 'orthorhombic'
loop_
_space_group_symop_operation_xyz
x,y,z
1/2-x,-y,1/2+z
1/2+x,1/2-y,-z
-x,1/2+y,1/2-z
-x,-y,-z
1/2+x,y,1/2-z
1/2-x,1/2+y,z
x,1/2-y,1/2+z
loop_
_atom_site_type_symbol
_atom_site_label
_atom_site_fract_x
_atom_site_fract_y
_atom_site_fract_z
Si Si1 0.594695 0.046058 0.448674
Si Si2 0.022136 0.214531 0.586051
Si Si3 0.867189 0.003325 0.445991
Si Si4 0.084291 0.622588 0.243375
Si Si5 0.217369 0.713598 0.546053
O O1 0.534007 0.105473 0.383940
O O2 0.500000 0.000000 0.500000
O O3 0.666772 0.043399 0.717622
O O4 0.681371 0.021577 0.224037
O O5 0.992804 0.231979 0.888605
O O6 0.949297 0.159916 0.509288
O O7 0.151462 0.200858 0.541550
O O8 0.843515 0.069424 0.369501
O O9 0.000000 0.000000 0.500000
O O10 0.158819 0.655082 0.458525
O O11 0.184606 0.735347 0.840244
#
# Coordination Sequence:
#
# PCOD8248735 Si02
#       5
#     8   8   8   8   8
#     4   8  16  28  45  72  99 120 154 202 237 278
#     4  10  22  36  49  73 103 127 164 210 241 282
#     4   8  16  28  45  72  99 120 154 202 237 278
#     4  10  18  32  58  72  94 138 166 188 250 302
#     4  10  22  36  49  73 103 127 164 210 241 282
#
# _framework density 28.015910000000002
#
# number of rings (size 3 to 8) (size 9 to 14) (size 15 to 20)
#    0.000    3.200    0.000    1.200    0.000   12.800 
#    0.000    0.000    0.000   21.600    0.000    0.000 
#    0.000    0.000    0.000    0.000    0.000    0.000 
#
# Total GULP energy -495667.291597 kJ/mol
# GULP energy per Si atom -12391.682290 kJ/mol
# Density = 2.795214 g / cm^3
# Si number density = 28.015910 Si / 1000 Ang^3
#
#
#
# Elastic Constant Matrix: (Units=GPa)
#
#
# Indices 1 2 3 4 5 6 
#
# 1 70.3406 30.7929 15.0819 0.0000 0.0000 0.0000
# 2 30.7929 132.0213 64.5665 0.0000 0.0000 0.0000
# 3 15.0819 64.5665 244.9771 0.0000 0.0000 0.0000
# 4 0.0000 0.0000 0.0000 24.1085 0.0000 0.0000
# 5 0.0000 0.0000 0.0000 0.0000 5.5681 0.0000
# 6 0.0000 0.0000 0.0000 0.0000 0.0000 48.6130
#
#
#
# Elastic Compliance Matrix: (Units=1/GPa)
#
#
# Indices 1 2 3 4 5 6 
#
# 1 0.015833 -0.003692 -0.000002 0.000000 0.000000 0.000000
# 2 -0.003692 0.009556 -0.002291 0.000000 0.000000 0.000000
# 3 -0.000002 -0.002291 0.004686 0.000000 0.000000 0.000000
# 4 0.000000 0.000000 0.000000 0.041479 0.000000 0.000000
# 5 0.000000 0.000000 0.000000 0.000000 0.179593 0.000000
# 6 0.000000 0.000000 0.000000 0.000000 0.000000 0.020571
#
#
# Mechanical properties :
#
#
# Convention : Reuss Voigt Hill
#
# Bulk Modulus (GPa) = 55.23274 74.24684 64.73979
# Shear Modulus (GPa) = 17.25780 38.11777 27.68778
#
# Velocity S-wave (km/s) = 2.48463 3.69260 3.14712
# Velocity P-wave (km/s) = 5.29044 6.68877 6.03027
#
# Compressibility (1/GPa) = 0.01810520
#
# Stress axis : x y z
#
# Youngs Moduli (GPa) = 63.15836 104.64282 213.40020
#
# Poissons Ratio (x) = 0.38636 0.00035
# Poissons Ratio (y) = 0.23319 0.48898
# Poissons Ratio (z) = 0.00010 0.23978
#
# Static dielectric constant tensor:
#      x y z
#    x 5.096800 0.000000 0.000000 
#    y 0.000000 4.833060 0.000000 
#    z 0.000000 0.000000 1.092200 
# 
# 
# High freq. dielectric constant tensor:
#      x y z
#    x 2.175570 0.000000 0.000000 
#    y 0.000000 2.104370 0.000000 
#    z 0.000000 0.000000 2.157880 
# 
# From -- ./inp_files/433.got.cif
#   From: 2010.03.12/outbox.cif.g09.slc.cpg/sg61_1_cif.got.tgz:433.got - 2010.04.10 19:05:03.
