data_PCOD8248075
_publ_section_title
;
Structure prediction by ZEFSAII (Michael W. Deem and Ramdas Pophale) SiO2 
 PCOD8248075
Probable space group: P B C N
;
_chemical_formula_sum "Si O2"
_cell_formula_units_Z 56
_cell_length_a 5.469293
_cell_length_b 14.590771
_cell_length_c 26.880096
_cell_angle_alpha 90.000000
_cell_angle_beta 90.000000
_cell_angle_gamma 90.000000
_cell_volume 2145.063962
_symmetry_space_group_name_H-M "P B C N"
_symmetry_group_IT_number 60
_symmetry_cell_setting 'orthorhombic'
loop_
_space_group_symop_operation_xyz
x,y,z
1/2-x,1/2-y,1/2+z
1/2+x,1/2-y,-z
-x,y,1/2-z
-x,-y,-z
1/2+x,1/2+y,1/2-z
1/2-x,1/2+y,z
x,-y,1/2+z
loop_
_atom_site_type_symbol
_atom_site_label
_atom_site_fract_x
_atom_site_fract_y
_atom_site_fract_z
Si Si1 0.588146 0.927279 0.881329
Si Si2 0.047210 0.068165 0.616295
Si Si3 0.759395 0.499836 0.701824
Si Si4 0.500000 0.160812 0.750000
Si Si5 0.321018 0.360750 0.475890
Si Si6 0.000000 0.649797 0.250000
Si Si7 0.278909 0.249366 0.165507
Si Si8 0.677311 0.855127 0.530523
O O1 0.763575 0.838117 0.870744
O O2 0.353595 0.897565 0.914391
O O3 0.500178 0.976270 0.830736
O O4 0.749078 0.004148 0.909587
O O5 0.968540 0.011780 0.665424
O O6 0.829991 0.085713 0.576845
O O7 0.155848 0.166530 0.630369
O O8 0.779434 0.594544 0.732662
O O9 0.756824 0.415570 0.741679
O O10 0.443052 0.224402 0.702290
O O11 0.324800 0.253514 0.465314
O O12 0.065691 0.389384 0.500909
O O13 0.565719 0.389008 0.507188
O O14 0.004823 0.716334 0.202244
#
# Coordination Sequence:
#
# PCOD8248075 Si02
#       8
#     8   8   8   4   8   4   8   8
#     4  11  25  45  67 107 142 175 249 290 360 430
#     4  12  25  44  71 104 138 188 237 296 366 431
#     4  10  24  43  66 100 139 182 235 306 340 441
#     4  11  22  44  67  96 138 190 243 288 369 424
#     4  10  24  45  75 104 145 193 241 296 371 442
#     4   9  22  44  63  98 140 180 243 278 359 422
#     4  11  23  44  68 100 135 191 226 295 356 434
#     4  10  23  47  72 106 146 191 240 301 363 448
#
# _framework density 26.106448
#
# number of rings (size 3 to 8) (size 9 to 14) (size 15 to 20)
#    0.000    1.429    2.857    0.857    6.000    1.143 
#    2.571    0.000    0.000    0.000    0.000    0.000 
#    0.000    0.000    0.000    0.000    0.000    0.000 
#
# Total GULP energy -693833.619588 kJ/mol
# GULP energy per Si atom -12389.886064 kJ/mol
# Density = 2.604703 g / cm^3
# Si number density = 26.106448 Si / 1000 Ang^3
#
#
#
# Elastic Constant Matrix: (Units=GPa)
#
#
# Indices 1 2 3 4 5 6 
#
# 1 72.1611 26.7453 2.5715 0.0000 0.0000 0.0000
# 2 26.7453 127.4774 23.7521 0.0000 0.0000 0.0000
# 3 2.5715 23.7521 75.9225 0.0000 0.0000 0.0000
# 4 0.0000 0.0000 0.0000 11.8086 0.0000 0.0000
# 5 0.0000 0.0000 0.0000 0.0000 40.5943 0.0000
# 6 0.0000 0.0000 0.0000 0.0000 0.0000 25.8647
#
#
#
# Elastic Compliance Matrix: (Units=1/GPa)
#
#
# Indices 1 2 3 4 5 6 
#
# 1 0.015045 -0.003251 0.000507 0.000000 0.000000 0.000000
# 2 -0.003251 0.009033 -0.002716 0.000000 0.000000 0.000000
# 3 0.000507 -0.002716 0.014004 0.000000 0.000000 0.000000
# 4 0.000000 0.000000 0.000000 0.084684 0.000000 0.000000
# 5 0.000000 0.000000 0.000000 0.000000 0.024634 0.000000
# 6 0.000000 0.000000 0.000000 0.000000 0.000000 0.038663
#
#
# Mechanical properties :
#
#
# Convention : Reuss Voigt Hill
#
# Bulk Modulus (GPa) = 36.81529 42.41098 39.61313
# Shear Modulus (GPa) = 24.26778 30.48634 27.37706
#
# Velocity S-wave (km/s) = 3.05219 3.42097 3.24183
# Velocity P-wave (km/s) = 5.15304 5.64666 5.40548
#
# Compressibility (1/GPa) = 0.02716263
#
# Stress axis : x y z
#
# Youngs Moduli (GPa) = 66.46846 110.71007 71.40952
#
# Poissons Ratio (x) = 0.35992 -0.03624
# Poissons Ratio (y) = 0.21609 0.19393
# Poissons Ratio (z) = -0.03373 0.30066
#
# Static dielectric constant tensor:
#      x y z
#    x 4.239870 0.000000 0.000000 
#    y 0.000000 5.069460 0.000000 
#    z 0.000000 0.000000 4.811120 
# 
# 
# High freq. dielectric constant tensor:
#      x y z
#    x 2.012240 0.000000 0.000000 
#    y 0.000000 2.067570 0.000000 
#    z 0.000000 0.000000 2.050390 
# 
# From -- ./inp_files/25730.got.cif
#   From: 2010.03.12/outbox.cif.g09.slc.cpg/sg60_13_cif.got.tgz:25730.got - 2010.04.10 18:46:24.
