data_PCOD8248841
_publ_section_title
;
Structure prediction by ZEFSAII (Michael W. Deem and Ramdas Pophale) SiO2 
 PCOD8248841
Probable space group: P B C A
;
_chemical_formula_sum "Si O2"
_cell_formula_units_Z 40
_cell_length_a 17.958724
_cell_length_b 13.306945
_cell_length_c 9.637467
_cell_angle_alpha 90.000000
_cell_angle_beta 90.000000
_cell_angle_gamma 90.000000
_cell_volume 2303.120929
_symmetry_space_group_name_H-M "P B C A"
_symmetry_group_IT_number 61
_symmetry_cell_setting 'orthorhombic'
loop_
_space_group_symop_operation_xyz
x,y,z
1/2-x,-y,1/2+z
1/2+x,1/2-y,-z
-x,1/2+y,1/2-z
-x,-y,-z
1/2+x,y,1/2-z
1/2-x,1/2+y,z
x,1/2-y,1/2+z
loop_
_atom_site_type_symbol
_atom_site_label
_atom_site_fract_x
_atom_site_fract_y
_atom_site_fract_z
Si Si1 0.447554 0.855365 0.567123
Si Si2 0.630153 0.258443 0.678876
Si Si3 0.601634 0.557115 0.058058
Si Si4 0.683172 0.448887 0.273596
Si Si5 0.235800 0.072674 0.433423
O O1 0.425203 0.814780 0.717215
O O2 0.418140 0.780905 0.449339
O O3 0.537451 0.859275 0.558673
O O4 0.415806 0.967901 0.550897
O O5 0.673810 0.170268 0.757633
O O6 0.693470 0.332524 0.626249
O O7 0.610228 0.506463 0.212405
O O8 0.680908 0.607620 0.016855
O O9 0.692737 0.474943 0.435280
O O10 0.755221 0.486293 0.184266
#
# Coordination Sequence:
#
# PCOD8248841 Si02
#       5
#     8   8   8   8   8
#     4  10  19  39  56  81 115 159 184 240 294 349
#     4  11  20  34  62  82 117 152 198 233 292 349
#     4   8  20  36  59  77 120 149 190 236 298 336
#     4   9  20  35  57  87 113 149 191 240 291 338
#     4  10  19  36  59  86 111 153 193 244 281 347
#
# _framework density 17.367737000000002
#
# number of rings (size 3 to 8) (size 9 to 14) (size 15 to 20)
#    1.200    1.200    2.000    1.200    0.000    0.000 
#    3.600    1.000    0.000    0.000    0.000    0.000 
#    0.000    0.000    0.000    0.000    0.000    0.000 
#
# Total GULP energy -495664.175456 kJ/mol
# GULP energy per Si atom -12391.604386 kJ/mol
# Density = 1.732821 g / cm^3
# Si number density = 17.367737 Si / 1000 Ang^3
#
#
#
# Elastic Constant Matrix: (Units=GPa)
#
#
# Indices 1 2 3 4 5 6 
#
# 1 93.7659 44.2508 21.2700 0.0000 0.0000 0.0000
# 2 44.2508 72.3355 28.5617 0.0000 0.0000 0.0000
# 3 21.2700 28.5617 73.0757 0.0000 0.0000 0.0000
# 4 0.0000 0.0000 0.0000 21.5769 0.0000 0.0000
# 5 0.0000 0.0000 0.0000 0.0000 23.8042 0.0000
# 6 0.0000 0.0000 0.0000 0.0000 0.0000 37.6899
#
#
#
# Elastic Compliance Matrix: (Units=1/GPa)
#
#
# Indices 1 2 3 4 5 6 
#
# 1 0.015046 -0.008839 -0.000925 0.000000 0.000000 0.000000
# 2 -0.008839 0.021540 -0.005846 0.000000 0.000000 0.000000
# 3 -0.000925 -0.005846 0.016239 0.000000 0.000000 0.000000
# 4 0.000000 0.000000 0.000000 0.046346 0.000000 0.000000
# 5 0.000000 0.000000 0.000000 0.000000 0.042009 0.000000
# 6 0.000000 0.000000 0.000000 0.000000 0.000000 0.026532
#
#
# Mechanical properties :
#
#
# Convention : Reuss Voigt Hill
#
# Bulk Modulus (GPa) = 46.28612 47.48245 46.88429
# Shear Modulus (GPa) = 24.25605 26.28716 25.27160
#
# Velocity S-wave (km/s) = 3.74119 3.89467 3.81870
# Velocity P-wave (km/s) = 6.73576 6.90098 6.81887
#
# Compressibility (1/GPa) = 0.02160475
#
# Stress axis : x y z
#
# Youngs Moduli (GPa) = 66.46239 46.42483 61.58185
#
# Poissons Ratio (x) = 0.41036 0.05694
# Poissons Ratio (y) = 0.58748 0.36002
# Poissons Ratio (z) = 0.06145 0.27141
#
# Static dielectric constant tensor:
#      x y z
#    x 3.172570 0.000000 0.000000 
#    y 0.000000 3.066810 0.000000 
#    z 0.000000 0.000000 3.193240 
# 
# 
# High freq. dielectric constant tensor:
#      x y z
#    x 1.661930 0.000000 0.000000 
#    y 0.000000 1.655120 0.000000 
#    z 0.000000 0.000000 1.671350 
# 
# From -- ./inp_files/3346.got.cif
#   From: 2010.03.12/outbox.cif.g09.slc.cpg/sg61_2_cif.got.tgz:3346.got - 2010.04.10 19:05:03.
