data_PCOD8248809
_publ_section_title
;
Structure prediction by ZEFSAII (Michael W. Deem and Ramdas Pophale) SiO2 
 PCOD8248809
Probable space group: P B C A
;
_chemical_formula_sum "Si O2"
_cell_formula_units_Z 48
_cell_length_a 29.177022
_cell_length_b 16.766295
_cell_length_c 5.068362
_cell_angle_alpha 90.000000
_cell_angle_beta 90.000000
_cell_angle_gamma 90.000000
_cell_volume 2479.394835
_symmetry_space_group_name_H-M "P B C A"
_symmetry_group_IT_number 61
_symmetry_cell_setting 'orthorhombic'
loop_
_space_group_symop_operation_xyz
x,y,z
1/2-x,-y,1/2+z
1/2+x,1/2-y,-z
-x,1/2+y,1/2-z
-x,-y,-z
1/2+x,y,1/2-z
1/2-x,1/2+y,z
x,1/2-y,1/2+z
loop_
_atom_site_type_symbol
_atom_site_label
_atom_site_fract_x
_atom_site_fract_y
_atom_site_fract_z
Si Si1 0.336051 0.592401 0.190324
Si Si2 0.978808 0.199936 0.218917
Si Si3 0.576933 0.196054 0.382864
Si Si4 0.809751 0.064343 0.032468
Si Si5 0.282662 0.585656 0.701444
Si Si6 0.619288 0.803810 0.616530
O O1 0.386539 0.626842 0.159068
O O2 0.316532 0.615809 0.473355
O O3 0.338953 0.496167 0.153191
O O4 0.300903 0.628132 0.968574
O O5 0.978718 0.221759 0.528476
O O6 0.931124 0.154465 0.151037
O O7 0.026456 0.154470 0.151176
O O8 0.582799 0.232601 0.673157
O O9 0.842589 0.129269 0.162860
O O10 0.785615 0.011652 0.265209
O O11 0.769743 0.108093 0.864198
O O12 0.625190 0.767170 0.326344
#
# Coordination Sequence:
#
# PCOD8248809 Si02
#       6
#     8   8   8   8   8   8
#     4  10  20  34  54  80 102 142 182 215 253 329
#     4   8  16  33  52  74 104 143 172 208 271 326
#     4  10  19  34  56  78 109 142 178 220 268 315
#     4  10  21  37  59  74 107 148 180 209 271 323
#     4  10  20  35  58  70 105 141 183 201 266 326
#     4  10  22  35  56  83 107 134 181 229 262 304
#
# _framework density 19.359565
#
# number of rings (size 3 to 8) (size 9 to 14) (size 15 to 20)
#    1.000    1.333    1.667    1.000    2.333    0.000 
#    0.000    5.833    0.000    1.000    0.000    0.000 
#    0.000    0.000    0.000    0.000    0.000    0.000 
#
# Total GULP energy -594669.711429 kJ/mol
# GULP energy per Si atom -12388.952321 kJ/mol
# Density = 1.931550 g / cm^3
# Si number density = 19.359565 Si / 1000 Ang^3
#
#
#
# Elastic Constant Matrix: (Units=GPa)
#
#
# Indices 1 2 3 4 5 6 
#
# 1 147.8212 34.9881 12.7696 0.0000 0.0000 0.0000
# 2 34.9881 25.7729 0.2563 0.0000 0.0000 0.0000
# 3 12.7696 0.2563 91.7259 0.0000 0.0000 0.0000
# 4 0.0000 0.0000 0.0000 16.6958 0.0000 0.0000
# 5 0.0000 0.0000 0.0000 0.0000 26.1338 0.0000
# 6 0.0000 0.0000 0.0000 0.0000 0.0000 25.5184
#
#
#
# Elastic Compliance Matrix: (Units=1/GPa)
#
#
# Indices 1 2 3 4 5 6 
#
# 1 0.010138 -0.013749 -0.001373 0.000000 0.000000 0.000000
# 2 -0.013749 0.057448 0.001754 0.000000 0.000000 0.000000
# 3 -0.001373 0.001754 0.011088 0.000000 0.000000 0.000000
# 4 0.000000 0.000000 0.000000 0.059895 0.000000 0.000000
# 5 0.000000 0.000000 0.000000 0.000000 0.038265 0.000000
# 6 0.000000 0.000000 0.000000 0.000000 0.000000 0.039187
#
#
# Mechanical properties :
#
#
# Convention : Reuss Voigt Hill
#
# Bulk Modulus (GPa) = 19.25394 40.14978 29.70186
# Shear Modulus (GPa) = 19.22552 28.15664 23.69108
#
# Velocity S-wave (km/s) = 3.15473 3.81780 3.50200
# Velocity P-wave (km/s) = 4.82046 6.34178 5.63272
#
# Compressibility (1/GPa) = 0.05193741
#
# Stress axis : x y z
#
# Youngs Moduli (GPa) = 98.64056 17.40701 90.18535
#
# Poissons Ratio (x) = 0.23933 0.12382
# Poissons Ratio (y) = 1.35621 -0.15814
# Poissons Ratio (z) = 0.13542 -0.03052
#
# Static dielectric constant tensor:
#      x y z
#    x 3.751190 0.000000 0.000000 
#    y 0.000000 2.825890 0.000000 
#    z 0.000000 0.000000 3.626210 
# 
# 
# High freq. dielectric constant tensor:
#      x y z
#    x 1.772360 0.000000 0.000000 
#    y 0.000000 1.674840 0.000000 
#    z 0.000000 0.000000 1.771990 
# 
# From -- ./inp_files/1177.got.cif
#   From: 2010.03.12/outbox.cif.g09.slc.cpg/sg61_1_cif.got.tgz:1177.got - 2010.04.10 19:05:03.
