data_PCOD8248200
_publ_section_title
;
Structure prediction by ZEFSAII (Michael W. Deem and Ramdas Pophale) SiO2 
 PCOD8248200
Probable space group: P B C N
;
_chemical_formula_sum "Si O2"
_cell_formula_units_Z 40
_cell_length_a 7.273397
_cell_length_b 17.566641
_cell_length_c 12.051147
_cell_angle_alpha 90.000000
_cell_angle_beta 90.000000
_cell_angle_gamma 90.000000
_cell_volume 1539.764856
_symmetry_space_group_name_H-M "P B C N"
_symmetry_group_IT_number 60
_symmetry_cell_setting 'orthorhombic'
loop_
_space_group_symop_operation_xyz
x,y,z
1/2-x,1/2-y,1/2+z
1/2+x,1/2-y,-z
-x,y,1/2-z
-x,-y,-z
1/2+x,1/2+y,1/2-z
1/2-x,1/2+y,z
x,-y,1/2+z
loop_
_atom_site_type_symbol
_atom_site_label
_atom_site_fract_x
_atom_site_fract_y
_atom_site_fract_z
Si Si1 0.314151 0.631153 0.975231
Si Si2 0.706409 0.957252 0.226301
Si Si3 0.412365 0.216634 0.397754
Si Si4 0.697806 0.337574 0.411581
Si Si5 0.699703 0.621313 0.274332
O O1 0.228764 0.563925 0.902517
O O2 0.270683 0.712095 0.914505
O O3 0.537593 0.621566 0.984932
O O4 0.229259 0.628009 0.098385
O O5 0.500000 0.980113 0.250000
O O6 0.770460 0.886247 0.301301
O O7 0.824045 0.032305 0.247699
O O8 0.616921 0.253291 0.376688
O O9 0.385373 0.169777 0.515117
O O10 0.355164 0.162752 0.297340
O O11 0.500000 0.659202 0.250000
#
# Coordination Sequence:
#
# PCOD8248200 Si02
#       5
#     8   8   8   8   8
#     4  10  26  45  76 111 149 205 253 322 392 458
#     4  12  30  48  73 111 163 207 259 319 390 469
#     4  10  25  45  78 113 148 199 260 319 388 455
#     4  10  24  48  75 110 149 201 257 326 385 459
#     4  12  25  50  80 114 157 202 260 322 401 468
#
# _framework density 25.977992
#
# number of rings (size 3 to 8) (size 9 to 14) (size 15 to 20)
#    1.200    0.000    2.000    1.800    8.400    4.800 
#    0.000    0.000    0.000    0.000    0.000    0.000 
#    0.000    0.000    0.000    0.000    0.000    0.000 
#
# Total GULP energy -495768.647137 kJ/mol
# GULP energy per Si atom -12394.216178 kJ/mol
# Density = 2.591886 g / cm^3
# Si number density = 25.977992 Si / 1000 Ang^3
#
#
#
# Elastic Constant Matrix: (Units=GPa)
#
#
# Indices 1 2 3 4 5 6 
#
# 1 66.7247 15.5921 20.2249 0.0000 0.0000 0.0000
# 2 15.5921 119.9624 75.0014 0.0000 0.0000 0.0000
# 3 20.2249 75.0014 187.4895 0.0000 0.0000 0.0000
# 4 0.0000 0.0000 0.0000 40.3202 0.0000 0.0000
# 5 0.0000 0.0000 0.0000 0.0000 43.2265 0.0000
# 6 0.0000 0.0000 0.0000 0.0000 0.0000 33.2677
#
#
#
# Elastic Compliance Matrix: (Units=1/GPa)
#
#
# Indices 1 2 3 4 5 6 
#
# 1 0.015645 -0.001305 -0.001166 0.000000 0.000000 0.000000
# 2 -0.001305 0.011225 -0.004350 0.000000 0.000000 0.000000
# 3 -0.001166 -0.004350 0.007199 0.000000 0.000000 0.000000
# 4 0.000000 0.000000 0.000000 0.024801 0.000000 0.000000
# 5 0.000000 0.000000 0.000000 0.000000 0.023134 0.000000
# 6 0.000000 0.000000 0.000000 0.000000 0.000000 0.030059
#
#
# Mechanical properties :
#
#
# Convention : Reuss Voigt Hill
#
# Bulk Modulus (GPa) = 48.94889 66.20147 57.57518
# Shear Modulus (GPa) = 37.73191 40.92008 39.32600
#
# Velocity S-wave (km/s) = 3.81525 3.97316 3.89500
# Velocity P-wave (km/s) = 6.18801 6.82547 6.51454
#
# Compressibility (1/GPa) = 0.02042947
#
# Stress axis : x y z
#
# Youngs Moduli (GPa) = 63.91745 89.08770 138.90163
#
# Poissons Ratio (x) = 0.11623 0.16193
# Poissons Ratio (y) = 0.08339 0.60416
# Poissons Ratio (z) = 0.07451 0.38749
#
# Static dielectric constant tensor:
#      x y z
#    x 4.590220 0.000000 0.000000 
#    y 0.000000 4.509320 0.000000 
#    z 0.000000 0.000000 4.481710 
# 
# 
# High freq. dielectric constant tensor:
#      x y z
#    x 2.039000 0.000000 0.000000 
#    y 0.000000 2.036470 0.000000 
#    z 0.000000 0.000000 2.041660 
# 
# From -- ./inp_files/9767.got.cif
#   From: 2010.03.12/outbox.cif.g09.slc.cpg/sg60_5_cif.got.tgz:9767.got - 2010.04.10 18:46:24.
