data_PCOD8248054
_publ_section_title
;
Structure prediction by ZEFSAII (Michael W. Deem and Ramdas Pophale) SiO2 
 PCOD8248054
Probable space group: P B C N
;
_chemical_formula_sum "Si O2"
_cell_formula_units_Z 36
_cell_length_a 6.846792
_cell_length_b 10.567431
_cell_length_c 20.665988
_cell_angle_alpha 90.000000
_cell_angle_beta 90.000000
_cell_angle_gamma 90.000000
_cell_volume 1495.246272
_symmetry_space_group_name_H-M "P B C N"
_symmetry_group_IT_number 60
_symmetry_cell_setting 'orthorhombic'
loop_
_space_group_symop_operation_xyz
x,y,z
1/2-x,1/2-y,1/2+z
1/2+x,1/2-y,-z
-x,y,1/2-z
-x,-y,-z
1/2+x,1/2+y,1/2-z
1/2-x,1/2+y,z
x,-y,1/2+z
loop_
_atom_site_type_symbol
_atom_site_label
_atom_site_fract_x
_atom_site_fract_y
_atom_site_fract_z
Si Si1 0.388750 0.873501 0.517814
Si Si2 0.116704 0.001568 0.311371
Si Si3 0.523971 0.691817 0.413896
Si Si4 0.097221 0.751489 0.142932
Si Si5 0.000000 0.560411 0.250000
O O1 0.384341 0.780156 0.456265
O O2 0.162840 0.897491 0.539871
O O3 0.501854 0.807612 0.578207
O O4 0.500000 0.000000 0.500000
O O5 0.339773 0.976055 0.288303
O O6 0.000000 0.054544 0.250000
O O7 0.111286 0.105583 0.368177
O O8 0.025158 0.871592 0.335542
O O9 0.674026 0.782536 0.373089
O O10 0.110746 0.648284 0.199072
#
# Coordination Sequence:
#
# PCOD8248054 Si02
#       5
#     8   8   8   8   4
#     4  10  23  45  69 107 148 200 258 305 391 455
#     4  12  24  50  73 106 157 192 266 323 380 468
#     4  10  24  43  75 106 148 201 247 320 384 452
#     4  10  25  45  71 110 144 199 256 310 397 442
#     4  12  26  46  74 112 142 208 248 318 396 446
#
# _framework density 24.076301999999998
#
# number of rings (size 3 to 8) (size 9 to 14) (size 15 to 20)
#    1.333    0.000    3.333    1.333    3.111    2.667 
#    6.000    0.000    0.000    0.000    0.000    0.000 
#    0.000    0.000    0.000    0.000    0.000    0.000 
#
# Total GULP energy -446082.749575 kJ/mol
# GULP energy per Si atom -12391.187488 kJ/mol
# Density = 2.402150 g / cm^3
# Si number density = 24.076302 Si / 1000 Ang^3
#
#
#
# Elastic Constant Matrix: (Units=GPa)
#
#
# Indices 1 2 3 4 5 6 
#
# 1 120.2974 32.6011 47.2421 0.0000 0.0000 0.0000
# 2 32.6011 91.8248 38.7182 0.0000 0.0000 0.0000
# 3 47.2421 38.7182 117.8460 0.0000 0.0000 0.0000
# 4 0.0000 0.0000 0.0000 38.2835 0.0000 0.0000
# 5 0.0000 0.0000 0.0000 0.0000 50.7663 0.0000
# 6 0.0000 0.0000 0.0000 0.0000 0.0000 7.6005
#
#
#
# Elastic Compliance Matrix: (Units=1/GPa)
#
#
# Indices 1 2 3 4 5 6 
#
# 1 0.010238 -0.002211 -0.003378 0.000000 0.000000 0.000000
# 2 -0.002211 0.013119 -0.003424 0.000000 0.000000 0.000000
# 3 -0.003378 -0.003424 0.010965 0.000000 0.000000 0.000000
# 4 0.000000 0.000000 0.000000 0.026121 0.000000 0.000000
# 5 0.000000 0.000000 0.000000 0.000000 0.019698 0.000000
# 6 0.000000 0.000000 0.000000 0.000000 0.000000 0.131570
#
#
# Mechanical properties :
#
#
# Convention : Reuss Voigt Hill
#
# Bulk Modulus (GPa) = 61.36213 63.01014 62.18613
# Shear Modulus (GPa) = 21.26127 33.42383 27.34255
#
# Velocity S-wave (km/s) = 2.97489 3.72996 3.37362
# Velocity P-wave (km/s) = 6.11079 6.69163 6.40780
#
# Compressibility (1/GPa) = 0.01629670
#
# Stress axis : x y z
#
# Youngs Moduli (GPa) = 97.67124 76.22587 91.20085
#
# Poissons Ratio (x) = 0.16851 0.30808
# Poissons Ratio (y) = 0.21592 0.31227
# Poissons Ratio (z) = 0.32994 0.26100
#
# Static dielectric constant tensor:
#      x y z
#    x 4.144190 0.000000 0.000000 
#    y 0.000000 3.909290 0.000000 
#    z 0.000000 0.000000 4.930690 
# 
# 
# High freq. dielectric constant tensor:
#      x y z
#    x 1.953000 0.000000 0.000000 
#    y 0.000000 1.922180 0.000000 
#    z 0.000000 0.000000 1.980270 
# 
# From -- ./inp_files/23454.got.cif
#   From: 2010.03.12/outbox.cif.g09.slc.cpg/sg60_12_cif.got.tgz:23454.got - 2010.04.10 18:46:24.
