data_PCOD8248792
_publ_section_title
;
Structure prediction by ZEFSAII (Michael W. Deem and Ramdas Pophale) SiO2 
 PCOD8248792
Probable space group: P B C A
;
_chemical_formula_sum "Si O2"
_cell_formula_units_Z 64
_cell_length_a 14.287048
_cell_length_b 9.345072
_cell_length_c 20.000068
_cell_angle_alpha 90.000000
_cell_angle_beta 90.000000
_cell_angle_gamma 90.000000
_cell_volume 2670.278923
_symmetry_space_group_name_H-M "P B C A"
_symmetry_group_IT_number 61
_symmetry_cell_setting 'orthorhombic'
loop_
_space_group_symop_operation_xyz
x,y,z
1/2-x,-y,1/2+z
1/2+x,1/2-y,-z
-x,1/2+y,1/2-z
-x,-y,-z
1/2+x,y,1/2-z
1/2-x,1/2+y,z
x,1/2-y,1/2+z
loop_
_atom_site_type_symbol
_atom_site_label
_atom_site_fract_x
_atom_site_fract_y
_atom_site_fract_z
Si Si1 0.176694 0.660455 0.637079
Si Si2 0.036170 0.778076 0.033744
Si Si3 0.812564 0.769145 0.475893
Si Si4 0.346771 0.433006 0.462892
Si Si5 0.300377 0.715284 0.245469
Si Si6 0.741283 0.544096 0.664054
Si Si7 0.581697 0.128301 0.365126
Si Si8 0.593958 0.505647 0.073440
O O1 0.085760 0.738863 0.605805
O O2 0.260401 0.656290 0.584980
O O3 0.207004 0.747381 0.703023
O O4 0.157091 0.494971 0.651907
O O5 0.055367 0.632745 0.992075
O O6 0.092490 0.904206 0.994939
O O7 0.929897 0.837698 0.050771
O O8 0.746974 0.647797 0.509745
O O9 0.902936 0.698185 0.438447
O O10 0.848219 0.896870 0.523787
O O11 0.348055 0.408551 0.381724
O O12 0.290494 0.558697 0.277018
O O13 0.395291 0.729591 0.199486
O O14 0.303372 0.827401 0.306278
O O15 0.806045 0.471027 0.606796
O O16 0.478384 0.062485 0.369979
#
# Coordination Sequence:
#
# PCOD8248792 Si02
#       8
#     8   8   8   8   8   8   8   8
#     4   9  17  36  61  89 116 154 213 266 304 370
#     4   9  20  38  66  94 121 164 207 267 338 392
#     4  10  19  32  64  94 120 154 211 274 324 372
#     4  11  21  37  63  97 127 164 216 272 324 399
#     4  11  23  40  65  90 123 172 228 260 297 392
#     4  12  24  41  63  95 128 177 216 265 323 383
#     4  10  20  39  63  90 125 164 211 270 316 391
#     4  10  22  41  64  93 132 170 205 269 353 397
#
# _framework density 23.967534000000001
#
# number of rings (size 3 to 8) (size 9 to 14) (size 15 to 20)
#    0.000    1.750    2.500    3.000    3.500    0.000 
#    4.500    0.625    2.750    0.000    0.000    0.000 
#    0.000    0.000    0.000    0.000    0.000    0.000 
#
# Total GULP energy -793022.897289 kJ/mol
# GULP energy per Si atom -12390.982770 kJ/mol
# Density = 2.391298 g / cm^3
# Si number density = 23.967534 Si / 1000 Ang^3
#
#
#
# Elastic Constant Matrix: (Units=GPa)
#
#
# Indices 1 2 3 4 5 6 
#
# 1 41.3782 2.8540 11.2639 0.0000 0.0000 0.0000
# 2 2.8540 105.9470 29.4963 0.0000 0.0000 0.0000
# 3 11.2639 29.4963 111.4418 0.0000 0.0000 0.0000
# 4 0.0000 0.0000 0.0000 42.7529 0.0000 0.0000
# 5 0.0000 0.0000 0.0000 0.0000 31.8884 0.0000
# 6 0.0000 0.0000 0.0000 0.0000 0.0000 21.6602
#
#
#
# Elastic Compliance Matrix: (Units=1/GPa)
#
#
# Indices 1 2 3 4 5 6 
#
# 1 0.024851 0.000032 -0.002520 0.000000 0.000000 0.000000
# 2 0.000032 0.010190 -0.002700 0.000000 0.000000 0.000000
# 3 -0.002520 -0.002700 0.009943 0.000000 0.000000 0.000000
# 4 0.000000 0.000000 0.000000 0.023390 0.000000 0.000000
# 5 0.000000 0.000000 0.000000 0.000000 0.031359 0.000000
# 6 0.000000 0.000000 0.000000 0.000000 0.000000 0.046168
#
#
# Mechanical properties :
#
#
# Convention : Reuss Voigt Hill
#
# Bulk Modulus (GPa) = 28.89604 38.44392 33.66998
# Shear Modulus (GPa) = 29.79509 33.60383 31.69946
#
# Velocity S-wave (km/s) = 3.52965 3.74847 3.64070
# Velocity P-wave (km/s) = 5.35665 5.89996 5.63486
#
# Compressibility (1/GPa) = 0.03460682
#
# Stress axis : x y z
#
# Youngs Moduli (GPa) = 40.23959 98.13950 100.57598
#
# Poissons Ratio (x) = -0.00316 0.25349
# Poissons Ratio (y) = -0.00130 0.27158
# Poissons Ratio (z) = 0.10142 0.26500
#
# Static dielectric constant tensor:
#      x y z
#    x 4.191120 0.000000 0.000000 
#    y 0.000000 4.375360 0.000000 
#    z 0.000000 0.000000 4.449240 
# 
# 
# High freq. dielectric constant tensor:
#      x y z
#    x 1.929230 0.000000 0.000000 
#    y 0.000000 1.949260 0.000000 
#    z 0.000000 0.000000 1.959240 
# 
# From -- ./inp_files/10541.got.cif
#   From: 2010.03.12/outbox.cif.g09.slc.cpg/sg61_6_cif.got.tgz:10541.got - 2010.04.10 19:05:03.
