data_PCOD8248057
_publ_section_title
;
Structure prediction by ZEFSAII (Michael W. Deem and Ramdas Pophale) SiO2 
 PCOD8248057
Probable space group: P B C N
;
_chemical_formula_sum "Si O2"
_cell_formula_units_Z 40
_cell_length_a 7.439119
_cell_length_b 11.124460
_cell_length_c 18.665164
_cell_angle_alpha 90.000000
_cell_angle_beta 90.000000
_cell_angle_gamma 90.000000
_cell_volume 1544.657704
_symmetry_space_group_name_H-M "P B C N"
_symmetry_group_IT_number 60
_symmetry_cell_setting 'orthorhombic'
loop_
_space_group_symop_operation_xyz
x,y,z
1/2-x,1/2-y,1/2+z
1/2+x,1/2-y,-z
-x,y,1/2-z
-x,-y,-z
1/2+x,1/2+y,1/2-z
1/2-x,1/2+y,z
x,-y,1/2+z
loop_
_atom_site_type_symbol
_atom_site_label
_atom_site_fract_x
_atom_site_fract_y
_atom_site_fract_z
Si Si1 0.685691 0.356927 0.952869
Si Si2 0.110558 0.968097 0.403708
Si Si3 0.593774 0.825904 0.344917
Si Si4 0.464690 0.083460 0.378138
Si Si5 0.214941 0.217328 0.793768
O O1 0.578035 0.462482 0.909947
O O2 0.639364 0.223792 0.923757
O O3 0.897704 0.371697 0.938822
O O4 0.630880 0.362713 0.036127
O O5 0.276926 0.057798 0.418511
O O6 0.132251 0.906279 0.326287
O O7 0.550945 0.966198 0.341529
O O8 0.762620 0.797028 0.292273
O O9 0.413804 0.754020 0.322771
O O10 0.423829 0.177049 0.313897
#
# Coordination Sequence:
#
# PCOD8248057 Si02
#       5
#     8   8   8   8   8
#     4  11  24  43  70 105 142 189 245 294 364 439
#     4  10  24  45  68 103 146 189 241 303 358 433
#     4  10  24  46  70 107 140 186 245 292 361 444
#     4  11  24  46  71 104 140 189 240 300 367 432
#     4  10  23  45  72  99 143 191 231 306 357 427
#
# _framework density 25.895705
#
# number of rings (size 3 to 8) (size 9 to 14) (size 15 to 20)
#    0.000    1.600    2.000    0.600    2.800   12.000 
#    0.000    0.000    0.000    0.000    0.000    0.000 
#    0.000    0.000    0.000    0.000    0.000    0.000 
#
# Total GULP energy -495881.046565 kJ/mol
# GULP energy per Si atom -12397.026164 kJ/mol
# Density = 2.583677 g / cm^3
# Si number density = 25.895705 Si / 1000 Ang^3
#
#
#
# Elastic Constant Matrix: (Units=GPa)
#
#
# Indices 1 2 3 4 5 6 
#
# 1 129.8798 26.4979 12.7886 0.0000 0.0000 0.0000
# 2 26.4979 75.8164 -10.4452 0.0000 0.0000 0.0000
# 3 12.7886 -10.4452 48.4712 0.0000 0.0000 0.0000
# 4 0.0000 0.0000 0.0000 23.3627 0.0000 0.0000
# 5 0.0000 0.0000 0.0000 0.0000 39.3711 0.0000
# 6 0.0000 0.0000 0.0000 0.0000 0.0000 42.9848
#
#
#
# Elastic Compliance Matrix: (Units=1/GPa)
#
#
# Indices 1 2 3 4 5 6 
#
# 1 0.008705 -0.003462 -0.003043 0.000000 0.000000 0.000000
# 2 -0.003462 0.014970 0.004139 0.000000 0.000000 0.000000
# 3 -0.003043 0.004139 0.022326 0.000000 0.000000 0.000000
# 4 0.000000 0.000000 0.000000 0.042803 0.000000 0.000000
# 5 0.000000 0.000000 0.000000 0.000000 0.025399 0.000000
# 6 0.000000 0.000000 0.000000 0.000000 0.000000 0.023264
#
#
# Mechanical properties :
#
#
# Convention : Reuss Voigt Hill
#
# Bulk Modulus (GPa) = 24.23047 34.64998 29.44023
# Shear Modulus (GPa) = 32.06059 36.16546 34.11303
#
# Velocity S-wave (km/s) = 3.52243 3.74114 3.63343
# Velocity P-wave (km/s) = 5.09123 5.66314 5.38478
#
# Compressibility (1/GPa) = 0.04127034
#
# Stress axis : x y z
#
# Youngs Moduli (GPa) = 114.87268 66.80073 44.79159
#
# Poissons Ratio (x) = 0.23124 0.13629
# Poissons Ratio (y) = 0.39766 -0.18540
# Poissons Ratio (z) = 0.34953 -0.27651
#
# Static dielectric constant tensor:
#      x y z
#    x 4.967070 0.000000 0.000000 
#    y 0.000000 4.398260 0.000000 
#    z 0.000000 0.000000 4.302910 
# 
# 
# High freq. dielectric constant tensor:
#      x y z
#    x 2.059200 0.000000 0.000000 
#    y 0.000000 2.024750 0.000000 
#    z 0.000000 0.000000 2.016950 
# 
# From -- ./inp_files/22022.got.cif
#   From: 2010.03.12/outbox.cif.g09.slc.cpg/sg60_12_cif.got.tgz:22022.got - 2010.04.10 18:46:24.
