data_PCOD8248580
_publ_section_title
;
Structure prediction by ZEFSAII (Michael W. Deem and Ramdas Pophale) SiO2 
 PCOD8248580
Probable space group: P B C N
;
_chemical_formula_sum "Si O2"
_cell_formula_units_Z 32
_cell_length_a 8.014065
_cell_length_b 19.231122
_cell_length_c 8.326927
_cell_angle_alpha 90.000000
_cell_angle_beta 90.000000
_cell_angle_gamma 90.000000
_cell_volume 1283.341507
_symmetry_space_group_name_H-M "P B C N"
_symmetry_group_IT_number 60
_symmetry_cell_setting 'orthorhombic'
loop_
_space_group_symop_operation_xyz
x,y,z
1/2-x,1/2-y,1/2+z
1/2+x,1/2-y,-z
-x,y,1/2-z
-x,-y,-z
1/2+x,1/2+y,1/2-z
1/2-x,1/2+y,z
x,-y,1/2+z
loop_
_atom_site_type_symbol
_atom_site_label
_atom_site_fract_x
_atom_site_fract_y
_atom_site_fract_z
Si Si1 0.821258 0.090296 0.168606
Si Si2 0.311277 0.024610 0.023452
Si Si3 0.656934 0.203994 0.966641
Si Si4 0.783603 0.332297 0.117538
O O1 0.700974 0.052147 0.295537
O O2 0.000000 0.101329 0.250000
O O3 0.747404 0.164590 0.114716
O O4 0.815847 0.039404 0.012767
O O5 0.252775 0.086071 0.903417
O O6 0.500000 0.000000 0.000000
O O7 0.751853 0.187550 0.801165
O O8 0.468245 0.181759 0.946909
O O9 0.660916 0.286383 0.005910
#
# Coordination Sequence:
#
# PCOD8248580 Si02
#       4
#     8   8   8   8
#     4  12  27  47  73 109 151 192 246 311 375 440
#     4  12  25  46  76 106 147 197 247 304 375 451
#     4  11  26  47  76 107 148 194 248 307 376 445
#     4  11  26  47  74 110 145 196 248 307 372 449
#
# _framework density 24.934906999999999
#
# number of rings (size 3 to 8) (size 9 to 14) (size 15 to 20)
#    0.000    0.500    2.500    4.500   10.500    3.000 
#    0.000    0.000    0.000    0.000    0.000    0.000 
#    0.000    0.000    0.000    0.000    0.000    0.000 
#
# Total GULP energy -396883.864213 kJ/mol
# GULP energy per Si atom -12402.620757 kJ/mol
# Density = 2.487815 g / cm^3
# Si number density = 24.934907 Si / 1000 Ang^3
#
#
#
# Elastic Constant Matrix: (Units=GPa)
#
#
# Indices 1 2 3 4 5 6 
#
# 1 75.8323 16.4756 25.2131 0.0000 0.0000 0.0000
# 2 16.4756 112.3456 11.0377 0.0000 0.0000 0.0000
# 3 25.2131 11.0377 110.3314 0.0000 0.0000 0.0000
# 4 0.0000 0.0000 0.0000 50.6500 0.0000 0.0000
# 5 0.0000 0.0000 0.0000 0.0000 44.8225 0.0000
# 6 0.0000 0.0000 0.0000 0.0000 0.0000 37.5255
#
#
#
# Elastic Compliance Matrix: (Units=1/GPa)
#
#
# Indices 1 2 3 4 5 6 
#
# 1 0.014637 -0.001836 -0.003161 0.000000 0.000000 0.000000
# 2 -0.001836 0.009220 -0.000503 0.000000 0.000000 0.000000
# 3 -0.003161 -0.000503 0.009836 0.000000 0.000000 0.000000
# 4 0.000000 0.000000 0.000000 0.019743 0.000000 0.000000
# 5 0.000000 0.000000 0.000000 0.000000 0.022310 0.000000
# 6 0.000000 0.000000 0.000000 0.000000 0.000000 0.026649
#
#
# Mechanical properties :
#
#
# Convention : Reuss Voigt Hill
#
# Bulk Modulus (GPa) = 44.06623 44.88469 44.47546
# Shear Modulus (GPa) = 41.33622 42.98512 42.16067
#
# Velocity S-wave (km/s) = 4.07598 4.15648 4.11643
# Velocity P-wave (km/s) = 6.31367 6.40898 6.36150
#
# Compressibility (1/GPa) = 0.02269311
#
# Stress axis : x y z
#
# Youngs Moduli (GPa) = 68.32040 108.46283 101.66426
#
# Poissons Ratio (x) = 0.19913 0.32138
# Poissons Ratio (y) = 0.12543 0.05112
# Poissons Ratio (z) = 0.21597 0.05454
#
# Static dielectric constant tensor:
#      x y z
#    x 4.130220 0.000000 0.000000 
#    y 0.000000 4.853200 0.000000 
#    z 0.000000 0.000000 4.812930 
# 
# 
# High freq. dielectric constant tensor:
#      x y z
#    x 1.974990 0.000000 0.000000 
#    y 0.000000 2.013230 0.000000 
#    z 0.000000 0.000000 2.004880 
# 
# From -- ./inp_files/3597.got.cif
#   From: 2010.03.12/outbox.cif.g09.slc.cpg/sg60_2_cif.got.tgz:3597.got - 2010.04.10 18:46:24.
