data_PCOD8248123
_publ_section_title
;
Structure prediction by ZEFSAII (Michael W. Deem and Ramdas Pophale) SiO2 
 PCOD8248123
Probable space group: P B C N
;
_chemical_formula_sum "Si O2"
_cell_formula_units_Z 40
_cell_length_a 8.553487
_cell_length_b 23.355915
_cell_length_c 8.938922
_cell_angle_alpha 90.000000
_cell_angle_beta 90.000000
_cell_angle_gamma 90.000000
_cell_volume 1785.768810
_symmetry_space_group_name_H-M "P B C N"
_symmetry_group_IT_number 60
_symmetry_cell_setting 'orthorhombic'
loop_
_space_group_symop_operation_xyz
x,y,z
1/2-x,1/2-y,1/2+z
1/2+x,1/2-y,-z
-x,y,1/2-z
-x,-y,-z
1/2+x,1/2+y,1/2-z
1/2-x,1/2+y,z
x,-y,1/2+z
loop_
_atom_site_type_symbol
_atom_site_label
_atom_site_fract_x
_atom_site_fract_y
_atom_site_fract_z
Si Si1 0.321062 0.437307 0.215285
Si Si2 0.706292 0.669439 0.977002
Si Si3 0.912767 0.225902 0.405206
Si Si4 0.833592 0.471672 0.979598
Si Si5 0.327646 0.859843 0.716558
O O1 0.500000 0.446074 0.250000
O O2 0.285551 0.372693 0.163520
O O3 0.217927 0.447981 0.360770
O O4 0.284739 0.481029 0.081722
O O5 0.846994 0.714677 0.967402
O O6 0.536063 0.699509 0.977403
O O7 0.730250 0.633430 0.129578
O O8 0.765644 0.183370 0.390659
O O9 0.000000 0.237652 0.250000
O O10 0.842956 0.421162 0.859747
O O11 0.000000 0.500000 0.000000
O O12 0.500000 0.835094 0.750000
#
# Coordination Sequence:
#
# PCOD8248123 Si02
#       5
#     8   8   8   8   8
#     4  12  26  43  69  99 136 178 226 279 336 401
#     4  11  24  44  68  98 133 177 223 277 336 397
#     4  10  24  42  66 100 134 172 222 275 334 399
#     4  12  26  45  68 100 136 178 226 275 334 398
#     4  11  23  42  67  93 131 175 221 276 332 395
#
# _framework density 22.399315999999999
#
# number of rings (size 3 to 8) (size 9 to 14) (size 15 to 20)
#    0.000    0.800    0.000    7.200    0.000   12.800 
#    0.000    0.000    0.000    0.000    0.000    0.000 
#    0.000    0.000    0.000    0.000    0.000    0.000 
#
# Total GULP energy -496266.039550 kJ/mol
# GULP energy per Si atom -12406.650989 kJ/mol
# Density = 2.234833 g / cm^3
# Si number density = 22.399316 Si / 1000 Ang^3
#
#
#
# Elastic Constant Matrix: (Units=GPa)
#
#
# Indices 1 2 3 4 5 6 
#
# 1 149.6485 80.3313 65.5150 0.0000 0.0000 0.0000
# 2 80.3313 156.8420 86.1211 0.0000 0.0000 0.0000
# 3 65.5150 86.1211 116.3257 0.0000 0.0000 0.0000
# 4 0.0000 0.0000 0.0000 42.0627 0.0000 0.0000
# 5 0.0000 0.0000 0.0000 0.0000 42.0827 0.0000
# 6 0.0000 0.0000 0.0000 0.0000 0.0000 38.8179
#
#
#
# Elastic Compliance Matrix: (Units=1/GPa)
#
#
# Indices 1 2 3 4 5 6 
#
# 1 0.009817 -0.003357 -0.003044 0.000000 0.000000 0.000000
# 2 -0.003357 0.011891 -0.006913 0.000000 0.000000 0.000000
# 3 -0.003044 -0.006913 0.015429 0.000000 0.000000 0.000000
# 4 0.000000 0.000000 0.000000 0.023774 0.000000 0.000000
# 5 0.000000 0.000000 0.000000 0.000000 0.023763 0.000000
# 6 0.000000 0.000000 0.000000 0.000000 0.000000 0.025761
#
#
# Mechanical properties :
#
#
# Convention : Reuss Voigt Hill
#
# Bulk Modulus (GPa) = 95.14932 98.52787 96.83860
# Shear Modulus (GPa) = 35.57096 37.31590 36.44343
#
# Velocity S-wave (km/s) = 3.98934 4.08602 4.03797
# Velocity P-wave (km/s) = 7.98691 8.14514 8.06641
#
# Compressibility (1/GPa) = 0.01050980
#
# Stress axis : x y z
#
# Youngs Moduli (GPa) = 101.86746 84.09822 64.81418
#
# Poissons Ratio (x) = 0.28228 0.19728
# Poissons Ratio (y) = 0.34193 0.44805
# Poissons Ratio (z) = 0.31006 0.58136
#
# Static dielectric constant tensor:
#      x y z
#    x 4.175280 0.000000 0.000000 
#    y 0.000000 4.068610 0.000000 
#    z 0.000000 0.000000 3.961260 
# 
# 
# High freq. dielectric constant tensor:
#      x y z
#    x 1.899350 0.000000 0.000000 
#    y 0.000000 1.889160 0.000000 
#    z 0.000000 0.000000 1.888930 
# 
# From -- ./inp_files/3868.got.cif
#   From: 2010.03.12/outbox.cif.g09.slc.cpg/sg60_2_cif.got.tgz:3868.got - 2010.04.10 18:46:24.
