data_PCOD8248493
_publ_section_title
;
Structure prediction by ZEFSAII (Michael W. Deem and Ramdas Pophale) SiO2 
 PCOD8248493
Probable space group: P B C N
;
_chemical_formula_sum "Si O2"
_cell_formula_units_Z 40
_cell_length_a 11.686538
_cell_length_b 34.781887
_cell_length_c 5.059586
_cell_angle_alpha 90.000000
_cell_angle_beta 90.000000
_cell_angle_gamma 90.000000
_cell_volume 2056.619729
_symmetry_space_group_name_H-M "P B C N"
_symmetry_group_IT_number 60
_symmetry_cell_setting 'orthorhombic'
loop_
_space_group_symop_operation_xyz
x,y,z
1/2-x,1/2-y,1/2+z
1/2+x,1/2-y,-z
-x,y,1/2-z
-x,-y,-z
1/2+x,1/2+y,1/2-z
1/2-x,1/2+y,z
x,-y,1/2+z
loop_
_atom_site_type_symbol
_atom_site_label
_atom_site_fract_x
_atom_site_fract_y
_atom_site_fract_z
Si Si1 0.753184 0.854626 0.757161
Si Si2 0.206801 0.766155 0.677902
Si Si3 0.135136 0.978531 0.233255
Si Si4 0.500000 0.781383 0.250000
Si Si5 0.635878 0.609582 0.752498
Si Si6 0.500000 0.834131 0.750000
O O1 0.791709 0.811807 0.834374
O O2 0.799308 0.863809 0.464594
O O3 0.615332 0.859750 0.782472
O O4 0.814906 0.882708 0.962070
O O5 0.195982 0.749077 0.380641
O O6 0.100405 0.747455 0.832711
O O7 0.165906 0.934347 0.180536
O O8 0.000000 0.983626 0.250000
O O9 0.188699 0.995193 0.502216
O O10 0.525418 0.808541 0.496053
O O11 0.500000 0.617571 0.750000
#
# Coordination Sequence:
#
# PCOD8248493 Si02
#       6
#     8   8   8   4   8   4
#     4  12  24  41  58  87 119 158 200 247 298 347
#     4  12  23  40  57  82 108 151 204 246 302 337
#     4   9  17  33  58  86 118 153 184 220 281 361
#     4  12  22  40  60  82 110 147 206 263 294 356
#     4  11  24  39  59  93 127 151 186 241 302 358
#     4  12  24  42  62  80 112 163 214 249 282 344
#
# _framework density 19.449390999999999
#
# number of rings (size 3 to 8) (size 9 to 14) (size 15 to 20)
#    0.000    0.800    4.000    4.200    2.800    3.200 
#    0.000    0.000    0.000    0.000    0.000   14.000 
#    0.000    0.000    0.000    0.000    0.000    0.000 
#
# Total GULP energy -495823.897505 kJ/mol
# GULP energy per Si atom -12395.597438 kJ/mol
# Density = 1.940512 g / cm^3
# Si number density = 19.449391 Si / 1000 Ang^3
#
#
#
# Elastic Constant Matrix: (Units=GPa)
#
#
# Indices 1 2 3 4 5 6 
#
# 1 99.8662 29.1772 12.1140 0.0000 0.0000 0.0000
# 2 29.1772 75.8177 26.8430 0.0000 0.0000 0.0000
# 3 12.1140 26.8430 109.8751 0.0000 0.0000 0.0000
# 4 0.0000 0.0000 0.0000 40.8048 0.0000 0.0000
# 5 0.0000 0.0000 0.0000 0.0000 27.2666 0.0000
# 6 0.0000 0.0000 0.0000 0.0000 0.0000 17.5554
#
#
#
# Elastic Compliance Matrix: (Units=1/GPa)
#
#
# Indices 1 2 3 4 5 6 
#
# 1 0.011286 -0.004272 -0.000201 0.000000 0.000000 0.000000
# 2 -0.004272 0.016056 -0.003451 0.000000 0.000000 0.000000
# 3 -0.000201 -0.003451 0.009967 0.000000 0.000000 0.000000
# 4 0.000000 0.000000 0.000000 0.024507 0.000000 0.000000
# 5 0.000000 0.000000 0.000000 0.000000 0.036675 0.000000
# 6 0.000000 0.000000 0.000000 0.000000 0.000000 0.056962
#
#
# Mechanical properties :
#
#
# Convention : Reuss Voigt Hill
#
# Bulk Modulus (GPa) = 46.59911 46.86973 46.73442
# Shear Modulus (GPa) = 28.01843 31.62035 29.81939
#
# Velocity S-wave (km/s) = 3.79962 4.03647 3.91983
# Velocity P-wave (km/s) = 6.57728 6.77309 6.67590
#
# Compressibility (1/GPa) = 0.02145964
#
# Stress axis : x y z
#
# Youngs Moduli (GPa) = 88.60621 62.28368 100.33551
#
# Poissons Ratio (x) = 0.26609 0.02013
# Poissons Ratio (y) = 0.37854 0.34630
# Poissons Ratio (z) = 0.01777 0.21497
#
# Static dielectric constant tensor:
#      x y z
#    x 3.527570 0.000000 0.000000 
#    y 0.000000 3.428720 0.000000 
#    z 0.000000 0.000000 3.528160 
# 
# 
# High freq. dielectric constant tensor:
#      x y z
#    x 1.733630 0.000000 0.000000 
#    y 0.000000 1.748310 0.000000 
#    z 0.000000 0.000000 1.782970 
# 
# From -- ./inp_files/874.got.cif
#   From: 2010.03.12/outbox.cif.g09.slc.cpg/sg60_1_cif.got.tgz:874.got - 2010.04.10 18:46:24.
