data_PCOD8248952
_publ_section_title
;
Structure prediction by ZEFSAII (Michael W. Deem and Ramdas Pophale) SiO2 
 PCOD8248952
Probable space group: P B C A
;
_chemical_formula_sum "Si O2"
_cell_formula_units_Z 48
_cell_length_a 8.244556
_cell_length_b 15.996146
_cell_length_c 18.383172
_cell_angle_alpha 90.000000
_cell_angle_beta 90.000000
_cell_angle_gamma 90.000000
_cell_volume 2424.393340
_symmetry_space_group_name_H-M "P B C A"
_symmetry_group_IT_number 61
_symmetry_cell_setting 'orthorhombic'
loop_
_space_group_symop_operation_xyz
x,y,z
1/2-x,-y,1/2+z
1/2+x,1/2-y,-z
-x,1/2+y,1/2-z
-x,-y,-z
1/2+x,y,1/2-z
1/2-x,1/2+y,z
x,1/2-y,1/2+z
loop_
_atom_site_type_symbol
_atom_site_label
_atom_site_fract_x
_atom_site_fract_y
_atom_site_fract_z
Si Si1 0.845539 0.174463 0.792774
Si Si2 0.036433 0.592668 0.169790
Si Si3 0.539358 0.402977 0.338311
Si Si4 0.941161 0.260214 0.071470
Si Si5 0.436711 0.753747 0.913211
Si Si6 0.364736 0.665350 0.191188
O O1 0.729799 0.098380 0.817696
O O2 0.732751 0.255026 0.776787
O O3 0.935024 0.149384 0.719655
O O4 0.978079 0.194108 0.854255
O O5 0.958711 0.648795 0.106614
O O6 0.979064 0.625349 0.248204
O O7 0.979336 0.497925 0.156068
O O8 0.231910 0.597596 0.165524
O O9 0.514710 0.352849 0.413662
O O10 0.750916 0.266575 0.083847
O O11 0.023704 0.191140 0.123327
O O12 0.977658 0.234198 0.989380
#
# Coordination Sequence:
#
# PCOD8248952 Si02
#       6
#     8   8   8   8   8   8
#     4  10  20  36  57  83 113 148 189 225 267 328
#     4  11  21  35  58  86 116 145 181 231 279 323
#     4  11  21  35  58  86 116 145 181 231 279 323
#     4  11  22  39  60  81 109 148 190 228 272 331
#     4  11  22  39  60  81 109 148 190 228 272 331
#     4  10  20  36  57  83 113 148 189 225 267 328
#
# _framework density 19.798767000000002
#
# number of rings (size 3 to 8) (size 9 to 14) (size 15 to 20)
#    0.000    1.333    0.000   11.000    0.000    0.667 
#    0.000    1.667    0.000    7.000    0.000    0.000 
#    0.000    0.000    0.000    0.000    0.000    0.000 
#
# Total GULP energy -595268.393479 kJ/mol
# GULP energy per Si atom -12401.424864 kJ/mol
# Density = 1.975370 g / cm^3
# Si number density = 19.798767 Si / 1000 Ang^3
#
#
#
# Elastic Constant Matrix: (Units=GPa)
#
#
# Indices 1 2 3 4 5 6 
#
# 1 84.3739 8.6062 -1.0718 0.0000 0.0000 0.0000
# 2 8.6062 73.4843 11.7032 0.0000 0.0000 0.0000
# 3 -1.0718 11.7032 45.4665 0.0000 0.0000 0.0000
# 4 0.0000 0.0000 0.0000 11.8382 0.0000 0.0000
# 5 0.0000 0.0000 0.0000 0.0000 35.1430 0.0000
# 6 0.0000 0.0000 0.0000 0.0000 0.0000 19.0162
#
#
#
# Elastic Compliance Matrix: (Units=1/GPa)
#
#
# Indices 1 2 3 4 5 6 
#
# 1 0.012015 -0.001514 0.000673 0.000000 0.000000 0.000000
# 2 -0.001514 0.014381 -0.003737 0.000000 0.000000 0.000000
# 3 0.000673 -0.003737 0.022972 0.000000 0.000000 0.000000
# 4 0.000000 0.000000 0.000000 0.084473 0.000000 0.000000
# 5 0.000000 0.000000 0.000000 0.000000 0.028455 0.000000
# 6 0.000000 0.000000 0.000000 0.000000 0.000000 0.052587
#
#
# Mechanical properties :
#
#
# Convention : Reuss Voigt Hill
#
# Bulk Modulus (GPa) = 24.86904 26.86665 25.86784
# Shear Modulus (GPa) = 21.05764 25.47195 23.26479
#
# Velocity S-wave (km/s) = 3.26480 3.59073 3.43164
# Velocity P-wave (km/s) = 5.17688 5.54891 5.36612
#
# Compressibility (1/GPa) = 0.04021064
#
# Stress axis : x y z
#
# Youngs Moduli (GPa) = 83.22918 69.53654 43.53111
#
# Poissons Ratio (x) = 0.10530 -0.02930
# Poissons Ratio (y) = 0.12604 0.16269
# Poissons Ratio (z) = -0.05602 0.25988
#
# Static dielectric constant tensor:
#      x y z
#    x 3.927590 0.000000 0.000000 
#    y 0.000000 3.511640 0.000000 
#    z 0.000000 0.000000 3.573360 
# 
# 
# High freq. dielectric constant tensor:
#      x y z
#    x 1.794170 0.000000 0.000000 
#    y 0.000000 1.752220 0.000000 
#    z 0.000000 0.000000 1.765580 
# 
# From -- ./inp_files/3510.got.cif
#   From: 2010.03.12/outbox.cif.g09.slc.cpg/sg61_2_cif.got.tgz:3510.got - 2010.04.10 19:05:03.
