data_PCOD8248855
_publ_section_title
;
Structure prediction by ZEFSAII (Michael W. Deem and Ramdas Pophale) SiO2 
 PCOD8248855
Probable space group: P B C A
;
_chemical_formula_sum "Si O2"
_cell_formula_units_Z 48
_cell_length_a 5.063585
_cell_length_b 28.861392
_cell_length_c 15.871830
_cell_angle_alpha 90.000000
_cell_angle_beta 90.000000
_cell_angle_gamma 90.000000
_cell_volume 2319.542751
_symmetry_space_group_name_H-M "P B C A"
_symmetry_group_IT_number 61
_symmetry_cell_setting 'orthorhombic'
loop_
_space_group_symop_operation_xyz
x,y,z
1/2-x,-y,1/2+z
1/2+x,1/2-y,-z
-x,1/2+y,1/2-z
-x,-y,-z
1/2+x,y,1/2-z
1/2-x,1/2+y,z
x,1/2-y,1/2+z
loop_
_atom_site_type_symbol
_atom_site_label
_atom_site_fract_x
_atom_site_fract_y
_atom_site_fract_z
Si Si1 0.280409 0.184436 0.442924
Si Si2 0.245823 0.111835 0.302252
Si Si3 0.285315 0.560217 0.981386
Si Si4 0.776013 0.166072 0.550570
Si Si5 0.711426 0.465016 0.583046
Si Si6 0.722930 0.765186 0.192006
O O1 0.284139 0.137074 0.390704
O O2 0.554946 0.189107 0.491675
O O3 0.240585 0.226652 0.379542
O O4 0.052620 0.182382 0.512267
O O5 0.465791 0.126470 0.235592
O O6 0.266945 0.057154 0.324909
O O7 0.582461 0.553977 0.013950
O O8 0.081717 0.551965 0.057818
O O9 0.250905 0.610762 0.941608
O O10 0.226692 0.520847 0.910464
O O11 0.754611 0.185202 0.645810
O O12 0.941418 0.759504 0.263745
#
# Coordination Sequence:
#
# PCOD8248855 Si02
#       6
#     8   8   8   8   8   8
#     4  12  23  41  63  92 120 163 210 254 304 369
#     4  12  22  35  56  88 126 160 194 253 314 359
#     4  10  19  37  61  86 113 155 206 251 285 349
#     4  12  22  41  68  92 116 163 216 256 289 373
#     4  10  20  36  57  85 122 155 198 245 302 357
#     4  12  26  44  61  91 129 162 198 255 322 365
#
# _framework density 20.693733999999999
#
# number of rings (size 3 to 8) (size 9 to 14) (size 15 to 20)
#    0.000    0.667    3.333    6.000    0.000    0.000 
#    0.000    1.667    0.000    0.000    0.000    0.000 
#    0.000    0.000    0.000    0.000    0.000    0.000 
#
# Total GULP energy -595371.641468 kJ/mol
# GULP energy per Si atom -12403.575864 kJ/mol
# Density = 2.064663 g / cm^3
# Si number density = 20.693734 Si / 1000 Ang^3
#
#
#
# Elastic Constant Matrix: (Units=GPa)
#
#
# Indices 1 2 3 4 5 6 
#
# 1 81.5884 19.9948 11.6585 0.0000 0.0000 0.0000
# 2 19.9948 121.8978 26.9689 0.0000 0.0000 0.0000
# 3 11.6585 26.9689 53.3250 0.0000 0.0000 0.0000
# 4 0.0000 0.0000 0.0000 31.3614 0.0000 0.0000
# 5 0.0000 0.0000 0.0000 0.0000 28.1816 0.0000
# 6 0.0000 0.0000 0.0000 0.0000 0.0000 23.4518
#
#
#
# Elastic Compliance Matrix: (Units=1/GPa)
#
#
# Indices 1 2 3 4 5 6 
#
# 1 0.012953 -0.001687 -0.001979 0.000000 0.000000 0.000000
# 2 -0.001687 0.009457 -0.004414 0.000000 0.000000 0.000000
# 3 -0.001979 -0.004414 0.021418 0.000000 0.000000 0.000000
# 4 0.000000 0.000000 0.000000 0.031886 0.000000 0.000000
# 5 0.000000 0.000000 0.000000 0.000000 0.035484 0.000000
# 6 0.000000 0.000000 0.000000 0.000000 0.000000 0.042641
#
#
# Mechanical properties :
#
#
# Convention : Reuss Voigt Hill
#
# Bulk Modulus (GPa) = 36.14234 41.56174 38.85204
# Shear Modulus (GPa) = 27.89858 29.81156 28.85507
#
# Velocity S-wave (km/s) = 3.67572 3.79965 3.73820
# Velocity P-wave (km/s) = 5.95968 6.27516 6.11946
#
# Compressibility (1/GPa) = 0.02766838
#
# Stress axis : x y z
#
# Youngs Moduli (GPa) = 77.20346 105.74359 46.68997
#
# Poissons Ratio (x) = 0.17837 0.09239
# Poissons Ratio (y) = 0.13023 0.20609
# Poissons Ratio (z) = 0.15277 0.46675
#
# Static dielectric constant tensor:
#      x y z
#    x 3.907260 0.000000 0.000000 
#    y 0.000000 4.106520 0.000000 
#    z 0.000000 0.000000 3.525410 
# 
# 
# High freq. dielectric constant tensor:
#      x y z
#    x 1.831220 0.000000 0.000000 
#    y 0.000000 1.821420 0.000000 
#    z 0.000000 0.000000 1.782810 
# 
# From -- ./inp_files/6863.got.cif
#   From: 2010.03.12/outbox.cif.g09.slc.cpg/sg61_4_cif.got.tgz:6863.got - 2010.04.10 19:05:03.
