data_PCOD8248014
_publ_section_title
;
Structure prediction by ZEFSAII (Michael W. Deem and Ramdas Pophale) SiO2 
 PCOD8248014
Probable space group: P B C N
;
_chemical_formula_sum "Si O2"
_cell_formula_units_Z 40
_cell_length_a 6.795554
_cell_length_b 23.883524
_cell_length_c 11.735689
_cell_angle_alpha 90.000000
_cell_angle_beta 90.000000
_cell_angle_gamma 90.000000
_cell_volume 1904.723180
_symmetry_space_group_name_H-M "P B C N"
_symmetry_group_IT_number 60
_symmetry_cell_setting 'orthorhombic'
loop_
_space_group_symop_operation_xyz
x,y,z
1/2-x,1/2-y,1/2+z
1/2+x,1/2-y,-z
-x,y,1/2-z
-x,-y,-z
1/2+x,1/2+y,1/2-z
1/2-x,1/2+y,z
x,-y,1/2+z
loop_
_atom_site_type_symbol
_atom_site_label
_atom_site_fract_x
_atom_site_fract_y
_atom_site_fract_z
Si Si1 0.332389 0.550187 0.829217
Si Si2 0.234613 0.809043 0.068210
Si Si3 0.550264 0.193677 0.379814
Si Si4 0.000000 0.626221 0.750000
Si Si5 0.386421 0.381980 0.531698
Si Si6 0.000000 0.056710 0.250000
O O1 0.500000 0.579026 0.750000
O O2 0.132880 0.583863 0.819902
O O3 0.321368 0.484138 0.794031
O O4 0.378629 0.559270 0.962492
O O5 0.171299 0.751096 0.125754
O O6 0.372879 0.837319 0.162813
O O7 0.349869 0.798287 0.950515
O O8 0.039535 0.843168 0.035976
O O9 0.500000 0.174601 0.250000
O O10 0.677645 0.148425 0.450461
O O11 0.451304 0.399200 0.655145
#
# Coordination Sequence:
#
# PCOD8248014 Si02
#       6
#     8   8   8   4   8   4
#     4  10  23  43  69  99 128 181 228 281 340 403
#     4  12  26  43  70 100 136 186 221 284 341 416
#     4  12  28  43  69 104 138 180 228 278 344 416
#     4  12  24  43  70 100 132 177 240 272 340 416
#     4  12  23  48  69  99 143 175 230 282 347 403
#     4  10  24  45  72  96 136 179 224 292 344 396
#
# _framework density 21.000426000000001
#
# number of rings (size 3 to 8) (size 9 to 14) (size 15 to 20)
#    0.600    0.000    6.000    1.800    5.600    0.800 
#    5.400    2.000    0.000    0.000    0.000    0.000 
#    0.000    0.000    0.000    0.000    0.000    0.000 
#
# Total GULP energy -495614.988716 kJ/mol
# GULP energy per Si atom -12390.374718 kJ/mol
# Density = 2.095263 g / cm^3
# Si number density = 21.000426 Si / 1000 Ang^3
#
#
#
# Elastic Constant Matrix: (Units=GPa)
#
#
# Indices 1 2 3 4 5 6 
#
# 1 63.8597 -0.8681 19.8912 0.0000 0.0000 0.0000
# 2 -0.8681 62.1985 5.7165 0.0000 0.0000 0.0000
# 3 19.8912 5.7165 96.8695 0.0000 0.0000 0.0000
# 4 0.0000 0.0000 0.0000 31.9347 0.0000 0.0000
# 5 0.0000 0.0000 0.0000 0.0000 33.8167 0.0000
# 6 0.0000 0.0000 0.0000 0.0000 0.0000 16.5342
#
#
#
# Elastic Compliance Matrix: (Units=1/GPa)
#
#
# Indices 1 2 3 4 5 6 
#
# 1 0.016748 0.000553 -0.003472 0.000000 0.000000 0.000000
# 2 0.000553 0.016183 -0.001069 0.000000 0.000000 0.000000
# 3 -0.003472 -0.001069 0.011099 0.000000 0.000000 0.000000
# 4 0.000000 0.000000 0.000000 0.031314 0.000000 0.000000
# 5 0.000000 0.000000 0.000000 0.000000 0.029571 0.000000
# 6 0.000000 0.000000 0.000000 0.000000 0.000000 0.060481
#
#
# Mechanical properties :
#
#
# Convention : Reuss Voigt Hill
#
# Bulk Modulus (GPa) = 27.73465 30.26742 29.00104
# Shear Modulus (GPa) = 26.97013 29.66965 28.31989
#
# Velocity S-wave (km/s) = 3.58755 3.76282 3.67623
# Velocity P-wave (km/s) = 5.51327 5.77256 5.64440
#
# Compressibility (1/GPa) = 0.03605598
#
# Stress axis : x y z
#
# Youngs Moduli (GPa) = 59.70785 61.79141 90.09736
#
# Poissons Ratio (x) = -0.03416 0.31279
# Poissons Ratio (y) = -0.03301 0.09627
# Poissons Ratio (z) = 0.20729 0.06603
#
# Static dielectric constant tensor:
#      x y z
#    x 3.856330 0.000000 0.000000 
#    y 0.000000 3.728270 0.000000 
#    z 0.000000 0.000000 3.707890 
# 
# 
# High freq. dielectric constant tensor:
#      x y z
#    x 1.817760 0.000000 0.000000 
#    y 0.000000 1.818880 0.000000 
#    z 0.000000 0.000000 1.843640 
# 
# From -- ./inp_files/9121.got.cif
#   From: 2010.03.12/outbox.cif.g09.slc.cpg/sg60_5_cif.got.tgz:9121.got - 2010.04.10 18:46:24.
