data_PCOD8248217
_publ_section_title
;
Structure prediction by ZEFSAII (Michael W. Deem and Ramdas Pophale) SiO2 
 PCOD8248217
Probable space group: P B C N
;
_chemical_formula_sum "Si O2"
_cell_formula_units_Z 36
_cell_length_a 8.108461
_cell_length_b 10.726341
_cell_length_c 18.279084
_cell_angle_alpha 90.000000
_cell_angle_beta 90.000000
_cell_angle_gamma 90.000000
_cell_volume 1589.807203
_symmetry_space_group_name_H-M "P B C N"
_symmetry_group_IT_number 60
_symmetry_cell_setting 'orthorhombic'
loop_
_space_group_symop_operation_xyz
x,y,z
1/2-x,1/2-y,1/2+z
1/2+x,1/2-y,-z
-x,y,1/2-z
-x,-y,-z
1/2+x,1/2+y,1/2-z
1/2-x,1/2+y,z
x,-y,1/2+z
loop_
_atom_site_type_symbol
_atom_site_label
_atom_site_fract_x
_atom_site_fract_y
_atom_site_fract_z
Si Si1 0.500000 0.540094 0.250000
Si Si2 0.133171 0.117234 0.869073
Si Si3 0.827100 0.776110 0.417753
Si Si4 0.304483 0.783984 0.743750
Si Si5 0.691054 0.980350 0.996744
O O1 0.506923 0.458811 0.324000
O O2 0.323620 0.605749 0.255463
O O3 0.243696 0.187139 0.808257
O O4 0.242752 0.029053 0.920192
O O5 0.027772 0.216406 0.917622
O O6 0.760998 0.774490 0.334765
O O7 0.766406 0.649761 0.456592
O O8 0.768534 0.900515 0.458248
O O9 0.500000 0.824001 0.750000
O O10 0.500000 0.000000 0.000000
#
# Coordination Sequence:
#
# PCOD8248217 Si02
#       5
#     4   8   8   8   8
#     4  12  24  46  80 102 152 202 250 324 372 440
#     4  11  25  49  70 110 148 197 257 315 373 466
#     4  11  24  49  68 111 148 199 243 323 376 458
#     4  10  25  46  74 107 150 194 260 308 382 460
#     4  12  28  43  76 106 152 198 253 309 394 456
#
# _framework density 22.644257
#
# number of rings (size 3 to 8) (size 9 to 14) (size 15 to 20)
#    0.000    0.889    3.333    3.333   12.444    0.000 
#    2.000    0.000    0.000    0.000    0.000    0.000 
#    0.000    0.000    0.000    0.000    0.000    0.000 
#
# Total GULP energy -446092.042415 kJ/mol
# GULP energy per Si atom -12391.445623 kJ/mol
# Density = 2.259272 g / cm^3
# Si number density = 22.644257 Si / 1000 Ang^3
#
#
#
# Elastic Constant Matrix: (Units=GPa)
#
#
# Indices 1 2 3 4 5 6 
#
# 1 79.6556 36.2597 45.8284 0.0000 0.0000 0.0000
# 2 36.2597 152.3788 64.1029 0.0000 0.0000 0.0000
# 3 45.8284 64.1029 146.2803 0.0000 0.0000 0.0000
# 4 0.0000 0.0000 0.0000 26.3537 0.0000 0.0000
# 5 0.0000 0.0000 0.0000 0.0000 35.1941 0.0000
# 6 0.0000 0.0000 0.0000 0.0000 0.0000 20.4366
#
#
#
# Elastic Compliance Matrix: (Units=1/GPa)
#
#
# Indices 1 2 3 4 5 6 
#
# 1 0.015825 -0.002060 -0.004055 0.000000 0.000000 0.000000
# 2 -0.002060 0.008314 -0.002998 0.000000 0.000000 0.000000
# 3 -0.004055 -0.002998 0.009420 0.000000 0.000000 0.000000
# 4 0.000000 0.000000 0.000000 0.037945 0.000000 0.000000
# 5 0.000000 0.000000 0.000000 0.000000 0.028414 0.000000
# 6 0.000000 0.000000 0.000000 0.000000 0.000000 0.048932
#
#
# Mechanical properties :
#
#
# Convention : Reuss Voigt Hill
#
# Bulk Modulus (GPa) = 65.21754 74.52185 69.86970
# Shear Modulus (GPa) = 29.03822 31.87179 30.45501
#
# Velocity S-wave (km/s) = 3.58490 3.75574 3.67131
# Velocity P-wave (km/s) = 6.78224 7.19644 6.99240
#
# Compressibility (1/GPa) = 0.01533330
#
# Stress axis : x y z
#
# Youngs Moduli (GPa) = 63.19244 120.28002 106.15212
#
# Poissons Ratio (x) = 0.24774 0.43046
# Poissons Ratio (y) = 0.13016 0.31825
# Poissons Ratio (z) = 0.25625 0.36061
#
# Static dielectric constant tensor:
#      x y z
#    x 4.562480 0.000000 0.000000 
#    y 0.000000 4.204080 0.000000 
#    z 0.000000 0.000000 4.378700 
# 
# 
# High freq. dielectric constant tensor:
#      x y z
#    x 1.882180 0.000000 0.000000 
#    y 0.000000 1.897290 0.000000 
#    z 0.000000 0.000000 1.914770 
# 
# From -- ./inp_files/21952.got.cif
#   From: 2010.03.12/outbox.cif.g09.slc.cpg/sg60_11_cif.got.tgz:21952.got - 2010.04.10 18:46:24.
