data_PCOD8248074
_publ_section_title
;
Structure prediction by ZEFSAII (Michael W. Deem and Ramdas Pophale) SiO2 
 PCOD8248074
Probable space group: P B C N
;
_chemical_formula_sum "Si O2"
_cell_formula_units_Z 60
_cell_length_a 9.478365
_cell_length_b 12.967537
_cell_length_c 23.592343
_cell_angle_alpha 90.000000
_cell_angle_beta 90.000000
_cell_angle_gamma 90.000000
_cell_volume 2899.759623
_symmetry_space_group_name_H-M "P B C N"
_symmetry_group_IT_number 60
_symmetry_cell_setting 'orthorhombic'
loop_
_space_group_symop_operation_xyz
x,y,z
1/2-x,1/2-y,1/2+z
1/2+x,1/2-y,-z
-x,y,1/2-z
-x,-y,-z
1/2+x,1/2+y,1/2-z
1/2-x,1/2+y,z
x,-y,1/2+z
loop_
_atom_site_type_symbol
_atom_site_label
_atom_site_fract_x
_atom_site_fract_y
_atom_site_fract_z
Si Si1 0.042151 0.259488 0.642696
Si Si2 0.761114 0.470058 0.221636
Si Si3 0.000000 0.378805 0.750000
Si Si4 0.825101 0.040136 0.850723
Si Si5 0.089783 0.078707 0.371886
Si Si6 0.304548 0.030574 0.948379
Si Si7 0.887977 0.445754 0.927940
Si Si8 0.219698 0.707417 0.860991
O O1 0.080252 0.307178 0.704365
O O2 0.105899 0.147841 0.633014
O O3 0.113583 0.329125 0.594615
O O4 0.873778 0.257445 0.638153
O O5 0.890994 0.548465 0.216898
O O6 0.700138 0.461290 0.284006
O O7 0.638259 0.512960 0.182202
O O8 0.806358 0.358604 0.196502
O O9 0.676107 0.025390 0.882100
O O10 0.923880 0.947682 0.874760
O O11 0.175210 0.041643 0.427777
O O12 0.105957 0.200625 0.362275
O O13 0.450468 0.974544 0.936052
O O14 0.301072 0.139750 0.916974
O O15 0.293469 0.049838 0.015399
#
# Coordination Sequence:
#
# PCOD8248074 Si02
#       8
#     8   8   4   8   8   8   8   8
#     4  12  22  43  67  96 129 180 214 270 336 394
#     4  11  23  41  65  97 132 175 218 264 330 400
#     4  12  22  42  72  92 138 180 214 264 342 398
#     4  12  26  41  66 103 135 164 224 276 324 396
#     4  11  23  43  67  97 134 168 218 273 329 389
#     4  10  23  47  70  91 129 177 220 268 334 399
#     4  11  25  46  67  97 134 171 218 280 333 388
#     4  11  22  43  71  94 126 181 225 263 332 402
#
# _framework density 20.691369999999999
#
# number of rings (size 3 to 8) (size 9 to 14) (size 15 to 20)
#    0.000    0.800    6.667    2.000    0.000    2.667 
#    4.800    0.000    0.000    0.000    0.000    0.000 
#    0.000    0.000    0.000    0.000    0.000    0.000 
#
# Total GULP energy -744235.677800 kJ/mol
# GULP energy per Si atom -12403.927963 kJ/mol
# Density = 2.064428 g / cm^3
# Si number density = 20.691370 Si / 1000 Ang^3
#
#
#
# Elastic Constant Matrix: (Units=GPa)
#
#
# Indices 1 2 3 4 5 6 
#
# 1 40.6554 16.1187 16.0481 0.0000 0.0000 0.0000
# 2 16.1187 131.4597 30.6336 0.0000 0.0000 0.0000
# 3 16.0481 30.6336 119.8003 0.0000 0.0000 0.0000
# 4 0.0000 0.0000 0.0000 17.3600 0.0000 0.0000
# 5 0.0000 0.0000 0.0000 0.0000 23.4540 0.0000
# 6 0.0000 0.0000 0.0000 0.0000 0.0000 26.1664
#
#
#
# Elastic Compliance Matrix: (Units=1/GPa)
#
#
# Indices 1 2 3 4 5 6 
#
# 1 0.026782 -0.002603 -0.002922 0.000000 0.000000 0.000000
# 2 -0.002603 0.008342 -0.001784 0.000000 0.000000 0.000000
# 3 -0.002922 -0.001784 0.009195 0.000000 0.000000 0.000000
# 4 0.000000 0.000000 0.000000 0.057604 0.000000 0.000000
# 5 0.000000 0.000000 0.000000 0.000000 0.042637 0.000000
# 6 0.000000 0.000000 0.000000 0.000000 0.000000 0.038217
#
#
# Mechanical properties :
#
#
# Convention : Reuss Voigt Hill
#
# Bulk Modulus (GPa) = 33.66962 46.39069 40.03016
# Shear Modulus (GPa) = 24.12016 28.67041 26.39528
#
# Velocity S-wave (km/s) = 3.41796 3.72643 3.57552
# Velocity P-wave (km/s) = 5.64661 6.40188 6.03607
#
# Compressibility (1/GPa) = 0.02970036
#
# Stress axis : x y z
#
# Youngs Moduli (GPa) = 37.33790 119.87731 108.75549
#
# Poissons Ratio (x) = 0.31204 0.31779
# Poissons Ratio (y) = 0.09719 0.19406
# Poissons Ratio (z) = 0.10910 0.21391
#
# Static dielectric constant tensor:
#      x y z
#    x 3.737750 0.000000 0.000000 
#    y 0.000000 3.864780 0.000000 
#    z 0.000000 0.000000 3.853300 
# 
# 
# High freq. dielectric constant tensor:
#      x y z
#    x 1.804280 0.000000 0.000000 
#    y 0.000000 1.817200 0.000000 
#    z 0.000000 0.000000 1.810400 
# 
# From -- ./inp_files/24032.got.cif
#   From: 2010.03.12/outbox.cif.g09.slc.cpg/sg60_13_cif.got.tgz:24032.got - 2010.04.10 18:46:24.
