data_PCOD8248237
_publ_section_title
;
Structure prediction by ZEFSAII (Michael W. Deem and Ramdas Pophale) SiO2 
 PCOD8248237
Probable space group: P B C N
;
_chemical_formula_sum "Si O2"
_cell_formula_units_Z 40
_cell_length_a 12.655974
_cell_length_b 24.289202
_cell_length_c 5.356436
_cell_angle_alpha 90.000000
_cell_angle_beta 90.000000
_cell_angle_gamma 90.000000
_cell_volume 1646.587222
_symmetry_space_group_name_H-M "P B C N"
_symmetry_group_IT_number 60
_symmetry_cell_setting 'orthorhombic'
loop_
_space_group_symop_operation_xyz
x,y,z
1/2-x,1/2-y,1/2+z
1/2+x,1/2-y,-z
-x,y,1/2-z
-x,-y,-z
1/2+x,1/2+y,1/2-z
1/2-x,1/2+y,z
x,-y,1/2+z
loop_
_atom_site_type_symbol
_atom_site_label
_atom_site_fract_x
_atom_site_fract_y
_atom_site_fract_z
Si Si1 0.292391 0.382220 0.457756
Si Si2 0.870628 0.205556 0.148292
Si Si3 0.161311 0.687760 0.602146
Si Si4 0.000000 0.148066 0.750000
Si Si5 0.866121 0.465379 0.942610
Si Si6 0.000000 0.373928 0.750000
O O1 0.325282 0.342425 0.678551
O O2 0.193320 0.359834 0.296247
O O3 0.397461 0.390176 0.289554
O O4 0.254176 0.441681 0.558546
O O5 0.905172 0.262810 0.274564
O O6 0.771475 0.217653 0.969565
O O7 0.975376 0.186226 0.993644
O O8 0.090356 0.663161 0.379479
O O9 0.886993 0.497378 0.683803
O O10 0.944470 0.413049 0.954224
#
# Coordination Sequence:
#
# PCOD8248237 Si02
#       6
#     8   8   8   4   8   4
#     4  11  24  49  73 107 150 201 257 326 384 461
#     4  11  22  48  70 110 154 207 250 313 384 473
#     4  11  24  45  73 110 162 207 256 305 390 478
#     4  10  26  45  76 102 154 198 254 315 394 454
#     4  12  28  52  81 114 153 206 268 339 403 462
#     4  12  26  51  76 118 154 208 256 325 392 478
#
# _framework density 24.292670000000001
#
# number of rings (size 3 to 8) (size 9 to 14) (size 15 to 20)
#    0.000    0.800    4.000    2.400    2.800    3.200 
#   10.800    3.000    0.000    0.000    0.000    0.000 
#    0.000    0.000    0.000    0.000    0.000    0.000 
#
# Total GULP energy -495872.234142 kJ/mol
# GULP energy per Si atom -12396.805854 kJ/mol
# Density = 2.423738 g / cm^3
# Si number density = 24.292670 Si / 1000 Ang^3
#
#
#
# Elastic Constant Matrix: (Units=GPa)
#
#
# Indices 1 2 3 4 5 6 
#
# 1 122.5713 46.5848 21.9841 0.0000 0.0000 0.0000
# 2 46.5848 87.2497 38.1969 0.0000 0.0000 0.0000
# 3 21.9841 38.1969 112.8507 0.0000 0.0000 0.0000
# 4 0.0000 0.0000 0.0000 29.7359 0.0000 0.0000
# 5 0.0000 0.0000 0.0000 0.0000 51.3702 0.0000
# 6 0.0000 0.0000 0.0000 0.0000 0.0000 23.5936
#
#
#
# Elastic Compliance Matrix: (Units=1/GPa)
#
#
# Indices 1 2 3 4 5 6 
#
# 1 0.010238 -0.005392 -0.000169 0.000000 0.000000 0.000000
# 2 -0.005392 0.016295 -0.004465 0.000000 0.000000 0.000000
# 3 -0.000169 -0.004465 0.010406 0.000000 0.000000 0.000000
# 4 0.000000 0.000000 0.000000 0.033629 0.000000 0.000000
# 5 0.000000 0.000000 0.000000 0.000000 0.019467 0.000000
# 6 0.000000 0.000000 0.000000 0.000000 0.000000 0.042384
#
#
# Mechanical properties :
#
#
# Convention : Reuss Voigt Hill
#
# Bulk Modulus (GPa) = 59.22190 59.57817 59.40003
# Shear Modulus (GPa) = 31.62526 35.33365 33.47945
#
# Velocity S-wave (km/s) = 3.61202 3.81793 3.71640
# Velocity P-wave (km/s) = 6.46738 6.63429 6.55137
#
# Compressibility (1/GPa) = 0.01688565
#
# Stress axis : x y z
#
# Youngs Moduli (GPa) = 97.67221 61.36767 96.10263
#
# Poissons Ratio (x) = 0.33092 0.01627
# Poissons Ratio (y) = 0.52669 0.42910
# Poissons Ratio (z) = 0.01654 0.27401
#
# Static dielectric constant tensor:
#      x y z
#    x 5.060900 0.000000 0.000000 
#    y 0.000000 4.175450 0.000000 
#    z 0.000000 0.000000 4.565000 
# 
# 
# High freq. dielectric constant tensor:
#      x y z
#    x 1.994160 0.000000 0.000000 
#    y 0.000000 1.940530 0.000000 
#    z 0.000000 0.000000 1.976060 
# 
# From -- ./inp_files/1220.got.cif
#   From: 2010.03.12/outbox.cif.g09.slc.cpg/sg60_1_cif.got.tgz:1220.got - 2010.04.10 18:46:24.
