data_PCOD8248267
_publ_section_title
;
Structure prediction by ZEFSAII (Michael W. Deem and Ramdas Pophale) SiO2 
 PCOD8248267
Probable space group: P B C N
;
_chemical_formula_sum "Si O2"
_cell_formula_units_Z 40
_cell_length_a 6.594445
_cell_length_b 16.048341
_cell_length_c 16.896117
_cell_angle_alpha 90.000000
_cell_angle_beta 90.000000
_cell_angle_gamma 90.000000
_cell_volume 1788.114407
_symmetry_space_group_name_H-M "P B C N"
_symmetry_group_IT_number 60
_symmetry_cell_setting 'orthorhombic'
loop_
_space_group_symop_operation_xyz
x,y,z
1/2-x,1/2-y,1/2+z
1/2+x,1/2-y,-z
-x,y,1/2-z
-x,-y,-z
1/2+x,1/2+y,1/2-z
1/2-x,1/2+y,z
x,-y,1/2+z
loop_
_atom_site_type_symbol
_atom_site_label
_atom_site_fract_x
_atom_site_fract_y
_atom_site_fract_z
Si Si1 0.632513 0.439057 0.056038
Si Si2 0.481489 0.295667 0.344568
Si Si3 0.373036 0.313939 0.824636
Si Si4 0.421861 0.039228 0.329280
Si Si5 0.260194 0.851693 0.588857
O O1 0.489994 0.386945 0.116656
O O2 0.797467 0.485097 0.109272
O O3 0.500000 0.500000 0.000000
O O4 0.756909 0.370936 0.004589
O O5 0.500000 0.299640 0.250000
O O6 0.254963 0.261417 0.362887
O O7 0.647210 0.237194 0.387023
O O8 0.500000 0.280606 0.750000
O O9 0.213822 0.384201 0.796572
O O10 0.523352 0.353979 0.888158
O O11 0.500000 0.990355 0.250000
O O12 0.621073 0.072130 0.372543
#
# Coordination Sequence:
#
# PCOD8248267 Si02
#       5
#     8   8   8   8   8
#     4  12  28  45  67 105 145 184 228 295 364 416
#     4  11  26  45  69 103 134 179 238 284 345 424
#     4  11  19  42  74 101 130 184 235 283 343 414
#     4  11  23  43  70 103 139 188 233 281 352 425
#     4  11  23  45  72  96 140 181 230 291 345 412
#
# _framework density 22.369934000000001
#
# number of rings (size 3 to 8) (size 9 to 14) (size 15 to 20)
#    0.000    0.800    6.000    1.800    2.800    3.200 
#    3.600    0.000    0.000    0.000    0.000    0.000 
#    0.000    0.000    0.000    0.000    0.000    0.000 
#
# Total GULP energy -495828.518668 kJ/mol
# GULP energy per Si atom -12395.712967 kJ/mol
# Density = 2.231902 g / cm^3
# Si number density = 22.369934 Si / 1000 Ang^3
#
#
#
# Elastic Constant Matrix: (Units=GPa)
#
#
# Indices 1 2 3 4 5 6 
#
# 1 115.6702 36.0605 56.3411 0.0000 0.0000 0.0000
# 2 36.0605 100.6188 76.2535 0.0000 0.0000 0.0000
# 3 56.3411 76.2535 144.0057 0.0000 0.0000 0.0000
# 4 0.0000 0.0000 0.0000 43.9843 0.0000 0.0000
# 5 0.0000 0.0000 0.0000 0.0000 35.7225 0.0000
# 6 0.0000 0.0000 0.0000 0.0000 0.0000 19.9611
#
#
#
# Elastic Compliance Matrix: (Units=1/GPa)
#
#
# Indices 1 2 3 4 5 6 
#
# 1 0.010755 -0.001112 -0.003619 0.000000 0.000000 0.000000
# 2 -0.001112 0.016715 -0.008416 0.000000 0.000000 0.000000
# 3 -0.003619 -0.008416 0.012816 0.000000 0.000000 0.000000
# 4 0.000000 0.000000 0.000000 0.022735 0.000000 0.000000
# 5 0.000000 0.000000 0.000000 0.000000 0.027994 0.000000
# 6 0.000000 0.000000 0.000000 0.000000 0.000000 0.050098
#
#
# Mechanical properties :
#
#
# Convention : Reuss Voigt Hill
#
# Bulk Modulus (GPa) = 71.46544 77.51168 74.48856
# Shear Modulus (GPa) = 29.05800 32.70954 30.88377
#
# Velocity S-wave (km/s) = 3.60804 3.82803 3.71966
# Velocity P-wave (km/s) = 7.02664 7.36638 7.19852
#
# Compressibility (1/GPa) = 0.01399278
#
# Stress axis : x y z
#
# Youngs Moduli (GPa) = 92.98347 59.82711 78.02483
#
# Poissons Ratio (x) = 0.06651 0.28237
# Poissons Ratio (y) = 0.10337 0.65665
# Poissons Ratio (z) = 0.33651 0.50350
#
# Static dielectric constant tensor:
#      x y z
#    x 4.160890 0.000000 0.000000 
#    y 0.000000 3.850300 0.000000 
#    z 0.000000 0.000000 4.180160 
# 
# 
# High freq. dielectric constant tensor:
#      x y z
#    x 1.887890 0.000000 0.000000 
#    y 0.000000 1.861370 0.000000 
#    z 0.000000 0.000000 1.895800 
# 
# From -- ./inp_files/18535.got.cif
#   From: 2010.03.12/outbox.cif.g09.slc.cpg/sg60_10_cif.got.tgz:18535.got - 2010.04.10 18:46:24.
