data_PCOD8248352
_publ_section_title
;
Structure prediction by ZEFSAII (Michael W. Deem and Ramdas Pophale) SiO2 
 PCOD8248352
Probable space group: P B C N
;
_chemical_formula_sum "Si O2"
_cell_formula_units_Z 28
_cell_length_a 17.532670
_cell_length_b 16.410491
_cell_length_c 5.165894
_cell_angle_alpha 90.000000
_cell_angle_beta 90.000000
_cell_angle_gamma 90.000000
_cell_volume 1486.329592
_symmetry_space_group_name_H-M "P B C N"
_symmetry_group_IT_number 60
_symmetry_cell_setting 'orthorhombic'
loop_
_space_group_symop_operation_xyz
x,y,z
1/2-x,1/2-y,1/2+z
1/2+x,1/2-y,-z
-x,y,1/2-z
-x,-y,-z
1/2+x,1/2+y,1/2-z
1/2-x,1/2+y,z
x,-y,1/2+z
loop_
_atom_site_type_symbol
_atom_site_label
_atom_site_fract_x
_atom_site_fract_y
_atom_site_fract_z
Si Si1 0.538341 0.259142 0.003015
Si Si2 0.500000 0.898033 0.750000
Si Si3 0.335572 0.953533 0.737380
Si Si4 0.707280 0.773301 0.604233
O O1 0.500000 0.298933 0.750000
O O2 0.629272 0.269981 0.012567
O O3 0.500000 0.304000 0.250000
O O4 0.516362 0.162527 0.006516
O O5 0.427336 0.955467 0.708107
O O6 0.304732 0.988232 0.465870
O O7 0.305241 0.863200 0.783977
O O8 0.740583 0.722769 0.847518
#
# Coordination Sequence:
#
# PCOD8248352 Si02
#       4
#     8   4   8   8
#     4   9  18  31  51  74 106 139 182 219 245 313
#     4   8  20  28  52  72 112 142 176 196 254 302
#     4  11  22  33  51  77 110 145 181 211 257 322
#     4  11  22  36  54  75 111 149 183 222 269 310
#
# _framework density 18.838352
#
# number of rings (size 3 to 8) (size 9 to 14) (size 15 to 20)
#    0.857    1.143    0.000    4.286    8.000    0.000 
#    0.000    0.000    0.000    0.000    0.000    0.000 
#    0.000   80.000    0.000    0.000    0.000    0.000 
#
# Total GULP energy -346959.864553 kJ/mol
# GULP energy per Si atom -12391.423734 kJ/mol
# Density = 1.879548 g / cm^3
# Si number density = 18.838352 Si / 1000 Ang^3
#
#
#
# Elastic Constant Matrix: (Units=GPa)
#
#
# Indices 1 2 3 4 5 6 
#
# 1 103.5604 22.9601 52.6527 0.0000 0.0000 0.0000
# 2 22.9601 27.7007 8.0865 0.0000 0.0000 0.0000
# 3 52.6527 8.0865 138.9761 0.0000 0.0000 0.0000
# 4 0.0000 0.0000 0.0000 13.8248 0.0000 0.0000
# 5 0.0000 0.0000 0.0000 0.0000 31.3050 0.0000
# 6 0.0000 0.0000 0.0000 0.0000 0.0000 18.5257
#
#
#
# Elastic Compliance Matrix: (Units=1/GPa)
#
#
# Indices 1 2 3 4 5 6 
#
# 1 0.014477 -0.010578 -0.004869 0.000000 0.000000 0.000000
# 2 -0.010578 0.044453 0.001421 0.000000 0.000000 0.000000
# 3 -0.004869 0.001421 0.008958 0.000000 0.000000 0.000000
# 4 0.000000 0.000000 0.000000 0.072334 0.000000 0.000000
# 5 0.000000 0.000000 0.000000 0.000000 0.031944 0.000000
# 6 0.000000 0.000000 0.000000 0.000000 0.000000 0.053979
#
#
# Mechanical properties :
#
#
# Convention : Reuss Voigt Hill
#
# Bulk Modulus (GPa) = 25.10347 48.62620 36.86483
# Shear Modulus (GPa) = 18.69330 25.16696 21.93013
#
# Velocity S-wave (km/s) = 3.15350 3.65902 3.41562
# Velocity P-wave (km/s) = 5.15888 6.61208 5.93016
#
# Compressibility (1/GPa) = 0.03983514
#
# Stress axis : x y z
#
# Youngs Moduli (GPa) = 69.07449 22.49562 111.63711
#
# Poissons Ratio (x) = 0.23796 0.54360
# Poissons Ratio (y) = 0.73067 -0.15864
# Poissons Ratio (z) = 0.33635 -0.03197
#
# Static dielectric constant tensor:
#      x y z
#    x 3.394850 0.000000 0.000000 
#    y 0.000000 2.914230 0.000000 
#    z 0.000000 0.000000 3.542390 
# 
# 
# High freq. dielectric constant tensor:
#      x y z
#    x 1.717970 0.000000 0.000000 
#    y 0.000000 1.674870 0.000000 
#    z 0.000000 0.000000 1.751530 
# 
# From -- ./inp_files/1538.got.cif
#   From: 2010.03.12/outbox.cif.g09.slc.cpg/sg60_1_cif.got.tgz:1538.got - 2010.04.10 18:46:24.
