data_PCOD8248847
_publ_section_title
;
Structure prediction by ZEFSAII (Michael W. Deem and Ramdas Pophale) SiO2 
 PCOD8248847
Probable space group: P B C A
;
_chemical_formula_sum "Si O2"
_cell_formula_units_Z 32
_cell_length_a 5.177865
_cell_length_b 18.722392
_cell_length_c 15.162656
_cell_angle_alpha 90.000000
_cell_angle_beta 90.000000
_cell_angle_gamma 90.000000
_cell_volume 1469.898475
_symmetry_space_group_name_H-M "P B C A"
_symmetry_group_IT_number 61
_symmetry_cell_setting 'orthorhombic'
loop_
_space_group_symop_operation_xyz
x,y,z
1/2-x,-y,1/2+z
1/2+x,1/2-y,-z
-x,1/2+y,1/2-z
-x,-y,-z
1/2+x,y,1/2-z
1/2-x,1/2+y,z
x,1/2-y,1/2+z
loop_
_atom_site_type_symbol
_atom_site_label
_atom_site_fract_x
_atom_site_fract_y
_atom_site_fract_z
Si Si1 0.950145 0.435729 0.431616
Si Si2 0.882073 0.862449 0.694301
Si Si3 0.050292 0.988576 0.395923
Si Si4 0.786007 0.290457 0.523783
O O1 0.223510 0.429333 0.380337
O O2 0.000000 0.500000 0.500000
O O3 0.724103 0.457589 0.361581
O O4 0.875758 0.363604 0.479816
O O5 0.674225 0.852889 0.772115
O O6 0.820209 0.802374 0.622204
O O7 0.857939 0.940090 0.651452
O O8 0.000000 0.000000 0.500000
O O9 0.541591 0.258715 0.470453
#
# Coordination Sequence:
#
# PCOD8248847 Si02
#       4
#     8   8   8   8
#     4  10  19  36  67  93 129 156 232 276 314 386
#     4  12  25  41  67 103 139 171 223 291 346 398
#     4  10  19  36  67  93 129 163 222 269 327 396
#     4  12  25  41  67 103 127 188 239 272 333 423
#
# _framework density 21.770209999999999
#
# number of rings (size 3 to 8) (size 9 to 14) (size 15 to 20)
#    0.000    1.000    5.000    4.500    7.000    0.000 
#    0.000    0.000    0.000   30.000    0.000    0.000 
#    0.000    0.000    0.000    0.000    0.000    0.000 
#
# Total GULP energy -396496.047433 kJ/mol
# GULP energy per Si atom -12390.501482 kJ/mol
# Density = 2.172066 g / cm^3
# Si number density = 21.770210 Si / 1000 Ang^3
#
#
#
# Elastic Constant Matrix: (Units=GPa)
#
#
# Indices 1 2 3 4 5 6 
#
# 1 214.1371 46.4321 21.0750 0.0000 0.0000 0.0000
# 2 46.4321 101.4522 33.2572 0.0000 0.0000 0.0000
# 3 21.0750 33.2572 49.0419 0.0000 0.0000 0.0000
# 4 0.0000 0.0000 0.0000 21.7533 0.0000 0.0000
# 5 0.0000 0.0000 0.0000 0.0000 35.2903 0.0000
# 6 0.0000 0.0000 0.0000 0.0000 0.0000 46.1528
#
#
#
# Elastic Compliance Matrix: (Units=1/GPa)
#
#
# Indices 1 2 3 4 5 6 
#
# 1 0.005209 -0.002122 -0.000799 0.000000 0.000000 0.000000
# 2 -0.002122 0.013539 -0.008269 0.000000 0.000000 0.000000
# 3 -0.000799 -0.008269 0.026342 0.000000 0.000000 0.000000
# 4 0.000000 0.000000 0.000000 0.045970 0.000000 0.000000
# 5 0.000000 0.000000 0.000000 0.000000 0.028336 0.000000
# 6 0.000000 0.000000 0.000000 0.000000 0.000000 0.021667
#
#
# Mechanical properties :
#
#
# Convention : Reuss Voigt Hill
#
# Bulk Modulus (GPa) = 44.03686 62.90666 53.47176
# Shear Modulus (GPa) = 29.23742 38.23040 33.73391
#
# Velocity S-wave (km/s) = 3.66867 4.19512 3.94070
# Velocity P-wave (km/s) = 6.18203 7.24043 6.73206
#
# Compressibility (1/GPa) = 0.02270825
#
# Stress axis : x y z
#
# Youngs Moduli (GPa) = 191.98776 73.86218 37.96211
#
# Poissons Ratio (x) = 0.15672 0.03035
# Poissons Ratio (y) = 0.40736 0.31392
# Poissons Ratio (z) = 0.15349 0.61079
#
# Static dielectric constant tensor:
#      x y z
#    x 2.335210 0.000000 0.000000 
#    y 0.000000 3.905370 0.000000 
#    z 0.000000 0.000000 3.653750 
# 
# 
# High freq. dielectric constant tensor:
#      x y z
#    x 1.907260 0.000000 0.000000 
#    y 0.000000 1.836990 0.000000 
#    z 0.000000 0.000000 1.811940 
# 
# From -- ./inp_files/655.got.cif
#   From: 2010.03.12/outbox.cif.g09.slc.cpg/sg61_1_cif.got.tgz:655.got - 2010.04.10 19:05:03.
