data_PCOD8248367
_publ_section_title
;
Structure prediction by ZEFSAII (Michael W. Deem and Ramdas Pophale) SiO2 
 PCOD8248367
Probable space group: P B C N
;
_chemical_formula_sum "Si O2"
_cell_formula_units_Z 40
_cell_length_a 11.834846
_cell_length_b 17.949244
_cell_length_c 9.806246
_cell_angle_alpha 90.000000
_cell_angle_beta 90.000000
_cell_angle_gamma 90.000000
_cell_volume 2083.106894
_symmetry_space_group_name_H-M "P B C N"
_symmetry_group_IT_number 60
_symmetry_cell_setting 'orthorhombic'
loop_
_space_group_symop_operation_xyz
x,y,z
1/2-x,1/2-y,1/2+z
1/2+x,1/2-y,-z
-x,y,1/2-z
-x,-y,-z
1/2+x,1/2+y,1/2-z
1/2-x,1/2+y,z
x,-y,1/2+z
loop_
_atom_site_type_symbol
_atom_site_label
_atom_site_fract_x
_atom_site_fract_y
_atom_site_fract_z
Si Si1 0.712448 0.639268 0.460699
Si Si2 0.680195 0.347629 0.280069
Si Si3 0.921454 0.996669 0.871035
Si Si4 0.905220 0.720502 0.863294
Si Si5 0.943188 0.299369 0.882359
O O1 0.674842 0.652231 0.616404
O O2 0.681770 0.558312 0.403596
O O3 0.650756 0.698129 0.362501
O O4 0.846723 0.648148 0.444855
O O5 0.629931 0.423572 0.336766
O O6 0.809115 0.340398 0.330519
O O7 0.604083 0.281901 0.342070
O O8 0.000000 0.965882 0.750000
O O9 0.000000 0.000000 0.000000
O O10 0.000000 0.717450 0.750000
O O11 0.956717 0.705138 0.009920
O O12 0.000000 0.337316 0.750000
#
# Coordination Sequence:
#
# PCOD8248367 Si02
#       5
#     8   8   8   8   8
#     4  11  23  40  63  94 123 161 208 250 304 370
#     4  11  23  41  62  93 127 158 205 256 302 364
#     4  12  24  41  65  90 125 162 202 254 311 361
#     4  11  22  39  66  91 121 162 203 252 309 357
#     4  11  22  40  66  91 124 160 204 257 305 355
#
# _framework density 19.202086000000001
#
# number of rings (size 3 to 8) (size 9 to 14) (size 15 to 20)
#    0.000    0.800    6.000    2.400    0.000    1.600 
#    0.000    2.000    0.000    0.000    0.000    0.000 
#    0.000    0.000    0.000    0.000    0.000    0.000 
#
# Total GULP energy -496109.574304 kJ/mol
# GULP energy per Si atom -12402.739358 kJ/mol
# Density = 1.915838 g / cm^3
# Si number density = 19.202086 Si / 1000 Ang^3
#
#
#
# Elastic Constant Matrix: (Units=GPa)
#
#
# Indices 1 2 3 4 5 6 
#
# 1 104.2237 36.4811 37.1752 0.0000 0.0000 0.0000
# 2 36.4811 88.7750 25.8492 0.0000 0.0000 0.0000
# 3 37.1752 25.8492 120.9694 0.0000 0.0000 0.0000
# 4 0.0000 0.0000 0.0000 27.4099 0.0000 0.0000
# 5 0.0000 0.0000 0.0000 0.0000 50.8979 0.0000
# 6 0.0000 0.0000 0.0000 0.0000 0.0000 59.2206
#
#
#
# Elastic Compliance Matrix: (Units=1/GPa)
#
#
# Indices 1 2 3 4 5 6 
#
# 1 0.012046 -0.004129 -0.002819 0.000000 0.000000 0.000000
# 2 -0.004129 0.013427 -0.001600 0.000000 0.000000 0.000000
# 3 -0.002819 -0.001600 0.009475 0.000000 0.000000 0.000000
# 4 0.000000 0.000000 0.000000 0.036483 0.000000 0.000000
# 5 0.000000 0.000000 0.000000 0.000000 0.019647 0.000000
# 6 0.000000 0.000000 0.000000 0.000000 0.000000 0.016886
#
#
# Mechanical properties :
#
#
# Convention : Reuss Voigt Hill
#
# Bulk Modulus (GPa) = 56.02164 56.99766 56.50965
# Shear Modulus (GPa) = 38.16446 41.80317 39.98382
#
# Velocity S-wave (km/s) = 4.46299 4.67091 4.56813
# Velocity P-wave (km/s) = 7.46966 7.67055 7.57077
#
# Compressibility (1/GPa) = 0.01785025
#
# Stress axis : x y z
#
# Youngs Moduli (GPa) = 83.01721 74.47572 105.54149
#
# Poissons Ratio (x) = 0.30752 0.29757
# Poissons Ratio (y) = 0.34278 0.16889
# Poissons Ratio (z) = 0.23406 0.11918
#
# Static dielectric constant tensor:
#      x y z
#    x 3.700960 0.000000 0.000000 
#    y 0.000000 3.577950 0.000000 
#    z 0.000000 0.000000 3.875720 
# 
# 
# High freq. dielectric constant tensor:
#      x y z
#    x 1.765800 0.000000 0.000000 
#    y 0.000000 1.723820 0.000000 
#    z 0.000000 0.000000 1.766370 
# 
# From -- ./inp_files/4753.got.cif
#   From: 2010.03.12/outbox.cif.g09.slc.cpg/sg60_3_cif.got.tgz:4753.got - 2010.04.10 18:46:24.
