data_PCOD8248827
_publ_section_title
;
Structure prediction by ZEFSAII (Michael W. Deem and Ramdas Pophale) SiO2 
 PCOD8248827
Probable space group: P B C A
;
_chemical_formula_sum "Si O2"
_cell_formula_units_Z 64
_cell_length_a 18.098746
_cell_length_b 20.557708
_cell_length_c 8.893312
_cell_angle_alpha 90.000000
_cell_angle_beta 90.000000
_cell_angle_gamma 90.000000
_cell_volume 3308.923350
_symmetry_space_group_name_H-M "P B C A"
_symmetry_group_IT_number 61
_symmetry_cell_setting 'orthorhombic'
loop_
_space_group_symop_operation_xyz
x,y,z
1/2-x,-y,1/2+z
1/2+x,1/2-y,-z
-x,1/2+y,1/2-z
-x,-y,-z
1/2+x,y,1/2-z
1/2-x,1/2+y,z
x,1/2-y,1/2+z
loop_
_atom_site_type_symbol
_atom_site_label
_atom_site_fract_x
_atom_site_fract_y
_atom_site_fract_z
Si Si1 0.293859 0.675900 0.694268
Si Si2 0.095260 0.774201 0.275594
Si Si3 0.461450 0.860979 0.157535
Si Si4 0.964220 0.473530 0.350395
Si Si5 0.272660 0.293884 0.499679
Si Si6 0.136441 0.634922 0.222193
Si Si7 0.162161 0.881767 0.067418
Si Si8 0.502431 0.939374 0.892461
O O1 0.379418 0.663411 0.678382
O O2 0.284681 0.684059 0.873139
O O3 0.265149 0.737584 0.598520
O O4 0.245677 0.614299 0.633651
O O5 0.151884 0.773463 0.415252
O O6 0.086206 0.700053 0.222844
O O7 0.126245 0.816198 0.136035
O O8 0.015332 0.800009 0.321061
O O9 0.482692 0.920143 0.269916
O O10 0.466967 0.879765 0.981923
O O11 0.883395 0.444162 0.377021
O O12 0.954476 0.538939 0.251374
O O13 0.000000 0.500000 0.500000
O O14 0.293019 0.353092 0.613223
O O15 0.165262 0.618271 0.387847
O O16 0.086401 0.576704 0.157891
O O17 0.500000 0.000000 0.000000
#
# Coordination Sequence:
#
# PCOD8248827 Si02
#       8
#     8   8   8   8   8   8   8   8
#     4  11  22  40  55  91 133 160 195 247 337 381
#     4  10  19  35  60  93 115 153 212 247 306 370
#     4  10  23  39  60  92 130 158 194 275 317 364
#     4  10  20  41  63  88 115 160 225 266 296 354
#     4  11  20  35  61  87 125 167 196 241 309 405
#     4  12  18  35  64  92 111 159 217 245 302 370
#     4  10  20  35  63  84 121 161 201 258 306 386
#     4  10  22  37  62  88 120 160 212 261 301 357
#
# _framework density 19.341638
#
# number of rings (size 3 to 8) (size 9 to 14) (size 15 to 20)
#    0.000    1.500    6.250    0.000    1.750    1.000 
#    2.250    3.750    0.000    0.000    0.000    0.000 
#    0.000    0.000    0.000    0.000    0.000    0.000 
#
# Total GULP energy -793059.587737 kJ/mol
# GULP energy per Si atom -12391.556058 kJ/mol
# Density = 1.929762 g / cm^3
# Si number density = 19.341638 Si / 1000 Ang^3
#
#
#
# Elastic Constant Matrix: (Units=GPa)
#
#
# Indices 1 2 3 4 5 6 
#
# 1 123.6571 15.3984 39.9137 0.0000 0.0000 0.0000
# 2 15.3984 26.8291 17.5901 0.0000 0.0000 0.0000
# 3 39.9137 17.5901 142.1900 0.0000 0.0000 0.0000
# 4 0.0000 0.0000 0.0000 35.8008 0.0000 0.0000
# 5 0.0000 0.0000 0.0000 0.0000 18.7169 0.0000
# 6 0.0000 0.0000 0.0000 0.0000 0.0000 18.6954
#
#
#
# Elastic Compliance Matrix: (Units=1/GPa)
#
#
# Indices 1 2 3 4 5 6 
#
# 1 0.009258 -0.003928 -0.002113 0.000000 0.000000 0.000000
# 2 -0.003928 0.042230 -0.004121 0.000000 0.000000 0.000000
# 3 -0.002113 -0.004121 0.008136 0.000000 0.000000 0.000000
# 4 0.000000 0.000000 0.000000 0.027932 0.000000 0.000000
# 5 0.000000 0.000000 0.000000 0.000000 0.053428 0.000000
# 6 0.000000 0.000000 0.000000 0.000000 0.000000 0.053489
#
#
# Mechanical properties :
#
#
# Convention : Reuss Voigt Hill
#
# Bulk Modulus (GPa) = 25.44636 48.72004 37.08320
# Shear Modulus (GPa) = 21.93969 29.29422 25.61696
#
# Velocity S-wave (km/s) = 3.37163 3.89597 3.64324
# Velocity P-wave (km/s) = 5.32372 6.74403 6.07552
#
# Compressibility (1/GPa) = 0.03929835
#
# Stress axis : x y z
#
# Youngs Moduli (GPa) = 108.01439 23.67997 122.91380
#
# Poissons Ratio (x) = 0.09302 0.25969
# Poissons Ratio (y) = 0.42432 0.50658
# Poissons Ratio (z) = 0.22821 0.09760
#
# Static dielectric constant tensor:
#      x y z
#    x 3.400550 0.000000 0.000000 
#    y 0.000000 3.413750 0.000000 
#    z 0.000000 0.000000 3.936390 
# 
# 
# High freq. dielectric constant tensor:
#      x y z
#    x 1.725970 0.000000 0.000000 
#    y 0.000000 1.734890 0.000000 
#    z 0.000000 0.000000 1.782480 
# 
# From -- ./inp_files/3761.got.cif
#   From: 2010.03.12/outbox.cif.g09.slc.cpg/sg61_2_cif.got.tgz:3761.got - 2010.04.10 19:05:03.
