data_PCOD8248384
_publ_section_title
;
Structure prediction by ZEFSAII (Michael W. Deem and Ramdas Pophale) SiO2 
 PCOD8248384
Probable space group: P B C N
;
_chemical_formula_sum "Si O2"
_cell_formula_units_Z 48
_cell_length_a 12.897787
_cell_length_b 9.101954
_cell_length_c 18.353769
_cell_angle_alpha 90.000000
_cell_angle_beta 90.000000
_cell_angle_gamma 90.000000
_cell_volume 2154.641886
_symmetry_space_group_name_H-M "P B C N"
_symmetry_group_IT_number 60
_symmetry_cell_setting 'orthorhombic'
loop_
_space_group_symop_operation_xyz
x,y,z
1/2-x,1/2-y,1/2+z
1/2+x,1/2-y,-z
-x,y,1/2-z
-x,-y,-z
1/2+x,1/2+y,1/2-z
1/2-x,1/2+y,z
x,-y,1/2+z
loop_
_atom_site_type_symbol
_atom_site_label
_atom_site_fract_x
_atom_site_fract_y
_atom_site_fract_z
Si Si1 0.696273 0.742415 0.268399
Si Si2 0.410503 0.326628 0.591952
Si Si3 0.361316 0.365267 0.885572
Si Si4 0.889490 0.431956 0.789112
Si Si5 0.240910 0.108554 0.964982
Si Si6 0.587825 0.008243 0.941245
O O1 0.658663 0.638757 0.336483
O O2 0.635855 0.689234 0.196795
O O3 0.675607 0.916037 0.278114
O O4 0.818742 0.702796 0.258745
O O5 0.521528 0.406432 0.591015
O O6 0.356854 0.345505 0.513745
O O7 0.432526 0.155764 0.602820
O O8 0.311488 0.243489 0.939315
O O9 0.296735 0.516361 0.894615
O O10 0.912624 0.392087 0.874475
O O11 0.000000 0.437129 0.750000
O O12 0.304072 0.998735 0.016845
O O13 0.500000 0.000000 0.000000
#
# Coordination Sequence:
#
# PCOD8248384 Si02
#       6
#     8   8   8   8   8   8
#     4  11  24  45  69  98 136 178 227 280 336 413
#     4  11  23  44  67  96 132 176 218 276 339 396
#     4  12  25  41  67  95 133 173 222 268 337 395
#     4  11  25  45  73  99 136 184 229 280 349 406
#     4  12  24  41  65  98 129 170 218 277 324 403
#     4  11  22  41  69  96 133 172 220 272 340 399
#
# _framework density 22.277484000000001
#
# number of rings (size 3 to 8) (size 9 to 14) (size 15 to 20)
#    0.000    0.667    5.000    4.000    2.333    0.000 
#    0.000    4.167    0.000    0.000    0.000    0.000 
#    0.000    0.000    0.000    0.000    0.000    0.000 
#
# Total GULP energy -594883.690278 kJ/mol
# GULP energy per Si atom -12393.410214 kJ/mol
# Density = 2.222678 g / cm^3
# Si number density = 22.277484 Si / 1000 Ang^3
#
#
#
# Elastic Constant Matrix: (Units=GPa)
#
#
# Indices 1 2 3 4 5 6 
#
# 1 134.8937 42.1274 30.4648 0.0000 0.0000 0.0000
# 2 42.1274 47.6840 16.0514 0.0000 0.0000 0.0000
# 3 30.4648 16.0514 127.1387 0.0000 0.0000 0.0000
# 4 0.0000 0.0000 0.0000 26.8352 0.0000 0.0000
# 5 0.0000 0.0000 0.0000 0.0000 44.5304 0.0000
# 6 0.0000 0.0000 0.0000 0.0000 0.0000 29.2495
#
#
#
# Elastic Compliance Matrix: (Units=1/GPa)
#
#
# Indices 1 2 3 4 5 6 
#
# 1 0.010472 -0.008780 -0.001401 0.000000 0.000000 0.000000
# 2 -0.008780 0.029264 -0.001591 0.000000 0.000000 0.000000
# 3 -0.001401 -0.001591 0.008402 0.000000 0.000000 0.000000
# 4 0.000000 0.000000 0.000000 0.037264 0.000000 0.000000
# 5 0.000000 0.000000 0.000000 0.000000 0.022457 0.000000
# 6 0.000000 0.000000 0.000000 0.000000 0.000000 0.034189
#
#
# Mechanical properties :
#
#
# Convention : Reuss Voigt Hill
#
# Bulk Modulus (GPa) = 40.65954 54.11153 47.38553
# Shear Modulus (GPa) = 28.77080 34.86120 31.81600
#
# Velocity S-wave (km/s) = 3.59761 3.96013 3.78321
# Velocity P-wave (km/s) = 5.96222 6.72701 6.35613
#
# Compressibility (1/GPa) = 0.02459448
#
# Stress axis : x y z
#
# Youngs Moduli (GPa) = 95.49710 34.17218 119.02073
#
# Poissons Ratio (x) = 0.30002 0.16671
# Poissons Ratio (y) = 0.83844 0.18933
# Poissons Ratio (z) = 0.13376 0.05436
#
# Static dielectric constant tensor:
#      x y z
#    x 3.514420 0.000000 0.000000 
#    y 0.000000 3.691480 0.000000 
#    z 0.000000 0.000000 4.050880 
# 
# 
# High freq. dielectric constant tensor:
#      x y z
#    x 1.885180 0.000000 0.000000 
#    y 0.000000 1.850780 0.000000 
#    z 0.000000 0.000000 1.896450 
# 
# From -- ./inp_files/20016.got.cif
#   From: 2010.03.12/outbox.cif.g09.slc.cpg/sg60_11_cif.got.tgz:20016.got - 2010.04.10 18:46:24.
