data_PCOD8248694
_publ_section_title
;
Structure prediction by ZEFSAII (Michael W. Deem and Ramdas Pophale) SiO2 
 PCOD8248694
Probable space group: P B C N
;
_chemical_formula_sum "Si O2"
_cell_formula_units_Z 48
_cell_length_a 15.000000
_cell_length_b 9.000000
_cell_length_c 18.000000
_cell_angle_alpha 90.000000
_cell_angle_beta 90.000000
_cell_angle_gamma 90.000000
_cell_volume 2430.000000
_symmetry_space_group_name_H-M "P B C N"
_symmetry_group_IT_number 60
_symmetry_cell_setting 'orthorhombic'
loop_
_space_group_symop_operation_xyz
x,y,z
1/2-x,1/2-y,1/2+z
1/2+x,1/2-y,-z
-x,y,1/2-z
-x,-y,-z
1/2+x,1/2+y,1/2-z
1/2-x,1/2+y,z
x,-y,1/2+z
loop_
_atom_site_type_symbol
_atom_site_label
_atom_site_fract_x
_atom_site_fract_y
_atom_site_fract_z
Si Si1 0.206400 0.953724 0.332595
Si Si2 0.647451 0.239171 0.590450
Si Si3 0.989541 0.417919 0.333423
Si Si4 0.286487 0.990144 0.163948
Si Si5 0.972666 0.238437 0.667683
Si Si6 0.847994 0.787244 0.412774
O O1 0.286312 0.890790 0.382854
O O2 0.245139 0.977365 0.248068
O O3 0.124361 0.837036 0.342274
O O4 0.173417 0.109777 0.366564
O O5 0.545618 0.190667 0.611792
O O6 0.654144 0.254100 0.500980
O O7 0.882738 0.409369 0.348042
O O8 0.000000 0.358830 0.250000
O O9 0.031921 0.583073 0.341557
O O10 0.214352 0.928358 0.105215
O O11 0.305659 0.159735 0.140229
O O12 0.000000 0.193247 0.750000
O O13 0.048964 0.179315 0.610629
#
# Coordination Sequence:
#
# PCOD8248694 Si02
#       6
#     8   8   8   8   8   8
#     4  12  24  42  69  96 132 176 224 267 325 395
#     4  12  26  41  67 102 134 170 218 277 330 386
#     4  10  22  41  67  95 129 172 224 266 323 390
#     4  11  23  42  68  92 132 177 221 265 323 400
#     4  10  22  42  68  94 131 174 217 273 324 388
#     4  11  25  43  65 100 136 171 217 273 336 382
#
# _framework density 19.753086
#
# number of rings (size 3 to 8) (size 9 to 14) (size 15 to 20)
#    0.000    1.000    3.333    3.000    2.333    6.667 
#    0.000    0.000    0.000    0.000    0.000    0.000 
#    0.000    0.000    0.000    0.000    0.000    0.000 
#
# Total GULP energy -594922.189868 kJ/mol
# GULP energy per Si atom -12394.212289 kJ/mol
# Density = 1.970813 g / cm^3
# Si number density = 19.753086 Si / 1000 Ang^3
#
#
#
# Elastic Constant Matrix: (Units=GPa)
#
#
# Indices 1 2 3 4 5 6 
#
# 1 157.6801 40.9366 55.6256 0.0000 0.0000 0.0000
# 2 40.9366 77.4534 32.7785 0.0000 0.0000 0.0000
# 3 55.6256 32.7785 154.8494 0.0000 0.0000 0.0000
# 4 0.0000 0.0000 0.0000 36.7641 0.0000 0.0000
# 5 0.0000 0.0000 0.0000 0.0000 44.8401 0.0000
# 6 0.0000 0.0000 0.0000 0.0000 0.0000 49.2004
#
#
#
# Elastic Compliance Matrix: (Units=1/GPa)
#
#
# Indices 1 2 3 4 5 6 
#
# 1 0.007959 -0.003292 -0.002162 0.000000 0.000000 0.000000
# 2 -0.003292 0.015543 -0.002108 0.000000 0.000000 0.000000
# 3 -0.002162 -0.002108 0.007681 0.000000 0.000000 0.000000
# 4 0.000000 0.000000 0.000000 0.027200 0.000000 0.000000
# 5 0.000000 0.000000 0.000000 0.000000 0.022301 0.000000
# 6 0.000000 0.000000 0.000000 0.000000 0.000000 0.020325
#
#
# Mechanical properties :
#
#
# Convention : Reuss Voigt Hill
#
# Bulk Modulus (GPa) = 62.26851 72.07380 67.17115
# Shear Modulus (GPa) = 41.15687 43.53706 42.34696
#
# Velocity S-wave (km/s) = 4.56956 4.69984 4.63516
# Velocity P-wave (km/s) = 7.70928 8.12514 7.91994
#
# Compressibility (1/GPa) = 0.01605948
#
# Stress axis : x y z
#
# Youngs Moduli (GPa) = 125.63804 64.33901 130.19435
#
# Poissons Ratio (x) = 0.21178 0.28154
# Poissons Ratio (y) = 0.41355 0.27440
# Poissons Ratio (z) = 0.27168 0.13560
#
# Static dielectric constant tensor:
#      x y z
#    x 4.200350 0.000000 0.000000 
#    y 0.000000 3.720210 0.000000 
#    z 0.000000 0.000000 3.869990 
# 
# 
# High freq. dielectric constant tensor:
#      x y z
#    x 1.814090 0.000000 0.000000 
#    y 0.000000 1.779430 0.000000 
#    z 0.000000 0.000000 1.790060 
# 
# From -- ./inp_files/20499.got.cif
#   From: 2010.03.12/outbox.ucp.g09.slc.cvg/sg60_11_cif.got.tgz:20499.got - 2010.05.04 19:31:56.
