data_PCOD8248559
_publ_section_title
;
Structure prediction by ZEFSAII (Michael W. Deem and Ramdas Pophale) SiO2 
 PCOD8248559
Probable space group: P B C N
;
_chemical_formula_sum "Si O2"
_cell_formula_units_Z 36
_cell_length_a 7.928124
_cell_length_b 22.727261
_cell_length_c 8.786621
_cell_angle_alpha 90.000000
_cell_angle_beta 90.000000
_cell_angle_gamma 90.000000
_cell_volume 1583.213293
_symmetry_space_group_name_H-M "P B C N"
_symmetry_group_IT_number 60
_symmetry_cell_setting 'orthorhombic'
loop_
_space_group_symop_operation_xyz
x,y,z
1/2-x,1/2-y,1/2+z
1/2+x,1/2-y,-z
-x,y,1/2-z
-x,-y,-z
1/2+x,1/2+y,1/2-z
1/2-x,1/2+y,z
x,-y,1/2+z
loop_
_atom_site_type_symbol
_atom_site_label
_atom_site_fract_x
_atom_site_fract_y
_atom_site_fract_z
Si Si1 0.638568 0.532991 0.910032
Si Si2 0.000000 0.139432 0.750000
Si Si3 0.318930 0.184869 0.319603
Si Si4 0.181979 0.449851 0.808964
Si Si5 0.324720 0.206441 0.683424
O O1 0.555952 0.596909 0.886411
O O2 0.683488 0.495737 0.760744
O O3 0.500000 0.500000 0.000000
O O4 0.808783 0.541132 0.009276
O O5 0.167244 0.178456 0.778274
O O6 0.500000 0.201389 0.250000
O O7 0.273570 0.117947 0.273643
O O8 0.314063 0.196417 0.502033
O O9 0.182446 0.224744 0.230389
O O10 0.000000 0.467389 0.750000
O O11 0.500000 0.179865 0.750000
#
# Coordination Sequence:
#
# PCOD8248559 Si02
#       5
#     8   4   8   8   8
#     4  12  24  46  70 103 144 191 233 300 366 430
#     4  12  26  46  72 106 152 178 254 292 366 438
#     4  11  25  49  71 108 147 190 249 299 366 439
#     4  11  25  45  73 105 142 188 246 300 363 438
#     4  12  27  47  76 105 148 196 241 305 366 434
#
# _framework density 22.738565999999999
#
# number of rings (size 3 to 8) (size 9 to 14) (size 15 to 20)
#    0.000    0.444    5.556    2.000    0.000    8.000 
#    0.000    0.000    0.000    0.000    0.000    0.000 
#    0.000    0.000    0.000    0.000    0.000    0.000 
#
# Total GULP energy -446083.065362 kJ/mol
# GULP energy per Si atom -12391.196260 kJ/mol
# Density = 2.268681 g / cm^3
# Si number density = 22.738566 Si / 1000 Ang^3
#
#
#
# Elastic Constant Matrix: (Units=GPa)
#
#
# Indices 1 2 3 4 5 6 
#
# 1 131.0873 41.6833 47.5763 0.0000 0.0000 0.0000
# 2 41.6833 102.8632 25.4067 0.0000 0.0000 0.0000
# 3 47.5763 25.4067 119.2868 0.0000 0.0000 0.0000
# 4 0.0000 0.0000 0.0000 34.4117 0.0000 0.0000
# 5 0.0000 0.0000 0.0000 0.0000 48.2379 0.0000
# 6 0.0000 0.0000 0.0000 0.0000 0.0000 23.9412
#
#
#
# Elastic Compliance Matrix: (Units=1/GPa)
#
#
# Indices 1 2 3 4 5 6 
#
# 1 0.009814 -0.003177 -0.003237 0.000000 0.000000 0.000000
# 2 -0.003177 0.011290 -0.001137 0.000000 0.000000 0.000000
# 3 -0.003237 -0.001137 0.009917 0.000000 0.000000 0.000000
# 4 0.000000 0.000000 0.000000 0.029060 0.000000 0.000000
# 5 0.000000 0.000000 0.000000 0.000000 0.020731 0.000000
# 6 0.000000 0.000000 0.000000 0.000000 0.000000 0.041769
#
#
# Mechanical properties :
#
#
# Convention : Reuss Voigt Hill
#
# Bulk Modulus (GPa) = 62.82856 64.72999 63.77928
# Shear Modulus (GPa) = 34.96760 37.22291 36.09526
#
# Velocity S-wave (km/s) = 3.92575 4.05037 3.98854
# Velocity P-wave (km/s) = 6.94546 7.09950 7.02290
#
# Compressibility (1/GPa) = 0.01591633
#
# Stress axis : x y z
#
# Youngs Moduli (GPa) = 101.89765 88.57321 100.84070
#
# Poissons Ratio (x) = 0.28142 0.32646
# Poissons Ratio (y) = 0.32375 0.11470
# Poissons Ratio (z) = 0.32988 0.10075
#
# Static dielectric constant tensor:
#      x y z
#    x 4.176840 0.000000 0.000000 
#    y 0.000000 2.669100 0.000000 
#    z 0.000000 0.000000 4.743910 
# 
# 
# High freq. dielectric constant tensor:
#      x y z
#    x 1.903670 0.000000 0.000000 
#    y 0.000000 1.913120 0.000000 
#    z 0.000000 0.000000 1.895160 
# 
# From -- ./inp_files/3681.got.cif
#   From: 2010.03.12/outbox.cif.g09.slc.cpg/sg60_2_cif.got.tgz:3681.got - 2010.04.10 18:46:24.
