data_PCOD8248058
_publ_section_title
;
Structure prediction by ZEFSAII (Michael W. Deem and Ramdas Pophale) SiO2 
 PCOD8248058
Probable space group: P B C N
;
_chemical_formula_sum "Si O2"
_cell_formula_units_Z 40
_cell_length_a 8.478023
_cell_length_b 11.661832
_cell_length_c 17.095952
_cell_angle_alpha 90.000000
_cell_angle_beta 90.000000
_cell_angle_gamma 90.000000
_cell_volume 1690.264464
_symmetry_space_group_name_H-M "P B C N"
_symmetry_group_IT_number 60
_symmetry_cell_setting 'orthorhombic'
loop_
_space_group_symop_operation_xyz
x,y,z
1/2-x,1/2-y,1/2+z
1/2+x,1/2-y,-z
-x,y,1/2-z
-x,-y,-z
1/2+x,1/2+y,1/2-z
1/2-x,1/2+y,z
x,-y,1/2+z
loop_
_atom_site_type_symbol
_atom_site_label
_atom_site_fract_x
_atom_site_fract_y
_atom_site_fract_z
Si Si1 0.068106 0.385106 0.465979
Si Si2 0.041381 0.231355 0.658561
Si Si3 0.450053 0.487836 0.837002
Si Si4 0.593674 0.038429 0.169105
Si Si5 0.336130 0.694880 0.074847
O O1 0.085174 0.416045 0.374031
O O2 0.234624 0.360968 0.505983
O O3 0.000000 0.500000 0.500000
O O4 0.955271 0.276196 0.471666
O O5 0.228538 0.233893 0.637476
O O6 0.000000 0.245027 0.750000
O O7 0.976872 0.351467 0.620722
O O8 0.963043 0.115374 0.623111
O O9 0.500000 0.513618 0.750000
O O10 0.278686 0.432365 0.827707
O O11 0.567280 0.403234 0.880963
O O12 0.500000 0.022333 0.250000
#
# Coordination Sequence:
#
# PCOD8248058 Si02
#       5
#     8   8   8   8   8
#     4  12  29  49  75 103 154 196 250 316 374 452
#     4  10  23  45  73 105 150 189 251 314 369 456
#     4  11  26  46  79 109 150 198 249 311 376 449
#     4  11  26  47  75 110 150 193 252 310 377 450
#     4  12  28  48  73 109 152 201 255 306 387 447
#
# _framework density 23.664936999999998
#
# number of rings (size 3 to 8) (size 9 to 14) (size 15 to 20)
#    0.000    0.800    2.000    3.600   14.000    1.600 
#    0.000    0.000    0.000    0.000    0.000    0.000 
#    0.000    0.000    0.000    0.000    0.000    0.000 
#
# Total GULP energy -495681.558168 kJ/mol
# GULP energy per Si atom -12392.038954 kJ/mol
# Density = 2.361107 g / cm^3
# Si number density = 23.664937 Si / 1000 Ang^3
#
#
#
# Elastic Constant Matrix: (Units=GPa)
#
#
# Indices 1 2 3 4 5 6 
#
# 1 165.9134 62.2056 49.0204 0.0000 0.0000 0.0000
# 2 62.2056 157.5573 52.7194 0.0000 0.0000 0.0000
# 3 49.0204 52.7194 88.5276 0.0000 0.0000 0.0000
# 4 0.0000 0.0000 0.0000 60.8585 0.0000 0.0000
# 5 0.0000 0.0000 0.0000 0.0000 49.4556 0.0000
# 6 0.0000 0.0000 0.0000 0.0000 0.0000 42.2465
#
#
#
# Elastic Compliance Matrix: (Units=1/GPa)
#
#
# Indices 1 2 3 4 5 6 
#
# 1 0.007685 -0.002011 -0.003058 0.000000 0.000000 0.000000
# 2 -0.002011 0.008452 -0.003920 0.000000 0.000000 0.000000
# 3 -0.003058 -0.003920 0.015324 0.000000 0.000000 0.000000
# 4 0.000000 0.000000 0.000000 0.016432 0.000000 0.000000
# 5 0.000000 0.000000 0.000000 0.000000 0.020220 0.000000
# 6 0.000000 0.000000 0.000000 0.000000 0.000000 0.023671
#
#
# Mechanical properties :
#
#
# Convention : Reuss Voigt Hill
#
# Bulk Modulus (GPa) = 74.16584 82.20989 78.18786
# Shear Modulus (GPa) = 43.76189 47.04898 45.40544
#
# Velocity S-wave (km/s) = 4.30493 4.46368 4.38503
# Velocity P-wave (km/s) = 7.49119 7.83457 7.66480
#
# Compressibility (1/GPa) = 0.01348330
#
# Stress axis : x y z
#
# Youngs Moduli (GPa) = 130.13062 118.30832 65.25914
#
# Poissons Ratio (x) = 0.23790 0.19954
# Poissons Ratio (y) = 0.26167 0.25582
# Poissons Ratio (z) = 0.39790 0.46378
#
# Static dielectric constant tensor:
#      x y z
#    x 4.357980 0.000000 0.000000 
#    y 0.000000 5.045840 0.000000 
#    z 0.000000 0.000000 4.347740 
# 
# 
# High freq. dielectric constant tensor:
#      x y z
#    x 1.941730 0.000000 0.000000 
#    y 0.000000 1.954720 0.000000 
#    z 0.000000 0.000000 1.946520 
# 
# From -- ./inp_files/18989.got.cif
#   From: 2010.03.12/outbox.cif.g09.slc.cpg/sg60_10_cif.got.tgz:18989.got - 2010.04.10 18:46:24.
