data_PCOD8248948
_publ_section_title
;
Structure prediction by ZEFSAII (Michael W. Deem and Ramdas Pophale) SiO2 
 PCOD8248948
Probable space group: P B C A
;
_chemical_formula_sum "Si O2"
_cell_formula_units_Z 48
_cell_length_a 8.981052
_cell_length_b 28.227745
_cell_length_c 9.095388
_cell_angle_alpha 90.000000
_cell_angle_beta 90.000000
_cell_angle_gamma 90.000000
_cell_volume 2305.815885
_symmetry_space_group_name_H-M "P B C A"
_symmetry_group_IT_number 61
_symmetry_cell_setting 'orthorhombic'
loop_
_space_group_symop_operation_xyz
x,y,z
1/2-x,-y,1/2+z
1/2+x,1/2-y,-z
-x,1/2+y,1/2-z
-x,-y,-z
1/2+x,y,1/2-z
1/2-x,1/2+y,z
x,1/2-y,1/2+z
loop_
_atom_site_type_symbol
_atom_site_label
_atom_site_fract_x
_atom_site_fract_y
_atom_site_fract_z
Si Si1 0.478489 0.886678 0.298344
Si Si2 0.406445 0.206863 0.598312
Si Si3 0.319518 0.367498 0.447922
Si Si4 0.424317 0.488320 0.265243
Si Si5 0.807430 0.037823 0.422992
Si Si6 0.760939 0.769142 0.107539
O O1 0.560657 0.849530 0.408751
O O2 0.518567 0.870856 0.130992
O O3 0.302124 0.882975 0.323129
O O4 0.531246 0.940483 0.321269
O O5 0.560880 0.236224 0.611947
O O6 0.317336 0.221766 0.452039
O O7 0.297723 0.219775 0.731101
O O8 0.313448 0.404536 0.583181
O O9 0.285460 0.313787 0.498952
O O10 0.320416 0.477815 0.406579
O O11 0.348202 0.521094 0.143359
O O12 0.567152 0.516077 0.320868
#
# Coordination Sequence:
#
# PCOD8248948 Si02
#       6
#     8   8   8   8   8   8
#     4   9  18  34  57  79 107 147 187 220 272 336
#     4  10  20  36  59  84 112 148 189 233 281 335
#     4   9  19  35  55  81 111 144 184 229 274 333
#     4  10  20  36  56  81 109 143 185 231 273 327
#     4  10  21  36  55  80 112 145 184 227 275 327
#     4  10  20  37  58  83 113 146 187 232 281 338
#
# _framework density 20.816927
#
# number of rings (size 3 to 8) (size 9 to 14) (size 15 to 20)
#    0.000    2.333    0.000    3.000    0.000    4.000 
#    0.000    6.667    0.000    0.000    0.000    0.000 
#    0.000    0.000    0.000    0.000    0.000    0.000 
#
# Total GULP energy -594914.648325 kJ/mol
# GULP energy per Si atom -12394.055173 kJ/mol
# Density = 2.076955 g / cm^3
# Si number density = 20.816927 Si / 1000 Ang^3
#
#
#
# Elastic Constant Matrix: (Units=GPa)
#
#
# Indices 1 2 3 4 5 6 
#
# 1 86.0563 22.5561 25.9128 0.0000 0.0000 0.0000
# 2 22.5561 95.5394 29.9439 0.0000 0.0000 0.0000
# 3 25.9128 29.9439 42.5972 0.0000 0.0000 0.0000
# 4 0.0000 0.0000 0.0000 35.8957 0.0000 0.0000
# 5 0.0000 0.0000 0.0000 0.0000 30.9531 0.0000
# 6 0.0000 0.0000 0.0000 0.0000 0.0000 28.8982
#
#
#
# Elastic Compliance Matrix: (Units=1/GPa)
#
#
# Indices 1 2 3 4 5 6 
#
# 1 0.014278 -0.000832 -0.008100 0.000000 0.000000 0.000000
# 2 -0.000832 0.013473 -0.008965 0.000000 0.000000 0.000000
# 3 -0.008100 -0.008965 0.034705 0.000000 0.000000 0.000000
# 4 0.000000 0.000000 0.000000 0.027858 0.000000 0.000000
# 5 0.000000 0.000000 0.000000 0.000000 0.032307 0.000000
# 6 0.000000 0.000000 0.000000 0.000000 0.000000 0.034604
#
#
# Mechanical properties :
#
#
# Convention : Reuss Voigt Hill
#
# Bulk Modulus (GPa) = 37.50759 42.33541 39.92150
# Shear Modulus (GPa) = 24.76385 28.86807 26.81596
#
# Velocity S-wave (km/s) = 3.45280 3.72796 3.59302
# Velocity P-wave (km/s) = 5.82690 6.23790 6.03590
#
# Compressibility (1/GPa) = 0.02666127
#
# Stress axis : x y z
#
# Youngs Moduli (GPa) = 70.04009 74.22219 28.81407
#
# Poissons Ratio (x) = 0.06175 0.23341
# Poissons Ratio (y) = 0.05827 0.25831
# Poissons Ratio (z) = 0.56736 0.66539
#
# Static dielectric constant tensor:
#      x y z
#    x 3.819700 0.000000 0.000000 
#    y 0.000000 4.121660 0.000000 
#    z 0.000000 0.000000 3.348050 
# 
# 
# High freq. dielectric constant tensor:
#      x y z
#    x 1.825990 0.000000 0.000000 
#    y 0.000000 1.821000 0.000000 
#    z 0.000000 0.000000 1.769460 
# 
# From -- ./inp_files/1866.got.cif
#   From: 2010.03.12/outbox.cif.g09.slc.cpg/sg61_1_cif.got.tgz:1866.got - 2010.04.10 19:05:03.
