data_PCOD8248037
_publ_section_title
;
Structure prediction by ZEFSAII (Michael W. Deem and Ramdas Pophale) SiO2 
 PCOD8248037
Probable space group: P B C N
;
_chemical_formula_sum "Si O2"
_cell_formula_units_Z 32
_cell_length_a 7.930328
_cell_length_b 18.796175
_cell_length_c 8.375309
_cell_angle_alpha 90.000000
_cell_angle_beta 90.000000
_cell_angle_gamma 90.000000
_cell_volume 1248.422160
_symmetry_space_group_name_H-M "P B C N"
_symmetry_group_IT_number 60
_symmetry_cell_setting 'orthorhombic'
loop_
_space_group_symop_operation_xyz
x,y,z
1/2-x,1/2-y,1/2+z
1/2+x,1/2-y,-z
-x,y,1/2-z
-x,-y,-z
1/2+x,1/2+y,1/2-z
1/2-x,1/2+y,z
x,-y,1/2+z
loop_
_atom_site_type_symbol
_atom_site_label
_atom_site_fract_x
_atom_site_fract_y
_atom_site_fract_z
Si Si1 0.657392 0.595583 0.484140
Si Si2 0.801501 0.223815 0.281284
Si Si3 0.183014 0.478017 0.211665
Si Si4 0.716012 0.645838 0.968895
O O1 0.731699 0.672185 0.432831
O O2 0.691308 0.541279 0.337443
O O3 0.740417 0.565786 0.642298
O O4 0.459319 0.605131 0.508236
O O5 0.710936 0.298459 0.320410
O O6 0.000000 0.235244 0.250000
O O7 0.718728 0.187947 0.124554
O O8 0.157426 0.419390 0.069931
O O9 0.000000 0.510235 0.250000
#
# Coordination Sequence:
#
# PCOD8248037 Si02
#       4
#     8   8   8   8
#     4  11  25  46  73 103 140 186 234 290 352 423
#     4  10  23  44  69 103 139 183 232 290 356 423
#     4  12  25  45  69 102 142 186 235 292 353 421
#     4  11  23  43  71 102 139 183 235 290 353 425
#
# _framework density 25.632355
#
# number of rings (size 3 to 8) (size 9 to 14) (size 15 to 20)
#    0.000    1.000    0.000    6.000    0.000    8.000 
#    0.000    7.500    0.000    0.000    0.000    0.000 
#    0.000    0.000    0.000    0.000    0.000    0.000 
#
# Total GULP energy -396820.132854 kJ/mol
# GULP energy per Si atom -12400.629152 kJ/mol
# Density = 2.557401 g / cm^3
# Si number density = 25.632355 Si / 1000 Ang^3
#
#
#
# Elastic Constant Matrix: (Units=GPa)
#
#
# Indices 1 2 3 4 5 6 
#
# 1 86.2290 73.0565 59.9448 0.0000 0.0000 0.0000
# 2 73.0565 149.8099 31.0712 0.0000 0.0000 0.0000
# 3 59.9448 31.0712 83.0310 0.0000 0.0000 0.0000
# 4 0.0000 0.0000 0.0000 44.5069 0.0000 0.0000
# 5 0.0000 0.0000 0.0000 0.0000 37.2095 0.0000
# 6 0.0000 0.0000 0.0000 0.0000 0.0000 29.0620
#
#
#
# Elastic Compliance Matrix: (Units=1/GPa)
#
#
# Indices 1 2 3 4 5 6 
#
# 1 0.040976 -0.015012 -0.023965 0.000000 0.000000 0.000000
# 2 -0.015012 0.012737 0.006072 0.000000 0.000000 0.000000
# 3 -0.023965 0.006072 0.027073 0.000000 0.000000 0.000000
# 4 0.000000 0.000000 0.000000 0.022468 0.000000 0.000000
# 5 0.000000 0.000000 0.000000 0.000000 0.026875 0.000000
# 6 0.000000 0.000000 0.000000 0.000000 0.000000 0.034409
#
#
# Mechanical properties :
#
#
# Convention : Reuss Voigt Hill
#
# Bulk Modulus (GPa) = 66.77706 71.91277 69.34492
# Shear Modulus (GPa) = 21.24587 32.48885 26.86736
#
# Velocity S-wave (km/s) = 2.88213 3.56405 3.24108
# Velocity P-wave (km/s) = 6.09787 6.71215 6.41237
#
# Compressibility (1/GPa) = 0.01497520
#
# Stress axis : x y z
#
# Youngs Moduli (GPa) = 24.40474 78.51449 36.93674
#
# Poissons Ratio (x) = 1.17864 0.88519
# Poissons Ratio (y) = 0.36636 -0.22427
# Poissons Ratio (z) = 0.58486 -0.47672
#
# Static dielectric constant tensor:
#      x y z
#    x 4.239140 0.000000 0.000000 
#    y 0.000000 5.012200 0.000000 
#    z 0.000000 0.000000 5.083670 
# 
# 
# High freq. dielectric constant tensor:
#      x y z
#    x 1.991350 0.000000 0.000000 
#    y 0.000000 2.049570 0.000000 
#    z 0.000000 0.000000 2.041730 
# 
# From -- ./inp_files/3581.got.cif
#   From: 2010.03.12/outbox.cif.g09.slc.cpg/sg60_2_cif.got.tgz:3581.got - 2010.04.10 18:46:24.
