data_PCOD8248232
_publ_section_title
;
Structure prediction by ZEFSAII (Michael W. Deem and Ramdas Pophale) SiO2 
 PCOD8248232
Probable space group: P B C N
;
_chemical_formula_sum "Si O2"
_cell_formula_units_Z 36
_cell_length_a 14.247719
_cell_length_b 5.101620
_cell_length_c 20.843292
_cell_angle_alpha 90.000000
_cell_angle_beta 90.000000
_cell_angle_gamma 90.000000
_cell_volume 1515.024864
_symmetry_space_group_name_H-M "P B C N"
_symmetry_group_IT_number 60
_symmetry_cell_setting 'orthorhombic'
loop_
_space_group_symop_operation_xyz
x,y,z
1/2-x,1/2-y,1/2+z
1/2+x,1/2-y,-z
-x,y,1/2-z
-x,-y,-z
1/2+x,1/2+y,1/2-z
1/2-x,1/2+y,z
x,-y,1/2+z
loop_
_atom_site_type_symbol
_atom_site_label
_atom_site_fract_x
_atom_site_fract_y
_atom_site_fract_z
Si Si1 0.000000 0.512096 0.750000
Si Si2 0.620978 0.271405 0.414605
Si Si3 0.192945 0.716700 0.223286
Si Si4 0.693719 0.756307 0.053358
Si Si5 0.493516 0.216839 0.611756
O O1 0.091150 0.324713 0.755600
O O2 0.991971 0.700239 0.811239
O O3 0.685462 0.202335 0.353767
O O4 0.685770 0.255451 0.476642
O O5 0.578540 0.560265 0.409326
O O6 0.537092 0.058902 0.419671
O O7 0.265482 0.492940 0.246413
O O8 0.765034 0.532150 0.076510
O O9 0.595037 0.705436 0.086786
#
# Coordination Sequence:
#
# PCOD8248232 Si02
#       5
#     4   8   8   8   8
#     4  10  26  44  66  96 136 178 222 272 322 390
#     4  11  22  42  66  93 126 168 221 271 326 392
#     4  11  23  40  65  94 126 170 220 269 322 384
#     4  12  24  40  65  97 131 163 209 274 337 397
#     4  11  24  42  65  92 129 176 218 264 328 394
#
# _framework density 23.761986
#
# number of rings (size 3 to 8) (size 9 to 14) (size 15 to 20)
#    0.000    0.889    0.000    8.000    0.000    9.778 
#    0.000    0.000    0.000    0.000    0.000    0.000 
#    0.000    0.000    0.000    0.000    0.000    0.000 
#
# Total GULP energy -446723.880977 kJ/mol
# GULP energy per Si atom -12408.996694 kJ/mol
# Density = 2.370790 g / cm^3
# Si number density = 23.761986 Si / 1000 Ang^3
#
#
#
# Elastic Constant Matrix: (Units=GPa)
#
#
# Indices 1 2 3 4 5 6 
#
# 1 107.5946 29.0674 -1.6029 0.0000 0.0000 0.0000
# 2 29.0674 121.6872 15.3946 0.0000 0.0000 0.0000
# 3 -1.6029 15.3946 26.0258 0.0000 0.0000 0.0000
# 4 0.0000 0.0000 0.0000 15.2989 0.0000 0.0000
# 5 0.0000 0.0000 0.0000 0.0000 42.0033 0.0000
# 6 0.0000 0.0000 0.0000 0.0000 0.0000 46.0892
#
#
#
# Elastic Compliance Matrix: (Units=1/GPa)
#
#
# Indices 1 2 3 4 5 6 
#
# 1 0.010051 -0.002680 0.002204 0.000000 0.000000 0.000000
# 2 -0.002680 0.009597 -0.005842 0.000000 0.000000 0.000000
# 3 0.002204 -0.005842 0.042015 0.000000 0.000000 0.000000
# 4 0.000000 0.000000 0.000000 0.065364 0.000000 0.000000
# 5 0.000000 0.000000 0.000000 0.000000 0.023808 0.000000
# 6 0.000000 0.000000 0.000000 0.000000 0.000000 0.021697
#
#
# Mechanical properties :
#
#
# Convention : Reuss Voigt Hill
#
# Bulk Modulus (GPa) = 20.39658 37.89175 29.14416
# Shear Modulus (GPa) = 24.81282 34.84151 29.82717
#
# Velocity S-wave (km/s) = 3.23495 3.83335 3.54679
# Velocity P-wave (km/s) = 4.74927 5.96437 5.39116
#
# Compressibility (1/GPa) = 0.04902782
#
# Stress axis : x y z
#
# Youngs Moduli (GPa) = 99.49330 104.20005 23.80123
#
# Poissons Ratio (x) = 0.27923 -0.05246
# Poissons Ratio (y) = 0.26661 0.13904
# Poissons Ratio (z) = -0.21929 0.60871
#
# Static dielectric constant tensor:
#      x y z
#    x 4.275410 0.000000 0.000000 
#    y 0.000000 4.342060 0.000000 
#    z 0.000000 0.000000 4.212720 
# 
# 
# High freq. dielectric constant tensor:
#      x y z
#    x 1.953430 0.000000 0.000000 
#    y 0.000000 1.953150 0.000000 
#    z 0.000000 0.000000 1.929360 
# 
# From -- ./inp_files/22773.got.cif
#   From: 2010.03.12/outbox.cif.g09.slc.cpg/sg60_12_cif.got.tgz:22773.got - 2010.04.10 18:46:24.
