data_PCOD8248525
_publ_section_title
;
Structure prediction by ZEFSAII (Michael W. Deem and Ramdas Pophale) SiO2 
 PCOD8248525
Probable space group: P B C N
;
_chemical_formula_sum "Si O2"
_cell_formula_units_Z 28
_cell_length_a 7.114420
_cell_length_b 16.381328
_cell_length_c 11.222391
_cell_angle_alpha 90.000000
_cell_angle_beta 90.000000
_cell_angle_gamma 90.000000
_cell_volume 1307.898381
_symmetry_space_group_name_H-M "P B C N"
_symmetry_group_IT_number 60
_symmetry_cell_setting 'orthorhombic'
loop_
_space_group_symop_operation_xyz
x,y,z
1/2-x,1/2-y,1/2+z
1/2+x,1/2-y,-z
-x,y,1/2-z
-x,-y,-z
1/2+x,1/2+y,1/2-z
1/2-x,1/2+y,z
x,-y,1/2+z
loop_
_atom_site_type_symbol
_atom_site_label
_atom_site_fract_x
_atom_site_fract_y
_atom_site_fract_z
Si Si1 0.251693 0.397281 0.331952
Si Si2 0.983304 0.843256 0.537742
Si Si3 0.617624 0.164905 0.905293
Si Si4 0.000000 0.961424 0.750000
O O1 0.411687 0.361301 0.415360
O O2 0.227969 0.336061 0.220205
O O3 0.316567 0.485098 0.282198
O O4 0.051509 0.402222 0.402030
O O5 0.022347 0.752524 0.580570
O O6 0.760021 0.853876 0.513426
O O7 0.053430 0.906357 0.637024
#
# Coordination Sequence:
#
# PCOD8248525 Si02
#       4
#     8   8   8   4
#     4  11  24  45  68 102 141 178 227 293 345 413
#     4  12  24  46  71 101 138 184 234 292 340 418
#     4  11  24  45  73  97 135 184 240 279 347 410
#     4  12  26  44  70 102 148 180 230 286 362 408
#
# _framework density 21.408391000000002
#
# number of rings (size 3 to 8) (size 9 to 14) (size 15 to 20)
#    0.000    0.571    5.714    2.571    0.000    1.143 
#    5.143    0.000    0.000    0.000    0.000    0.000 
#    0.000    0.000    0.000    0.000    0.000    0.000 
#
# Total GULP energy -347186.090779 kJ/mol
# GULP energy per Si atom -12399.503242 kJ/mol
# Density = 2.135966 g / cm^3
# Si number density = 21.408391 Si / 1000 Ang^3
#
#
#
# Elastic Constant Matrix: (Units=GPa)
#
#
# Indices 1 2 3 4 5 6 
#
# 1 150.8868 70.9368 62.2206 0.0000 0.0000 0.0000
# 2 70.9368 97.8731 49.3128 0.0000 0.0000 0.0000
# 3 62.2206 49.3128 79.3682 0.0000 0.0000 0.0000
# 4 0.0000 0.0000 0.0000 -61.3166 0.0000 0.0000
# 5 0.0000 0.0000 0.0000 0.0000 48.5087 0.0000
# 6 0.0000 0.0000 0.0000 0.0000 0.0000 26.3876
#
#
#
# Elastic Compliance Matrix: (Units=1/GPa)
#
#
# Indices 1 2 3 4 5 6 
#
# 1 0.011546 -0.005543 -0.005607 0.000000 0.000000 0.000000
# 2 -0.005543 0.017534 -0.006549 0.000000 0.000000 0.000000
# 3 -0.005607 -0.006549 0.021064 0.000000 0.000000 0.000000
# 4 0.000000 0.000000 0.000000 -0.016309 0.000000 0.000000
# 5 0.000000 0.000000 0.000000 0.000000 0.020615 0.000000
# 6 0.000000 0.000000 0.000000 0.000000 0.000000 0.037897
#
#
# Mechanical properties :
#
#
# Convention : Reuss Voigt Hill
#
# Bulk Modulus (GPa) = 67.81542 77.00761 72.41151
# Shear Modulus (GPa) = 37.69005 12.42646 25.05826
#
# Velocity S-wave (km/s) = 4.20042 2.41186 3.42495
# Velocity P-wave (km/s) = 7.43441 6.61853 7.03830
#
# Compressibility (1/GPa) = 0.01474591
#
# Stress axis : x y z
#
# Youngs Moduli (GPa) = 86.61288 57.03069 47.47343
#
# Poissons Ratio (x) = 0.31611 0.26620
# Poissons Ratio (y) = 0.48008 0.31091
# Poissons Ratio (z) = 0.48566 0.37350
#
# Static dielectric constant tensor:
#      x y z
#    x 4.199270 0.000000 0.000000 
#    y 0.000000 3.757790 0.000000 
#    z 0.000000 0.000000 4.053130 
# 
# 
# High freq. dielectric constant tensor:
#      x y z
#    x 1.851640 0.000000 0.000000 
#    y 0.000000 1.825480 0.000000 
#    z 0.000000 0.000000 1.849790 
# 
# From -- ./inp_files/9433.got.cif
#   From: 2010.03.12/outbox.cif.g09.slc.cpg/sg60_5_cif.got.tgz:9433.got - 2010.04.10 18:46:24.
