data_PCOD8248341
_publ_section_title
;
Structure prediction by ZEFSAII (Michael W. Deem and Ramdas Pophale) SiO2 
 PCOD8248341
Probable space group: P B C N
;
_chemical_formula_sum "Si O2"
_cell_formula_units_Z 48
_cell_length_a 9.594718
_cell_length_b 27.583433
_cell_length_c 8.455941
_cell_angle_alpha 90.000000
_cell_angle_beta 90.000000
_cell_angle_gamma 90.000000
_cell_volume 2237.909273
_symmetry_space_group_name_H-M "P B C N"
_symmetry_group_IT_number 60
_symmetry_cell_setting 'orthorhombic'
loop_
_space_group_symop_operation_xyz
x,y,z
1/2-x,1/2-y,1/2+z
1/2+x,1/2-y,-z
-x,y,1/2-z
-x,-y,-z
1/2+x,1/2+y,1/2-z
1/2-x,1/2+y,z
x,-y,1/2+z
loop_
_atom_site_type_symbol
_atom_site_label
_atom_site_fract_x
_atom_site_fract_y
_atom_site_fract_z
Si Si1 0.743098 0.709826 0.932007
Si Si2 0.270735 0.814387 0.435716
Si Si3 0.964610 0.641129 0.066918
Si Si4 0.913637 0.541119 0.908953
Si Si5 0.492368 0.358920 0.063277
Si Si6 0.912873 0.039286 0.907569
O O1 0.765761 0.699533 0.747524
O O2 0.601530 0.685690 0.994187
O O3 0.729767 0.766830 0.956427
O O4 0.863771 0.686534 0.037964
O O5 0.401649 0.848430 0.461347
O O6 0.146470 0.848471 0.499441
O O7 0.000000 0.637830 0.250000
O O8 0.902113 0.589928 0.011303
O O9 0.750958 0.525267 0.879090
O O10 0.000000 0.551386 0.750000
O O11 0.000000 0.500000 0.000000
O O12 0.500000 0.359514 0.250000
O O13 0.426587 0.409379 0.999323
O O14 0.000000 0.046223 0.750000
O O15 0.000000 0.000000 0.000000
#
# Coordination Sequence:
#
# PCOD8248341 Si02
#       6
#     8   8   8   8   8   8
#     4  11  21  43  64  99 134 177 227 281 347 405
#     4  11  23  39  70  96 134 180 223 286 343 415
#     4  12  26  43  65  98 138 181 234 282 339 411
#     4  12  26  46  74 103 138 178 229 289 354 424
#     4   9  21  40  65  92 129 171 219 268 338 406
#     4  11  24  45  71 100 135 177 222 277 343 417
#
# _framework density 21.448591
#
# number of rings (size 3 to 8) (size 9 to 14) (size 15 to 20)
#    0.000    1.000    1.667    5.000    7.000    1.333 
#    0.000    2.500    0.000    0.000    0.000    0.000 
#    0.000    0.000    0.000    0.000    0.000    0.000 
#
# Total GULP energy -595011.196154 kJ/mol
# GULP energy per Si atom -12396.066587 kJ/mol
# Density = 2.139977 g / cm^3
# Si number density = 21.448591 Si / 1000 Ang^3
#
#
#
# Elastic Constant Matrix: (Units=GPa)
#
#
# Indices 1 2 3 4 5 6 
#
# 1 163.9682 45.2547 20.7911 0.0000 0.0000 0.0000
# 2 45.2547 108.1196 13.3841 0.0000 0.0000 0.0000
# 3 20.7911 13.3841 76.9545 0.0000 0.0000 0.0000
# 4 0.0000 0.0000 0.0000 35.5717 0.0000 0.0000
# 5 0.0000 0.0000 0.0000 0.0000 24.7283 0.0000
# 6 0.0000 0.0000 0.0000 0.0000 0.0000 39.6436
#
#
#
# Elastic Compliance Matrix: (Units=1/GPa)
#
#
# Indices 1 2 3 4 5 6 
#
# 1 0.007044 -0.002772 -0.001421 0.000000 0.000000 0.000000
# 2 -0.002772 0.010544 -0.001085 0.000000 0.000000 0.000000
# 3 -0.001421 -0.001085 0.013567 0.000000 0.000000 0.000000
# 4 0.000000 0.000000 0.000000 0.028112 0.000000 0.000000
# 5 0.000000 0.000000 0.000000 0.000000 0.040439 0.000000
# 6 0.000000 0.000000 0.000000 0.000000 0.000000 0.025225
#
#
# Mechanical properties :
#
#
# Convention : Reuss Voigt Hill
#
# Bulk Modulus (GPa) = 48.54657 56.43356 52.49007
# Shear Modulus (GPa) = 35.12366 37.96288 36.54327
#
# Velocity S-wave (km/s) = 4.05109 4.21164 4.13214
# Velocity P-wave (km/s) = 6.67569 7.07239 6.87690
#
# Compressibility (1/GPa) = 0.02059878
#
# Stress axis : x y z
#
# Youngs Moduli (GPa) = 141.96239 94.84284 73.70689
#
# Poissons Ratio (x) = 0.26295 0.10473
# Poissons Ratio (y) = 0.39359 0.07995
# Poissons Ratio (z) = 0.20172 0.10288
#
# Static dielectric constant tensor:
#      x y z
#    x 4.259750 0.000000 0.000000 
#    y 0.000000 4.929090 0.000000 
#    z 0.000000 0.000000 3.609290 
# 
# 
# High freq. dielectric constant tensor:
#      x y z
#    x 1.863570 0.000000 0.000000 
#    y 0.000000 1.856340 0.000000 
#    z 0.000000 0.000000 1.824750 
# 
# From -- ./inp_files/4226.got.cif
#   From: 2010.03.12/outbox.cif.g09.slc.cpg/sg60_3_cif.got.tgz:4226.got - 2010.04.10 18:46:24.
