data_PCOD8248065
_publ_section_title
;
Structure prediction by ZEFSAII (Michael W. Deem and Ramdas Pophale) SiO2 
 PCOD8248065
Probable space group: P B C N
;
_chemical_formula_sum "Si O2"
_cell_formula_units_Z 48
_cell_length_a 16.983533
_cell_length_b 9.947469
_cell_length_c 12.920083
_cell_angle_alpha 90.000000
_cell_angle_beta 90.000000
_cell_angle_gamma 90.000000
_cell_volume 2182.759753
_symmetry_space_group_name_H-M "P B C N"
_symmetry_group_IT_number 60
_symmetry_cell_setting 'orthorhombic'
loop_
_space_group_symop_operation_xyz
x,y,z
1/2-x,1/2-y,1/2+z
1/2+x,1/2-y,-z
-x,y,1/2-z
-x,-y,-z
1/2+x,1/2+y,1/2-z
1/2-x,1/2+y,z
x,-y,1/2+z
loop_
_atom_site_type_symbol
_atom_site_label
_atom_site_fract_x
_atom_site_fract_y
_atom_site_fract_z
Si Si1 0.775437 0.555654 0.462499
Si Si2 0.500000 0.455339 0.250000
Si Si3 0.584667 0.123068 0.921787
Si Si4 0.500000 0.988301 0.750000
Si Si5 0.264980 0.691530 0.401782
Si Si6 0.148242 0.869786 0.695241
Si Si7 0.588252 0.224164 0.141391
O O1 0.861210 0.508083 0.428569
O O2 0.791070 0.702254 0.511274
O O3 0.740948 0.455814 0.549190
O O4 0.718294 0.550481 0.362214
O O5 0.432839 0.545820 0.196480
O O6 0.543465 0.363119 0.164871
O O7 0.512401 0.085760 0.847807
O O8 0.637160 0.240418 0.875130
O O9 0.552830 0.170360 0.032922
O O10 0.426237 0.890567 0.772336
O O11 0.327734 0.679558 0.309529
O O12 0.181423 0.746621 0.359949
#
# Coordination Sequence:
#
# PCOD8248065 Si02
#       7
#     8   4   8   4   8   8   8
#     4  11  24  46  69 105 138 186 241 298 349 423
#     4  11  27  46  74 106 149 191 226 306 360 438
#     4  11  25  43  68 102 138 185 240 288 354 425
#     4  11  23  42  68  98 139 187 228 290 354 434
#     4  11  25  44  75 103 140 186 237 299 348 425
#     4  12  26  45  71 105 141 187 243 286 369 425
#     4  10  23  46  68 103 140 186 235 289 366 418
#
# _framework density 21.99051
#
# number of rings (size 3 to 8) (size 9 to 14) (size 15 to 20)
#    0.000    1.000    3.333    3.000    9.333    3.333 
#    6.000    0.000    0.000    0.000    0.000    0.000 
#    0.000    0.000    0.000    0.000    0.000    0.000 
#
# Total GULP energy -595266.334705 kJ/mol
# GULP energy per Si atom -12401.381973 kJ/mol
# Density = 2.194046 g / cm^3
# Si number density = 21.990510 Si / 1000 Ang^3
#
#
#
# Elastic Constant Matrix: (Units=GPa)
#
#
# Indices 1 2 3 4 5 6 
#
# 1 83.4032 25.9749 26.5645 0.0000 0.0000 0.0000
# 2 25.9749 83.9368 28.8895 0.0000 0.0000 0.0000
# 3 26.5645 28.8895 93.2200 0.0000 0.0000 0.0000
# 4 0.0000 0.0000 0.0000 33.8408 0.0000 0.0000
# 5 0.0000 0.0000 0.0000 0.0000 45.1926 0.0000
# 6 0.0000 0.0000 0.0000 0.0000 0.0000 32.4124
#
#
#
# Elastic Compliance Matrix: (Units=1/GPa)
#
#
# Indices 1 2 3 4 5 6 
#
# 1 0.013960 -0.003303 -0.002954 0.000000 0.000000 0.000000
# 2 -0.003303 0.014118 -0.003434 0.000000 0.000000 0.000000
# 3 -0.002954 -0.003434 0.012633 0.000000 0.000000 0.000000
# 4 0.000000 0.000000 0.000000 0.029550 0.000000 0.000000
# 5 0.000000 0.000000 0.000000 0.000000 0.022128 0.000000
# 6 0.000000 0.000000 0.000000 0.000000 0.000000 0.030852
#
#
# Mechanical properties :
#
#
# Convention : Reuss Voigt Hill
#
# Bulk Modulus (GPa) = 46.88658 47.04642 46.96650
# Shear Modulus (GPa) = 33.39277 34.23123 33.81200
#
# Velocity S-wave (km/s) = 3.90103 3.94970 3.92544
# Velocity P-wave (km/s) = 6.45432 6.49928 6.47684
#
# Compressibility (1/GPa) = 0.02132806
#
# Stress axis : x y z
#
# Youngs Moduli (GPa) = 71.63508 70.83258 79.15527
#
# Poissons Ratio (x) = 0.23397 0.23385
# Poissons Ratio (y) = 0.23662 0.27181
# Poissons Ratio (z) = 0.21164 0.24323
#
# Static dielectric constant tensor:
#      x y z
#    x 3.812160 0.000000 0.000000 
#    y 0.000000 4.026280 0.000000 
#    z 0.000000 0.000000 4.108750 
# 
# 
# High freq. dielectric constant tensor:
#      x y z
#    x 1.858310 0.000000 0.000000 
#    y 0.000000 1.876310 0.000000 
#    z 0.000000 0.000000 1.873550 
# 
# From -- ./inp_files/17386.got.cif
#   From: 2010.03.12/outbox.cif.g09.slc.cpg/sg60_9_cif.got.tgz:17386.got - 2010.04.10 18:46:24.
