data_PCOD8248577
_publ_section_title
;
Structure prediction by ZEFSAII (Michael W. Deem and Ramdas Pophale) SiO2 
 PCOD8248577
Probable space group: P B C N
;
_chemical_formula_sum "Si O2"
_cell_formula_units_Z 36
_cell_length_a 8.078577
_cell_length_b 22.105928
_cell_length_c 8.888242
_cell_angle_alpha 90.000000
_cell_angle_beta 90.000000
_cell_angle_gamma 90.000000
_cell_volume 1587.301734
_symmetry_space_group_name_H-M "P B C N"
_symmetry_group_IT_number 60
_symmetry_cell_setting 'orthorhombic'
loop_
_space_group_symop_operation_xyz
x,y,z
1/2-x,1/2-y,1/2+z
1/2+x,1/2-y,-z
-x,y,1/2-z
-x,-y,-z
1/2+x,1/2+y,1/2-z
1/2-x,1/2+y,z
x,-y,1/2+z
loop_
_atom_site_type_symbol
_atom_site_label
_atom_site_fract_x
_atom_site_fract_y
_atom_site_fract_z
Si Si1 0.332095 0.215622 0.671890
Si Si2 0.189629 0.451220 0.742122
Si Si3 0.675841 0.820382 0.670398
Si Si4 0.000000 0.854802 0.250000
Si Si5 0.365105 0.544305 0.941070
O O1 0.500000 0.188775 0.750000
O O2 0.346039 0.210554 0.492536
O O3 0.311823 0.284677 0.729777
O O4 0.163652 0.183658 0.722002
O O5 0.232507 0.390796 0.839452
O O6 0.281807 0.510969 0.799635
O O7 0.232501 0.439160 0.568375
O O8 0.000000 0.467890 0.750000
O O9 0.500000 0.817734 0.750000
O O10 0.957829 0.894842 0.105542
O O11 0.500000 0.500000 0.000000
#
# Coordination Sequence:
#
# PCOD8248577 Si02
#       5
#     8   8   8   4   8
#     4  12  28  47  78 107 154 198 247 310 373 446
#     4  11  26  44  75 105 148 190 255 302 374 441
#     4  11  26  49  72 111 148 195 253 307 373 444
#     4  12  28  46  76 110 154 186 260 296 380 450
#     4  12  24  47  70 106 146 196 237 310 371 442
#
# _framework density 22.679997
#
# number of rings (size 3 to 8) (size 9 to 14) (size 15 to 20)
#    0.000    0.444    3.333    3.333    9.333    2.667 
#    0.000    0.000    0.000    0.000    0.000    0.000 
#    0.000    0.000    0.000    0.000    0.000    0.000 
#
# Total GULP energy -446407.030056 kJ/mol
# GULP energy per Si atom -12400.195279 kJ/mol
# Density = 2.262838 g / cm^3
# Si number density = 22.679997 Si / 1000 Ang^3
#
#
#
# Elastic Constant Matrix: (Units=GPa)
#
#
# Indices 1 2 3 4 5 6 
#
# 1 142.1571 35.2062 25.0455 0.0000 0.0000 0.0000
# 2 35.2062 80.1491 11.8711 0.0000 0.0000 0.0000
# 3 25.0455 11.8711 116.0281 0.0000 0.0000 0.0000
# 4 0.0000 0.0000 0.0000 35.9061 0.0000 0.0000
# 5 0.0000 0.0000 0.0000 0.0000 43.4782 0.0000
# 6 0.0000 0.0000 0.0000 0.0000 0.0000 15.4678
#
#
#
# Elastic Compliance Matrix: (Units=1/GPa)
#
#
# Indices 1 2 3 4 5 6 
#
# 1 0.008114 -0.003355 -0.001408 0.000000 0.000000 0.000000
# 2 -0.003355 0.014056 -0.000714 0.000000 0.000000 0.000000
# 3 -0.001408 -0.000714 0.008996 0.000000 0.000000 0.000000
# 4 0.000000 0.000000 0.000000 0.027850 0.000000 0.000000
# 5 0.000000 0.000000 0.000000 0.000000 0.023000 0.000000
# 6 0.000000 0.000000 0.000000 0.000000 0.000000 0.064650
#
#
# Mechanical properties :
#
#
# Convention : Reuss Voigt Hill
#
# Bulk Modulus (GPa) = 49.47834 53.61999 51.54916
# Shear Modulus (GPa) = 30.42142 36.71785 33.56964
#
# Velocity S-wave (km/s) = 3.66639 4.02799 3.85144
# Velocity P-wave (km/s) = 6.30765 6.73247 6.52352
#
# Compressibility (1/GPa) = 0.02021086
#
# Stress axis : x y z
#
# Youngs Moduli (GPa) = 123.25091 71.14212 111.16577
#
# Poissons Ratio (x) = 0.23871 0.15653
# Poissons Ratio (y) = 0.41356 0.07936
# Poissons Ratio (z) = 0.17355 0.05078
#
# Static dielectric constant tensor:
#      x y z
#    x 4.058960 0.000000 0.000000 
#    y 0.000000 5.169300 0.000000 
#    z 0.000000 0.000000 2.591490 
# 
# 
# High freq. dielectric constant tensor:
#      x y z
#    x 1.912140 0.000000 0.000000 
#    y 0.000000 1.900040 0.000000 
#    z 0.000000 0.000000 1.899660 
# 
# From -- ./inp_files/3713.got.cif
#   From: 2010.03.12/outbox.cif.g09.slc.cpg/sg60_2_cif.got.tgz:3713.got - 2010.04.10 18:46:24.
