data_PCOD8248938
_publ_section_title
;
Structure prediction by ZEFSAII (Michael W. Deem and Ramdas Pophale) SiO2 
 PCOD8248938
Probable space group: P B C A
;
_chemical_formula_sum "Si O2"
_cell_formula_units_Z 64
_cell_length_a 11.184037
_cell_length_b 15.286879
_cell_length_c 18.916221
_cell_angle_alpha 90.000000
_cell_angle_beta 90.000000
_cell_angle_gamma 90.000000
_cell_volume 3234.087773
_symmetry_space_group_name_H-M "P B C A"
_symmetry_group_IT_number 61
_symmetry_cell_setting 'orthorhombic'
loop_
_space_group_symop_operation_xyz
x,y,z
1/2-x,-y,1/2+z
1/2+x,1/2-y,-z
-x,1/2+y,1/2-z
-x,-y,-z
1/2+x,y,1/2-z
1/2-x,1/2+y,z
x,1/2-y,1/2+z
loop_
_atom_site_type_symbol
_atom_site_label
_atom_site_fract_x
_atom_site_fract_y
_atom_site_fract_z
Si Si1 0.215072 0.359712 0.886477
Si Si2 0.552284 0.684108 0.718936
Si Si3 0.582812 0.010304 0.198137
Si Si4 0.385784 0.022397 0.093545
Si Si5 0.848554 0.589586 0.341124
Si Si6 0.537203 0.693907 0.089451
Si Si7 0.525777 0.365278 0.492331
Si Si8 0.298171 0.753509 0.252857
O O1 0.199094 0.449734 0.841485
O O2 0.341276 0.358239 0.927410
O O3 0.118294 0.349342 0.946245
O O4 0.202752 0.278784 0.833292
O O5 0.574767 0.591891 0.681652
O O6 0.552256 0.764779 0.666286
O O7 0.673091 0.696564 0.766765
O O8 0.418475 0.685557 0.752677
O O9 0.466901 0.052857 0.160302
O O10 0.583313 0.030806 0.281963
O O11 0.250693 0.031118 0.120045
O O12 0.411050 0.083717 0.025001
O O13 0.414184 0.922064 0.070766
O O14 0.797667 0.675539 0.303504
O O15 0.934576 0.620442 0.404893
O O16 0.512005 0.769413 0.033114
#
# Coordination Sequence:
#
# PCOD8248938 Si02
#       8
#     8   8   8   8   8   8   8   8
#     4   9  21  38  59  83 119 156 200 244 307 355
#     4  10  20  35  58  87 119 154 196 245 298 365
#     4  10  21  36  60  86 119 156 187 248 303 360
#     4  10  22  39  59  88 114 158 202 238 301 366
#     4  10  23  34  61  85 121 147 195 248 305 356
#     4  10  21  39  56  88 114 156 199 247 294 358
#     4  10  21  39  62  81 115 161 203 242 289 365
#     4   9  21  36  57  88 120 153 195 248 306 359
#
# _framework density 19.789197999999999
#
# number of rings (size 3 to 8) (size 9 to 14) (size 15 to 20)
#    0.000    2.250    1.250    0.000   14.000    0.000 
#    0.000    1.875    0.000    0.000    0.000    0.000 
#    0.000    0.000    0.000    0.000    0.000    0.000 
#
# Total GULP energy -792987.159863 kJ/mol
# GULP energy per Si atom -12390.424373 kJ/mol
# Density = 1.974416 g / cm^3
# Si number density = 19.789198 Si / 1000 Ang^3
#
#
#
# Elastic Constant Matrix: (Units=GPa)
#
#
# Indices 1 2 3 4 5 6 
#
# 1 118.6305 36.5112 23.0004 0.0000 0.0000 0.0000
# 2 36.5112 64.8906 9.5741 0.0000 0.0000 0.0000
# 3 23.0004 9.5741 57.4759 0.0000 0.0000 0.0000
# 4 0.0000 0.0000 0.0000 23.0804 0.0000 0.0000
# 5 0.0000 0.0000 0.0000 0.0000 26.0827 0.0000
# 6 0.0000 0.0000 0.0000 0.0000 0.0000 20.3691
#
#
#
# Elastic Compliance Matrix: (Units=1/GPa)
#
#
# Indices 1 2 3 4 5 6 
#
# 1 0.010805 -0.005578 -0.003394 0.000000 0.000000 0.000000
# 2 -0.005578 0.018679 -0.000879 0.000000 0.000000 0.000000
# 3 -0.003394 -0.000879 0.018903 0.000000 0.000000 0.000000
# 4 0.000000 0.000000 0.000000 0.043327 0.000000 0.000000
# 5 0.000000 0.000000 0.000000 0.000000 0.038340 0.000000
# 6 0.000000 0.000000 0.000000 0.000000 0.000000 0.049094
#
#
# Mechanical properties :
#
#
# Convention : Reuss Voigt Hill
#
# Bulk Modulus (GPa) = 34.86400 42.12985 38.49693
# Shear Modulus (GPa) = 23.99090 25.36720 24.67905
#
# Velocity S-wave (km/s) = 3.48562 3.58421 3.53526
# Velocity P-wave (km/s) = 5.81853 6.20196 6.01330
#
# Compressibility (1/GPa) = 0.02868288
#
# Stress axis : x y z
#
# Youngs Moduli (GPa) = 92.55354 53.53604 52.90052
#
# Poissons Ratio (x) = 0.29865 0.17957
# Poissons Ratio (y) = 0.51630 0.04651
# Poissons Ratio (z) = 0.31417 0.04707
#
# Static dielectric constant tensor:
#      x y z
#    x 3.958820 0.000000 0.000000 
#    y 0.000000 3.447950 0.000000 
#    z 0.000000 0.000000 3.482080 
# 
# 
# High freq. dielectric constant tensor:
#      x y z
#    x 1.775710 0.000000 0.000000 
#    y 0.000000 1.759100 0.000000 
#    z 0.000000 0.000000 1.753310 
# 
# From -- ./inp_files/9297.got.cif
#   From: 2010.03.12/outbox.cif.g09.slc.cpg/sg61_5_cif.got.tgz:9297.got - 2010.04.10 19:05:03.
