data_PCOD8248729
_publ_section_title
;
Structure prediction by ZEFSAII (Michael W. Deem and Ramdas Pophale) SiO2 
 PCOD8248729
Probable space group: P B C A
;
_chemical_formula_sum "Si O2"
_cell_formula_units_Z 64
_cell_length_a 19.482623
_cell_length_b 18.802473
_cell_length_c 9.747896
_cell_angle_alpha 90.000000
_cell_angle_beta 90.000000
_cell_angle_gamma 90.000000
_cell_volume 3570.863816
_symmetry_space_group_name_H-M "P B C A"
_symmetry_group_IT_number 61
_symmetry_cell_setting 'orthorhombic'
loop_
_space_group_symop_operation_xyz
x,y,z
1/2-x,-y,1/2+z
1/2+x,1/2-y,-z
-x,1/2+y,1/2-z
-x,-y,-z
1/2+x,y,1/2-z
1/2-x,1/2+y,z
x,1/2-y,1/2+z
loop_
_atom_site_type_symbol
_atom_site_label
_atom_site_fract_x
_atom_site_fract_y
_atom_site_fract_z
Si Si1 0.834171 0.172658 0.487139
Si Si2 0.676241 0.710744 0.783438
Si Si3 0.801932 0.483724 0.062585
Si Si4 0.051169 0.043940 0.407258
Si Si5 0.697414 0.559836 0.869542
Si Si6 0.484427 0.314283 0.202905
Si Si7 0.959761 0.468341 0.373578
Si Si8 0.503642 0.690418 0.490659
O O1 0.803148 0.215290 0.356959
O O2 0.806773 0.214278 0.622090
O O3 0.806388 0.092705 0.488145
O O4 0.916380 0.169987 0.481005
O O5 0.713430 0.643997 0.856270
O O6 0.595949 0.698341 0.796989
O O7 0.872672 0.525211 0.044019
O O8 0.785129 0.476247 0.223584
O O9 0.742589 0.528281 0.990887
O O10 0.040485 0.127670 0.424097
O O11 0.037469 0.024190 0.249889
O O12 0.000000 0.000000 0.500000
O O13 0.618767 0.547307 0.912920
O O14 0.499323 0.396157 0.167717
O O15 0.517081 0.297513 0.351181
O O16 0.517103 0.261998 0.090068
O O17 0.000000 0.500000 0.500000
#
# Coordination Sequence:
#
# PCOD8248729 Si02
#       8
#     8   8   8   8   8   8   8   8
#     4   9  16  30  51  78 101 133 172 224 262 313
#     4   8  16  30  49  72 104 129 170 218 263 303
#     4  10  20  35  56  77 108 142 181 222 269 320
#     4  11  19  35  56  80 111 144 177 225 276 325
#     4   9  20  37  52  77 107 140 176 224 266 320
#     4   9  18  31  50  77 108 140 173 225 267 324
#     4  10  21  36  55  82 113 137 182 236 273 317
#     4  10  18  32  52  79 111 140 181 220 275 324
#
# _framework density 17.922834000000002
#
# number of rings (size 3 to 8) (size 9 to 14) (size 15 to 20)
#    0.000    2.500    2.500    1.500    1.750    2.000 
#    2.250    0.000    2.750    0.000    0.000    0.000 
#    0.000    0.000    0.000    0.000    0.000    0.000 
#
# Total GULP energy -793466.994891 kJ/mol
# GULP energy per Si atom -12397.921795 kJ/mol
# Density = 1.788204 g / cm^3
# Si number density = 17.922834 Si / 1000 Ang^3
#
#
#
# Elastic Constant Matrix: (Units=GPa)
#
#
# Indices 1 2 3 4 5 6 
#
# 1 52.4386 28.7716 40.8178 0.0000 0.0000 0.0000
# 2 28.7716 117.2496 66.7326 0.0000 0.0000 0.0000
# 3 40.8178 66.7326 106.7438 0.0000 0.0000 0.0000
# 4 0.0000 0.0000 0.0000 36.8579 0.0000 0.0000
# 5 0.0000 0.0000 0.0000 0.0000 28.4991 0.0000
# 6 0.0000 0.0000 0.0000 0.0000 0.0000 23.3476
#
#
#
# Elastic Compliance Matrix: (Units=1/GPa)
#
#
# Indices 1 2 3 4 5 6 
#
# 1 0.027255 -0.001174 -0.009688 0.000000 0.000000 0.000000
# 2 -0.001174 0.013290 -0.007860 0.000000 0.000000 0.000000
# 3 -0.009688 -0.007860 0.017986 0.000000 0.000000 0.000000
# 4 0.000000 0.000000 0.000000 0.027131 0.000000 0.000000
# 5 0.000000 0.000000 0.000000 0.000000 0.035089 0.000000
# 6 0.000000 0.000000 0.000000 0.000000 0.000000 0.042831
#
#
# Mechanical properties :
#
#
# Convention : Reuss Voigt Hill
#
# Bulk Modulus (GPa) = 47.41983 61.00843 54.21413
# Shear Modulus (GPa) = 24.03197 27.08159 25.55678
#
# Velocity S-wave (km/s) = 3.66574 3.89139 3.78025
# Velocity P-wave (km/s) = 6.66574 7.36912 7.02624
#
# Compressibility (1/GPa) = 0.02108822
#
# Stress axis : x y z
#
# Youngs Moduli (GPa) = 36.69012 75.24315 55.59739
#
# Poissons Ratio (x) = 0.08834 0.53864
# Poissons Ratio (y) = 0.04308 0.43698
# Poissons Ratio (z) = 0.35546 0.59138
#
# Static dielectric constant tensor:
#      x y z
#    x 3.385720 0.000000 0.000000 
#    y 0.000000 3.668190 0.000000 
#    z 0.000000 0.000000 3.455010 
# 
# 
# High freq. dielectric constant tensor:
#      x y z
#    x 1.649320 0.000000 0.000000 
#    y 0.000000 1.701380 0.000000 
#    z 0.000000 0.000000 1.701980 
# 
# From -- ./inp_files/4095.got.cif
#   From: 2010.03.12/outbox.cif.g09.slc.cpg/sg61_3_cif.got.tgz:4095.got - 2010.04.10 19:05:03.
