data_PCOD8248157
_publ_section_title
;
Structure prediction by ZEFSAII (Michael W. Deem and Ramdas Pophale) SiO2 
 PCOD8248157
Probable space group: P B C N
;
_chemical_formula_sum "Si O2"
_cell_formula_units_Z 48
_cell_length_a 8.805567
_cell_length_b 14.118666
_cell_length_c 17.633422
_cell_angle_alpha 90.000000
_cell_angle_beta 90.000000
_cell_angle_gamma 90.000000
_cell_volume 2192.237444
_symmetry_space_group_name_H-M "P B C N"
_symmetry_group_IT_number 60
_symmetry_cell_setting 'orthorhombic'
loop_
_space_group_symop_operation_xyz
x,y,z
1/2-x,1/2-y,1/2+z
1/2+x,1/2-y,-z
-x,y,1/2-z
-x,-y,-z
1/2+x,1/2+y,1/2-z
1/2-x,1/2+y,z
x,-y,1/2+z
loop_
_atom_site_type_symbol
_atom_site_label
_atom_site_fract_x
_atom_site_fract_y
_atom_site_fract_z
Si Si1 0.630004 0.152454 0.427490
Si Si2 0.173919 0.013727 0.520956
Si Si3 0.828135 0.570142 0.722843
Si Si4 0.386374 0.786055 0.399865
Si Si5 0.796269 0.595068 0.121320
Si Si6 0.265763 0.828305 0.131678
O O1 0.632658 0.196580 0.511302
O O2 0.467787 0.120809 0.398378
O O3 0.675276 0.230281 0.365442
O O4 0.752847 0.067589 0.426218
O O5 0.259445 0.016372 0.441438
O O6 0.201406 0.113764 0.560895
O O7 0.000000 0.000000 0.500000
O O8 0.796468 0.637503 0.650517
O O9 0.783756 0.461768 0.701284
O O10 0.730266 0.610932 0.792772
O O11 0.000000 0.571774 0.750000
O O12 0.320138 0.682582 0.378769
O O13 0.561240 0.796396 0.378345
#
# Coordination Sequence:
#
# PCOD8248157 Si02
#       6
#     8   8   8   8   8   8
#     4  12  22  40  73 104 136 182 238 289 345 419
#     4  12  25  41  70 102 138 186 238 289 348 416
#     4  10  24  44  67  97 145 186 226 288 353 417
#     4  11  21  41  70 101 138 184 228 286 355 414
#     4  12  24  42  73 102 139 182 234 285 356 419
#     4  11  25  45  67 104 142 178 234 290 347 417
#
# _framework density 21.895439
#
# number of rings (size 3 to 8) (size 9 to 14) (size 15 to 20)
#    0.000    0.667    5.000    3.500    2.333    2.667 
#    0.000    4.167    0.000    2.000    0.000    0.000 
#    0.000    0.000    0.000    0.000    0.000    0.000 
#
# Total GULP energy -595011.726128 kJ/mol
# GULP energy per Si atom -12396.077628 kJ/mol
# Density = 2.184560 g / cm^3
# Si number density = 21.895439 Si / 1000 Ang^3
#
#
#
# Elastic Constant Matrix: (Units=GPa)
#
#
# Indices 1 2 3 4 5 6 
#
# 1 129.4868 61.5286 26.2015 0.0000 0.0000 0.0000
# 2 61.5286 145.8547 32.9277 0.0000 0.0000 0.0000
# 3 26.2015 32.9277 50.9943 0.0000 0.0000 0.0000
# 4 0.0000 0.0000 0.0000 64.6300 0.0000 0.0000
# 5 0.0000 0.0000 0.0000 0.0000 18.2433 0.0000
# 6 0.0000 0.0000 0.0000 0.0000 0.0000 47.2432
#
#
#
# Elastic Compliance Matrix: (Units=1/GPa)
#
#
# Indices 1 2 3 4 5 6 
#
# 1 0.009995 -0.003579 -0.002825 0.000000 0.000000 0.000000
# 2 -0.003579 0.009307 -0.004171 0.000000 0.000000 0.000000
# 3 -0.002825 -0.004171 0.023755 0.000000 0.000000 0.000000
# 4 0.000000 0.000000 0.000000 0.015473 0.000000 0.000000
# 5 0.000000 0.000000 0.000000 0.000000 0.054815 0.000000
# 6 0.000000 0.000000 0.000000 0.000000 0.000000 0.021167
#
#
# Mechanical properties :
#
#
# Convention : Reuss Voigt Hill
#
# Bulk Modulus (GPa) = 45.64536 63.07237 54.35886
# Shear Modulus (GPa) = 30.68176 39.73515 35.20846
#
# Velocity S-wave (km/s) = 3.74744 4.26463 4.01437
# Velocity P-wave (km/s) = 6.29417 7.28822 6.80936
#
# Compressibility (1/GPa) = 0.02190803
#
# Stress axis : x y z
#
# Youngs Moduli (GPa) = 100.05171 107.44080 42.09675
#
# Poissons Ratio (x) = 0.38449 0.11891
# Poissons Ratio (y) = 0.35805 0.17559
# Poissons Ratio (z) = 0.28262 0.44816
#
# Static dielectric constant tensor:
#      x y z
#    x 3.736790 0.000000 0.000000 
#    y 0.000000 4.373130 0.000000 
#    z 0.000000 0.000000 4.263080 
# 
# 
# High freq. dielectric constant tensor:
#      x y z
#    x 1.849790 0.000000 0.000000 
#    y 0.000000 1.879970 0.000000 
#    z 0.000000 0.000000 1.860970 
# 
# From -- ./inp_files/19282.got.cif
#   From: 2010.03.12/outbox.cif.g09.slc.cpg/sg60_10_cif.got.tgz:19282.got - 2010.04.10 18:46:24.
