data_PCOD8248690
_publ_section_title
;
Structure prediction by ZEFSAII (Michael W. Deem and Ramdas Pophale) SiO2 
 PCOD8248690
Probable space group: P B C N
;
_chemical_formula_sum "Si O2"
_cell_formula_units_Z 24
_cell_length_a 9.599724
_cell_length_b 10.000921
_cell_length_c 10.138084
_cell_angle_alpha 90.000000
_cell_angle_beta 90.000000
_cell_angle_gamma 90.000000
_cell_volume 973.317717
_symmetry_space_group_name_H-M "P B C N"
_symmetry_group_IT_number 60
_symmetry_cell_setting 'orthorhombic'
loop_
_space_group_symop_operation_xyz
x,y,z
1/2-x,1/2-y,1/2+z
1/2+x,1/2-y,-z
-x,y,1/2-z
-x,-y,-z
1/2+x,1/2+y,1/2-z
1/2-x,1/2+y,z
x,-y,1/2+z
loop_
_atom_site_type_symbol
_atom_site_label
_atom_site_fract_x
_atom_site_fract_y
_atom_site_fract_z
Si Si1 0.748121 0.716019 0.562052
Si Si2 0.594065 0.972586 0.627476
Si Si3 0.485066 0.623028 0.096773
O O1 0.653115 0.821881 0.642054
O O2 0.770663 0.571699 0.632610
O O3 0.668436 0.688528 0.423190
O O4 0.902421 0.772191 0.541721
O O5 0.500000 0.009118 0.750000
O O6 0.500000 0.000000 0.500000
O O7 0.500000 0.585736 0.250000
O O8 0.500000 0.500000 0.000000
#
# Coordination Sequence:
#
# PCOD8248690 Si02
#       3
#     8   8   8
#     4  12  27  50  80 115 163 210 267 334 414 483
#     4  12  29  48  78 117 161 209 269 334 407 487
#     4  12  29  50  83 120 162 213 275 336 411 490
#
# _framework density 24.657933
#
# number of rings (size 3 to 8) (size 9 to 14) (size 15 to 20)
#    0.000    0.000    6.667    1.000    4.667    4.000 
#    0.000    0.000    0.000    0.000    0.000    0.000 
#    0.000    0.000    0.000    0.000    0.000    0.000 
#
# Total GULP energy -297434.509398 kJ/mol
# GULP energy per Si atom -12393.104558 kJ/mol
# Density = 2.460181 g / cm^3
# Si number density = 24.657933 Si / 1000 Ang^3
#
#
#
# Elastic Constant Matrix: (Units=GPa)
#
#
# Indices 1 2 3 4 5 6 
#
# 1 143.9805 43.6043 88.5790 0.0000 0.0000 0.0000
# 2 43.6043 131.7393 68.6913 0.0000 0.0000 0.0000
# 3 88.5790 68.6913 190.1676 0.0000 0.0000 0.0000
# 4 0.0000 0.0000 0.0000 21.7441 0.0000 0.0000
# 5 0.0000 0.0000 0.0000 0.0000 45.7667 0.0000
# 6 0.0000 0.0000 0.0000 0.0000 0.0000 62.7266
#
#
#
# Elastic Compliance Matrix: (Units=1/GPa)
#
#
# Indices 1 2 3 4 5 6 
#
# 1 0.009856 -0.001070 -0.004204 0.000000 0.000000 0.000000
# 2 -0.001070 0.009468 -0.002922 0.000000 0.000000 0.000000
# 3 -0.004204 -0.002922 0.008272 0.000000 0.000000 0.000000
# 4 0.000000 0.000000 0.000000 0.045990 0.000000 0.000000
# 5 0.000000 0.000000 0.000000 0.000000 0.021850 0.000000
# 6 0.000000 0.000000 0.000000 0.000000 0.000000 0.015942
#
#
# Mechanical properties :
#
#
# Convention : Reuss Voigt Hill
#
# Bulk Modulus (GPa) = 89.25018 96.40406 92.82712
# Shear Modulus (GPa) = 38.02127 43.71499 40.86813
#
# Velocity S-wave (km/s) = 3.93103 4.21510 4.07554
# Velocity P-wave (km/s) = 7.54174 7.92911 7.73785
#
# Compressibility (1/GPa) = 0.01120446
#
# Stress axis : x y z
#
# Youngs Moduli (GPa) = 101.46068 105.61516 120.88592
#
# Poissons Ratio (x) = 0.11301 0.50825
# Poissons Ratio (y) = 0.10856 0.35319
# Poissons Ratio (z) = 0.42658 0.30858
#
# Static dielectric constant tensor:
#      x y z
#    x 5.034490 0.000000 0.000000 
#    y 0.000000 5.721840 0.000000 
#    z 0.000000 0.000000 4.092640 
# 
# 
# High freq. dielectric constant tensor:
#      x y z
#    x 2.006900 0.000000 0.000000 
#    y 0.000000 2.008000 0.000000 
#    z 0.000000 0.000000 1.948410 
# 
# From -- ./inp_files/4389.got.cif
#   From: 2010.03.12/outbox.cif.g09.slc.cpg/sg60_3_cif.got.tgz:4389.got - 2010.04.10 18:46:24.
