data_PCOD8248564
_publ_section_title
;
Structure prediction by ZEFSAII (Michael W. Deem and Ramdas Pophale) SiO2 
 PCOD8248564
Probable space group: P B C N
;
_chemical_formula_sum "Si O2"
_cell_formula_units_Z 64
_cell_length_a 15.332880
_cell_length_b 10.399524
_cell_length_c 17.025088
_cell_angle_alpha 90.000000
_cell_angle_beta 90.000000
_cell_angle_gamma 90.000000
_cell_volume 2714.729509
_symmetry_space_group_name_H-M "P B C N"
_symmetry_group_IT_number 60
_symmetry_cell_setting 'orthorhombic'
loop_
_space_group_symop_operation_xyz
x,y,z
1/2-x,1/2-y,1/2+z
1/2+x,1/2-y,-z
-x,y,1/2-z
-x,-y,-z
1/2+x,1/2+y,1/2-z
1/2-x,1/2+y,z
x,-y,1/2+z
loop_
_atom_site_type_symbol
_atom_site_label
_atom_site_fract_x
_atom_site_fract_y
_atom_site_fract_z
Si Si1 0.201303 0.170963 0.832837
Si Si2 0.603856 0.636739 0.517749
Si Si3 0.342716 0.786950 0.668232
Si Si4 0.454104 0.035556 0.670074
Si Si5 0.405664 0.367611 0.035766
Si Si6 0.896649 0.293022 0.114344
Si Si7 0.589260 0.557355 0.223902
Si Si8 0.350273 0.274689 0.641834
O O1 0.158395 0.212602 0.915465
O O2 0.172311 0.266748 0.762139
O O3 0.305459 0.165333 0.844216
O O4 0.162420 0.029924 0.816365
O O5 0.643770 0.496680 0.494160
O O6 0.507659 0.608484 0.546998
O O7 0.600229 0.726676 0.441414
O O8 0.381259 0.661675 0.625967
O O9 0.250813 0.794843 0.624573
O O10 0.405042 0.905773 0.643493
O O11 0.500000 0.999130 0.750000
O O12 0.532425 0.090207 0.614387
O O13 0.377897 0.141185 0.683423
O O14 0.382507 0.251394 0.975588
O O15 0.936045 0.173930 0.164560
O O16 0.500000 0.484610 0.250000
O O17 0.627691 0.605880 0.304654
#
# Coordination Sequence:
#
# PCOD8248564 Si02
#       8
#     8   8   8   8   8   8   8   8
#     4  12  28  45  75 117 148 193 249 317 368 440
#     4  11  25  46  77 105 146 195 255 307 360 445
#     4  12  30  44  74 114 153 187 245 316 372 439
#     4  12  26  47  74 106 153 199 240 301 376 452
#     4  11  25  49  73 108 147 197 250 307 372 439
#     4  12  23  51  73 108 150 200 247 301 381 447
#     4  12  23  45  77 104 141 198 252 297 367 444
#     4  12  24  49  74 105 139 201 250 295 368 447
#
# _framework density 23.575092999999999
#
# number of rings (size 3 to 8) (size 9 to 14) (size 15 to 20)
#    0.000    0.250    6.250    1.500   10.500    0.500 
#    0.000    0.000    0.000    0.000    0.000    0.000 
#    0.000    0.000    0.000    0.000    0.000    0.000 
#
# Total GULP energy -793253.623972 kJ/mol
# GULP energy per Si atom -12394.587875 kJ/mol
# Density = 2.352143 g / cm^3
# Si number density = 23.575093 Si / 1000 Ang^3
#
#
#
# Elastic Constant Matrix: (Units=GPa)
#
#
# Indices 1 2 3 4 5 6 
#
# 1 113.5932 41.5185 7.6127 0.0000 0.0000 0.0000
# 2 41.5185 78.7565 7.9459 0.0000 0.0000 0.0000
# 3 7.6127 7.9459 72.0550 0.0000 0.0000 0.0000
# 4 0.0000 0.0000 0.0000 28.5129 0.0000 0.0000
# 5 0.0000 0.0000 0.0000 0.0000 39.0900 0.0000
# 6 0.0000 0.0000 0.0000 0.0000 0.0000 38.6915
#
#
#
# Elastic Compliance Matrix: (Units=1/GPa)
#
#
# Indices 1 2 3 4 5 6 
#
# 1 0.010924 -0.005706 -0.000525 0.000000 0.000000 0.000000
# 2 -0.005706 0.015821 -0.001142 0.000000 0.000000 0.000000
# 3 -0.000525 -0.001142 0.014060 0.000000 0.000000 0.000000
# 4 0.000000 0.000000 0.000000 0.035072 0.000000 0.000000
# 5 0.000000 0.000000 0.000000 0.000000 0.025582 0.000000
# 6 0.000000 0.000000 0.000000 0.000000 0.000000 0.025845
#
#
# Mechanical properties :
#
#
# Convention : Reuss Voigt Hill
#
# Bulk Modulus (GPa) = 38.37440 42.06209 40.21824
# Shear Modulus (GPa) = 33.17077 35.08074 34.12575
#
# Velocity S-wave (km/s) = 3.75510 3.86170 3.80877
# Velocity P-wave (km/s) = 5.92570 6.14525 6.03647
#
# Compressibility (1/GPa) = 0.02605904
#
# Stress axis : x y z
#
# Youngs Moduli (GPa) = 91.54124 63.20885 71.12548
#
# Poissons Ratio (x) = 0.36066 0.03733
# Poissons Ratio (y) = 0.52233 0.08121
# Poissons Ratio (z) = 0.04805 0.07217
#
# Static dielectric constant tensor:
#      x y z
#    x -50.347050 0.000000 0.000000 
#    y 0.000000 3.970670 0.000000 
#    z 0.000000 0.000000 4.346930 
# 
# 
# High freq. dielectric constant tensor:
#      x y z
#    x 1.943440 0.000000 0.000000 
#    y 0.000000 1.908850 0.000000 
#    z 0.000000 0.000000 1.943950 
# 
# From -- ./inp_files/20673.got.cif
#   From: 2010.03.12/outbox.cif.g09.slc.cpg/sg60_11_cif.got.tgz:20673.got - 2010.04.10 18:46:24.
