data_PCOD8248472
_publ_section_title
;
Structure prediction by ZEFSAII (Michael W. Deem and Ramdas Pophale) SiO2 
 PCOD8248472
Probable space group: P B C N
;
_chemical_formula_sum "Si O2"
_cell_formula_units_Z 36
_cell_length_a 12.467019
_cell_length_b 25.660311
_cell_length_c 5.003437
_cell_angle_alpha 90.000000
_cell_angle_beta 90.000000
_cell_angle_gamma 90.000000
_cell_volume 1600.637446
_symmetry_space_group_name_H-M "P B C N"
_symmetry_group_IT_number 60
_symmetry_cell_setting 'orthorhombic'
loop_
_space_group_symop_operation_xyz
x,y,z
1/2-x,1/2-y,1/2+z
1/2+x,1/2-y,-z
-x,y,1/2-z
-x,-y,-z
1/2+x,1/2+y,1/2-z
1/2-x,1/2+y,z
x,-y,1/2+z
loop_
_atom_site_type_symbol
_atom_site_label
_atom_site_fract_x
_atom_site_fract_y
_atom_site_fract_z
Si Si1 0.000000 0.961404 0.750000
Si Si2 0.170547 0.616845 0.674974
Si Si3 0.817217 0.234671 0.100281
Si Si4 0.000000 0.535310 0.750000
Si Si5 0.500000 0.800684 0.250000
Si Si6 0.808563 0.120368 0.307249
O O1 0.900133 0.923019 0.794127
O O2 0.000000 0.000000 0.500000
O O3 0.106266 0.568766 0.790364
O O4 0.088434 0.663840 0.601805
O O5 0.217661 0.599451 0.391765
O O6 0.262329 0.629899 0.894903
O O7 0.749037 0.265266 0.326418
O O8 0.930777 0.264131 0.049434
O O9 0.845988 0.176099 0.189634
O O10 0.000000 0.500000 0.500000
#
# Coordination Sequence:
#
# PCOD8248472 Si02
#       6
#     4   8   8   4   4   8
#     4  12  29  48  75 102 139 192 241 296 354 402
#     4  11  25  41  72  95 137 180 221 286 344 412
#     4  12  24  42  69 104 139 187 230 277 351 421
#     4  11  24  42  63 100 129 168 222 281 346 404
#     4  11  23  44  66 100 140 176 231 265 352 410
#     4  12  24  48  67 104 137 179 239 283 344 417
#
# _framework density 22.491040000000002
#
# number of rings (size 3 to 8) (size 9 to 14) (size 15 to 20)
#    0.000    0.444    4.444    3.333    0.000   10.667 
#    0.000    4.444    0.000    0.000    0.000    0.000 
#    0.000    0.000    0.000    0.000    0.000    0.000 
#
# Total GULP energy -446164.585502 kJ/mol
# GULP energy per Si atom -12393.460708 kJ/mol
# Density = 2.243985 g / cm^3
# Si number density = 22.491040 Si / 1000 Ang^3
#
#
#
# Elastic Constant Matrix: (Units=GPa)
#
#
# Indices 1 2 3 4 5 6 
#
# 1 141.3941 69.3970 40.4281 0.0000 0.0000 0.0000
# 2 69.3970 162.0491 36.5046 0.0000 0.0000 0.0000
# 3 40.4281 36.5046 117.0644 0.0000 0.0000 0.0000
# 4 0.0000 0.0000 0.0000 36.8269 0.0000 0.0000
# 5 0.0000 0.0000 0.0000 0.0000 27.4926 0.0000
# 6 0.0000 0.0000 0.0000 0.0000 0.0000 39.5994
#
#
#
# Elastic Compliance Matrix: (Units=1/GPa)
#
#
# Indices 1 2 3 4 5 6 
#
# 1 0.009432 -0.003555 -0.002149 0.000000 0.000000 0.000000
# 2 -0.003555 0.007977 -0.001260 0.000000 0.000000 0.000000
# 3 -0.002149 -0.001260 0.009677 0.000000 0.000000 0.000000
# 4 0.000000 0.000000 0.000000 0.027154 0.000000 0.000000
# 5 0.000000 0.000000 0.000000 0.000000 0.036373 0.000000
# 6 0.000000 0.000000 0.000000 0.000000 0.000000 0.025253
#
#
# Mechanical properties :
#
#
# Convention : Reuss Voigt Hill
#
# Bulk Modulus (GPa) = 75.99347 79.24078 77.61712
# Shear Modulus (GPa) = 37.26343 39.06229 38.16286
#
# Velocity S-wave (km/s) = 4.07481 4.17201 4.12370
# Velocity P-wave (km/s) = 7.48335 7.64959 7.56692
#
# Compressibility (1/GPa) = 0.01315903
#
# Stress axis : x y z
#
# Youngs Moduli (GPa) = 106.02640 125.35723 103.33578
#
# Poissons Ratio (x) = 0.44565 0.22203
# Poissons Ratio (y) = 0.37693 0.13019
# Poissons Ratio (z) = 0.22781 0.15793
#
# Static dielectric constant tensor:
#      x y z
#    x 4.867540 0.000000 0.000000 
#    y 0.000000 4.391600 0.000000 
#    z 0.000000 0.000000 14.388330 
# 
# 
# High freq. dielectric constant tensor:
#      x y z
#    x 1.891040 0.000000 0.000000 
#    y 0.000000 1.911850 0.000000 
#    z 0.000000 0.000000 1.879790 
# 
# From -- ./inp_files/764.got.cif
#   From: 2010.03.12/outbox.cif.g09.slc.cpg/sg60_1_cif.got.tgz:764.got - 2010.04.10 18:46:24.
