data_PCOD8248799
_publ_section_title
;
Structure prediction by ZEFSAII (Michael W. Deem and Ramdas Pophale) SiO2 
 PCOD8248799
Probable space group: P B C A
;
_chemical_formula_sum "Si O2"
_cell_formula_units_Z 64
_cell_length_a 8.642097
_cell_length_b 20.847944
_cell_length_c 18.128395
_cell_angle_alpha 90.000000
_cell_angle_beta 90.000000
_cell_angle_gamma 90.000000
_cell_volume 3266.192099
_symmetry_space_group_name_H-M "P B C A"
_symmetry_group_IT_number 61
_symmetry_cell_setting 'orthorhombic'
loop_
_space_group_symop_operation_xyz
x,y,z
1/2-x,-y,1/2+z
1/2+x,1/2-y,-z
-x,1/2+y,1/2-z
-x,-y,-z
1/2+x,y,1/2-z
1/2-x,1/2+y,z
x,1/2-y,1/2+z
loop_
_atom_site_type_symbol
_atom_site_label
_atom_site_fract_x
_atom_site_fract_y
_atom_site_fract_z
Si Si1 0.629722 0.859417 0.702655
Si Si2 0.278325 0.001693 0.651491
Si Si3 0.711071 0.362634 0.852891
Si Si4 0.198231 0.640886 0.650604
Si Si5 0.609806 0.501083 0.208271
Si Si6 0.653698 0.137625 0.691949
Si Si7 0.345372 0.746394 0.551775
Si Si8 0.697972 0.746319 0.600502
O O1 0.447983 0.850526 0.690509
O O2 0.658984 0.851452 0.790282
O O3 0.720907 0.806508 0.655334
O O4 0.679269 0.931797 0.676321
O O5 0.286986 0.070327 0.609918
O O6 0.130401 0.002172 0.703974
O O7 0.426058 0.999701 0.704714
O O8 0.278019 0.933720 0.607512
O O9 0.728270 0.312621 0.918789
O O10 0.310146 0.647347 0.721413
O O11 0.250163 0.689270 0.588233
O O12 0.024212 0.656554 0.676768
O O13 0.682063 0.437422 0.169709
O O14 0.767395 0.180626 0.643362
O O15 0.526515 0.741695 0.567786
O O16 0.321671 0.744038 0.464386
#
# Coordination Sequence:
#
# PCOD8248799 Si02
#       8
#     8   8   8   8   8   8   8   8
#     4   9  18  33  54  78 101 129 166 207 251 299
#     4   8  15  29  50  76 102 127 160 203 249 296
#     4   9  18  33  54  78 101 129 166 207 251 299
#     4  10  19  33  55  80 105 133 166 206 251 301
#     4   8  15  29  50  76 102 127 160 203 249 296
#     4  10  19  33  55  80 105 133 166 206 251 301
#     4  11  23  37  52  72 102 138 175 214 256 303
#     4  11  23  37  52  72 102 138 175 214 256 303
#
# _framework density 19.594684000000001
#
# number of rings (size 3 to 8) (size 9 to 14) (size 15 to 20)
#    0.000    2.500    0.000    2.250    0.000    5.000 
#    0.000    1.250    0.000    7.500    0.000    0.000 
#    0.000    0.000    0.000    0.000    0.000    0.000 
#
# Total GULP energy -792894.085227 kJ/mol
# GULP energy per Si atom -12388.970082 kJ/mol
# Density = 1.955009 g / cm^3
# Si number density = 19.594684 Si / 1000 Ang^3
#
#
#
# Elastic Constant Matrix: (Units=GPa)
#
#
# Indices 1 2 3 4 5 6 
#
# 1 33.3078 22.3079 2.2760 0.0000 0.0000 0.0000
# 2 22.3079 125.1407 22.3353 0.0000 0.0000 0.0000
# 3 2.2760 22.3353 43.9697 0.0000 0.0000 0.0000
# 4 0.0000 0.0000 0.0000 4.9947 0.0000 0.0000
# 5 0.0000 0.0000 0.0000 0.0000 26.2407 0.0000
# 6 0.0000 0.0000 0.0000 0.0000 0.0000 27.8511
#
#
#
# Elastic Compliance Matrix: (Units=1/GPa)
#
#
# Indices 1 2 3 4 5 6 
#
# 1 0.034178 -0.006353 0.001458 0.000000 0.000000 0.000000
# 2 -0.006353 0.009969 -0.004735 0.000000 0.000000 0.000000
# 3 0.001458 -0.004735 0.025073 0.000000 0.000000 0.000000
# 4 0.000000 0.000000 0.000000 0.200212 0.000000 0.000000
# 5 0.000000 0.000000 0.000000 0.000000 0.038109 0.000000
# 6 0.000000 0.000000 0.000000 0.000000 0.000000 0.035905
#
#
# Mechanical properties :
#
#
# Convention : Reuss Voigt Hill
#
# Bulk Modulus (GPa) = 20.01613 32.91741 26.46677
# Shear Modulus (GPa) = 13.18016 22.18390 17.68203
#
# Velocity S-wave (km/s) = 2.59634 3.36838 3.00724
# Velocity P-wave (km/s) = 4.38466 5.65363 5.05909
#
# Compressibility (1/GPa) = 0.04995970
#
# Stress axis : x y z
#
# Youngs Moduli (GPa) = 29.25840 100.31509 39.88404
#
# Poissons Ratio (x) = 0.63729 -0.05815
# Poissons Ratio (y) = 0.18588 0.18885
# Poissons Ratio (z) = -0.04266 0.47498
#
# Static dielectric constant tensor:
#      x y z
#    x 3.542460 0.000000 0.000000 
#    y 0.000000 4.197390 0.000000 
#    z 0.000000 0.000000 3.148430 
# 
# 
# High freq. dielectric constant tensor:
#      x y z
#    x 1.763800 0.000000 0.000000 
#    y 0.000000 1.793240 0.000000 
#    z 0.000000 0.000000 1.708630 
# 
# From -- ./inp_files/4072.got.cif
#   From: 2010.03.12/outbox.cif.g09.slc.cpg/sg61_3_cif.got.tgz:4072.got - 2010.04.10 19:05:03.
