data_PCOD8248647
_publ_section_title
;
Structure prediction by ZEFSAII (Michael W. Deem and Ramdas Pophale) SiO2 
 PCOD8248647
Probable space group: P B C N
;
_chemical_formula_sum "Si O2"
_cell_formula_units_Z 32
_cell_length_a 4.950648
_cell_length_b 23.298859
_cell_length_c 11.672056
_cell_angle_alpha 90.000000
_cell_angle_beta 90.000000
_cell_angle_gamma 90.000000
_cell_volume 1346.306876
_symmetry_space_group_name_H-M "P B C N"
_symmetry_group_IT_number 60
_symmetry_cell_setting 'orthorhombic'
loop_
_space_group_symop_operation_xyz
x,y,z
1/2-x,1/2-y,1/2+z
1/2+x,1/2-y,-z
-x,y,1/2-z
-x,-y,-z
1/2+x,1/2+y,1/2-z
1/2-x,1/2+y,z
x,-y,1/2+z
loop_
_atom_site_type_symbol
_atom_site_label
_atom_site_fract_x
_atom_site_fract_y
_atom_site_fract_z
Si Si1 0.752875 0.130523 0.826025
Si Si2 0.093506 0.785242 0.979954
Si Si3 0.500000 0.659185 0.250000
Si Si4 0.500000 0.085016 0.250000
Si Si5 0.244061 0.495368 0.081969
O O1 0.500000 0.150008 0.750000
O O2 0.749335 0.062375 0.845308
O O3 0.000000 0.149034 0.750000
O O4 0.777869 0.162274 0.947533
O O5 0.938734 0.803077 0.862340
O O6 0.348261 0.744463 0.950071
O O7 0.237292 0.624968 0.299329
O O8 0.692007 0.048211 0.333621
O O9 0.500000 0.500000 0.000000
O O10 0.000000 0.500000 0.000000
#
# Coordination Sequence:
#
# PCOD8248647 Si02
#       5
#     8   8   4   4   8
#     4  12  26  46  74 112 151 193 250 307 377 456
#     4  12  28  49  78 107 145 201 253 323 388 444
#     4  12  28  50  75 110 151 194 262 314 376 474
#     4  12  24  46  73 108 151 200 240 300 382 448
#     4  12  25  43  73 107 154 198 242 299 369 453
#
# _framework density 23.768726000000001
#
# number of rings (size 3 to 8) (size 9 to 14) (size 15 to 20)
#    0.000    0.000    1.250    9.000    7.000    0.000 
#    0.000    0.000    0.000    0.000    0.000    0.000 
#    0.000    0.000    0.000    0.000    0.000    0.000 
#
# Total GULP energy -396525.381276 kJ/mol
# GULP energy per Si atom -12391.418165 kJ/mol
# Density = 2.371463 g / cm^3
# Si number density = 23.768726 Si / 1000 Ang^3
#
#
#
# Elastic Constant Matrix: (Units=GPa)
#
#
# Indices 1 2 3 4 5 6 
#
# 1 192.2559 39.5139 51.4272 0.0000 0.0000 0.0000
# 2 39.5139 89.0915 36.7973 0.0000 0.0000 0.0000
# 3 51.4272 36.7973 142.0188 0.0000 0.0000 0.0000
# 4 0.0000 0.0000 0.0000 25.8258 0.0000 0.0000
# 5 0.0000 0.0000 0.0000 0.0000 51.2389 0.0000
# 6 0.0000 0.0000 0.0000 0.0000 0.0000 -5.8005
#
#
#
# Elastic Compliance Matrix: (Units=1/GPa)
#
#
# Indices 1 2 3 4 5 6 
#
# 1 0.006060 -0.001995 -0.001678 0.000000 0.000000 0.000000
# 2 -0.001995 0.013226 -0.002705 0.000000 0.000000 0.000000
# 3 -0.001678 -0.002705 0.008350 0.000000 0.000000 0.000000
# 4 0.000000 0.000000 0.000000 0.038721 0.000000 0.000000
# 5 0.000000 0.000000 0.000000 0.000000 0.019516 0.000000
# 6 0.000000 0.000000 0.000000 0.000000 0.000000 -0.172398
#
#
# Mechanical properties :
#
#
# Convention : Reuss Voigt Hill
#
# Bulk Modulus (GPa) = 67.19594 75.42701 71.31148
# Shear Modulus (GPa) = -72.66369 33.96136 -19.35117
#
# Velocity S-wave (km/s) = -5.53512 3.78408 -2.85642
# Velocity P-wave (km/s) = 3.53806 7.13407 4.38047
#
# Compressibility (1/GPa) = 0.01488185
#
# Stress axis : x y z
#
# Youngs Moduli (GPa) = 165.01228 75.60723 119.76688
#
# Poissons Ratio (x) = 0.15083 0.20092
# Poissons Ratio (y) = 0.32918 0.32392
# Poissons Ratio (z) = 0.27682 0.20448
#
# Static dielectric constant tensor:
#      x y z
#    x 4.471430 0.000000 0.000000 
#    y 0.000000 4.301620 0.000000 
#    z 0.000000 0.000000 4.282450 
# 
# 
# High freq. dielectric constant tensor:
#      x y z
#    x 1.965800 0.000000 0.000000 
#    y 0.000000 1.950540 0.000000 
#    z 0.000000 0.000000 1.946440 
# 
# From -- ./inp_files/8860.got.cif
#   From: 2010.03.12/outbox.cif.g09.slc.cpg/sg60_5_cif.got.tgz:8860.got - 2010.04.10 18:46:24.
