data_PCOD8248674
_publ_section_title
;
Structure prediction by ZEFSAII (Michael W. Deem and Ramdas Pophale) SiO2 
 PCOD8248674
Probable space group: P B C N
;
_chemical_formula_sum "Si O2"
_cell_formula_units_Z 32
_cell_length_a 13.404118
_cell_length_b 4.892433
_cell_length_c 18.677917
_cell_angle_alpha 90.000000
_cell_angle_beta 90.000000
_cell_angle_gamma 90.000000
_cell_volume 1224.874435
_symmetry_space_group_name_H-M "P B C N"
_symmetry_group_IT_number 60
_symmetry_cell_setting 'orthorhombic'
loop_
_space_group_symop_operation_xyz
x,y,z
1/2-x,1/2-y,1/2+z
1/2+x,1/2-y,-z
-x,y,1/2-z
-x,-y,-z
1/2+x,1/2+y,1/2-z
1/2-x,1/2+y,z
x,-y,1/2+z
loop_
_atom_site_type_symbol
_atom_site_label
_atom_site_fract_x
_atom_site_fract_y
_atom_site_fract_z
Si Si1 0.813729 0.609240 0.655874
Si Si2 0.914858 0.658137 0.041596
Si Si3 0.682686 0.418174 0.911701
Si Si4 0.992938 0.978111 0.672456
O O1 0.722674 0.806964 0.679520
O O2 0.833440 0.565392 0.569696
O O3 0.918441 0.720345 0.685769
O O4 0.866342 0.880598 0.989701
O O5 0.044227 0.188105 0.887888
O O6 0.000000 0.500000 0.000000
O O7 0.721464 0.725333 0.902069
O O8 0.600237 0.358703 0.851013
O O9 0.000000 0.126195 0.750000
#
# Coordination Sequence:
#
# PCOD8248674 Si02
#       4
#     8   8   8   8
#     4  12  26  48  80 117 154 210 270 330 402 484
#     4  12  25  51  84 121 163 217 277 343 411 483
#     4  12  28  49  80 119 159 209 272 339 403 477
#     4  12  30  53  80 117 173 218 274 343 419 502
#
# _framework density 26.125126999999999
#
# number of rings (size 3 to 8) (size 9 to 14) (size 15 to 20)
#    0.000    0.000    5.000    3.750    3.500    3.000 
#    0.000    0.000    0.000    0.000    0.000    0.000 
#    0.000    0.000    0.000    0.000    0.000    0.000 
#
# Total GULP energy -396494.990133 kJ/mol
# GULP energy per Si atom -12390.468442 kJ/mol
# Density = 2.606567 g / cm^3
# Si number density = 26.125127 Si / 1000 Ang^3
#
#
#
# Elastic Constant Matrix: (Units=GPa)
#
#
# Indices 1 2 3 4 5 6 
#
# 1 121.0511 21.7865 58.1539 0.0000 0.0000 0.0000
# 2 21.7865 95.4514 38.4550 0.0000 0.0000 0.0000
# 3 58.1539 38.4550 171.5697 0.0000 0.0000 0.0000
# 4 0.0000 0.0000 0.0000 26.7357 0.0000 0.0000
# 5 0.0000 0.0000 0.0000 0.0000 22.3337 0.0000
# 6 0.0000 0.0000 0.0000 0.0000 0.0000 34.7481
#
#
#
# Elastic Compliance Matrix: (Units=1/GPa)
#
#
# Indices 1 2 3 4 5 6 
#
# 1 0.009954 -0.001003 -0.003149 0.000000 0.000000 0.000000
# 2 -0.001003 0.011618 -0.002264 0.000000 0.000000 0.000000
# 3 -0.003149 -0.002264 0.007403 0.000000 0.000000 0.000000
# 4 0.000000 0.000000 0.000000 0.037403 0.000000 0.000000
# 5 0.000000 0.000000 0.000000 0.000000 0.044775 0.000000
# 6 0.000000 0.000000 0.000000 0.000000 0.000000 0.028779
#
#
# Mechanical properties :
#
#
# Convention : Reuss Voigt Hill
#
# Bulk Modulus (GPa) = 61.94766 69.42922 65.68844
# Shear Modulus (GPa) = 31.61633 34.74196 33.17914
#
# Velocity S-wave (km/s) = 3.48255 3.65064 3.56758
# Velocity P-wave (km/s) = 6.31936 6.66355 6.49373
#
# Compressibility (1/GPa) = 0.01614266
#
# Stress axis : x y z
#
# Youngs Moduli (GPa) = 100.45749 86.07639 135.07357
#
# Poissons Ratio (x) = 0.08636 0.42537
# Poissons Ratio (y) = 0.10079 0.30578
# Poissons Ratio (z) = 0.31636 0.19486
#
# Static dielectric constant tensor:
#      x y z
#    x 5.219950 0.000000 0.000000 
#    y 0.000000 4.582110 0.000000 
#    z 0.000000 0.000000 4.336110 
# 
# 
# High freq. dielectric constant tensor:
#      x y z
#    x 2.071950 0.000000 0.000000 
#    y 0.000000 2.046060 0.000000 
#    z 0.000000 0.000000 2.027210 
# 
# From -- ./inp_files/20338.got.cif
#   From: 2010.03.12/outbox.cif.g09.slc.cpg/sg60_11_cif.got.tgz:20338.got - 2010.04.10 18:46:24.
