data_PCOD8248147
_publ_section_title
;
Structure prediction by ZEFSAII (Michael W. Deem and Ramdas Pophale) SiO2 
 PCOD8248147
Probable space group: P B C N
;
_chemical_formula_sum "Si O2"
_cell_formula_units_Z 48
_cell_length_a 15.159219
_cell_length_b 9.637643
_cell_length_c 14.980548
_cell_angle_alpha 90.000000
_cell_angle_beta 90.000000
_cell_angle_gamma 90.000000
_cell_volume 2188.645193
_symmetry_space_group_name_H-M "P B C N"
_symmetry_group_IT_number 60
_symmetry_cell_setting 'orthorhombic'
loop_
_space_group_symop_operation_xyz
x,y,z
1/2-x,1/2-y,1/2+z
1/2+x,1/2-y,-z
-x,y,1/2-z
-x,-y,-z
1/2+x,1/2+y,1/2-z
1/2-x,1/2+y,z
x,-y,1/2+z
loop_
_atom_site_type_symbol
_atom_site_label
_atom_site_fract_x
_atom_site_fract_y
_atom_site_fract_z
Si Si1 0.545106 0.040760 0.869315
Si Si2 0.354716 0.891609 0.301182
Si Si3 0.878598 0.727193 0.010026
Si Si4 0.774348 0.880433 0.620031
Si Si5 0.900846 0.986562 0.472931
Si Si6 0.024665 0.225334 0.649667
O O1 0.611772 0.113982 0.800291
O O2 0.441731 0.076581 0.859891
O O3 0.564291 0.879187 0.854375
O O4 0.572563 0.095278 0.966445
O O5 0.313670 0.740809 0.318546
O O6 0.281077 0.009845 0.320500
O O7 0.783152 0.684641 0.041397
O O8 0.934326 0.778863 0.094832
O O9 0.868011 0.859479 0.942732
O O10 0.852489 0.948928 0.564799
O O11 0.898726 0.875867 0.391188
O O12 0.000000 0.000000 0.500000
O O13 0.000000 0.179930 0.750000
#
# Coordination Sequence:
#
# PCOD8248147 Si02
#       6
#     8   8   8   8   8   8
#     4  11  23  46  73 104 133 195 240 284 362 444
#     4  11  24  45  72 101 142 183 238 295 362 422
#     4  11  23  43  67 103 138 179 234 291 357 422
#     4  12  23  45  71 100 143 181 230 308 350 426
#     4  10  24  43  66  99 137 184 231 279 368 420
#     4  11  21  43  72  98 136 187 237 286 350 432
#
# _framework density 21.931376
#
# number of rings (size 3 to 8) (size 9 to 14) (size 15 to 20)
#    0.000    1.000    5.000    2.500    2.333    0.000 
#   18.000    0.000    0.000    0.000    0.000    0.000 
#    0.000    0.000    0.000    0.000    0.000    0.000 
#
# Total GULP energy -594914.631702 kJ/mol
# GULP energy per Si atom -12394.054827 kJ/mol
# Density = 2.188146 g / cm^3
# Si number density = 21.931376 Si / 1000 Ang^3
#
#
#
# Elastic Constant Matrix: (Units=GPa)
#
#
# Indices 1 2 3 4 5 6 
#
# 1 113.9264 43.0222 36.1834 0.0000 0.0000 0.0000
# 2 43.0222 120.1785 33.5624 0.0000 0.0000 0.0000
# 3 36.1834 33.5624 88.3866 0.0000 0.0000 0.0000
# 4 0.0000 0.0000 0.0000 36.1291 0.0000 0.0000
# 5 0.0000 0.0000 0.0000 0.0000 43.4614 0.0000
# 6 0.0000 0.0000 0.0000 0.0000 0.0000 28.5462
#
#
#
# Elastic Compliance Matrix: (Units=1/GPa)
#
#
# Indices 1 2 3 4 5 6 
#
# 1 0.010973 -0.002991 -0.003356 0.000000 0.000000 0.000000
# 2 -0.002991 0.010123 -0.002620 0.000000 0.000000 0.000000
# 3 -0.003356 -0.002620 0.013683 0.000000 0.000000 0.000000
# 4 0.000000 0.000000 0.000000 0.027679 0.000000 0.000000
# 5 0.000000 0.000000 0.000000 0.000000 0.023009 0.000000
# 6 0.000000 0.000000 0.000000 0.000000 0.000000 0.035031
#
#
# Mechanical properties :
#
#
# Convention : Reuss Voigt Hill
#
# Bulk Modulus (GPa) = 59.36416 60.89195 60.12806
# Shear Modulus (GPa) = 34.71109 35.60891 35.16000
#
# Velocity S-wave (km/s) = 3.98265 4.03383 4.00832
# Velocity P-wave (km/s) = 6.94806 7.03710 6.99272
#
# Compressibility (1/GPa) = 0.01684518
#
# Stress axis : x y z
#
# Youngs Moduli (GPa) = 91.13250 98.78269 73.08502
#
# Poissons Ratio (x) = 0.29544 0.24530
# Poissons Ratio (y) = 0.27256 0.19146
# Poissons Ratio (z) = 0.30588 0.25878
#
# Static dielectric constant tensor:
#      x y z
#    x 3.930640 0.000000 0.000000 
#    y 0.000000 4.595720 0.000000 
#    z 0.000000 0.000000 4.034050 
# 
# 
# High freq. dielectric constant tensor:
#      x y z
#    x 1.860560 0.000000 0.000000 
#    y 0.000000 1.883390 0.000000 
#    z 0.000000 0.000000 1.849740 
# 
# From -- ./inp_files/17308.got.cif
#   From: 2010.03.12/outbox.cif.g09.slc.cpg/sg60_9_cif.got.tgz:17308.got - 2010.04.10 18:46:24.
