data_PCOD8248629
_publ_section_title
;
Structure prediction by ZEFSAII (Michael W. Deem and Ramdas Pophale) SiO2 
 PCOD8248629
Probable space group: P B C N
;
_chemical_formula_sum "Si O2"
_cell_formula_units_Z 48
_cell_length_a 9.303276
_cell_length_b 17.675022
_cell_length_c 12.746456
_cell_angle_alpha 90.000000
_cell_angle_beta 90.000000
_cell_angle_gamma 90.000000
_cell_volume 2095.971242
_symmetry_space_group_name_H-M "P B C N"
_symmetry_group_IT_number 60
_symmetry_cell_setting 'orthorhombic'
loop_
_space_group_symop_operation_xyz
x,y,z
1/2-x,1/2-y,1/2+z
1/2+x,1/2-y,-z
-x,y,1/2-z
-x,-y,-z
1/2+x,1/2+y,1/2-z
1/2-x,1/2+y,z
x,-y,1/2+z
loop_
_atom_site_type_symbol
_atom_site_label
_atom_site_fract_x
_atom_site_fract_y
_atom_site_fract_z
Si Si1 0.976243 0.818224 0.521762
Si Si2 0.854088 0.835943 0.297606
Si Si3 0.975882 0.655269 0.020854
Si Si4 0.759404 0.319241 0.690393
Si Si5 0.381336 0.948287 0.165910
Si Si6 0.237002 0.900136 0.602961
O O1 0.871286 0.832331 0.423420
O O2 0.067974 0.741166 0.509032
O O3 0.880327 0.802163 0.622748
O O4 0.088998 0.887717 0.537312
O O5 0.823841 0.756357 0.241932
O O6 0.726531 0.893697 0.270792
O O7 0.000000 0.869782 0.250000
O O8 0.142333 0.653399 0.052532
O O9 0.878883 0.635707 0.122229
O O10 0.957041 0.597733 0.926284
O O11 0.705871 0.376052 0.778705
O O12 0.500000 0.977816 0.250000
O O13 0.292813 0.013970 0.106883
#
# Coordination Sequence:
#
# PCOD8248629 Si02
#       6
#     8   8   8   8   8   8
#     4  12  25  45  77 109 143 193 249 314 371 446
#     4  12  25  46  74 109 151 194 248 321 371 444
#     4  12  23  47  74 108 144 193 256 306 373 445
#     4  12  23  47  73 104 145 190 250 314 377 433
#     4  12  28  48  72 109 151 206 251 306 384 463
#     4  12  27  45  71 107 150 197 244 309 382 450
#
# _framework density 22.901077000000001
#
# number of rings (size 3 to 8) (size 9 to 14) (size 15 to 20)
#    0.000    0.000    5.000    5.500    2.333    2.000 
#    0.000    0.000    0.000    0.000    0.000    0.000 
#    0.000    0.000    0.000    0.000    0.000    0.000 
#
# Total GULP energy -595351.869836 kJ/mol
# GULP energy per Si atom -12403.163955 kJ/mol
# Density = 2.284895 g / cm^3
# Si number density = 22.901077 Si / 1000 Ang^3
#
#
#
# Elastic Constant Matrix: (Units=GPa)
#
#
# Indices 1 2 3 4 5 6 
#
# 1 105.6487 26.1339 43.4075 0.0000 0.0000 0.0000
# 2 26.1339 87.8134 29.2410 0.0000 0.0000 0.0000
# 3 43.4075 29.2410 103.3816 0.0000 0.0000 0.0000
# 4 0.0000 0.0000 0.0000 15.4485 0.0000 0.0000
# 5 0.0000 0.0000 0.0000 0.0000 47.5445 0.0000
# 6 0.0000 0.0000 0.0000 0.0000 0.0000 34.2517
#
#
#
# Elastic Compliance Matrix: (Units=1/GPa)
#
#
# Indices 1 2 3 4 5 6 
#
# 1 0.011763 -0.002049 -0.004360 0.000000 0.000000 0.000000
# 2 -0.002049 0.012929 -0.002796 0.000000 0.000000 0.000000
# 3 -0.004360 -0.002796 0.012294 0.000000 0.000000 0.000000
# 4 0.000000 0.000000 0.000000 0.064731 0.000000 0.000000
# 5 0.000000 0.000000 0.000000 0.000000 0.021033 0.000000
# 6 0.000000 0.000000 0.000000 0.000000 0.000000 0.029196
#
#
# Mechanical properties :
#
#
# Convention : Reuss Voigt Hill
#
# Bulk Modulus (GPa) = 53.83241 54.93427 54.38334
# Shear Modulus (GPa) = 28.32074 32.65302 30.48688
#
# Velocity S-wave (km/s) = 3.52043 3.78011 3.65258
# Velocity P-wave (km/s) = 6.33104 6.56445 6.44880
#
# Compressibility (1/GPa) = 0.01857617
#
# Stress axis : x y z
#
# Youngs Moduli (GPa) = 85.00916 77.34658 81.33809
#
# Poissons Ratio (x) = 0.15850 0.35460
# Poissons Ratio (y) = 0.17420 0.22746
# Poissons Ratio (z) = 0.37061 0.21630
#
# Static dielectric constant tensor:
#      x y z
#    x 4.229330 0.000000 0.000000 
#    y 0.000000 3.927000 0.000000 
#    z 0.000000 0.000000 4.295880 
# 
# 
# High freq. dielectric constant tensor:
#      x y z
#    x 1.916940 0.000000 0.000000 
#    y 0.000000 1.885840 0.000000 
#    z 0.000000 0.000000 1.918870 
# 
# From -- ./inp_files/11032.got.cif
#   From: 2010.03.12/outbox.cif.g09.slc.cpg/sg60_6_cif.got.tgz:11032.got - 2010.04.10 18:46:24.
