data_PCOD8248031
_publ_section_title
;
Structure prediction by ZEFSAII (Michael W. Deem and Ramdas Pophale) SiO2 
 PCOD8248031
Probable space group: P B C N
;
_chemical_formula_sum "Si O2"
_cell_formula_units_Z 48
_cell_length_a 8.129366
_cell_length_b 13.944676
_cell_length_c 18.215959
_cell_angle_alpha 90.000000
_cell_angle_beta 90.000000
_cell_angle_gamma 90.000000
_cell_volume 2064.986158
_symmetry_space_group_name_H-M "P B C N"
_symmetry_group_IT_number 60
_symmetry_cell_setting 'orthorhombic'
loop_
_space_group_symop_operation_xyz
x,y,z
1/2-x,1/2-y,1/2+z
1/2+x,1/2-y,-z
-x,y,1/2-z
-x,-y,-z
1/2+x,1/2+y,1/2-z
1/2-x,1/2+y,z
x,-y,1/2+z
loop_
_atom_site_type_symbol
_atom_site_label
_atom_site_fract_x
_atom_site_fract_y
_atom_site_fract_z
Si Si1 0.815366 0.961984 0.740793
Si Si2 0.254860 0.104153 0.108508
Si Si3 0.762446 0.667587 0.700086
Si Si4 0.170897 0.553781 0.513952
Si Si5 0.873361 0.341791 0.626312
Si Si6 0.876700 0.700426 0.855843
O O1 0.816053 0.062074 0.697723
O O2 0.000000 0.919834 0.750000
O O3 0.744195 0.969124 0.822634
O O4 0.693358 0.890207 0.699872
O O5 0.436673 0.149355 0.105880
O O6 0.122614 0.190154 0.113281
O O7 0.213054 0.036426 0.038144
O O8 0.658137 0.729636 0.641809
O O9 0.754124 0.701699 0.785302
O O10 0.947180 0.666139 0.671474
O O11 0.229796 0.611237 0.441506
O O12 0.173457 0.629867 0.579603
O O13 0.000000 0.500000 0.500000
#
# Coordination Sequence:
#
# PCOD8248031 Si02
#       6
#     8   8   8   8   8   8
#     4  12  25  41  67  99 136 182 239 284 342 420
#     4  11  23  43  70  97 137 184 229 291 357 418
#     4  11  24  41  66  99 134 181 233 282 348 411
#     4  10  23  44  68 102 142 187 227 284 362 418
#     4  11  25  42  68 101 140 176 236 289 344 424
#     4  11  23  41  70  98 139 184 231 287 348 426
#
# _framework density 23.244709
#
# number of rings (size 3 to 8) (size 9 to 14) (size 15 to 20)
#    0.000    1.000    3.333    3.500    4.667    4.000 
#    0.000    3.333    0.000    0.000    0.000    0.000 
#    0.000    0.000    0.000    0.000    0.000    0.000 
#
# Total GULP energy -594802.840437 kJ/mol
# GULP energy per Si atom -12391.725842 kJ/mol
# Density = 2.319180 g / cm^3
# Si number density = 23.244709 Si / 1000 Ang^3
#
#
#
# Elastic Constant Matrix: (Units=GPa)
#
#
# Indices 1 2 3 4 5 6 
#
# 1 31.2589 -3.0416 -1.8731 0.0000 0.0000 0.0000
# 2 -3.0416 101.9709 10.9752 0.0000 0.0000 0.0000
# 3 -1.8731 10.9752 74.2845 0.0000 0.0000 0.0000
# 4 0.0000 0.0000 0.0000 43.2482 0.0000 0.0000
# 5 0.0000 0.0000 0.0000 0.0000 23.4805 0.0000
# 6 0.0000 0.0000 0.0000 0.0000 0.0000 31.3334
#
#
#
# Elastic Compliance Matrix: (Units=1/GPa)
#
#
# Indices 1 2 3 4 5 6 
#
# 1 0.032118 0.000885 0.000679 0.000000 0.000000 0.000000
# 2 0.000885 0.009990 -0.001454 0.000000 0.000000 0.000000
# 3 0.000679 -0.001454 0.013694 0.000000 0.000000 0.000000
# 4 0.000000 0.000000 0.000000 0.023122 0.000000 0.000000
# 5 0.000000 0.000000 0.000000 0.000000 0.042588 0.000000
# 6 0.000000 0.000000 0.000000 0.000000 0.000000 0.031915
#
#
# Mechanical properties :
#
#
# Convention : Reuss Voigt Hill
#
# Bulk Modulus (GPa) = 17.85019 24.40391 21.12705
# Shear Modulus (GPa) = 29.09013 33.04268 31.06641
#
# Velocity S-wave (km/s) = 3.54145 3.77439 3.65977
# Velocity P-wave (km/s) = 4.94150 5.43288 5.19301
#
# Compressibility (1/GPa) = 0.05602181
#
# Stress axis : x y z
#
# Youngs Moduli (GPa) = 31.13548 100.10440 73.02652
#
# Poissons Ratio (x) = -0.08858 -0.04959
# Poissons Ratio (y) = -0.02755 0.10615
# Poissons Ratio (z) = -0.02114 0.14551
#
# Static dielectric constant tensor:
#      x y z
#    x 3.804920 0.000000 0.000000 
#    y 0.000000 4.437440 0.000000 
#    z 0.000000 0.000000 4.595080 
# 
# 
# High freq. dielectric constant tensor:
#      x y z
#    x 1.885430 0.000000 0.000000 
#    y 0.000000 1.936130 0.000000 
#    z 0.000000 0.000000 1.923830 
# 
# From -- ./inp_files/19274.got.cif
#   From: 2010.03.12/outbox.cif.g09.slc.cpg/sg60_10_cif.got.tgz:19274.got - 2010.04.10 18:46:24.
