data_PCOD8248611
_publ_section_title
;
Structure prediction by ZEFSAII (Michael W. Deem and Ramdas Pophale) SiO2 
 PCOD8248611
Probable space group: P B C N
;
_chemical_formula_sum "Si O2"
_cell_formula_units_Z 48
_cell_length_a 15.093385
_cell_length_b 9.027518
_cell_length_c 16.554437
_cell_angle_alpha 90.000000
_cell_angle_beta 90.000000
_cell_angle_gamma 90.000000
_cell_volume 2255.638136
_symmetry_space_group_name_H-M "P B C N"
_symmetry_group_IT_number 60
_symmetry_cell_setting 'orthorhombic'
loop_
_space_group_symop_operation_xyz
x,y,z
1/2-x,1/2-y,1/2+z
1/2+x,1/2-y,-z
-x,y,1/2-z
-x,-y,-z
1/2+x,1/2+y,1/2-z
1/2-x,1/2+y,z
x,-y,1/2+z
loop_
_atom_site_type_symbol
_atom_site_label
_atom_site_fract_x
_atom_site_fract_y
_atom_site_fract_z
Si Si1 0.811793 0.975592 0.909800
Si Si2 0.820263 0.638752 0.152581
Si Si3 0.756330 0.376436 0.251232
Si Si4 0.429023 0.267747 0.686795
Si Si5 0.957383 0.556768 0.581573
Si Si6 0.300809 0.751556 0.486968
O O1 0.899339 0.892875 0.877170
O O2 0.741398 0.861003 0.947013
O O3 0.762198 0.054079 0.836936
O O4 0.840540 0.103230 0.972136
O O5 0.762533 0.499700 0.182236
O O6 0.821260 0.763347 0.222911
O O7 0.919175 0.584665 0.130793
O O8 0.777138 0.704708 0.072476
O O9 0.848050 0.287003 0.258102
O O10 0.500000 0.335034 0.750000
O O11 0.468454 0.130234 0.637281
O O12 0.879100 0.671599 0.562245
O O13 0.000000 0.500000 0.500000
#
# Coordination Sequence:
#
# PCOD8248611 Si02
#       6
#     8   8   8   8   8   8
#     4  12  24  44  73  98 136 182 236 275 336 419
#     4  12  22  43  72 101 130 184 237 274 334 422
#     4  12  23  43  73  97 132 186 236 272 332 425
#     4  12  24  43  66  99 141 174 216 297 348 386
#     4  12  26  43  68 103 142 173 224 292 357 392
#     4  12  23  45  72 100 131 186 233 279 334 421
#
# _framework density 21.280009
#
# number of rings (size 3 to 8) (size 9 to 14) (size 15 to 20)
#    0.000    0.000    8.333    2.000    0.000    0.667 
#    3.000    0.000    0.000    0.000    0.000    0.000 
#    0.000    0.000    0.000    0.000    0.000    0.000 
#
# Total GULP energy -595353.160111 kJ/mol
# GULP energy per Si atom -12403.190836 kJ/mol
# Density = 2.123157 g / cm^3
# Si number density = 21.280009 Si / 1000 Ang^3
#
#
#
# Elastic Constant Matrix: (Units=GPa)
#
#
# Indices 1 2 3 4 5 6 
#
# 1 64.2432 28.8352 23.0924 0.0000 0.0000 0.0000
# 2 28.8352 112.8175 44.9055 0.0000 0.0000 0.0000
# 3 23.0924 44.9055 95.3128 0.0000 0.0000 0.0000
# 4 0.0000 0.0000 0.0000 52.5591 0.0000 0.0000
# 5 0.0000 0.0000 0.0000 0.0000 44.0914 0.0000
# 6 0.0000 0.0000 0.0000 0.0000 0.0000 33.8371
#
#
#
# Elastic Compliance Matrix: (Units=1/GPa)
#
#
# Indices 1 2 3 4 5 6 
#
# 1 0.018139 -0.003553 -0.002721 0.000000 0.000000 0.000000
# 2 -0.003553 0.011606 -0.004607 0.000000 0.000000 0.000000
# 3 -0.002721 -0.004607 0.013321 0.000000 0.000000 0.000000
# 4 0.000000 0.000000 0.000000 0.019026 0.000000 0.000000
# 5 0.000000 0.000000 0.000000 0.000000 0.022680 0.000000
# 6 0.000000 0.000000 0.000000 0.000000 0.000000 0.029553
#
#
# Mechanical properties :
#
#
# Convention : Reuss Voigt Hill
#
# Bulk Modulus (GPa) = 46.93906 51.78219 49.36063
# Shear Modulus (GPa) = 34.91894 37.80020 36.35957
#
# Velocity S-wave (km/s) = 4.05523 4.21922 4.13804
# Velocity P-wave (km/s) = 6.63568 6.93702 6.78802
#
# Compressibility (1/GPa) = 0.02130422
#
# Stress axis : x y z
#
# Youngs Moduli (GPa) = 55.13108 86.16367 75.06665
#
# Poissons Ratio (x) = 0.30615 0.20423
# Poissons Ratio (y) = 0.19589 0.34584
# Poissons Ratio (z) = 0.14999 0.39696
#
# Static dielectric constant tensor:
#      x y z
#    x 3.866430 0.000000 0.000000 
#    y 0.000000 4.271730 0.000000 
#    z 0.000000 0.000000 4.154040 
# 
# 
# High freq. dielectric constant tensor:
#      x y z
#    x 1.810920 0.000000 0.000000 
#    y 0.000000 1.846860 0.000000 
#    z 0.000000 0.000000 1.860160 
# 
# From -- ./inp_files/20500.got.cif
#   From: 2010.03.12/outbox.cif.g09.slc.cpg/sg60_11_cif.got.tgz:20500.got - 2010.04.10 18:46:24.
