data_PCOD8248414
_publ_section_title
;
Structure prediction by ZEFSAII (Michael W. Deem and Ramdas Pophale) SiO2 
 PCOD8248414
Probable space group: P B C N
;
_chemical_formula_sum "Si O2"
_cell_formula_units_Z 40
_cell_length_a 13.587429
_cell_length_b 14.812901
_cell_length_c 8.625741
_cell_angle_alpha 90.000000
_cell_angle_beta 90.000000
_cell_angle_gamma 90.000000
_cell_volume 1736.096341
_symmetry_space_group_name_H-M "P B C N"
_symmetry_group_IT_number 60
_symmetry_cell_setting 'orthorhombic'
loop_
_space_group_symop_operation_xyz
x,y,z
1/2-x,1/2-y,1/2+z
1/2+x,1/2-y,-z
-x,y,1/2-z
-x,-y,-z
1/2+x,1/2+y,1/2-z
1/2-x,1/2+y,z
x,-y,1/2+z
loop_
_atom_site_type_symbol
_atom_site_label
_atom_site_fract_x
_atom_site_fract_y
_atom_site_fract_z
Si Si1 0.946092 0.577075 0.411287
Si Si2 0.838151 0.787288 0.169108
Si Si3 0.456479 0.271918 0.020654
Si Si4 0.815154 0.876214 0.667934
Si Si5 0.230655 0.946866 0.519474
O O1 0.947210 0.666148 0.515820
O O2 0.834591 0.545700 0.390495
O O3 0.000000 0.600071 0.250000
O O4 0.000000 0.500000 0.500000
O O5 0.882003 0.798906 0.339913
O O6 0.776664 0.694146 0.161174
O O7 0.929352 0.790829 0.050388
O O8 0.770453 0.872538 0.119371
O O9 0.417254 0.326768 0.873649
O O10 0.838506 0.915530 0.838501
O O11 0.797167 0.956051 0.545510
#
# Coordination Sequence:
#
# PCOD8248414 Si02
#       5
#     8   8   8   8   8
#     4  12  23  44  69 103 139 180 226 278 348 409
#     4  11  22  46  70  99 137 183 234 284 347 403
#     4  11  23  44  70  96 141 185 227 291 340 407
#     4  12  24  45  69 103 141 181 234 282 350 411
#     4  12  25  42  71 100 138 183 228 287 342 413
#
# _framework density 23.040195000000001
#
# number of rings (size 3 to 8) (size 9 to 14) (size 15 to 20)
#    0.000    0.400    6.000    3.600    0.000    1.600 
#    7.200    0.000    0.000    0.000    0.000    0.000 
#    0.000    0.000    0.000    0.000    0.000    0.000 
#
# Total GULP energy -495930.162862 kJ/mol
# GULP energy per Si atom -12398.254072 kJ/mol
# Density = 2.298775 g / cm^3
# Si number density = 23.040195 Si / 1000 Ang^3
#
#
#
# Elastic Constant Matrix: (Units=GPa)
#
#
# Indices 1 2 3 4 5 6 
#
# 1 57.9002 19.4175 6.0158 0.0000 0.0000 0.0000
# 2 19.4175 141.5236 34.1261 0.0000 0.0000 0.0000
# 3 6.0158 34.1261 55.2325 0.0000 0.0000 0.0000
# 4 0.0000 0.0000 0.0000 44.5972 0.0000 0.0000
# 5 0.0000 0.0000 0.0000 0.0000 33.2871 0.0000
# 6 0.0000 0.0000 0.0000 0.0000 0.0000 38.5226
#
#
#
# Elastic Compliance Matrix: (Units=1/GPa)
#
#
# Indices 1 2 3 4 5 6 
#
# 1 0.018117 -0.002362 -0.000514 0.000000 0.000000 0.000000
# 2 -0.002362 0.008611 -0.005063 0.000000 0.000000 0.000000
# 3 -0.000514 -0.005063 0.021290 0.000000 0.000000 0.000000
# 4 0.000000 0.000000 0.000000 0.022423 0.000000 0.000000
# 5 0.000000 0.000000 0.000000 0.000000 0.030042 0.000000
# 6 0.000000 0.000000 0.000000 0.000000 0.000000 0.025959
#
#
# Mechanical properties :
#
#
# Convention : Reuss Voigt Hill
#
# Bulk Modulus (GPa) = 31.11451 41.53055 36.32253
# Shear Modulus (GPa) = 32.67310 36.28786 34.48048
#
# Velocity S-wave (km/s) = 3.76984 3.97291 3.87271
# Velocity P-wave (km/s) = 5.69936 6.25378 5.98299
#
# Compressibility (1/GPa) = 0.03213935
#
# Stress axis : x y z
#
# Youngs Moduli (GPa) = 55.19820 116.13216 46.97131
#
# Poissons Ratio (x) = 0.27427 0.02414
# Poissons Ratio (y) = 0.13036 0.23782
# Poissons Ratio (z) = 0.02837 0.58799
#
# Static dielectric constant tensor:
#      x y z
#    x 4.197120 0.000000 0.000000 
#    y 0.000000 4.143900 0.000000 
#    z 0.000000 0.000000 8.139210 
# 
# 
# High freq. dielectric constant tensor:
#      x y z
#    x 1.914020 0.000000 0.000000 
#    y 0.000000 1.923880 0.000000 
#    z 0.000000 0.000000 1.903410 
# 
# From -- ./inp_files/5672.got.cif
#   From: 2010.03.12/outbox.cif.g09.slc.cpg/sg60_3_cif.got.tgz:5672.got - 2010.04.10 18:46:24.
