data_PCOD8248935
_publ_section_title
;
Structure prediction by ZEFSAII (Michael W. Deem and Ramdas Pophale) SiO2 
 PCOD8248935
Probable space group: P B C A
;
_chemical_formula_sum "Si O2"
_cell_formula_units_Z 56
_cell_length_a 12.612571
_cell_length_b 21.976918
_cell_length_c 11.222823
_cell_angle_alpha 90.000000
_cell_angle_beta 90.000000
_cell_angle_gamma 90.000000
_cell_volume 3110.803116
_symmetry_space_group_name_H-M "P B C A"
_symmetry_group_IT_number 61
_symmetry_cell_setting 'orthorhombic'
loop_
_space_group_symop_operation_xyz
x,y,z
1/2-x,-y,1/2+z
1/2+x,1/2-y,-z
-x,1/2+y,1/2-z
-x,-y,-z
1/2+x,y,1/2-z
1/2-x,1/2+y,z
x,1/2-y,1/2+z
loop_
_atom_site_type_symbol
_atom_site_label
_atom_site_fract_x
_atom_site_fract_y
_atom_site_fract_z
Si Si1 0.281502 0.666406 0.106474
Si Si2 0.715301 0.674357 0.128210
Si Si3 0.118001 0.698930 0.913098
Si Si4 0.250513 0.378660 0.239235
Si Si5 0.126191 0.292149 0.072266
Si Si6 0.123765 0.569791 0.526260
Si Si7 0.378020 0.565041 0.945918
O O1 0.252934 0.653330 0.242398
O O2 0.367770 0.719901 0.092950
O O3 0.175514 0.687496 0.038489
O O4 0.330870 0.605519 0.052167
O O5 0.640762 0.733479 0.134997
O O6 0.819805 0.688337 0.051222
O O7 0.646661 0.620169 0.073109
O O8 0.155269 0.650444 0.815613
O O9 0.994857 0.687954 0.935054
O O10 0.182723 0.323969 0.183698
O O11 0.300812 0.421699 0.139804
O O12 0.173614 0.418967 0.319830
O O13 0.150016 0.504421 0.472313
O O14 0.002799 0.575588 0.566674
#
# Coordination Sequence:
#
# PCOD8248935 Si02
#       7
#     8   8   8   8   8   8   8
#     4  10  21  37  55  85 113 143 183 230 274 327
#     4  10  21  37  55  85 113 143 183 230 274 327
#     4  10  20  35  57  84 114 146 177 223 284 333
#     4  10  20  38  58  82 114 144 182 232 272 334
#     4  10  20  35  57  84 114 146 177 223 284 333
#     4  10  22  38  59  82 108 150 190 225 273 325
#     4  10  22  38  59  82 108 150 190 225 273 325
#
# _framework density 18.001784000000001
#
# number of rings (size 3 to 8) (size 9 to 14) (size 15 to 20)
#    0.000    2.000    1.429    1.714    2.000    2.286 
#    0.000    0.000    0.000    4.286    0.000    0.000 
#    0.000    0.000    0.000    0.000    0.000    0.000 
#
# Total GULP energy -694678.203946 kJ/mol
# GULP energy per Si atom -12404.967928 kJ/mol
# Density = 1.796081 g / cm^3
# Si number density = 18.001784 Si / 1000 Ang^3
#
#
#
# Elastic Constant Matrix: (Units=GPa)
#
#
# Indices 1 2 3 4 5 6 
#
# 1 82.1545 12.9863 15.0102 0.0000 0.0000 0.0000
# 2 12.9863 78.9693 18.3643 0.0000 0.0000 0.0000
# 3 15.0102 18.3643 102.5613 0.0000 0.0000 0.0000
# 4 0.0000 0.0000 0.0000 17.9965 0.0000 0.0000
# 5 0.0000 0.0000 0.0000 0.0000 15.2344 0.0000
# 6 0.0000 0.0000 0.0000 0.0000 0.0000 25.1590
#
#
#
# Elastic Compliance Matrix: (Units=1/GPa)
#
#
# Indices 1 2 3 4 5 6 
#
# 1 0.012730 -0.001732 -0.001553 0.000000 0.000000 0.000000
# 2 -0.001732 0.013449 -0.002155 0.000000 0.000000 0.000000
# 3 -0.001553 -0.002155 0.010363 0.000000 0.000000 0.000000
# 4 0.000000 0.000000 0.000000 0.055566 0.000000 0.000000
# 5 0.000000 0.000000 0.000000 0.000000 0.065641 0.000000
# 6 0.000000 0.000000 0.000000 0.000000 0.000000 0.039747
#
#
# Mechanical properties :
#
#
# Convention : Reuss Voigt Hill
#
# Bulk Modulus (GPa) = 38.96716 39.60075 39.28396
# Shear Modulus (GPa) = 23.04885 26.16626 24.60756
#
# Velocity S-wave (km/s) = 3.58210 3.81666 3.70124
# Velocity P-wave (km/s) = 6.22911 6.43961 6.33524
#
# Compressibility (1/GPa) = 0.02566263
#
# Stress axis : x y z
#
# Youngs Moduli (GPa) = 78.55628 74.35458 96.49408
#
# Poissons Ratio (x) = 0.12880 0.14984
# Poissons Ratio (y) = 0.13608 0.20791
# Poissons Ratio (z) = 0.12199 0.16021
#
# Static dielectric constant tensor:
#      x y z
#    x 3.244080 0.000000 0.000000 
#    y 0.000000 3.319750 0.000000 
#    z 0.000000 0.000000 3.365590 
# 
# 
# High freq. dielectric constant tensor:
#      x y z
#    x 1.699050 0.000000 0.000000 
#    y 0.000000 1.698430 0.000000 
#    z 0.000000 0.000000 1.705080 
# 
# From -- ./inp_files/5345.got.cif
#   From: 2010.03.12/outbox.cif.g09.slc.cpg/sg61_3_cif.got.tgz:5345.got - 2010.04.10 19:05:03.
