data_PCOD8248733
_publ_section_title
;
Structure prediction by ZEFSAII (Michael W. Deem and Ramdas Pophale) SiO2 
 PCOD8248733
Probable space group: P B C A
;
_chemical_formula_sum "Si O2"
_cell_formula_units_Z 64
_cell_length_a 8.812015
_cell_length_b 20.149550
_cell_length_c 19.332863
_cell_angle_alpha 90.000000
_cell_angle_beta 90.000000
_cell_angle_gamma 90.000000
_cell_volume 3432.707134
_symmetry_space_group_name_H-M "P B C A"
_symmetry_group_IT_number 61
_symmetry_cell_setting 'orthorhombic'
loop_
_space_group_symop_operation_xyz
x,y,z
1/2-x,-y,1/2+z
1/2+x,1/2-y,-z
-x,1/2+y,1/2-z
-x,-y,-z
1/2+x,y,1/2-z
1/2-x,1/2+y,z
x,1/2-y,1/2+z
loop_
_atom_site_type_symbol
_atom_site_label
_atom_site_fract_x
_atom_site_fract_y
_atom_site_fract_z
Si Si1 0.461401 0.807525 0.473865
Si Si2 0.104133 0.952038 0.457732
Si Si3 0.891996 0.195269 0.563553
Si Si4 0.087386 0.442678 0.537189
Si Si5 0.017802 0.980340 0.313174
Si Si6 0.673304 0.504475 0.823904
Si Si7 0.467486 0.673419 0.700794
Si Si8 0.628460 0.838998 0.335158
O O1 0.287301 0.800114 0.449912
O O2 0.511497 0.743215 0.515474
O O3 0.486836 0.870757 0.524206
O O4 0.572232 0.813153 0.408693
O O5 0.036230 0.877949 0.449900
O O6 0.254682 0.943391 0.499290
O O7 0.122617 0.985574 0.381850
O O8 0.000000 0.000000 0.500000
O O9 0.924580 0.209937 0.644641
O O10 0.097369 0.457246 0.618697
O O11 0.000000 0.500000 0.500000
O O12 0.852188 0.011878 0.325012
O O13 0.996228 0.904365 0.295292
O O14 0.104944 0.016621 0.250453
O O15 0.634721 0.581103 0.839277
O O16 0.293902 0.690224 0.682892
O O17 0.514569 0.693697 0.778644
#
# Coordination Sequence:
#
# PCOD8248733 Si02
#       8
#     8   8   8   8   8   8   8   8
#     4  11  22  37  58  82 114 153 192 238 285 340
#     4  10  20  37  58  84 112 147 190 239 286 340
#     4  10  22  36  56  83 112 150 191 235 282 339
#     4  11  22  34  57  86 118 146 190 237 288 341
#     4   9  19  31  54  80 114 149 185 229 280 338
#     4  10  19  33  52  83 115 148 185 232 287 337
#     4   9  18  32  54  82 111 142 188 235 274 336
#     4  10  18  32  56  83 111 145 186 235 284 333
#
# _framework density 18.644176000000002
#
# number of rings (size 3 to 8) (size 9 to 14) (size 15 to 20)
#    0.000    2.000    2.500    1.500    1.750    4.000 
#    0.000    0.000    2.750    0.000    0.000    0.000 
#    0.000    0.000    0.000    0.000    0.000    0.000 
#
# Total GULP energy -793235.710100 kJ/mol
# GULP energy per Si atom -12394.307970 kJ/mol
# Density = 1.860174 g / cm^3
# Si number density = 18.644176 Si / 1000 Ang^3
#
#
#
# Elastic Constant Matrix: (Units=GPa)
#
#
# Indices 1 2 3 4 5 6 
#
# 1 58.2618 25.8707 34.1856 0.0000 0.0000 0.0000
# 2 25.8707 62.6912 51.8186 0.0000 0.0000 0.0000
# 3 34.1856 51.8186 153.5938 0.0000 0.0000 0.0000
# 4 0.0000 0.0000 0.0000 27.1702 0.0000 0.0000
# 5 0.0000 0.0000 0.0000 0.0000 38.2995 0.0000
# 6 0.0000 0.0000 0.0000 0.0000 0.0000 19.9865
#
#
#
# Elastic Compliance Matrix: (Units=1/GPa)
#
#
# Indices 1 2 3 4 5 6 
#
# 1 0.021689 -0.006878 -0.002507 0.000000 0.000000 0.000000
# 2 -0.006878 0.024301 -0.006668 0.000000 0.000000 0.000000
# 3 -0.002507 -0.006668 0.009318 0.000000 0.000000 0.000000
# 4 0.000000 0.000000 0.000000 0.036805 0.000000 0.000000
# 5 0.000000 0.000000 0.000000 0.000000 0.026110 0.000000
# 6 0.000000 0.000000 0.000000 0.000000 0.000000 0.050034
#
#
# Mechanical properties :
#
#
# Convention : Reuss Voigt Hill
#
# Bulk Modulus (GPa) = 43.09861 55.36628 49.23245
# Shear Modulus (GPa) = 24.02734 27.93606 25.98170
#
# Velocity S-wave (km/s) = 3.59379 3.87509 3.73709
# Velocity P-wave (km/s) = 6.35507 7.05567 6.71452
#
# Compressibility (1/GPa) = 0.02320260
#
# Stress axis : x y z
#
# Youngs Moduli (GPa) = 46.10615 41.15079 107.31829
#
# Poissons Ratio (x) = 0.28305 0.26902
# Poissons Ratio (y) = 0.31714 0.71555
# Poissons Ratio (z) = 0.11558 0.27438
#
# Static dielectric constant tensor:
#      x y z
#    x 3.752080 0.000000 0.000000 
#    y 0.000000 3.166800 0.000000 
#    z 0.000000 0.000000 3.785220 
# 
# 
# High freq. dielectric constant tensor:
#      x y z
#    x 1.728850 0.000000 0.000000 
#    y 0.000000 1.679700 0.000000 
#    z 0.000000 0.000000 1.742710 
# 
# From -- ./inp_files/4079.got.cif
#   From: 2010.03.12/outbox.cif.g09.slc.cpg/sg61_3_cif.got.tgz:4079.got - 2010.04.10 19:05:03.
