data_PCOD8248565
_publ_section_title
;
Structure prediction by ZEFSAII (Michael W. Deem and Ramdas Pophale) SiO2 
 PCOD8248565
Probable space group: P B C N
;
_chemical_formula_sum "Si O2"
_cell_formula_units_Z 20
_cell_length_a 6.442503
_cell_length_b 10.073516
_cell_length_c 12.604299
_cell_angle_alpha 90.000000
_cell_angle_beta 90.000000
_cell_angle_gamma 90.000000
_cell_volume 818.002078
_symmetry_space_group_name_H-M "P B C N"
_symmetry_group_IT_number 60
_symmetry_cell_setting 'orthorhombic'
loop_
_space_group_symop_operation_xyz
x,y,z
1/2-x,1/2-y,1/2+z
1/2+x,1/2-y,-z
-x,y,1/2-z
-x,-y,-z
1/2+x,1/2+y,1/2-z
1/2-x,1/2+y,z
x,-y,1/2+z
loop_
_atom_site_type_symbol
_atom_site_label
_atom_site_fract_x
_atom_site_fract_y
_atom_site_fract_z
Si Si1 0.237224 0.072007 0.057978
Si Si2 0.809411 0.672169 0.075073
Si Si3 0.500000 0.366145 0.750000
O O1 0.472497 0.099115 0.095840
O O2 0.121384 0.042305 0.168030
O O3 0.147740 0.201473 0.998493
O O4 0.186123 0.942191 0.988899
O O5 0.674557 0.715523 0.179999
#
# Coordination Sequence:
#
# PCOD8248565 Si02
#       3
#     8   8   4
#     4  11  25  47  68 101 139 176 232 281 331 411
#     4  11  25  47  68 101 139 176 232 281 331 411
#     4  12  24  44  74  98 138 192 212 282 356 384
#
# _framework density 24.449818
#
# number of rings (size 3 to 8) (size 9 to 14) (size 15 to 20)
#    0.000    0.800    4.000    2.400    0.000    3.200 
#    0.000    0.000    0.000    0.000    0.000    0.000 
#    0.000    0.000    0.000    0.000    0.000    0.000 
#
# Total GULP energy -247769.595818 kJ/mol
# GULP energy per Si atom -12388.479791 kJ/mol
# Density = 2.439417 g / cm^3
# Si number density = 24.449818 Si / 1000 Ang^3
#
#
#
# Elastic Constant Matrix: (Units=GPa)
#
#
# Indices 1 2 3 4 5 6 
#
# 1 80.2652 24.2751 72.4586 0.0000 0.0000 0.0000
# 2 24.2751 135.9927 54.0950 0.0000 0.0000 0.0000
# 3 72.4586 54.0950 178.8380 0.0000 0.0000 0.0000
# 4 0.0000 0.0000 0.0000 16.6741 0.0000 0.0000
# 5 0.0000 0.0000 0.0000 0.0000 76.5340 0.0000
# 6 0.0000 0.0000 0.0000 0.0000 0.0000 35.3739
#
#
#
# Elastic Compliance Matrix: (Units=1/GPa)
#
#
# Indices 1 2 3 4 5 6 
#
# 1 0.019661 -0.000388 -0.007849 0.000000 0.000000 0.000000
# 2 -0.000388 0.008367 -0.002374 0.000000 0.000000 0.000000
# 3 -0.007849 -0.002374 0.009490 0.000000 0.000000 0.000000
# 4 0.000000 0.000000 0.000000 0.059973 0.000000 0.000000
# 5 0.000000 0.000000 0.000000 0.000000 0.013066 0.000000
# 6 0.000000 0.000000 0.000000 0.000000 0.000000 0.028269
#
#
# Mechanical properties :
#
#
# Convention : Reuss Voigt Hill
#
# Bulk Modulus (GPa) = 61.35878 77.41704 69.38791
# Shear Modulus (GPa) = 30.21525 42.00090 36.10808
#
# Velocity S-wave (km/s) = 3.51922 4.14918 3.84712
# Velocity P-wave (km/s) = 6.45473 7.39504 6.94083
#
# Compressibility (1/GPa) = 0.01629759
#
# Stress axis : x y z
#
# Youngs Moduli (GPa) = 50.86117 119.52085 105.37697
#
# Poissons Ratio (x) = 0.04632 0.82709
# Poissons Ratio (y) = 0.01971 0.25014
# Poissons Ratio (z) = 0.39920 0.28372
#
# Static dielectric constant tensor:
#      x y z
#    x 5.009990 0.000000 0.000000 
#    y 0.000000 3.875850 0.000000 
#    z 0.000000 0.000000 4.429700 
# 
# 
# High freq. dielectric constant tensor:
#      x y z
#    x 2.030540 0.000000 0.000000 
#    y 0.000000 1.931330 0.000000 
#    z 0.000000 0.000000 1.967660 
# 
# From -- ./inp_files/9235.got.cif
#   From: 2010.03.12/outbox.cif.g09.slc.cpg/sg60_5_cif.got.tgz:9235.got - 2010.04.10 18:46:24.
