data_PCOD8248064
_publ_section_title
;
Structure prediction by ZEFSAII (Michael W. Deem and Ramdas Pophale) SiO2 
 PCOD8248064
Probable space group: P B C N
;
_chemical_formula_sum "Si O2"
_cell_formula_units_Z 40
_cell_length_a 11.664780
_cell_length_b 17.081723
_cell_length_c 8.875873
_cell_angle_alpha 90.000000
_cell_angle_beta 90.000000
_cell_angle_gamma 90.000000
_cell_volume 1768.557999
_symmetry_space_group_name_H-M "P B C N"
_symmetry_group_IT_number 60
_symmetry_cell_setting 'orthorhombic'
loop_
_space_group_symop_operation_xyz
x,y,z
1/2-x,1/2-y,1/2+z
1/2+x,1/2-y,-z
-x,y,1/2-z
-x,-y,-z
1/2+x,1/2+y,1/2-z
1/2-x,1/2+y,z
x,-y,1/2+z
loop_
_atom_site_type_symbol
_atom_site_label
_atom_site_fract_x
_atom_site_fract_y
_atom_site_fract_z
Si Si1 0.000000 0.329108 0.750000
Si Si2 0.598798 0.065466 0.498747
Si Si3 0.878208 0.297307 0.224236
Si Si4 0.648651 0.426085 0.996756
Si Si5 0.319746 0.753376 0.964975
Si Si6 0.000000 0.991967 0.250000
O O1 0.082684 0.382072 0.649238
O O2 0.076534 0.274565 0.855523
O O3 0.595559 0.118373 0.649707
O O4 0.727399 0.029408 0.490701
O O5 0.500000 0.000000 0.500000
O O6 0.801707 0.240254 0.120539
O O7 0.818320 0.309841 0.388200
O O8 0.000000 0.254051 0.250000
O O9 0.569530 0.453554 0.862342
O O10 0.667987 0.334439 0.976002
O O11 0.589226 0.438879 0.158275
#
# Coordination Sequence:
#
# PCOD8248064 Si02
#       6
#     4   8   8   8   8   4
#     4  12  25  44  72 105 140 192 238 306 364 445
#     4  11  27  45  70 107 145 189 240 303 381 438
#     4  11  24  46  68 105 139 187 239 298 364 437
#     4  10  24  45  70 100 139 185 236 298 354 439
#     4  11  24  45  72 101 143 185 245 292 367 431
#     4  10  23  46  66 101 132 184 242 284 364 425
#
# _framework density 22.617296
#
# number of rings (size 3 to 8) (size 9 to 14) (size 15 to 20)
#    0.000    1.200    2.000    3.000    5.600    1.600 
#    0.000    0.000    0.000    0.000    0.000    0.000 
#    0.000    0.000    0.000    0.000    0.000    0.000 
#
# Total GULP energy -495970.274519 kJ/mol
# GULP energy per Si atom -12399.256863 kJ/mol
# Density = 2.256582 g / cm^3
# Si number density = 22.617296 Si / 1000 Ang^3
#
#
#
# Elastic Constant Matrix: (Units=GPa)
#
#
# Indices 1 2 3 4 5 6 
#
# 1 183.3671 34.6890 73.1050 0.0000 0.0000 0.0000
# 2 34.6890 61.2372 40.0323 0.0000 0.0000 0.0000
# 3 73.1050 40.0323 168.1014 0.0000 0.0000 0.0000
# 4 0.0000 0.0000 0.0000 17.4914 0.0000 0.0000
# 5 0.0000 0.0000 0.0000 0.0000 46.0807 0.0000
# 6 0.0000 0.0000 0.0000 0.0000 0.0000 18.6410
#
#
#
# Elastic Compliance Matrix: (Units=1/GPa)
#
#
# Indices 1 2 3 4 5 6 
#
# 1 0.006859 -0.002292 -0.002437 0.000000 0.000000 0.000000
# 2 -0.002292 0.020107 -0.003792 0.000000 0.000000 0.000000
# 3 -0.002437 -0.003792 0.007911 0.000000 0.000000 0.000000
# 4 0.000000 0.000000 0.000000 0.057171 0.000000 0.000000
# 5 0.000000 0.000000 0.000000 0.000000 0.021701 0.000000
# 6 0.000000 0.000000 0.000000 0.000000 0.000000 0.053645
#
#
# Mechanical properties :
#
#
# Convention : Reuss Voigt Hill
#
# Bulk Modulus (GPa) = 56.06636 78.70647 67.38642
# Shear Modulus (GPa) = 26.26314 34.10124 30.18219
#
# Velocity S-wave (km/s) = 3.41133 3.88719 3.65701
# Velocity P-wave (km/s) = 6.35289 7.41767 6.90583
#
# Compressibility (1/GPa) = 0.01783601
#
# Stress axis : x y z
#
# Youngs Moduli (GPa) = 145.79982 49.73394 126.39850
#
# Poissons Ratio (x) = 0.11400 0.30802
# Poissons Ratio (y) = 0.33420 0.47924
# Poissons Ratio (z) = 0.35530 0.18857
#
# Static dielectric constant tensor:
#      x y z
#    x 4.642670 0.000000 0.000000 
#    y 0.000000 3.716370 0.000000 
#    z 0.000000 0.000000 4.448960 
# 
# 
# High freq. dielectric constant tensor:
#      x y z
#    x 1.915960 0.000000 0.000000 
#    y 0.000000 1.858930 0.000000 
#    z 0.000000 0.000000 1.914970 
# 
# From -- ./inp_files/4818.got.cif
#   From: 2010.03.12/outbox.cif.g09.slc.cpg/sg60_3_cif.got.tgz:4818.got - 2010.04.10 18:46:24.
