data_PCOD8248583
_publ_section_title
;
Structure prediction by ZEFSAII (Michael W. Deem and Ramdas Pophale) SiO2 
 PCOD8248583
Probable space group: P B C N
;
_chemical_formula_sum "Si O2"
_cell_formula_units_Z 40
_cell_length_a 11.840405
_cell_length_b 14.455376
_cell_length_c 10.612072
_cell_angle_alpha 90.000000
_cell_angle_beta 90.000000
_cell_angle_gamma 90.000000
_cell_volume 1816.335780
_symmetry_space_group_name_H-M "P B C N"
_symmetry_group_IT_number 60
_symmetry_cell_setting 'orthorhombic'
loop_
_space_group_symop_operation_xyz
x,y,z
1/2-x,1/2-y,1/2+z
1/2+x,1/2-y,-z
-x,y,1/2-z
-x,-y,-z
1/2+x,1/2+y,1/2-z
1/2-x,1/2+y,z
x,-y,1/2+z
loop_
_atom_site_type_symbol
_atom_site_label
_atom_site_fract_x
_atom_site_fract_y
_atom_site_fract_z
Si Si1 0.111545 0.669302 0.821998
Si Si2 0.381969 0.545217 0.514592
Si Si3 0.539300 0.746528 0.942582
Si Si4 0.330347 0.788017 0.797746
Si Si5 0.244240 0.507781 0.267162
O O1 0.207920 0.744368 0.799038
O O2 0.146918 0.569070 0.773679
O O3 0.000000 0.703881 0.750000
O O4 0.081930 0.668848 0.970539
O O5 0.500000 0.500000 0.500000
O O6 0.413636 0.652561 0.494570
O O7 0.310381 0.506131 0.398520
O O8 0.323197 0.515738 0.646785
O O9 0.402925 0.762829 0.924711
O O10 0.597427 0.741643 0.809431
O O11 0.320681 0.895389 0.761547
#
# Coordination Sequence:
#
# PCOD8248583 Si02
#       5
#     8   8   8   8   8
#     4  12  28  45  77 108 149 192 252 302 380 453
#     4  12  26  45  79 107 147 195 257 305 370 438
#     4  11  26  48  77 104 152 193 245 314 370 440
#     4  11  26  48  73 108 148 193 243 310 376 437
#     4  12  27  48  75 110 149 195 249 310 373 454
#
# _framework density 22.022359000000002
#
# number of rings (size 3 to 8) (size 9 to 14) (size 15 to 20)
#    0.000    0.400    4.000    3.000   14.000    0.800 
#    0.000    0.000    0.000    0.000    0.000    0.000 
#    0.000    0.000    0.000    0.000    0.000    0.000 
#
# Total GULP energy -495646.057907 kJ/mol
# GULP energy per Si atom -12391.151448 kJ/mol
# Density = 2.197224 g / cm^3
# Si number density = 22.022359 Si / 1000 Ang^3
#
#
#
# Elastic Constant Matrix: (Units=GPa)
#
#
# Indices 1 2 3 4 5 6 
#
# 1 158.9610 45.0089 58.4807 0.0000 0.0000 0.0000
# 2 45.0089 93.8011 24.8969 0.0000 0.0000 0.0000
# 3 58.4807 24.8969 113.6758 0.0000 0.0000 0.0000
# 4 0.0000 0.0000 0.0000 30.6047 0.0000 0.0000
# 5 0.0000 0.0000 0.0000 0.0000 40.4127 0.0000
# 6 0.0000 0.0000 0.0000 0.0000 0.0000 19.9305
#
#
#
# Elastic Compliance Matrix: (Units=1/GPa)
#
#
# Indices 1 2 3 4 5 6 
#
# 1 0.008537 -0.003111 -0.003710 0.000000 0.000000 0.000000
# 2 -0.003111 0.012453 -0.001127 0.000000 0.000000 0.000000
# 3 -0.003710 -0.001127 0.010952 0.000000 0.000000 0.000000
# 4 0.000000 0.000000 0.000000 0.032675 0.000000 0.000000
# 5 0.000000 0.000000 0.000000 0.000000 0.024745 0.000000
# 6 0.000000 0.000000 0.000000 0.000000 0.000000 0.050174
#
#
# Mechanical properties :
#
#
# Convention : Reuss Voigt Hill
#
# Bulk Modulus (GPa) = 62.32370 69.24565 65.78468
# Shear Modulus (GPa) = 31.09811 34.05967 32.57889
#
# Velocity S-wave (km/s) = 3.76189 3.93694 3.85041
# Velocity P-wave (km/s) = 6.87246 7.22341 7.05012
#
# Compressibility (1/GPa) = 0.01604526
#
# Stress axis : x y z
#
# Youngs Moduli (GPa) = 117.13924 80.30270 91.30337
#
# Poissons Ratio (x) = 0.24986 0.33877
# Poissons Ratio (y) = 0.36447 0.10287
# Poissons Ratio (z) = 0.43463 0.09048
#
# Static dielectric constant tensor:
#      x y z
#    x 5.060790 0.000000 0.000000 
#    y 0.000000 3.406410 0.000000 
#    z 0.000000 0.000000 3.951320 
# 
# 
# High freq. dielectric constant tensor:
#      x y z
#    x 1.884190 0.000000 0.000000 
#    y 0.000000 1.872570 0.000000 
#    z 0.000000 0.000000 1.876320 
# 
# From -- ./inp_files/10843.got.cif
#   From: 2010.03.12/outbox.cif.g09.slc.cpg/sg60_6_cif.got.tgz:10843.got - 2010.04.10 18:46:24.
