data_PCOD8248851
_publ_section_title
;
Structure prediction by ZEFSAII (Michael W. Deem and Ramdas Pophale) SiO2 
 PCOD8248851
Probable space group: P B C A
;
_chemical_formula_sum "Si O2"
_cell_formula_units_Z 64
_cell_length_a 8.923529
_cell_length_b 19.316811
_cell_length_c 19.381323
_cell_angle_alpha 90.000000
_cell_angle_beta 90.000000
_cell_angle_gamma 90.000000
_cell_volume 3340.838558
_symmetry_space_group_name_H-M "P B C A"
_symmetry_group_IT_number 61
_symmetry_cell_setting 'orthorhombic'
loop_
_space_group_symop_operation_xyz
x,y,z
1/2-x,-y,1/2+z
1/2+x,1/2-y,-z
-x,1/2+y,1/2-z
-x,-y,-z
1/2+x,y,1/2-z
1/2-x,1/2+y,z
x,1/2-y,1/2+z
loop_
_atom_site_type_symbol
_atom_site_label
_atom_site_fract_x
_atom_site_fract_y
_atom_site_fract_z
Si Si1 0.193446 0.252228 0.891057
Si Si2 0.882615 0.891786 0.443191
Si Si3 0.251532 0.752116 0.047776
Si Si4 0.117425 0.989981 0.657999
Si Si5 0.351355 0.449200 0.257093
Si Si6 0.488423 0.782778 0.149306
Si Si7 0.410122 0.648924 0.790591
Si Si8 0.983686 0.361368 0.917044
O O1 0.349737 0.252770 0.849441
O O2 0.080174 0.196781 0.857472
O O3 0.131650 0.330489 0.880524
O O4 0.201018 0.230507 0.970955
O O5 0.741499 0.837331 0.451117
O O6 0.001944 0.856277 0.390853
O O7 0.966181 0.905077 0.515747
O O8 0.834643 0.963752 0.408208
O O9 0.376692 0.732068 0.105667
O O10 0.102144 0.709817 0.063593
O O11 0.110224 0.910489 0.633545
O O12 0.247117 0.996723 0.715360
O O13 0.953428 0.010559 0.687266
O O14 0.248787 0.390682 0.292024
O O15 0.458895 0.407759 0.204668
O O16 0.424202 0.800071 0.224632
#
# Coordination Sequence:
#
# PCOD8248851 Si02
#       8
#     8   8   8   8   8   8   8   8
#     4  11  20  35  58  94 118 147 200 250 302 351
#     4   9  18  37  64  81 111 154 203 238 280 364
#     4   9  19  37  60  88 119 152 193 250 299 345
#     4  11  22  41  59  86 118 160 203 242 304 363
#     4  10  20  38  59  82 115 156 198 242 290 353
#     4  10  19  37  58  88 115 151 199 251 278 354
#     4  11  20  35  63  86 109 154 208 247 285 350
#     4  11  23  36  61  90 121 158 191 252 319 352
#
# _framework density 19.156866999999998
#
# number of rings (size 3 to 8) (size 9 to 14) (size 15 to 20)
#    0.750    1.000    5.000    0.375    3.500    0.000 
#    4.500    1.250    0.000    0.750    0.000    0.000 
#    0.000    0.000    0.000    0.000    0.000    0.000 
#
# Total GULP energy -792863.875043 kJ/mol
# GULP energy per Si atom -12388.498048 kJ/mol
# Density = 1.911327 g / cm^3
# Si number density = 19.156867 Si / 1000 Ang^3
#
#
#
# Elastic Constant Matrix: (Units=GPa)
#
#
# Indices 1 2 3 4 5 6 
#
# 1 63.4163 23.8216 19.8023 0.0000 0.0000 0.0000
# 2 23.8216 63.6489 28.2150 0.0000 0.0000 0.0000
# 3 19.8023 28.2150 78.1686 0.0000 0.0000 0.0000
# 4 0.0000 0.0000 0.0000 31.0324 0.0000 0.0000
# 5 0.0000 0.0000 0.0000 0.0000 23.6829 0.0000
# 6 0.0000 0.0000 0.0000 0.0000 0.0000 20.0764
#
#
#
# Elastic Compliance Matrix: (Units=1/GPa)
#
#
# Indices 1 2 3 4 5 6 
#
# 1 0.018797 -0.005862 -0.002646 0.000000 0.000000 0.000000
# 2 -0.005862 0.020532 -0.005926 0.000000 0.000000 0.000000
# 3 -0.002646 -0.005926 0.015602 0.000000 0.000000 0.000000
# 4 0.000000 0.000000 0.000000 0.032224 0.000000 0.000000
# 5 0.000000 0.000000 0.000000 0.000000 0.042224 0.000000
# 6 0.000000 0.000000 0.000000 0.000000 0.000000 0.049810
#
#
# Mechanical properties :
#
#
# Convention : Reuss Voigt Hill
#
# Bulk Modulus (GPa) = 38.36832 38.76797 38.56815
# Shear Modulus (GPa) = 23.06847 23.85133 23.45990
#
# Velocity S-wave (km/s) = 3.47391 3.53236 3.50325
# Velocity P-wave (km/s) = 6.01354 6.07600 6.04485
#
# Compressibility (1/GPa) = 0.02606317
#
# Stress axis : x y z
#
# Youngs Moduli (GPa) = 53.19977 48.70402 64.09374
#
# Poissons Ratio (x) = 0.28551 0.16958
# Poissons Ratio (y) = 0.31187 0.37982
# Poissons Ratio (z) = 0.14076 0.28862
#
# Static dielectric constant tensor:
#      x y z
#    x 3.500520 0.000000 0.000000 
#    y 0.000000 3.246420 0.000000 
#    z 0.000000 0.000000 3.479400 
# 
# 
# High freq. dielectric constant tensor:
#      x y z
#    x 1.737870 0.000000 0.000000 
#    y 0.000000 1.716010 0.000000 
#    z 0.000000 0.000000 1.745280 
# 
# From -- ./inp_files/10219.got.cif
#   From: 2010.03.12/outbox.cif.g09.slc.cpg/sg61_6_cif.got.tgz:10219.got - 2010.04.10 19:05:03.
