data_PCOD8248638
_publ_section_title
;
Structure prediction by ZEFSAII (Michael W. Deem and Ramdas Pophale) SiO2 
 PCOD8248638
Probable space group: P B C N
;
_chemical_formula_sum "Si O2"
_cell_formula_units_Z 32
_cell_length_a 11.709940
_cell_length_b 23.153732
_cell_length_c 4.960516
_cell_angle_alpha 90.000000
_cell_angle_beta 90.000000
_cell_angle_gamma 90.000000
_cell_volume 1344.938812
_symmetry_space_group_name_H-M "P B C N"
_symmetry_group_IT_number 60
_symmetry_cell_setting 'orthorhombic'
loop_
_space_group_symop_operation_xyz
x,y,z
1/2-x,1/2-y,1/2+z
1/2+x,1/2-y,-z
-x,y,1/2-z
-x,-y,-z
1/2+x,1/2+y,1/2-z
1/2-x,1/2+y,z
x,-y,1/2+z
loop_
_atom_site_type_symbol
_atom_site_label
_atom_site_fract_x
_atom_site_fract_y
_atom_site_fract_z
Si Si1 0.678325 0.746737 0.816170
Si Si2 0.000000 0.415208 0.250000
Si Si3 0.576388 0.372172 0.485796
Si Si4 0.239802 0.463868 0.128563
Si Si5 0.500000 0.838491 0.750000
O O1 0.756132 0.724546 0.569629
O O2 0.602451 0.694916 0.933843
O O3 0.605648 0.797332 0.675629
O O4 0.896245 0.453034 0.368511
O O5 0.041399 0.375920 0.496965
O O6 0.500000 0.398797 0.250000
O O7 0.695108 0.407237 0.480916
O O8 0.500000 0.379176 0.750000
O O9 0.272943 0.483598 0.428878
#
# Coordination Sequence:
#
# PCOD8248638 Si02
#       5
#     8   4   8   8   4
#     4  12  25  43  69 102 142 186 232 286 351 434
#     4  12  26  47  72 106 140 179 246 304 362 436
#     4  12  26  45  70 103 148 186 238 296 354 435
#     4  12  26  47  73 102 138 190 243 305 364 415
#     4  12  24  43  70 104 138 183 226 280 370 424
#
# _framework density 23.792904
#
# number of rings (size 3 to 8) (size 9 to 14) (size 15 to 20)
#    0.000    0.000    1.250    9.750    1.750    3.000 
#    0.000    0.000    0.000    0.000    0.000    0.000 
#    0.000    0.000    0.000    0.000    0.000    0.000 
#
# Total GULP energy -396844.437834 kJ/mol
# GULP energy per Si atom -12401.388682 kJ/mol
# Density = 2.373875 g / cm^3
# Si number density = 23.792904 Si / 1000 Ang^3
#
#
#
# Elastic Constant Matrix: (Units=GPa)
#
#
# Indices 1 2 3 4 5 6 
#
# 1 94.5043 14.3123 43.6436 0.0000 0.0000 0.0000
# 2 14.3123 71.3924 25.6478 0.0000 0.0000 0.0000
# 3 43.6436 25.6478 147.2934 0.0000 0.0000 0.0000
# 4 0.0000 0.0000 0.0000 70.4021 0.0000 0.0000
# 5 0.0000 0.0000 0.0000 0.0000 45.7833 0.0000
# 6 0.0000 0.0000 0.0000 0.0000 0.0000 43.4812
#
#
#
# Elastic Compliance Matrix: (Units=1/GPa)
#
#
# Indices 1 2 3 4 5 6 
#
# 1 0.012361 -0.001240 -0.003447 0.000000 0.000000 0.000000
# 2 -0.001240 0.015066 -0.002256 0.000000 0.000000 0.000000
# 3 -0.003447 -0.002256 0.008203 0.000000 0.000000 0.000000
# 4 0.000000 0.000000 0.000000 0.014204 0.000000 0.000000
# 5 0.000000 0.000000 0.000000 0.000000 0.021842 0.000000
# 6 0.000000 0.000000 0.000000 0.000000 0.000000 0.022998
#
#
# Mechanical properties :
#
#
# Convention : Reuss Voigt Hill
#
# Bulk Modulus (GPa) = 45.98709 53.37752 49.68230
# Shear Modulus (GPa) = 43.17464 47.23907 45.20685
#
# Velocity S-wave (km/s) = 4.26444 4.46065 4.36364
# Velocity P-wave (km/s) = 6.60433 7.00091 6.80551
#
# Compressibility (1/GPa) = 0.02174523
#
# Stress axis : x y z
#
# Youngs Moduli (GPa) = 80.89927 66.37406 121.90226
#
# Poissons Ratio (x) = 0.08229 0.42017
# Poissons Ratio (y) = 0.10030 0.27502
# Poissons Ratio (z) = 0.27884 0.14974
#
# Static dielectric constant tensor:
#      x y z
#    x 4.293030 0.000000 0.000000 
#    y 0.000000 4.119760 0.000000 
#    z 0.000000 0.000000 4.454010 
# 
# 
# High freq. dielectric constant tensor:
#      x y z
#    x 1.949040 0.000000 0.000000 
#    y 0.000000 1.939520 0.000000 
#    z 0.000000 0.000000 1.959280 
# 
# From -- ./inp_files/663.got.cif
#   From: 2010.03.12/outbox.cif.g09.slc.cpg/sg60_1_cif.got.tgz:663.got - 2010.04.10 18:46:24.
