data_PCOD8248022
_publ_section_title
;
Structure prediction by ZEFSAII (Michael W. Deem and Ramdas Pophale) SiO2 
 PCOD8248022
Probable space group: P B C N
;
_chemical_formula_sum "Si O2"
_cell_formula_units_Z 32
_cell_length_a 13.973694
_cell_length_b 10.766257
_cell_length_c 8.885185
_cell_angle_alpha 90.000000
_cell_angle_beta 90.000000
_cell_angle_gamma 90.000000
_cell_volume 1336.726156
_symmetry_space_group_name_H-M "P B C N"
_symmetry_group_IT_number 60
_symmetry_cell_setting 'orthorhombic'
loop_
_space_group_symop_operation_xyz
x,y,z
1/2-x,1/2-y,1/2+z
1/2+x,1/2-y,-z
-x,y,1/2-z
-x,-y,-z
1/2+x,1/2+y,1/2-z
1/2-x,1/2+y,z
x,-y,1/2+z
loop_
_atom_site_type_symbol
_atom_site_label
_atom_site_fract_x
_atom_site_fract_y
_atom_site_fract_z
Si Si1 0.463204 0.637135 0.034234
Si Si2 0.600350 0.960090 0.322666
Si Si3 0.148464 0.663652 0.379634
Si Si4 0.357166 0.278370 0.818229
O O1 0.556849 0.722001 0.061259
O O2 0.392301 0.634875 0.178364
O O3 0.500000 0.500000 0.000000
O O4 0.404626 0.703104 0.897202
O O5 0.500000 0.923852 0.250000
O O6 0.605081 0.936875 0.501609
O O7 0.670314 0.857953 0.245457
O O8 0.628067 0.102521 0.284223
O O9 0.262377 0.671112 0.399197
#
# Coordination Sequence:
#
# PCOD8248022 Si02
#       4
#     8   8   8   8
#     4  10  23  47  67  99 153 190 240 309 371 443
#     4  11  23  47  68 101 145 182 243 305 362 434
#     4  11  25  42  76 105 139 192 245 306 362 446
#     4  10  23  44  66 101 143 191 240 299 373 434
#
# _framework density 23.939084000000001
#
# number of rings (size 3 to 8) (size 9 to 14) (size 15 to 20)
#    0.000    1.500    5.000    0.750    7.000    2.000 
#    4.500    0.000    0.000    0.000    0.000    0.000 
#    0.000    0.000    0.000    0.000    0.000    0.000 
#
# Total GULP energy -396555.518268 kJ/mol
# GULP energy per Si atom -12392.359946 kJ/mol
# Density = 2.388460 g / cm^3
# Si number density = 23.939084 Si / 1000 Ang^3
#
#
#
# Elastic Constant Matrix: (Units=GPa)
#
#
# Indices 1 2 3 4 5 6 
#
# 1 110.1166 53.8435 20.9484 0.0000 0.0000 0.0000
# 2 53.8435 128.6681 40.4612 0.0000 0.0000 0.0000
# 3 20.9484 40.4612 39.3451 0.0000 0.0000 0.0000
# 4 0.0000 0.0000 0.0000 45.6414 0.0000 0.0000
# 5 0.0000 0.0000 0.0000 0.0000 34.6303 0.0000
# 6 0.0000 0.0000 0.0000 0.0000 0.0000 24.7071
#
#
#
# Elastic Compliance Matrix: (Units=1/GPa)
#
#
# Indices 1 2 3 4 5 6 
#
# 1 0.011497 -0.004266 -0.001735 0.000000 0.000000 0.000000
# 2 -0.004266 0.013069 -0.011169 0.000000 0.000000 0.000000
# 3 -0.001735 -0.011169 0.037825 0.000000 0.000000 0.000000
# 4 0.000000 0.000000 0.000000 0.021910 0.000000 0.000000
# 5 0.000000 0.000000 0.000000 0.000000 0.028876 0.000000
# 6 0.000000 0.000000 0.000000 0.000000 0.000000 0.040474
#
#
# Mechanical properties :
#
#
# Convention : Reuss Voigt Hill
#
# Bulk Modulus (GPa) = 35.64637 56.51511 46.08074
# Shear Modulus (GPa) = 25.33683 31.85420 28.59552
#
# Velocity S-wave (km/s) = 3.25682 3.65175 3.45992
# Velocity P-wave (km/s) = 5.39122 6.43735 5.93737
#
# Compressibility (1/GPa) = 0.02805335
#
# Stress axis : x y z
#
# Youngs Moduli (GPa) = 86.97880 76.51629 26.43738
#
# Poissons Ratio (x) = 0.32639 0.04586
# Poissons Ratio (y) = 0.37102 0.29527
# Poissons Ratio (z) = 0.15088 0.85459
#
# Static dielectric constant tensor:
#      x y z
#    x 4.198110 0.000000 0.000000 
#    y 0.000000 4.403060 0.000000 
#    z 0.000000 0.000000 4.295710 
# 
# 
# High freq. dielectric constant tensor:
#      x y z
#    x 1.948500 0.000000 0.000000 
#    y 0.000000 1.942510 0.000000 
#    z 0.000000 0.000000 1.934690 
# 
# From -- ./inp_files/5449.got.cif
#   From: 2010.03.12/outbox.cif.g09.slc.cpg/sg60_3_cif.got.tgz:5449.got - 2010.04.10 18:46:24.
