data_PCOD8248881
_publ_section_title
;
Structure prediction by ZEFSAII (Michael W. Deem and Ramdas Pophale) SiO2 
 PCOD8248881
Probable space group: P B C A
;
_chemical_formula_sum "Si O2"
_cell_formula_units_Z 48
_cell_length_a 9.620179
_cell_length_b 18.570695
_cell_length_c 12.789389
_cell_angle_alpha 90.000000
_cell_angle_beta 90.000000
_cell_angle_gamma 90.000000
_cell_volume 2284.867957
_symmetry_space_group_name_H-M "P B C A"
_symmetry_group_IT_number 61
_symmetry_cell_setting 'orthorhombic'
loop_
_space_group_symop_operation_xyz
x,y,z
1/2-x,-y,1/2+z
1/2+x,1/2-y,-z
-x,1/2+y,1/2-z
-x,-y,-z
1/2+x,y,1/2-z
1/2-x,1/2+y,z
x,1/2-y,1/2+z
loop_
_atom_site_type_symbol
_atom_site_label
_atom_site_fract_x
_atom_site_fract_y
_atom_site_fract_z
Si Si1 0.588557 0.522737 0.808281
Si Si2 0.838676 0.881905 0.248190
Si Si3 0.726125 0.532828 0.477354
Si Si4 0.058791 0.438386 0.880770
Si Si5 0.750060 0.807816 0.055652
Si Si6 0.436241 0.688255 0.537171
O O1 0.441964 0.563358 0.810938
O O2 0.691251 0.579657 0.754906
O O3 0.639196 0.502693 0.923926
O O4 0.578211 0.446466 0.744248
O O5 0.815472 0.812157 0.172656
O O6 0.890174 0.858583 0.363001
O O7 0.592059 0.526343 0.401540
O O8 0.686128 0.487011 0.578208
O O9 0.759719 0.614138 0.504603
O O10 0.067683 0.359188 0.930507
O O11 0.590334 0.781546 0.058470
O O12 0.833980 0.754400 0.980823
#
# Coordination Sequence:
#
# PCOD8248881 Si02
#       6
#     8   8   8   8   8   8
#     4  12  21  39  69  99 126 167 216 272 331 386
#     4  12  23  42  67  96 129 169 214 271 332 391
#     4  10  20  39  64  93 126 164 217 266 322 383
#     4  10  19  39  64  91 126 167 210 270 325 379
#     4  11  26  44  65  96 133 178 220 268 329 397
#     4  11  25  44  66  92 134 178 219 268 331 395
#
# _framework density 21.007777999999998
#
# number of rings (size 3 to 8) (size 9 to 14) (size 15 to 20)
#    0.000    1.000    6.667    1.000    2.333    2.000 
#    3.000    3.333    0.000    0.000    0.000    0.000 
#    0.000    0.000    0.000    0.000    0.000    0.000 
#
# Total GULP energy -595043.977588 kJ/mol
# GULP energy per Si atom -12396.749533 kJ/mol
# Density = 2.095996 g / cm^3
# Si number density = 21.007778 Si / 1000 Ang^3
#
#
#
# Elastic Constant Matrix: (Units=GPa)
#
#
# Indices 1 2 3 4 5 6 
#
# 1 87.0982 32.9922 22.7232 0.0000 0.0000 0.0000
# 2 32.9922 66.1238 12.5113 0.0000 0.0000 0.0000
# 3 22.7232 12.5113 52.6677 0.0000 0.0000 0.0000
# 4 0.0000 0.0000 0.0000 32.7679 0.0000 0.0000
# 5 0.0000 0.0000 0.0000 0.0000 29.4411 0.0000
# 6 0.0000 0.0000 0.0000 0.0000 0.0000 37.2245
#
#
#
# Elastic Compliance Matrix: (Units=1/GPa)
#
#
# Indices 1 2 3 4 5 6 
#
# 1 0.015329 -0.006698 -0.005022 0.000000 0.000000 0.000000
# 2 -0.006698 0.018762 -0.001567 0.000000 0.000000 0.000000
# 3 -0.005022 -0.001567 0.021526 0.000000 0.000000 0.000000
# 4 0.000000 0.000000 0.000000 0.030518 0.000000 0.000000
# 5 0.000000 0.000000 0.000000 0.000000 0.033966 0.000000
# 6 0.000000 0.000000 0.000000 0.000000 0.000000 0.026864
#
#
# Mechanical properties :
#
#
# Convention : Reuss Voigt Hill
#
# Bulk Modulus (GPa) = 34.43330 38.03812 36.23571
# Shear Modulus (GPa) = 27.28969 29.06424 28.17697
#
# Velocity S-wave (km/s) = 3.60811 3.72358 3.66630
# Velocity P-wave (km/s) = 5.81243 6.05249 5.93367
#
# Compressibility (1/GPa) = 0.02904165
#
# Stress axis : x y z
#
# Youngs Moduli (GPa) = 65.23707 53.30056 46.45523
#
# Poissons Ratio (x) = 0.35700 0.23332
# Poissons Ratio (y) = 0.43695 0.07280
# Poissons Ratio (z) = 0.32765 0.08352
#
# Static dielectric constant tensor:
#      x y z
#    x 3.939720 0.000000 0.000000 
#    y 0.000000 3.485300 0.000000 
#    z 0.000000 0.000000 3.756780 
# 
# 
# High freq. dielectric constant tensor:
#      x y z
#    x 1.837110 0.000000 0.000000 
#    y 0.000000 1.799020 0.000000 
#    z 0.000000 0.000000 1.821990 
# 
# From -- ./inp_files/7034.got.cif
#   From: 2010.03.12/outbox.cif.g09.slc.cpg/sg61_4_cif.got.tgz:7034.got - 2010.04.10 19:05:03.
