data_PCOD8248425
_publ_section_title
;
Structure prediction by ZEFSAII (Michael W. Deem and Ramdas Pophale) SiO2 
 PCOD8248425
Probable space group: P B C N
;
_chemical_formula_sum "Si O2"
_cell_formula_units_Z 60
_cell_length_a 20.642815
_cell_length_b 9.078811
_cell_length_c 14.044067
_cell_angle_alpha 90.000000
_cell_angle_beta 90.000000
_cell_angle_gamma 90.000000
_cell_volume 2632.029717
_symmetry_space_group_name_H-M "P B C N"
_symmetry_group_IT_number 60
_symmetry_cell_setting 'orthorhombic'
loop_
_space_group_symop_operation_xyz
x,y,z
1/2-x,1/2-y,1/2+z
1/2+x,1/2-y,-z
-x,y,1/2-z
-x,-y,-z
1/2+x,1/2+y,1/2-z
1/2-x,1/2+y,z
x,-y,1/2+z
loop_
_atom_site_type_symbol
_atom_site_label
_atom_site_fract_x
_atom_site_fract_y
_atom_site_fract_z
Si Si1 0.800066 0.237388 0.142781
Si Si2 0.601010 0.566705 0.391784
Si Si3 0.139938 0.744212 0.153510
Si Si4 0.102544 0.977838 0.395381
Si Si5 0.500000 0.449736 0.750000
Si Si6 0.839331 0.538155 0.493709
Si Si7 0.290188 0.795385 0.144540
Si Si8 0.342236 0.177427 0.355515
O O1 0.861753 0.132163 0.125106
O O2 0.807713 0.321299 0.244224
O O3 0.734598 0.140008 0.142746
O O4 0.794744 0.357685 0.059442
O O5 0.613752 0.409154 0.341354
O O6 0.575010 0.532337 0.497183
O O7 0.547029 0.643407 0.322013
O O8 0.664798 0.665418 0.396607
O O9 0.111452 0.643103 0.067114
O O10 0.216695 0.745496 0.133113
O O11 0.125807 0.657488 0.251749
O O12 0.042865 0.952887 0.322992
O O13 0.153768 0.848198 0.382278
O O14 0.798498 0.443269 0.417153
O O15 0.877393 0.427956 0.566449
#
# Coordination Sequence:
#
# PCOD8248425 Si02
#       8
#     8   8   8   8   4   8   8   8
#     4  11  23  39  63 100 140 174 212 270 342 402
#     4  12  24  44  72  99 127 176 231 276 325 387
#     4  11  23  39  63 100 140 174 212 270 342 402
#     4  12  24  44  72  99 127 176 231 276 325 387
#     4  12  26  48  72  92 124 180 242 292 296 374
#     4  12  22  34  62  95 134 171 204 258 340 416
#     4  11  23  39  63 100 140 174 212 270 342 402
#     4  11  23  39  63 100 140 174 212 270 342 402
#
# _framework density 22.796095999999999
#
# number of rings (size 3 to 8) (size 9 to 14) (size 15 to 20)
#    0.000    0.533    5.333    3.600    3.733    4.267 
#    0.000    0.000    0.000    4.800    0.000    0.000 
#    0.000    0.000    0.000    0.000    0.000    0.000 
#
# Total GULP energy -743445.784404 kJ/mol
# GULP energy per Si atom -12390.763073 kJ/mol
# Density = 2.274421 g / cm^3
# Si number density = 22.796096 Si / 1000 Ang^3
#
#
#
# Elastic Constant Matrix: (Units=GPa)
#
#
# Indices 1 2 3 4 5 6 
#
# 1 69.8182 11.8206 28.8748 0.0000 0.0000 0.0000
# 2 11.8206 100.0651 46.6113 0.0000 0.0000 0.0000
# 3 28.8748 46.6113 196.1094 0.0000 0.0000 0.0000
# 4 0.0000 0.0000 0.0000 42.3542 0.0000 0.0000
# 5 0.0000 0.0000 0.0000 0.0000 23.3838 0.0000
# 6 0.0000 0.0000 0.0000 0.0000 0.0000 9.0662
#
#
#
# Elastic Compliance Matrix: (Units=1/GPa)
#
#
# Indices 1 2 3 4 5 6 
#
# 1 0.015316 -0.000853 -0.002052 0.000000 0.000000 0.000000
# 2 -0.000853 0.011285 -0.002557 0.000000 0.000000 0.000000
# 3 -0.002052 -0.002557 0.006009 0.000000 0.000000 0.000000
# 4 0.000000 0.000000 0.000000 0.023610 0.000000 0.000000
# 5 0.000000 0.000000 0.000000 0.000000 0.042765 0.000000
# 6 0.000000 0.000000 0.000000 0.000000 0.000000 0.110300
#
#
# Mechanical properties :
#
#
# Convention : Reuss Voigt Hill
#
# Bulk Modulus (GPa) = 46.11289 60.06736 53.09012
# Shear Modulus (GPa) = 21.98398 33.53991 27.76195
#
# Velocity S-wave (km/s) = 3.10881 3.83991 3.49354
# Velocity P-wave (km/s) = 5.75835 6.78727 6.29387
#
# Compressibility (1/GPa) = 0.02168591
#
# Stress axis : x y z
#
# Youngs Moduli (GPa) = 65.29049 88.61164 166.41608
#
# Poissons Ratio (x) = 0.07561 0.34154
# Poissons Ratio (y) = 0.05571 0.42546
# Poissons Ratio (z) = 0.13400 0.22655
#
# Static dielectric constant tensor:
#      x y z
#    x 3.608100 0.000000 0.000000 
#    y 0.000000 4.014200 0.000000 
#    z 0.000000 0.000000 4.856520 
# 
# 
# High freq. dielectric constant tensor:
#      x y z
#    x 1.837430 0.000000 0.000000 
#    y 0.000000 1.886070 0.000000 
#    z 0.000000 0.000000 1.947630 
# 
# From -- ./inp_files/17925.got.cif
#   From: 2010.03.12/outbox.cif.g09.slc.cpg/sg60_9_cif.got.tgz:17925.got - 2010.04.10 18:46:24.
