data_PCOD8248174
_publ_section_title
;
Structure prediction by ZEFSAII (Michael W. Deem and Ramdas Pophale) SiO2 
 PCOD8248174
Probable space group: P B C N
;
_chemical_formula_sum "Si O2"
_cell_formula_units_Z 60
_cell_length_a 13.509589
_cell_length_b 8.824610
_cell_length_c 23.223775
_cell_angle_alpha 90.000000
_cell_angle_beta 90.000000
_cell_angle_gamma 90.000000
_cell_volume 2768.665398
_symmetry_space_group_name_H-M "P B C N"
_symmetry_group_IT_number 60
_symmetry_cell_setting 'orthorhombic'
loop_
_space_group_symop_operation_xyz
x,y,z
1/2-x,1/2-y,1/2+z
1/2+x,1/2-y,-z
-x,y,1/2-z
-x,-y,-z
1/2+x,1/2+y,1/2-z
1/2-x,1/2+y,z
x,-y,1/2+z
loop_
_atom_site_type_symbol
_atom_site_label
_atom_site_fract_x
_atom_site_fract_y
_atom_site_fract_z
Si Si1 0.920532 0.162827 0.949489
Si Si2 0.373648 0.298736 0.832047
Si Si3 0.500000 0.474611 0.750000
Si Si4 0.800247 0.406436 0.817096
Si Si5 0.285830 0.179297 0.605486
Si Si6 0.978443 0.175852 0.436150
Si Si7 0.498251 0.749207 0.667662
Si Si8 0.816842 0.544073 0.190250
O O1 0.807004 0.208776 0.936950
O O2 0.993823 0.229420 0.900976
O O3 0.928254 0.982532 0.951529
O O4 0.954335 0.233158 0.010499
O O5 0.412603 0.360906 0.770237
O O6 0.454923 0.334198 0.879724
O O7 0.354290 0.118236 0.831389
O O8 0.274444 0.392689 0.847918
O O9 0.475899 0.584789 0.696121
O O10 0.727013 0.269605 0.834017
O O11 0.786823 0.508652 0.873283
O O12 0.914276 0.361258 0.810408
O O13 0.773734 0.475432 0.755046
O O14 0.388464 0.208560 0.573191
O O15 0.601301 0.823648 0.686374
#
# Coordination Sequence:
#
# PCOD8248174 Si02
#       8
#     8   8   4   8   8   8   8   8
#     4  10  24  45  71  99 135 184 226 295 344 412
#     4  12  29  42  68 103 140 189 228 289 350 423
#     4  12  24  42  66  96 142 178 226 286 354 410
#     4  11  23  38  68  99 139 177 225 281 340 417
#     4  11  23  43  69 105 128 181 235 280 340 416
#     4  11  24  47  71 101 139 180 236 285 351 408
#     4  11  23  44  69  99 138 180 231 291 351 416
#     4  12  26  44  65 106 142 186 227 288 360 417
#
# _framework density 21.671091000000001
#
# number of rings (size 3 to 8) (size 9 to 14) (size 15 to 20)
#    0.000    0.800    4.000    2.400    9.333    1.067 
#    2.400    6.000    0.000    0.000    0.000    0.000 
#    0.000    0.000    0.000    0.000    0.000    0.000 
#
# Total GULP energy -743827.228398 kJ/mol
# GULP energy per Si atom -12397.120473 kJ/mol
# Density = 2.162177 g / cm^3
# Si number density = 21.671091 Si / 1000 Ang^3
#
#
#
# Elastic Constant Matrix: (Units=GPa)
#
#
# Indices 1 2 3 4 5 6 
#
# 1 118.0819 26.7379 58.1990 0.0000 0.0000 0.0000
# 2 26.7379 77.9541 25.1494 0.0000 0.0000 0.0000
# 3 58.1990 25.1494 101.2834 0.0000 0.0000 0.0000
# 4 0.0000 0.0000 0.0000 17.4936 0.0000 0.0000
# 5 0.0000 0.0000 0.0000 0.0000 30.5358 0.0000
# 6 0.0000 0.0000 0.0000 0.0000 0.0000 33.8113
#
#
#
# Elastic Compliance Matrix: (Units=1/GPa)
#
#
# Indices 1 2 3 4 5 6 
#
# 1 0.012116 -0.002076 -0.006447 0.000000 0.000000 0.000000
# 2 -0.002076 0.014301 -0.002358 0.000000 0.000000 0.000000
# 3 -0.006447 -0.002358 0.014163 0.000000 0.000000 0.000000
# 4 0.000000 0.000000 0.000000 0.057164 0.000000 0.000000
# 5 0.000000 0.000000 0.000000 0.000000 0.032748 0.000000
# 6 0.000000 0.000000 0.000000 0.000000 0.000000 0.029576
#
#
# Mechanical properties :
#
#
# Convention : Reuss Voigt Hill
#
# Bulk Modulus (GPa) = 53.13861 57.49911 55.31886
# Shear Modulus (GPa) = 26.58124 28.85036 27.71580
#
# Velocity S-wave (km/s) = 3.50605 3.65263 3.58009
# Velocity P-wave (km/s) = 6.40028 6.66177 6.53233
#
# Compressibility (1/GPa) = 0.01881871
#
# Stress axis : x y z
#
# Youngs Moduli (GPa) = 82.53466 69.92574 70.60574
#
# Poissons Ratio (x) = 0.14516 0.45517
# Poissons Ratio (y) = 0.17134 0.16650
# Poissons Ratio (z) = 0.53207 0.16489
#
# Static dielectric constant tensor:
#      x y z
#    x 4.021560 0.000000 0.000000 
#    y 0.000000 3.871500 0.000000 
#    z 0.000000 0.000000 3.902640 
# 
# 
# High freq. dielectric constant tensor:
#      x y z
#    x 1.858970 0.000000 0.000000 
#    y 0.000000 1.854710 0.000000 
#    z 0.000000 0.000000 1.839460 
# 
# From -- ./inp_files/24424.got.cif
#   From: 2010.03.12/outbox.cif.g09.slc.cpg/sg60_13_cif.got.tgz:24424.got - 2010.04.10 18:46:24.
