data_PCOD8248345
_publ_section_title
;
Structure prediction by ZEFSAII (Michael W. Deem and Ramdas Pophale) SiO2 
 PCOD8248345
Probable space group: P B C N
;
_chemical_formula_sum "Si O2"
_cell_formula_units_Z 64
_cell_length_a 15.408364
_cell_length_b 11.080018
_cell_length_c 16.798384
_cell_angle_alpha 90.000000
_cell_angle_beta 90.000000
_cell_angle_gamma 90.000000
_cell_volume 2867.903276
_symmetry_space_group_name_H-M "P B C N"
_symmetry_group_IT_number 60
_symmetry_cell_setting 'orthorhombic'
loop_
_space_group_symop_operation_xyz
x,y,z
1/2-x,1/2-y,1/2+z
1/2+x,1/2-y,-z
-x,y,1/2-z
-x,-y,-z
1/2+x,1/2+y,1/2-z
1/2-x,1/2+y,z
x,-y,1/2+z
loop_
_atom_site_type_symbol
_atom_site_label
_atom_site_fract_x
_atom_site_fract_y
_atom_site_fract_z
Si Si1 0.250895 0.979722 0.175489
Si Si2 0.685001 0.667871 0.950316
Si Si3 0.421699 0.019414 0.404072
Si Si4 0.813734 0.253769 0.585755
Si Si5 0.415225 0.372174 0.700896
Si Si6 0.833609 0.660288 0.698772
Si Si7 0.414937 0.427575 0.522096
Si Si8 0.394838 0.091101 0.071643
O O1 0.233180 0.848118 0.134637
O O2 0.310293 0.957563 0.251075
O O3 0.160239 0.030064 0.207858
O O4 0.304342 0.068021 0.116913
O O5 0.657745 0.530148 0.968301
O O6 0.606331 0.764960 0.947928
O O7 0.751881 0.713949 0.013955
O O8 0.360028 0.129201 0.377995
O O9 0.518581 0.060647 0.378959
O O10 0.402439 0.890196 0.364440
O O11 0.403743 0.998090 0.497020
O O12 0.754763 0.205326 0.657566
O O13 0.884755 0.159646 0.550056
O O14 0.500000 0.418135 0.750000
O O15 0.382557 0.252760 0.744444
O O16 0.432357 0.354801 0.605409
O O17 0.500000 0.500000 0.500000
#
# Coordination Sequence:
#
# PCOD8248345 Si02
#       8
#     8   8   8   8   8   8   8   8
#     4  11  24  46  70  97 141 194 235 296 381 441
#     4  11  21  43  68  98 134 189 236 295 361 445
#     4  11  25  40  68 105 141 182 236 305 356 448
#     4  12  23  43  71 107 145 188 248 305 369 448
#     4  11  28  45  72 107 148 191 248 311 376 453
#     4  12  26  43  71 101 143 191 241 301 377 444
#     4  11  26  44  75 105 143 194 246 308 371 449
#     4  11  23  43  67 103 141 183 239 292 368 443
#
# _framework density 22.315954000000001
#
# number of rings (size 3 to 8) (size 9 to 14) (size 15 to 20)
#    0.000    0.750    2.500    5.250    5.250    1.000 
#    0.000    0.000    0.000    0.000    0.000    0.000 
#    0.000    0.000    0.000    0.000    0.000    0.000 
#
# Total GULP energy -793241.378827 kJ/mol
# GULP energy per Si atom -12394.396544 kJ/mol
# Density = 2.226516 g / cm^3
# Si number density = 22.315954 Si / 1000 Ang^3
#
#
#
# Elastic Constant Matrix: (Units=GPa)
#
#
# Indices 1 2 3 4 5 6 
#
# 1 98.1014 29.2448 51.7868 0.0000 0.0000 0.0000
# 2 29.2448 100.3188 44.1079 0.0000 0.0000 0.0000
# 3 51.7868 44.1079 76.4882 0.0000 0.0000 0.0000
# 4 0.0000 0.0000 0.0000 35.2663 0.0000 0.0000
# 5 0.0000 0.0000 0.0000 0.0000 33.9883 0.0000
# 6 0.0000 0.0000 0.0000 0.0000 0.0000 38.2813
#
#
#
# Elastic Compliance Matrix: (Units=1/GPa)
#
#
# Indices 1 2 3 4 5 6 
#
# 1 0.015865 0.000131 -0.010817 0.000000 0.000000 0.000000
# 2 0.000131 0.013355 -0.007790 0.000000 0.000000 0.000000
# 3 -0.010817 -0.007790 0.024890 0.000000 0.000000 0.000000
# 4 0.000000 0.000000 0.000000 0.028356 0.000000 0.000000
# 5 0.000000 0.000000 0.000000 0.000000 0.029422 0.000000
# 6 0.000000 0.000000 0.000000 0.000000 0.000000 0.026122
#
#
# Mechanical properties :
#
#
# Convention : Reuss Voigt Hill
#
# Bulk Modulus (GPa) = 58.28272 58.35416 58.31844
# Shear Modulus (GPa) = 27.67318 31.49179 29.58249
#
# Velocity S-wave (km/s) = 3.52527 3.76064 3.64486
# Velocity P-wave (km/s) = 6.53788 6.71285 6.62594
#
# Compressibility (1/GPa) = 0.01715775
#
# Stress axis : x y z
#
# Youngs Moduli (GPa) = 63.03376 74.87734 40.17716
#
# Poissons Ratio (x) = -0.00982 0.43459
# Poissons Ratio (y) = -0.00826 0.31299
# Poissons Ratio (z) = 0.68182 0.58331
#
# Static dielectric constant tensor:
#      x y z
#    x 4.321440 0.000000 0.000000 
#    y 0.000000 4.128750 0.000000 
#    z 0.000000 0.000000 4.513790 
# 
# 
# High freq. dielectric constant tensor:
#      x y z
#    x 1.891190 0.000000 0.000000 
#    y 0.000000 1.881630 0.000000 
#    z 0.000000 0.000000 1.875580 
# 
# From -- ./inp_files/20666.got.cif
#   From: 2010.03.12/outbox.cif.g09.slc.cpg/sg60_11_cif.got.tgz:20666.got - 2010.04.10 18:46:24.
