data_PCOD8248807
_publ_section_title
;
Structure prediction by ZEFSAII (Michael W. Deem and Ramdas Pophale) SiO2 
 PCOD8248807
Probable space group: P B C A
;
_chemical_formula_sum "Si O2"
_cell_formula_units_Z 40
_cell_length_a 5.230389
_cell_length_b 17.676102
_cell_length_c 22.090509
_cell_angle_alpha 90.000000
_cell_angle_beta 90.000000
_cell_angle_gamma 90.000000
_cell_volume 2042.331387
_symmetry_space_group_name_H-M "P B C A"
_symmetry_group_IT_number 61
_symmetry_cell_setting 'orthorhombic'
loop_
_space_group_symop_operation_xyz
x,y,z
1/2-x,-y,1/2+z
1/2+x,1/2-y,-z
-x,1/2+y,1/2-z
-x,-y,-z
1/2+x,y,1/2-z
1/2-x,1/2+y,z
x,1/2-y,1/2+z
loop_
_atom_site_type_symbol
_atom_site_label
_atom_site_fract_x
_atom_site_fract_y
_atom_site_fract_z
Si Si1 0.589101 0.389102 0.713614
Si Si2 0.399953 0.527177 0.409692
Si Si3 0.839814 0.601621 0.969911
Si Si4 0.405511 0.787814 0.286406
Si Si5 0.837187 0.625194 0.590128
O O1 0.364785 0.412139 0.760007
O O2 0.527009 0.433247 0.652480
O O3 0.592870 0.300615 0.698966
O O4 0.643492 0.481896 0.438062
O O5 0.317455 0.591640 0.457758
O O6 0.175050 0.465606 0.398287
O O7 0.589963 0.645642 0.947484
O O8 0.089341 0.650455 0.949629
O O9 0.683006 0.810924 0.260854
O O10 0.343470 0.831875 0.347034
#
# Coordination Sequence:
#
# PCOD8248807 Si02
#       5
#     8   8   8   8   8
#     4  10  23  37  54  77 108 143 178 213 266 313
#     4   9  21  35  58  77 113 134 175 220 265 312
#     4   9  20  34  56  81 106 137 169 220 273 303
#     4  10  21  38  53  74 110 146 173 220 266 307
#     4  10  19  34  55  80 104 136 181 211 262 317
#
# _framework density 19.585460000000001
#
# number of rings (size 3 to 8) (size 9 to 14) (size 15 to 20)
#    1.200    1.200    0.000    1.800    2.800    1.600 
#    0.000    2.000    0.000    0.000    0.000    0.000 
#    0.000    0.000    0.000    0.000    0.000    0.000 
#
# Total GULP energy -495738.557950 kJ/mol
# GULP energy per Si atom -12393.463949 kJ/mol
# Density = 1.954088 g / cm^3
# Si number density = 19.585460 Si / 1000 Ang^3
#
#
#
# Elastic Constant Matrix: (Units=GPa)
#
#
# Indices 1 2 3 4 5 6 
#
# 1 123.6886 15.4888 24.9429 0.0000 0.0000 0.0000
# 2 15.4888 16.9750 30.2942 0.0000 0.0000 0.0000
# 3 24.9429 30.2942 111.8417 0.0000 0.0000 0.0000
# 4 0.0000 0.0000 0.0000 -41.6078 0.0000 0.0000
# 5 0.0000 0.0000 0.0000 0.0000 24.8540 0.0000
# 6 0.0000 0.0000 0.0000 0.0000 0.0000 10.6930
#
#
#
# Elastic Compliance Matrix: (Units=1/GPa)
#
#
# Indices 1 2 3 4 5 6 
#
# 1 0.009138 -0.009100 0.000427 0.000000 0.000000 0.000000
# 2 -0.009100 0.123096 -0.031313 0.000000 0.000000 0.000000
# 3 0.000427 -0.031313 0.017328 0.000000 0.000000 0.000000
# 4 0.000000 0.000000 0.000000 -0.024034 0.000000 0.000000
# 5 0.000000 0.000000 0.000000 0.000000 0.040235 0.000000
# 6 0.000000 0.000000 0.000000 0.000000 0.000000 0.093519
#
#
# Mechanical properties :
#
#
# Convention : Reuss Voigt Hill
#
# Bulk Modulus (GPa) = 14.37000 43.77300 29.07150
# Shear Modulus (GPa) = 13.79498 10.90648 12.35073
#
# Velocity S-wave (km/s) = 2.65684 2.36236 2.51391
# Velocity P-wave (km/s) = 4.09447 5.46253 4.82721
#
# Compressibility (1/GPa) = 0.06958941
#
# Stress axis : x y z
#
# Youngs Moduli (GPa) = 109.42987 8.12374 57.71106
#
# Poissons Ratio (x) = 0.07393 -0.02464
# Poissons Ratio (y) = 0.99581 1.80711
# Poissons Ratio (z) = -0.04671 0.25438
#
# Static dielectric constant tensor:
#      x y z
#    x 3.643660 0.000000 0.000000 
#    y 0.000000 3.202540 0.000000 
#    z 0.000000 0.000000 3.381990 
# 
# 
# High freq. dielectric constant tensor:
#      x y z
#    x 1.768400 0.000000 0.000000 
#    y 0.000000 1.727650 0.000000 
#    z 0.000000 0.000000 1.764570 
# 
# From -- ./inp_files/936.got.cif
#   From: 2010.03.12/outbox.cif.g09.slc.cpg/sg61_1_cif.got.tgz:936.got - 2010.04.10 19:05:03.
