data_PCOD8248488
_publ_section_title
;
Structure prediction by ZEFSAII (Michael W. Deem and Ramdas Pophale) SiO2 
 PCOD8248488
Probable space group: P B C N
;
_chemical_formula_sum "Si O2"
_cell_formula_units_Z 40
_cell_length_a 9.905370
_cell_length_b 13.725608
_cell_length_c 13.216975
_cell_angle_alpha 90.000000
_cell_angle_beta 90.000000
_cell_angle_gamma 90.000000
_cell_volume 1796.943253
_symmetry_space_group_name_H-M "P B C N"
_symmetry_group_IT_number 60
_symmetry_cell_setting 'orthorhombic'
loop_
_space_group_symop_operation_xyz
x,y,z
1/2-x,1/2-y,1/2+z
1/2+x,1/2-y,-z
-x,y,1/2-z
-x,-y,-z
1/2+x,1/2+y,1/2-z
1/2-x,1/2+y,z
x,-y,1/2+z
loop_
_atom_site_type_symbol
_atom_site_label
_atom_site_fract_x
_atom_site_fract_y
_atom_site_fract_z
Si Si1 0.071235 0.570084 0.357819
Si Si2 0.500000 0.370274 0.250000
Si Si3 0.500000 0.313283 0.750000
Si Si4 0.842146 0.600555 0.506399
Si Si5 0.258050 0.250527 0.344301
Si Si6 0.415754 0.472831 0.597124
O O1 0.118686 0.464589 0.396337
O O2 0.204802 0.636684 0.354500
O O3 0.000000 0.558046 0.250000
O O4 0.972109 0.622166 0.438106
O O5 0.389386 0.303558 0.302268
O O6 0.582492 0.435815 0.328286
O O7 0.370114 0.244448 0.768832
O O8 0.478250 0.377746 0.649860
O O9 0.781521 0.701843 0.547905
O O10 0.738051 0.545316 0.433751
O O11 0.500000 0.500000 0.500000
#
# Coordination Sequence:
#
# PCOD8248488 Si02
#       6
#     8   4   4   8   8   8
#     4  11  26  49  69 105 150 187 238 301 364 431
#     4  11  26  44  75 104 144 188 243 302 357 428
#     4  11  28  44  73 104 148 182 241 302 361 434
#     4  11  27  43  76 103 142 197 240 298 364 436
#     4  12  26  46  72 109 140 192 238 304 361 433
#     4  11  23  47  70 101 139 193 243 294 357 430
#
# _framework density 22.260023
#
# number of rings (size 3 to 8) (size 9 to 14) (size 15 to 20)
#    0.000    0.800    3.000    2.400    9.800    3.200 
#    0.000    0.000    0.000    0.000    0.000    0.000 
#    0.000    0.000    0.000    0.000    0.000    0.000 
#
# Total GULP energy -496231.324361 kJ/mol
# GULP energy per Si atom -12405.783109 kJ/mol
# Density = 2.220936 g / cm^3
# Si number density = 22.260023 Si / 1000 Ang^3
#
#
#
# Elastic Constant Matrix: (Units=GPa)
#
#
# Indices 1 2 3 4 5 6 
#
# 1 119.0297 21.9160 29.2964 0.0000 0.0000 0.0000
# 2 21.9160 60.9908 36.6968 0.0000 0.0000 0.0000
# 3 29.2964 36.6968 116.0342 0.0000 0.0000 0.0000
# 4 0.0000 0.0000 0.0000 22.9699 0.0000 0.0000
# 5 0.0000 0.0000 0.0000 0.0000 45.7194 0.0000
# 6 0.0000 0.0000 0.0000 0.0000 0.0000 30.1757
#
#
#
# Elastic Compliance Matrix: (Units=1/GPa)
#
#
# Indices 1 2 3 4 5 6 
#
# 1 0.009226 -0.002363 -0.001582 0.000000 0.000000 0.000000
# 2 -0.002363 0.020854 -0.005999 0.000000 0.000000 0.000000
# 3 -0.001582 -0.005999 0.010915 0.000000 0.000000 0.000000
# 4 0.000000 0.000000 0.000000 0.043535 0.000000 0.000000
# 5 0.000000 0.000000 0.000000 0.000000 0.021873 0.000000
# 6 0.000000 0.000000 0.000000 0.000000 0.000000 0.033139
#
#
# Mechanical properties :
#
#
# Convention : Reuss Voigt Hill
#
# Bulk Modulus (GPa) = 47.37761 52.43034 49.90397
# Shear Modulus (GPa) = 30.03627 33.64937 31.84282
#
# Velocity S-wave (km/s) = 3.67732 3.89221 3.78629
# Velocity P-wave (km/s) = 6.27377 6.61844 6.44841
#
# Compressibility (1/GPa) = 0.02110702
#
# Stress axis : x y z
#
# Youngs Moduli (GPa) = 108.39219 47.95149 91.61973
#
# Poissons Ratio (x) = 0.11332 0.14493
# Poissons Ratio (y) = 0.25617 0.54960
# Poissons Ratio (z) = 0.17147 0.28765
#
# Static dielectric constant tensor:
#      x y z
#    x 4.253490 0.000000 0.000000 
#    y 0.000000 4.049460 0.000000 
#    z 0.000000 0.000000 4.029520 
# 
# 
# High freq. dielectric constant tensor:
#      x y z
#    x 1.895880 0.000000 0.000000 
#    y 0.000000 1.871850 0.000000 
#    z 0.000000 0.000000 1.883850 
# 
# From -- ./inp_files/10897.got.cif
#   From: 2010.03.12/outbox.cif.g09.slc.cpg/sg60_6_cif.got.tgz:10897.got - 2010.04.10 18:46:24.
