data_PCOD8248009
_publ_section_title
;
Structure prediction by ZEFSAII (Michael W. Deem and Ramdas Pophale) SiO2 
 PCOD8248009
Probable space group: P B C N
;
_chemical_formula_sum "Si O2"
_cell_formula_units_Z 56
_cell_length_a 8.891020
_cell_length_b 13.927210
_cell_length_c 21.650401
_cell_angle_alpha 90.000000
_cell_angle_beta 90.000000
_cell_angle_gamma 90.000000
_cell_volume 2680.906427
_symmetry_space_group_name_H-M "P B C N"
_symmetry_group_IT_number 60
_symmetry_cell_setting 'orthorhombic'
loop_
_space_group_symop_operation_xyz
x,y,z
1/2-x,1/2-y,1/2+z
1/2+x,1/2-y,-z
-x,y,1/2-z
-x,-y,-z
1/2+x,1/2+y,1/2-z
1/2-x,1/2+y,z
x,-y,1/2+z
loop_
_atom_site_type_symbol
_atom_site_label
_atom_site_fract_x
_atom_site_fract_y
_atom_site_fract_z
Si Si1 0.655162 0.525464 0.220783
Si Si2 0.746676 0.695596 0.410898
Si Si3 0.166493 0.521716 0.158536
Si Si4 0.311336 0.435822 0.476974
Si Si5 0.862289 0.411483 0.137595
Si Si6 0.631093 0.405948 0.430608
Si Si7 0.032000 0.218882 0.320344
O O1 0.500000 0.487155 0.250000
O O2 0.778708 0.549548 0.273136
O O3 0.718926 0.445897 0.175739
O O4 0.623431 0.619830 0.179835
O O5 0.863059 0.618863 0.380924
O O6 0.678029 0.648728 0.472564
O O7 0.828159 0.793684 0.429879
O O8 0.619844 0.710780 0.359497
O O9 0.298706 0.456968 0.129133
O O10 0.013566 0.461875 0.161040
O O11 0.161258 0.429095 0.435426
O O12 0.452235 0.421553 0.430832
O O13 0.306235 0.541453 0.507759
O O14 0.866032 0.298016 0.147446
O O15 0.000000 0.250302 0.250000
#
# Coordination Sequence:
#
# PCOD8248009 Si02
#       7
#     8   8   8   8   8   8   8
#     4  11  23  42  70  95 138 176 225 282 350 416
#     4  11  23  41  73  97 132 185 230 286 342 409
#     4  11  22  42  66 101 132 177 229 287 340 406
#     4  10  26  42  64 101 135 182 225 286 340 421
#     4  12  26  42  70 103 138 177 233 284 350 415
#     4  10  23  43  68  89 139 176 231 271 351 408
#     4  11  23  45  69  98 136 183 225 284 360 408
#
# _framework density 20.888456000000001
#
# number of rings (size 3 to 8) (size 9 to 14) (size 15 to 20)
#    0.000    1.143    4.286    2.143    6.000    4.571 
#    0.000    1.429    0.000    0.000    0.000    0.000 
#    0.000    0.000    0.000    0.000    0.000    0.000 
#
# Total GULP energy -694400.225549 kJ/mol
# GULP energy per Si atom -12400.004028 kJ/mol
# Density = 2.084091 g / cm^3
# Si number density = 20.888456 Si / 1000 Ang^3
#
#
#
# Elastic Constant Matrix: (Units=GPa)
#
#
# Indices 1 2 3 4 5 6 
#
# 1 77.6161 27.3471 39.1682 0.0000 0.0000 0.0000
# 2 27.3471 100.7290 17.3966 0.0000 0.0000 0.0000
# 3 39.1682 17.3966 83.8441 0.0000 0.0000 0.0000
# 4 0.0000 0.0000 0.0000 24.4925 0.0000 0.0000
# 5 0.0000 0.0000 0.0000 0.0000 30.6576 0.0000
# 6 0.0000 0.0000 0.0000 0.0000 0.0000 34.1318
#
#
#
# Elastic Compliance Matrix: (Units=1/GPa)
#
#
# Indices 1 2 3 4 5 6 
#
# 1 0.018013 -0.003565 -0.007675 0.000000 0.000000 0.000000
# 2 -0.003565 0.011002 -0.000617 0.000000 0.000000 0.000000
# 3 -0.007675 -0.000617 0.015641 0.000000 0.000000 0.000000
# 4 0.000000 0.000000 0.000000 0.040829 0.000000 0.000000
# 5 0.000000 0.000000 0.000000 0.000000 0.032618 0.000000
# 6 0.000000 0.000000 0.000000 0.000000 0.000000 0.029298
#
#
# Mechanical properties :
#
#
# Convention : Reuss Voigt Hill
#
# Bulk Modulus (GPa) = 47.75403 47.77923 47.76663
# Shear Modulus (GPa) = 28.07463 29.74153 28.90808
#
# Velocity S-wave (km/s) = 3.67007 3.77746 3.72415
# Velocity P-wave (km/s) = 6.39299 6.47678 6.43502
#
# Compressibility (1/GPa) = 0.02094064
#
# Stress axis : x y z
#
# Youngs Moduli (GPa) = 55.51472 90.89176 63.93623
#
# Poissons Ratio (x) = 0.32402 0.49073
# Poissons Ratio (y) = 0.19790 0.03948
# Poissons Ratio (z) = 0.42609 0.05612
#
# Static dielectric constant tensor:
#      x y z
#    x 3.661940 0.000000 0.000000 
#    y 0.000000 3.946980 0.000000 
#    z 0.000000 0.000000 3.942250 
# 
# 
# High freq. dielectric constant tensor:
#      x y z
#    x 1.806380 0.000000 0.000000 
#    y 0.000000 1.821830 0.000000 
#    z 0.000000 0.000000 1.831350 
# 
# From -- ./inp_files/22236.got.cif
#   From: 2010.03.12/outbox.cif.g09.slc.cpg/sg60_12_cif.got.tgz:22236.got - 2010.04.10 18:46:24.
