data_PCOD8248498
_publ_section_title
;
Structure prediction by ZEFSAII (Michael W. Deem and Ramdas Pophale) SiO2 
 PCOD8248498
Probable space group: P B C N
;
_chemical_formula_sum "Si O2"
_cell_formula_units_Z 48
_cell_length_a 13.620888
_cell_length_b 10.016137
_cell_length_c 18.901641
_cell_angle_alpha 90.000000
_cell_angle_beta 90.000000
_cell_angle_gamma 90.000000
_cell_volume 2578.725937
_symmetry_space_group_name_H-M "P B C N"
_symmetry_group_IT_number 60
_symmetry_cell_setting 'orthorhombic'
loop_
_space_group_symop_operation_xyz
x,y,z
1/2-x,1/2-y,1/2+z
1/2+x,1/2-y,-z
-x,y,1/2-z
-x,-y,-z
1/2+x,1/2+y,1/2-z
1/2-x,1/2+y,z
x,-y,1/2+z
loop_
_atom_site_type_symbol
_atom_site_label
_atom_site_fract_x
_atom_site_fract_y
_atom_site_fract_z
Si Si1 0.968875 0.860883 0.468898
Si Si2 0.746388 0.391566 0.124140
Si Si3 0.455404 0.030390 0.825709
Si Si4 0.940241 0.388972 0.459747
Si Si5 0.944967 0.216260 0.677179
Si Si6 0.738108 0.359416 0.527604
O O1 0.852911 0.843032 0.475390
O O2 0.025537 0.755559 0.516793
O O3 0.994649 0.849712 0.386494
O O4 0.000000 0.000000 0.500000
O O5 0.852234 0.393417 0.162266
O O6 0.663064 0.350916 0.181289
O O7 0.741106 0.283804 0.061678
O O8 0.719798 0.534077 0.090032
O O9 0.500000 0.062160 0.750000
O O10 0.538994 0.088300 0.877212
O O11 0.435923 0.873844 0.837863
O O12 0.826292 0.407476 0.477423
O O13 0.000000 0.500000 0.500000
O O14 0.000000 0.185587 0.750000
#
# Coordination Sequence:
#
# PCOD8248498 Si02
#       6
#     8   8   8   8   8   8
#     4  12  22  38  62  97 125 158 212 264 308 367
#     4  12  20  41  64  92 118 173 203 255 330 369
#     4  11  24  41  66  93 128 167 214 262 315 389
#     4  12  20  40  64  92 119 167 218 255 300 376
#     4  11  24  42  64  92 132 167 204 265 329 382
#     4  12  22  35  68  93 124 162 215 260 306 376
#
# _framework density 18.613842999999999
#
# number of rings (size 3 to 8) (size 9 to 14) (size 15 to 20)
#    0.000    0.333   10.000    0.000    0.000    1.333 
#    0.000    3.333    0.000    0.000    0.000    0.000 
#    0.000    0.000    0.000    0.000    0.000    0.000 
#
# Total GULP energy -595361.430186 kJ/mol
# GULP energy per Si atom -12403.363129 kJ/mol
# Density = 1.857148 g / cm^3
# Si number density = 18.613843 Si / 1000 Ang^3
#
#
#
# Elastic Constant Matrix: (Units=GPa)
#
#
# Indices 1 2 3 4 5 6 
#
# 1 128.7309 13.2086 52.6817 0.0000 0.0000 0.0000
# 2 13.2086 87.1780 39.2821 0.0000 0.0000 0.0000
# 3 52.6817 39.2821 130.6667 0.0000 0.0000 0.0000
# 4 0.0000 0.0000 0.0000 25.1746 0.0000 0.0000
# 5 0.0000 0.0000 0.0000 0.0000 36.9752 0.0000
# 6 0.0000 0.0000 0.0000 0.0000 0.0000 31.0371
#
#
#
# Elastic Compliance Matrix: (Units=1/GPa)
#
#
# Indices 1 2 3 4 5 6 
#
# 1 0.009311 0.000325 -0.003852 0.000000 0.000000 0.000000
# 2 0.000325 0.013279 -0.004123 0.000000 0.000000 0.000000
# 3 -0.003852 -0.004123 0.010445 0.000000 0.000000 0.000000
# 4 0.000000 0.000000 0.000000 0.039723 0.000000 0.000000
# 5 0.000000 0.000000 0.000000 0.000000 0.027045 0.000000
# 6 0.000000 0.000000 0.000000 0.000000 0.000000 0.032220
#
#
# Mechanical properties :
#
#
# Convention : Reuss Voigt Hill
#
# Bulk Modulus (GPa) = 56.38240 61.88005 59.13122
# Shear Modulus (GPa) = 32.62957 34.73092 33.68025
#
# Velocity S-wave (km/s) = 4.19139 4.32425 4.25834
# Velocity P-wave (km/s) = 7.33349 7.63207 7.48427
#
# Compressibility (1/GPa) = 0.01773603
#
# Stress axis : x y z
#
# Youngs Moduli (GPa) = 107.39913 75.30439 95.73525
#
# Poissons Ratio (x) = -0.02446 0.36874
# Poissons Ratio (y) = -0.03488 0.39473
# Poissons Ratio (z) = 0.41366 0.31049
#
# Static dielectric constant tensor:
#      x y z
#    x 6.254080 0.000000 0.000000 
#    y 0.000000 3.683970 0.000000 
#    z 0.000000 0.000000 3.574710 
# 
# 
# High freq. dielectric constant tensor:
#      x y z
#    x 1.737830 0.000000 0.000000 
#    y 0.000000 1.735010 0.000000 
#    z 0.000000 0.000000 1.707500 
# 
# From -- ./inp_files/20504.got.cif
#   From: 2010.03.12/outbox.cif.g09.slc.cpg/sg60_11_cif.got.tgz:20504.got - 2010.04.10 18:46:24.
