data_PCOD8248121
_publ_section_title
;
Structure prediction by ZEFSAII (Michael W. Deem and Ramdas Pophale) SiO2 
 PCOD8248121
Probable space group: P B C N
;
_chemical_formula_sum "Si O2"
_cell_formula_units_Z 48
_cell_length_a 8.748631
_cell_length_b 12.074058
_cell_length_c 21.884907
_cell_angle_alpha 90.000000
_cell_angle_beta 90.000000
_cell_angle_gamma 90.000000
_cell_volume 2311.735075
_symmetry_space_group_name_H-M "P B C N"
_symmetry_group_IT_number 60
_symmetry_cell_setting 'orthorhombic'
loop_
_space_group_symop_operation_xyz
x,y,z
1/2-x,1/2-y,1/2+z
1/2+x,1/2-y,-z
-x,y,1/2-z
-x,-y,-z
1/2+x,1/2+y,1/2-z
1/2-x,1/2+y,z
x,-y,1/2+z
loop_
_atom_site_type_symbol
_atom_site_label
_atom_site_fract_x
_atom_site_fract_y
_atom_site_fract_z
Si Si1 0.026477 0.620950 0.074518
Si Si2 0.956326 0.626474 0.568604
Si Si3 0.841065 0.814773 0.870089
Si Si4 0.172906 0.672991 0.740473
Si Si5 0.926361 0.030120 0.813471
Si Si6 0.833906 0.195927 0.633826
O O1 0.187642 0.674470 0.091454
O O2 0.014937 0.492112 0.093813
O O3 0.889595 0.686222 0.107948
O O4 0.008699 0.634996 0.002497
O O5 0.775647 0.637861 0.583463
O O6 0.047116 0.725682 0.600188
O O7 0.807340 0.781551 0.800549
O O8 0.920708 0.933902 0.863970
O O9 0.259352 0.573802 0.705709
O O10 0.238600 0.712772 0.804761
O O11 0.000000 0.632537 0.750000
O O12 0.000000 0.990185 0.750000
O O13 0.018829 0.123895 0.849468
#
# Coordination Sequence:
#
# PCOD8248121 Si02
#       6
#     8   8   8   8   8   8
#     4  11  26  46  68  97 138 180 230 286 331 410
#     4  11  26  45  69 100 132 184 233 275 347 401
#     4  12  23  44  69  99 138 175 225 281 337 415
#     4  11  22  42  67 101 136 176 222 276 348 409
#     4  10  24  42  65 101 136 172 220 276 347 410
#     4  11  24  44  69  99 136 176 226 283 339 410
#
# _framework density 20.763624
#
# number of rings (size 3 to 8) (size 9 to 14) (size 15 to 20)
#    0.000    1.000    3.333    2.500    2.333    1.333 
#    0.000    1.667    0.000    0.000    0.000    0.000 
#    0.000    0.000    0.000    0.000    0.000    0.000 
#
# Total GULP energy -595240.605592 kJ/mol
# GULP energy per Si atom -12400.845950 kJ/mol
# Density = 2.071637 g / cm^3
# Si number density = 20.763624 Si / 1000 Ang^3
#
#
#
# Elastic Constant Matrix: (Units=GPa)
#
#
# Indices 1 2 3 4 5 6 
#
# 1 128.2214 67.0646 51.2494 0.0000 0.0000 0.0000
# 2 67.0646 123.2494 65.8573 0.0000 0.0000 0.0000
# 3 51.2494 65.8573 96.5159 0.0000 0.0000 0.0000
# 4 0.0000 0.0000 0.0000 51.6146 0.0000 0.0000
# 5 0.0000 0.0000 0.0000 0.0000 37.4945 0.0000
# 6 0.0000 0.0000 0.0000 0.0000 0.0000 28.9908
#
#
#
# Elastic Compliance Matrix: (Units=1/GPa)
#
#
# Indices 1 2 3 4 5 6 
#
# 1 0.011382 -0.004665 -0.002861 0.000000 0.000000 0.000000
# 2 -0.004665 0.014681 -0.007541 0.000000 0.000000 0.000000
# 3 -0.002861 -0.007541 0.017025 0.000000 0.000000 0.000000
# 4 0.000000 0.000000 0.000000 0.019374 0.000000 0.000000
# 5 0.000000 0.000000 0.000000 0.000000 0.026671 0.000000
# 6 0.000000 0.000000 0.000000 0.000000 0.000000 0.034494
#
#
# Mechanical properties :
#
#
# Convention : Reuss Voigt Hill
#
# Bulk Modulus (GPa) = 77.18333 79.59216 78.38774
# Shear Modulus (GPa) = 31.62964 34.54099 33.08531
#
# Velocity S-wave (km/s) = 3.90721 4.08307 3.99611
# Velocity P-wave (km/s) = 7.59000 7.78745 7.68936
#
# Compressibility (1/GPa) = 0.01295617
#
# Stress axis : x y z
#
# Youngs Moduli (GPa) = 87.85474 68.11403 58.73552
#
# Poissons Ratio (x) = 0.31774 0.16804
# Poissons Ratio (y) = 0.40983 0.44291
# Poissons Ratio (z) = 0.25135 0.51363
#
# Static dielectric constant tensor:
#      x y z
#    x 3.835880 0.000000 0.000000 
#    y 0.000000 3.735050 0.000000 
#    z 0.000000 0.000000 3.872850 
# 
# 
# High freq. dielectric constant tensor:
#      x y z
#    x 1.822420 0.000000 0.000000 
#    y 0.000000 1.814780 0.000000 
#    z 0.000000 0.000000 1.821120 
# 
# From -- ./inp_files/23935.got.cif
#   From: 2010.03.12/outbox.cif.g09.slc.cpg/sg60_12_cif.got.tgz:23935.got - 2010.04.10 18:46:24.
