data_PCOD8248049
_publ_section_title
;
Structure prediction by ZEFSAII (Michael W. Deem and Ramdas Pophale) SiO2 
 PCOD8248049
Probable space group: P B C N
;
_chemical_formula_sum "Si O2"
_cell_formula_units_Z 48
_cell_length_a 11.108460
_cell_length_b 9.857850
_cell_length_c 21.322323
_cell_angle_alpha 90.000000
_cell_angle_beta 90.000000
_cell_angle_gamma 90.000000
_cell_volume 2334.912332
_symmetry_space_group_name_H-M "P B C N"
_symmetry_group_IT_number 60
_symmetry_cell_setting 'orthorhombic'
loop_
_space_group_symop_operation_xyz
x,y,z
1/2-x,1/2-y,1/2+z
1/2+x,1/2-y,-z
-x,y,1/2-z
-x,-y,-z
1/2+x,1/2+y,1/2-z
1/2-x,1/2+y,z
x,-y,1/2+z
loop_
_atom_site_type_symbol
_atom_site_label
_atom_site_fract_x
_atom_site_fract_y
_atom_site_fract_z
Si Si1 0.644228 0.586001 0.048633
Si Si2 0.389455 0.510137 0.085604
Si Si3 0.225657 0.401641 0.687855
Si Si4 0.488113 0.709350 0.679561
Si Si5 0.642187 0.834170 0.244379
Si Si6 0.232793 0.179029 0.881167
O O1 0.502291 0.603091 0.064444
O O2 0.697008 0.459407 0.085735
O O3 0.714260 0.721468 0.066546
O O4 0.664042 0.566579 0.974602
O O5 0.285830 0.599031 0.118563
O O6 0.427780 0.404322 0.138001
O O7 0.091388 0.344647 0.680590
O O8 0.213104 0.552025 0.716186
O O9 0.309110 0.311738 0.733358
O O10 0.500000 0.650886 0.750000
O O11 0.618075 0.749345 0.652045
O O12 0.500000 0.843019 0.250000
O O13 0.667756 0.852853 0.170913
#
# Coordination Sequence:
#
# PCOD8248049 Si02
#       6
#     8   8   8   8   8   8
#     4  10  24  42  68  91 130 176 223 262 325 389
#     4  10  23  45  66  92 131 177 219 265 326 401
#     4  12  23  42  66  97 133 167 216 279 332 395
#     4  11  22  42  67  93 132 171 211 273 339 382
#     4  12  26  40  67  99 132 168 220 275 338 395
#     4  11  23  42  65  96 130 173 220 272 324 396
#
# _framework density 20.557518000000002
#
# number of rings (size 3 to 8) (size 9 to 14) (size 15 to 20)
#    0.000    1.000    3.333    2.500    4.667    3.333 
#    0.000    0.833    0.000    0.000    0.000    0.000 
#    0.000    0.000    0.000    0.000    0.000    0.000 
#
# Total GULP energy -595417.876174 kJ/mol
# GULP energy per Si atom -12404.539087 kJ/mol
# Density = 2.051073 g / cm^3
# Si number density = 20.557518 Si / 1000 Ang^3
#
#
#
# Elastic Constant Matrix: (Units=GPa)
#
#
# Indices 1 2 3 4 5 6 
#
# 1 103.6434 24.9610 45.0226 0.0000 0.0000 0.0000
# 2 24.9610 50.7540 9.2088 0.0000 0.0000 0.0000
# 3 45.0226 9.2088 127.8873 0.0000 0.0000 0.0000
# 4 0.0000 0.0000 0.0000 14.2348 0.0000 0.0000
# 5 0.0000 0.0000 0.0000 0.0000 41.4574 0.0000
# 6 0.0000 0.0000 0.0000 0.0000 0.0000 12.3588
#
#
#
# Elastic Compliance Matrix: (Units=1/GPa)
#
#
# Indices 1 2 3 4 5 6 
#
# 1 0.012759 -0.005532 -0.004093 0.000000 0.000000 0.000000
# 2 -0.005532 0.022362 0.000337 0.000000 0.000000 0.000000
# 3 -0.004093 0.000337 0.009236 0.000000 0.000000 0.000000
# 4 0.000000 0.000000 0.000000 0.070250 0.000000 0.000000
# 5 0.000000 0.000000 0.000000 0.000000 0.024121 0.000000
# 6 0.000000 0.000000 0.000000 0.000000 0.000000 0.080914
#
#
# Mechanical properties :
#
#
# Convention : Reuss Voigt Hill
#
# Bulk Modulus (GPa) = 38.78818 48.96328 43.87573
# Shear Modulus (GPa) = 20.25820 27.14967 23.70394
#
# Velocity S-wave (km/s) = 3.14258 3.63804 3.39935
# Velocity P-wave (km/s) = 5.66364 6.44333 6.06603
#
# Compressibility (1/GPa) = 0.02578105
#
# Stress axis : x y z
#
# Youngs Moduli (GPa) = 78.37597 44.71780 108.26978
#
# Poissons Ratio (x) = 0.24739 0.44320
# Poissons Ratio (y) = 0.43359 -0.03653
# Poissons Ratio (z) = 0.32083 -0.01509
#
# Static dielectric constant tensor:
#      x y z
#    x 4.024500 0.000000 0.000000 
#    y 0.000000 3.532870 0.000000 
#    z 0.000000 0.000000 3.937690 
# 
# 
# High freq. dielectric constant tensor:
#      x y z
#    x 1.818070 0.000000 0.000000 
#    y 0.000000 1.791730 0.000000 
#    z 0.000000 0.000000 1.815080 
# 
# From -- ./inp_files/24227.got.cif
#   From: 2010.03.12/outbox.cif.g09.slc.cpg/sg60_13_cif.got.tgz:24227.got - 2010.04.10 18:46:24.
