data_PCOD8248867
_publ_section_title
;
Structure prediction by ZEFSAII (Michael W. Deem and Ramdas Pophale) SiO2 
 PCOD8248867
Probable space group: P B C A
;
_chemical_formula_sum "Si O2"
_cell_formula_units_Z 64
_cell_length_a 23.633254
_cell_length_b 9.085236
_cell_length_c 13.695162
_cell_angle_alpha 90.000000
_cell_angle_beta 90.000000
_cell_angle_gamma 90.000000
_cell_volume 2940.538769
_symmetry_space_group_name_H-M "P B C A"
_symmetry_group_IT_number 61
_symmetry_cell_setting 'orthorhombic'
loop_
_space_group_symop_operation_xyz
x,y,z
1/2-x,-y,1/2+z
1/2+x,1/2-y,-z
-x,1/2+y,1/2-z
-x,-y,-z
1/2+x,y,1/2-z
1/2-x,1/2+y,z
x,1/2-y,1/2+z
loop_
_atom_site_type_symbol
_atom_site_label
_atom_site_fract_x
_atom_site_fract_y
_atom_site_fract_z
Si Si1 0.592699 0.871364 0.022798
Si Si2 0.887361 0.246303 0.811695
Si Si3 0.872728 0.672515 0.948546
Si Si4 0.501512 0.914488 0.336985
Si Si5 0.698013 0.241150 0.123394
Si Si6 0.616077 0.069881 0.743567
Si Si7 0.312383 0.404442 0.324649
Si Si8 0.987909 0.806743 0.944345
O O1 0.638710 0.842946 0.105642
O O2 0.530256 0.832824 0.064253
O O3 0.612449 0.781117 0.926788
O O4 0.591920 0.043464 0.000757
O O5 0.884102 0.393215 0.745137
O O6 0.832176 0.146830 0.783888
O O7 0.943196 0.151215 0.784503
O O8 0.852783 0.626188 0.841274
O O9 0.920307 0.794826 0.938142
O O10 0.816674 0.718050 0.008648
O O11 0.448267 0.870404 0.268537
O O12 0.500163 0.863252 0.447947
O O13 0.499089 0.090434 0.350814
O O14 0.650999 0.358163 0.156498
O O15 0.757272 0.318966 0.139178
O O16 0.696233 0.081274 0.175902
#
# Coordination Sequence:
#
# PCOD8248867 Si02
#       8
#     8   8   8   8   8   8   8   8
#     4   9  21  40  63  93 128 171 213 266 326 389
#     4  10  23  41  61  96 131 168 217 265 323 389
#     4  10  22  39  64  93 131 171 215 270 327 390
#     4  10  22  35  61  97 133 168 214 261 322 389
#     4  11  25  46  64  95 122 167 225 268 333 392
#     4  11  23  40  64  94 135 171 213 272 322 393
#     4  11  24  43  68  87 125 170 215 274 328 387
#     4  10  19  38  60  95 134 170 212 263 320 391
#
# _framework density 21.764718999999999
#
# number of rings (size 3 to 8) (size 9 to 14) (size 15 to 20)
#    0.000    1.750    1.250    1.875    5.250    1.000 
#    2.250    2.500    0.000    0.000    0.000    0.000 
#    0.000    0.000    0.000    0.000    0.000    0.000 
#
# Total GULP energy -793015.536447 kJ/mol
# GULP energy per Si atom -12390.867757 kJ/mol
# Density = 2.171518 g / cm^3
# Si number density = 21.764719 Si / 1000 Ang^3
#
#
#
# Elastic Constant Matrix: (Units=GPa)
#
#
# Indices 1 2 3 4 5 6 
#
# 1 81.2543 15.9484 7.3629 0.0000 0.0000 0.0000
# 2 15.9484 75.1930 20.5652 0.0000 0.0000 0.0000
# 3 7.3629 20.5652 54.5561 0.0000 0.0000 0.0000
# 4 0.0000 0.0000 0.0000 21.0494 0.0000 0.0000
# 5 0.0000 0.0000 0.0000 0.0000 25.9169 0.0000
# 6 0.0000 0.0000 0.0000 0.0000 0.0000 37.9779
#
#
#
# Elastic Compliance Matrix: (Units=1/GPa)
#
#
# Indices 1 2 3 4 5 6 
#
# 1 0.012872 -0.002514 -0.000789 0.000000 0.000000 0.000000
# 2 -0.002514 0.015319 -0.005435 0.000000 0.000000 0.000000
# 3 -0.000789 -0.005435 0.020485 0.000000 0.000000 0.000000
# 4 0.000000 0.000000 0.000000 0.047507 0.000000 0.000000
# 5 0.000000 0.000000 0.000000 0.000000 0.038585 0.000000
# 6 0.000000 0.000000 0.000000 0.000000 0.000000 0.026331
#
#
# Mechanical properties :
#
#
# Convention : Reuss Voigt Hill
#
# Bulk Modulus (GPa) = 32.05308 33.19518 32.62413
# Shear Modulus (GPa) = 26.45830 28.13064 27.29447
#
# Velocity S-wave (km/s) = 3.49040 3.59902 3.54513
# Velocity P-wave (km/s) = 5.56803 5.70574 5.63731
#
# Compressibility (1/GPa) = 0.03119825
#
# Stress axis : x y z
#
# Youngs Moduli (GPa) = 77.68757 65.27882 48.81589
#
# Poissons Ratio (x) = 0.16413 0.03854
# Poissons Ratio (y) = 0.19533 0.26533
# Poissons Ratio (z) = 0.06133 0.35480
#
# Static dielectric constant tensor:
#      x y z
#    x 3.852760 0.000000 0.000000 
#    y 0.000000 4.120180 0.000000 
#    z 0.000000 0.000000 3.908620 
# 
# 
# High freq. dielectric constant tensor:
#      x y z
#    x 1.844040 0.000000 0.000000 
#    y 0.000000 1.858830 0.000000 
#    z 0.000000 0.000000 1.855920 
# 
# From -- ./inp_files/8527.got.cif
#   From: 2010.03.12/outbox.cif.g09.slc.cpg/sg61_5_cif.got.tgz:8527.got - 2010.04.10 19:05:03.
