data_PCOD8248798
_publ_section_title
;
Structure prediction by ZEFSAII (Michael W. Deem and Ramdas Pophale) SiO2 
 PCOD8248798
Probable space group: P B C A
;
_chemical_formula_sum "Si O2"
_cell_formula_units_Z 56
_cell_length_a 5.141843
_cell_length_b 29.075781
_cell_length_c 16.854438
_cell_angle_alpha 90.000000
_cell_angle_beta 90.000000
_cell_angle_gamma 90.000000
_cell_volume 2519.790747
_symmetry_space_group_name_H-M "P B C A"
_symmetry_group_IT_number 61
_symmetry_cell_setting 'orthorhombic'
loop_
_space_group_symop_operation_xyz
x,y,z
1/2-x,-y,1/2+z
1/2+x,1/2-y,-z
-x,1/2+y,1/2-z
-x,-y,-z
1/2+x,y,1/2-z
1/2-x,1/2+y,z
x,1/2-y,1/2+z
loop_
_atom_site_type_symbol
_atom_site_label
_atom_site_fract_x
_atom_site_fract_y
_atom_site_fract_z
Si Si1 0.281883 0.844151 0.203476
Si Si2 0.227029 0.235502 0.203950
Si Si3 0.767337 0.909807 0.436810
Si Si4 0.773400 0.722406 0.474099
Si Si5 0.270333 0.881777 0.523808
Si Si6 0.242684 0.517605 0.699115
Si Si7 0.743203 0.910595 0.800801
O O1 0.547818 0.862416 0.241860
O O2 0.269401 0.789980 0.195959
O O3 0.255507 0.864108 0.116125
O O4 0.452459 0.217909 0.262668
O O5 0.283542 0.215113 0.118280
O O6 0.521552 0.909740 0.494979
O O7 0.767179 0.955219 0.383074
O O8 0.022622 0.908955 0.490771
O O9 0.549468 0.752473 0.515125
O O10 0.777654 0.670806 0.509673
O O11 0.264743 0.881329 0.619062
O O12 0.475662 0.531337 0.757877
O O13 0.250764 0.464221 0.676805
O O14 0.478002 0.897002 0.757013
#
# Coordination Sequence:
#
# PCOD8248798 Si02
#       7
#     8   8   8   8   8   8   8
#     4  10  19  33  54  81 115 153 192 240 296 352
#     4  10  21  36  57  82 107 145 198 251 297 350
#     4  12  23  38  60  93 130 159 205 248 301 381
#     4  12  25  43  63  86 124 165 207 258 318 375
#     4  12  26  40  63  93 121 165 206 258 320 358
#     4  10  21  40  66  95 128 169 203 241 302 366
#     4  10  23  44  67  92 125 162 209 258 304 366
#
# _framework density 22.224066000000001
#
# number of rings (size 3 to 8) (size 9 to 14) (size 15 to 20)
#    0.000    1.143    0.000    6.857    0.000    4.571 
#    0.000    0.000    0.000    0.000    0.000    0.000 
#    0.000    0.000    0.000    0.000    0.000    0.000 
#
# Total GULP energy -694755.095841 kJ/mol
# GULP energy per Si atom -12406.340997 kJ/mol
# Density = 2.217348 g / cm^3
# Si number density = 22.224066 Si / 1000 Ang^3
#
#
#
# Elastic Constant Matrix: (Units=GPa)
#
#
# Indices 1 2 3 4 5 6 
#
# 1 -254.6858 26.1964 -151.6950 0.0000 0.0000 0.0000
# 2 26.1964 75.5495 16.3104 0.0000 0.0000 0.0000
# 3 -151.6950 16.3104 20.5827 0.0000 0.0000 0.0000
# 4 0.0000 0.0000 0.0000 37.1169 0.0000 0.0000
# 5 0.0000 0.0000 0.0000 0.0000 43.5208 0.0000
# 6 0.0000 0.0000 0.0000 0.0000 0.0000 5.0759
#
#
#
# Elastic Compliance Matrix: (Units=1/GPa)
#
#
# Indices 1 2 3 4 5 6 
#
# 1 -0.000583 0.001363 -0.005378 0.000000 0.000000 0.000000
# 2 0.001363 0.012781 -0.000082 0.000000 0.000000 0.000000
# 3 -0.005378 -0.000082 0.009015 0.000000 0.000000 0.000000
# 4 0.000000 0.000000 0.000000 0.026942 0.000000 0.000000
# 5 0.000000 0.000000 0.000000 0.000000 0.022977 0.000000
# 6 0.000000 0.000000 0.000000 0.000000 0.000000 0.197011
#
#
# Mechanical properties :
#
#
# Convention : Reuss Voigt Hill
#
# Bulk Modulus (GPa) = 76.79988 -41.88111 17.45938
# Shear Modulus (GPa) = 17.81416 13.85169 15.83292
#
# Velocity S-wave (km/s) = 2.83427 2.49925 2.67202
# Velocity P-wave (km/s) = 6.73371 3.24923 4.17046
#
# Compressibility (1/GPa) = 0.01302085
#
# Stress axis : x y z
#
# Youngs Moduli (GPa) = -1714.95265 78.23950 110.92829
#
# Poissons Ratio (x) = -0.10666 0.59655
# Poissons Ratio (y) = 2.33782 0.00904
# Poissons Ratio (z) = -9.22261 0.00638
#
# Static dielectric constant tensor:
#      x y z
#    x 4.335000 0.000000 0.000000 
#    y 0.000000 3.965560 0.000000 
#    z 0.000000 0.000000 3.888330 
# 
# 
# High freq. dielectric constant tensor:
#      x y z
#    x 1.891680 0.000000 0.000000 
#    y 0.000000 1.873890 0.000000 
#    z 0.000000 0.000000 1.876510 
# 
# From -- ./inp_files/6868.got.cif
#   From: 2010.03.12/outbox.cif.g09.slc.cpg/sg61_4_cif.got.tgz:6868.got - 2010.04.10 19:05:03.
