data_PCOD8248346
_publ_section_title
;
Structure prediction by ZEFSAII (Michael W. Deem and Ramdas Pophale) SiO2 
 PCOD8248346
Probable space group: P B C N
;
_chemical_formula_sum "Si O2"
_cell_formula_units_Z 48
_cell_length_a 11.762223
_cell_length_b 11.300261
_cell_length_c 17.207887
_cell_angle_alpha 90.000000
_cell_angle_beta 90.000000
_cell_angle_gamma 90.000000
_cell_volume 2287.206775
_symmetry_space_group_name_H-M "P B C N"
_symmetry_group_IT_number 60
_symmetry_cell_setting 'orthorhombic'
loop_
_space_group_symop_operation_xyz
x,y,z
1/2-x,1/2-y,1/2+z
1/2+x,1/2-y,-z
-x,y,1/2-z
-x,-y,-z
1/2+x,1/2+y,1/2-z
1/2-x,1/2+y,z
x,-y,1/2+z
loop_
_atom_site_type_symbol
_atom_site_label
_atom_site_fract_x
_atom_site_fract_y
_atom_site_fract_z
Si Si1 0.105721 0.602466 0.202408
Si Si2 0.424322 0.279603 0.908378
Si Si3 0.264283 0.717560 0.800092
Si Si4 0.615376 0.303620 0.414141
Si Si5 0.351189 0.855614 0.147635
Si Si6 0.458518 0.525870 0.832959
O O1 0.193692 0.655152 0.266447
O O2 0.066697 0.706450 0.145105
O O3 0.148777 0.498511 0.145563
O O4 0.000000 0.551160 0.250000
O O5 0.305753 0.224413 0.879772
O O6 0.532233 0.207518 0.876532
O O7 0.415030 0.414594 0.880902
O O8 0.427681 0.272102 0.000814
O O9 0.175822 0.670641 0.736861
O O10 0.365437 0.626872 0.817308
O O11 0.752490 0.309725 0.410209
O O12 0.563181 0.426198 0.384044
O O13 0.500000 0.478115 0.750000
#
# Coordination Sequence:
#
# PCOD8248346 Si02
#       6
#     8   8   8   8   8   8
#     4  11  21  43  71  93 135 177 236 279 336 410
#     4  12  28  41  70 103 142 171 229 284 343 409
#     4  11  22  43  69 103 129 179 232 280 333 399
#     4  11  26  43  65 101 137 186 215 287 345 402
#     4  11  25  42  68 101 133 180 232 280 334 397
#     4  12  22  47  71  95 132 183 230 269 340 407
#
# _framework density 20.986294999999998
#
# number of rings (size 3 to 8) (size 9 to 14) (size 15 to 20)
#    0.000    0.667    5.000    4.000    7.000    2.000 
#    0.000    0.000    0.000    0.000    0.000    0.000 
#    0.000    0.000    0.000    0.000    0.000    0.000 
#
# Total GULP energy -595123.533567 kJ/mol
# GULP energy per Si atom -12398.406949 kJ/mol
# Density = 2.093853 g / cm^3
# Si number density = 20.986295 Si / 1000 Ang^3
#
#
#
# Elastic Constant Matrix: (Units=GPa)
#
#
# Indices 1 2 3 4 5 6 
#
# 1 92.1752 37.6285 50.4542 0.0000 0.0000 0.0000
# 2 37.6285 89.8601 7.5849 0.0000 0.0000 0.0000
# 3 50.4542 7.5849 99.5170 0.0000 0.0000 0.0000
# 4 0.0000 0.0000 0.0000 0.7656 0.0000 0.0000
# 5 0.0000 0.0000 0.0000 0.0000 26.4057 0.0000
# 6 0.0000 0.0000 0.0000 0.0000 0.0000 22.3809
#
#
#
# Elastic Compliance Matrix: (Units=1/GPa)
#
#
# Indices 1 2 3 4 5 6 
#
# 1 0.018583 -0.007032 -0.008886 0.000000 0.000000 0.000000
# 2 -0.007032 0.013861 0.002508 0.000000 0.000000 0.000000
# 3 -0.008886 0.002508 0.014362 0.000000 0.000000 0.000000
# 4 0.000000 0.000000 0.000000 1.306122 0.000000 0.000000
# 5 0.000000 0.000000 0.000000 0.000000 0.037871 0.000000
# 6 0.000000 0.000000 0.000000 0.000000 0.000000 0.044681
#
#
# Mechanical properties :
#
#
# Convention : Reuss Voigt Hill
#
# Bulk Modulus (GPa) = 50.02703 52.54306 51.28504
# Shear Modulus (GPa) = 3.40377 22.30275 12.85326
#
# Velocity S-wave (km/s) = 1.27492 3.26349 2.47748
# Velocity P-wave (km/s) = 5.10460 6.26831 5.71614
#
# Compressibility (1/GPa) = 0.01998920
#
# Stress axis : x y z
#
# Youngs Moduli (GPa) = 53.81243 72.14430 69.62715
#
# Poissons Ratio (x) = 0.50729 0.61867
# Poissons Ratio (y) = 0.37839 -0.17466
# Poissons Ratio (z) = 0.47815 -0.18097
#
# Static dielectric constant tensor:
#      x y z
#    x 3.826400 0.000000 0.000000 
#    y 0.000000 3.850980 0.000000 
#    z 0.000000 0.000000 3.752700 
# 
# 
# High freq. dielectric constant tensor:
#      x y z
#    x 1.831400 0.000000 0.000000 
#    y 0.000000 1.828620 0.000000 
#    z 0.000000 0.000000 1.814490 
# 
# From -- ./inp_files/20010.got.cif
#   From: 2010.03.12/outbox.cif.g09.slc.cpg/sg60_11_cif.got.tgz:20010.got - 2010.04.10 18:46:24.
