data_PCOD8248299
_publ_section_title
;
Structure prediction by ZEFSAII (Michael W. Deem and Ramdas Pophale) SiO2 
 PCOD8248299
Probable space group: P B C N
;
_chemical_formula_sum "Si O2"
_cell_formula_units_Z 64
_cell_length_a 27.376612
_cell_length_b 12.147291
_cell_length_c 8.819857
_cell_angle_alpha 90.000000
_cell_angle_beta 90.000000
_cell_angle_gamma 90.000000
_cell_volume 2933.058197
_symmetry_space_group_name_H-M "P B C N"
_symmetry_group_IT_number 60
_symmetry_cell_setting 'orthorhombic'
loop_
_space_group_symop_operation_xyz
x,y,z
1/2-x,1/2-y,1/2+z
1/2+x,1/2-y,-z
-x,y,1/2-z
-x,-y,-z
1/2+x,1/2+y,1/2-z
1/2-x,1/2+y,z
x,-y,1/2+z
loop_
_atom_site_type_symbol
_atom_site_label
_atom_site_fract_x
_atom_site_fract_y
_atom_site_fract_z
Si Si1 0.901048 0.746871 0.043571
Si Si2 0.054184 0.314904 0.268670
Si Si3 0.661218 0.955820 0.992549
Si Si4 0.558574 0.440245 0.234468
Si Si5 0.094424 0.542509 0.269089
Si Si6 0.298890 0.735374 0.395004
Si Si7 0.400297 0.362860 0.945631
Si Si8 0.700562 0.816031 0.444607
O O1 0.923151 0.861294 0.099448
O O2 0.925345 0.651495 0.147511
O O3 0.913311 0.725543 0.870102
O O4 0.842004 0.741476 0.047325
O O5 0.053431 0.447521 0.277166
O O6 0.077725 0.259684 0.418343
O O7 0.000000 0.270260 0.250000
O O8 0.693570 0.847558 0.010531
O O9 0.644052 0.996375 0.156500
O O10 0.611082 0.928998 0.900961
O O11 0.690622 0.055053 0.913120
O O12 0.500000 0.437568 0.250000
O O13 0.584276 0.405935 0.390106
O O14 0.577123 0.560580 0.186777
O O15 0.341729 0.646884 0.431630
O O16 0.248962 0.685875 0.455369
O O17 0.294563 0.754217 0.215375
#
# Coordination Sequence:
#
# PCOD8248299 Si02
#       8
#     8   8   8   8   8   8   8   8
#     4  11  24  45  67  99 144 179 232 289 348 426
#     4  12  23  42  70  98 135 181 231 285 345 419
#     4  11  20  45  65  93 136 177 213 275 355 398
#     4  12  27  46  73 103 143 192 240 297 361 424
#     4  11  21  40  69  94 135 182 213 280 348 404
#     4  12  26  45  74 102 138 183 238 284 355 425
#     4  12  25  48  70 100 140 186 236 295 357 422
#     4  11  26  43  70 102 133 186 226 293 348 416
#
# _framework density 21.820229999999999
#
# number of rings (size 3 to 8) (size 9 to 14) (size 15 to 20)
#    0.000    0.500    6.250    3.000    5.250    2.000 
#    0.000    0.000    0.000    0.000    0.000    0.000 
#    0.000    0.000    0.000    0.000    0.000    0.000 
#
# Total GULP energy -793639.649922 kJ/mol
# GULP energy per Si atom -12400.619530 kJ/mol
# Density = 2.177057 g / cm^3
# Si number density = 21.820230 Si / 1000 Ang^3
#
#
#
# Elastic Constant Matrix: (Units=GPa)
#
#
# Indices 1 2 3 4 5 6 
#
# 1 138.9277 27.1473 28.9493 0.0000 0.0000 0.0000
# 2 27.1473 80.5588 24.6055 0.0000 0.0000 0.0000
# 3 28.9493 24.6055 86.8411 0.0000 0.0000 0.0000
# 4 0.0000 0.0000 0.0000 37.0024 0.0000 0.0000
# 5 0.0000 0.0000 0.0000 0.0000 29.9495 0.0000
# 6 0.0000 0.0000 0.0000 0.0000 0.0000 24.7165
#
#
#
# Elastic Compliance Matrix: (Units=1/GPa)
#
#
# Indices 1 2 3 4 5 6 
#
# 1 0.008039 -0.002070 -0.002093 0.000000 0.000000 0.000000
# 2 -0.002070 0.014122 -0.003311 0.000000 0.000000 0.000000
# 3 -0.002093 -0.003311 0.013151 0.000000 0.000000 0.000000
# 4 0.000000 0.000000 0.000000 0.027025 0.000000 0.000000
# 5 0.000000 0.000000 0.000000 0.000000 0.033389 0.000000
# 6 0.000000 0.000000 0.000000 0.000000 0.000000 0.040459
#
#
# Mechanical properties :
#
#
# Convention : Reuss Voigt Hill
#
# Bulk Modulus (GPa) = 49.10763 51.97019 50.53891
# Shear Modulus (GPa) = 31.66116 33.37539 32.51828
#
# Velocity S-wave (km/s) = 3.81333 3.91520 3.86460
# Velocity P-wave (km/s) = 6.47635 6.65639 6.56699
#
# Compressibility (1/GPa) = 0.02036344
#
# Stress axis : x y z
#
# Youngs Moduli (GPa) = 124.39992 70.81079 76.03749
#
# Poissons Ratio (x) = 0.14654 0.15917
# Poissons Ratio (y) = 0.25745 0.25180
# Poissons Ratio (z) = 0.26041 0.23449
#
# Static dielectric constant tensor:
#      x y z
#    x 3.822180 0.000000 0.000000 
#    y 0.000000 4.130350 0.000000 
#    z 0.000000 0.000000 3.932820 
# 
# 
# High freq. dielectric constant tensor:
#      x y z
#    x 1.845830 0.000000 0.000000 
#    y 0.000000 1.862430 0.000000 
#    z 0.000000 0.000000 1.871560 
# 
# From -- ./inp_files/8508.got.cif
#   From: 2010.03.12/outbox.cif.g09.slc.cpg/sg60_5_cif.got.tgz:8508.got - 2010.04.10 18:46:24.
