data_PCOD8248108
_publ_section_title
;
Structure prediction by ZEFSAII (Michael W. Deem and Ramdas Pophale) SiO2 
 PCOD8248108
Probable space group: P B C N
;
_chemical_formula_sum "Si O2"
_cell_formula_units_Z 48
_cell_length_a 11.520459
_cell_length_b 13.612191
_cell_length_c 14.947901
_cell_angle_alpha 90.000000
_cell_angle_beta 90.000000
_cell_angle_gamma 90.000000
_cell_volume 2344.110228
_symmetry_space_group_name_H-M "P B C N"
_symmetry_group_IT_number 60
_symmetry_cell_setting 'orthorhombic'
loop_
_space_group_symop_operation_xyz
x,y,z
1/2-x,1/2-y,1/2+z
1/2+x,1/2-y,-z
-x,y,1/2-z
-x,-y,-z
1/2+x,1/2+y,1/2-z
1/2-x,1/2+y,z
x,-y,1/2+z
loop_
_atom_site_type_symbol
_atom_site_label
_atom_site_fract_x
_atom_site_fract_y
_atom_site_fract_z
Si Si1 0.369567 0.212425 0.235159
Si Si2 0.892361 0.532042 0.387423
Si Si3 0.768280 0.867033 0.603221
Si Si4 0.705604 0.825352 0.400859
Si Si5 0.031800 0.745802 0.851703
Si Si6 0.361072 0.946885 0.416491
O O1 0.500000 0.253811 0.250000
O O2 0.372923 0.103707 0.194561
O O3 0.306065 0.202689 0.330353
O O4 0.301583 0.282237 0.165966
O O5 0.828669 0.431340 0.361287
O O6 0.841185 0.577970 0.478829
O O7 0.028791 0.517600 0.402840
O O8 0.748089 0.833081 0.501850
O O9 0.904031 0.846946 0.622630
O O10 0.745117 0.983880 0.617101
O O11 0.587171 0.761453 0.407237
O O12 0.122609 0.655431 0.865636
O O13 0.000000 0.747436 0.750000
#
# Coordination Sequence:
#
# PCOD8248108 Si02
#       6
#     8   8   8   8   8   8
#     4  12  23  37  65  97 123 168 216 270 309 381
#     4   9  19  37  61  88 121 159 208 259 306 369
#     4  11  23  37  63  95 123 168 214 260 321 377
#     4  10  24  41  62  94 132 167 210 264 325 379
#     4  11  22  39  63  93 124 169 209 266 318 375
#     4   9  19  36  61  90 118 161 206 259 311 367
#
# _framework density 20.476851
#
# number of rings (size 3 to 8) (size 9 to 14) (size 15 to 20)
#    0.000    1.667    3.333    2.000    7.000    0.000 
#    0.000    0.000    7.333    3.000    0.000    0.000 
#    0.000    0.000    0.000    0.000    0.000    0.000 
#
# Total GULP energy -595047.028997 kJ/mol
# GULP energy per Si atom -12396.813104 kJ/mol
# Density = 2.043025 g / cm^3
# Si number density = 20.476851 Si / 1000 Ang^3
#
#
#
# Elastic Constant Matrix: (Units=GPa)
#
#
# Indices 1 2 3 4 5 6 
#
# 1 109.4922 51.8827 36.5100 0.0000 0.0000 0.0000
# 2 51.8827 68.1422 34.8208 0.0000 0.0000 0.0000
# 3 36.5100 34.8208 100.1662 0.0000 0.0000 0.0000
# 4 0.0000 0.0000 0.0000 37.3443 0.0000 0.0000
# 5 0.0000 0.0000 0.0000 0.0000 16.8113 0.0000
# 6 0.0000 0.0000 0.0000 0.0000 0.0000 40.7628
#
#
#
# Elastic Compliance Matrix: (Units=1/GPa)
#
#
# Indices 1 2 3 4 5 6 
#
# 1 0.014540 -0.010169 -0.001765 0.000000 0.000000 0.000000
# 2 -0.010169 0.024957 -0.004969 0.000000 0.000000 0.000000
# 3 -0.001765 -0.004969 0.012354 0.000000 0.000000 0.000000
# 4 0.000000 0.000000 0.000000 0.026778 0.000000 0.000000
# 5 0.000000 0.000000 0.000000 0.000000 0.059484 0.000000
# 6 0.000000 0.000000 0.000000 0.000000 0.000000 0.024532
#
#
# Mechanical properties :
#
#
# Convention : Reuss Voigt Hill
#
# Bulk Modulus (GPa) = 55.41605 58.24751 56.83178
# Shear Modulus (GPa) = 24.69554 29.28949 26.99252
#
# Velocity S-wave (km/s) = 3.47655 3.78613 3.63464
# Velocity P-wave (km/s) = 6.57546 6.90075 6.74007
#
# Compressibility (1/GPa) = 0.01804531
#
# Stress axis : x y z
#
# Youngs Moduli (GPa) = 68.77584 40.06904 80.94449
#
# Poissons Ratio (x) = 0.40745 0.14285
# Poissons Ratio (y) = 0.69937 0.40224
# Poissons Ratio (z) = 0.12137 0.19912
#
# Static dielectric constant tensor:
#      x y z
#    x 4.745930 0.000000 0.000000 
#    y 0.000000 3.600090 0.000000 
#    z 0.000000 0.000000 3.830140 
# 
# 
# High freq. dielectric constant tensor:
#      x y z
#    x 1.785300 0.000000 0.000000 
#    y 0.000000 1.780330 0.000000 
#    z 0.000000 0.000000 1.819050 
# 
# From -- ./inp_files/16084.got.cif
#   From: 2010.03.12/outbox.cif.g09.slc.cpg/sg60_9_cif.got.tgz:16084.got - 2010.04.10 18:46:24.
