data_PCOD8248491
_publ_section_title
;
Structure prediction by ZEFSAII (Michael W. Deem and Ramdas Pophale) SiO2 
 PCOD8248491
Probable space group: P B C N
;
_chemical_formula_sum "Si O2"
_cell_formula_units_Z 56
_cell_length_a 14.856509
_cell_length_b 10.583442
_cell_length_c 14.958245
_cell_angle_alpha 90.000000
_cell_angle_beta 90.000000
_cell_angle_gamma 90.000000
_cell_volume 2351.929756
_symmetry_space_group_name_H-M "P B C N"
_symmetry_group_IT_number 60
_symmetry_cell_setting 'orthorhombic'
loop_
_space_group_symop_operation_xyz
x,y,z
1/2-x,1/2-y,1/2+z
1/2+x,1/2-y,-z
-x,y,1/2-z
-x,-y,-z
1/2+x,1/2+y,1/2-z
1/2-x,1/2+y,z
x,-y,1/2+z
loop_
_atom_site_type_symbol
_atom_site_label
_atom_site_fract_x
_atom_site_fract_y
_atom_site_fract_z
Si Si1 0.075233 0.830531 0.686756
Si Si2 0.004304 0.525117 0.848085
Si Si3 0.184750 0.415478 0.147973
Si Si4 0.275889 0.616647 0.468600
Si Si5 0.466032 0.733998 0.465579
Si Si6 0.677670 0.540326 0.703457
Si Si7 0.102467 0.724447 0.383465
O O1 0.150363 0.729485 0.656212
O O2 0.000000 0.766719 0.750000
O O3 0.018603 0.867765 0.597401
O O4 0.116029 0.949026 0.737738
O O5 0.899775 0.490979 0.871255
O O6 0.000000 0.587662 0.750000
O O7 0.035532 0.626108 0.922023
O O8 0.071622 0.407646 0.841002
O O9 0.230016 0.443831 0.242885
O O10 0.253724 0.439934 0.066354
O O11 0.363205 0.701457 0.481425
O O12 0.296505 0.510343 0.394652
O O13 0.192779 0.704834 0.440630
O O14 0.518732 0.729572 0.558259
O O15 0.624385 0.672698 0.693105
#
# Coordination Sequence:
#
# PCOD8248491 Si02
#       7
#     8   8   8   8   8   8   8
#     4  11  23  50  74 103 152 207 251 310 400 456
#     4  11  25  49  80 106 151 206 260 319 382 458
#     4  11  26  49  78 113 152 207 260 321 379 470
#     4  12  27  46  78 113 155 204 256 321 387 462
#     4  11  25  48  78 108 154 205 257 313 392 467
#     4  12  29  45  76 115 160 194 261 325 388 465
#     4  12  28  48  75 116 152 197 264 323 379 465
#
# _framework density 23.810234999999999
#
# number of rings (size 3 to 8) (size 9 to 14) (size 15 to 20)
#    0.000    0.571    4.286    3.857    6.000    4.571 
#    0.000    0.000    0.000    0.000    0.000    0.000 
#    0.000    0.000    0.000    0.000    0.000    0.000 
#
# Total GULP energy -694047.753510 kJ/mol
# GULP energy per Si atom -12393.709884 kJ/mol
# Density = 2.375604 g / cm^3
# Si number density = 23.810235 Si / 1000 Ang^3
#
#
#
# Elastic Constant Matrix: (Units=GPa)
#
#
# Indices 1 2 3 4 5 6 
#
# 1 173.6911 54.5231 46.2856 0.0000 0.0000 0.0000
# 2 54.5231 84.1246 18.7353 0.0000 0.0000 0.0000
# 3 46.2856 18.7353 89.0248 0.0000 0.0000 0.0000
# 4 0.0000 0.0000 0.0000 60.1439 0.0000 0.0000
# 5 0.0000 0.0000 0.0000 0.0000 56.5762 0.0000
# 6 0.0000 0.0000 0.0000 0.0000 0.0000 -288.7018
#
#
#
# Elastic Compliance Matrix: (Units=1/GPa)
#
#
# Indices 1 2 3 4 5 6 
#
# 1 0.008025 -0.004482 -0.003229 0.000000 0.000000 0.000000
# 2 -0.004482 0.014975 -0.000821 0.000000 0.000000 0.000000
# 3 -0.003229 -0.000821 0.013084 0.000000 0.000000 0.000000
# 4 0.000000 0.000000 0.000000 0.016627 0.000000 0.000000
# 5 0.000000 0.000000 0.000000 0.000000 0.017675 0.000000
# 6 0.000000 0.000000 0.000000 0.000000 0.000000 -0.003464
#
#
# Mechanical properties :
#
#
# Convention : Reuss Voigt Hill
#
# Bulk Modulus (GPa) = 52.57680 65.10318 58.83999
# Shear Modulus (GPa) = 55.35474 -19.24326 18.05574
#
# Velocity S-wave (km/s) = 4.82688 -2.84596 2.75675
# Velocity P-wave (km/s) = 7.29346 4.07463 5.90750
#
# Compressibility (1/GPa) = 0.01901980
#
# Stress axis : x y z
#
# Youngs Moduli (GPa) = 124.61504 66.77865 76.42647
#
# Poissons Ratio (x) = 0.29929 0.24678
# Poissons Ratio (y) = 0.55851 0.06277
# Poissons Ratio (z) = 0.40238 0.05484
#
# Static dielectric constant tensor:
#      x y z
#    x 4.757860 0.000000 0.000000 
#    y 0.000000 3.969120 0.000000 
#    z 0.000000 0.000000 4.457200 
# 
# 
# High freq. dielectric constant tensor:
#      x y z
#    x 1.963660 0.000000 0.000000 
#    y 0.000000 1.923220 0.000000 
#    z 0.000000 0.000000 1.953640 
# 
# From -- ./inp_files/16844.got.cif
#   From: 2010.03.12/outbox.cif.g09.slc.cpg/sg60_9_cif.got.tgz:16844.got - 2010.04.10 18:46:24.
