data_PCOD8248030
_publ_section_title
;
Structure prediction by ZEFSAII (Michael W. Deem and Ramdas Pophale) SiO2 
 PCOD8248030
Probable space group: P B C N
;
_chemical_formula_sum "Si O2"
_cell_formula_units_Z 60
_cell_length_a 26.510271
_cell_length_b 10.845711
_cell_length_c 9.355885
_cell_angle_alpha 90.000000
_cell_angle_beta 90.000000
_cell_angle_gamma 90.000000
_cell_volume 2690.029670
_symmetry_space_group_name_H-M "P B C N"
_symmetry_group_IT_number 60
_symmetry_cell_setting 'orthorhombic'
loop_
_space_group_symop_operation_xyz
x,y,z
1/2-x,1/2-y,1/2+z
1/2+x,1/2-y,-z
-x,y,1/2-z
-x,-y,-z
1/2+x,1/2+y,1/2-z
1/2-x,1/2+y,z
x,-y,1/2+z
loop_
_atom_site_type_symbol
_atom_site_label
_atom_site_fract_x
_atom_site_fract_y
_atom_site_fract_z
Si Si1 0.091222 0.064816 0.112654
Si Si2 0.500000 0.681864 0.250000
Si Si3 0.149942 0.742776 0.430860
Si Si4 0.918796 0.346638 0.099200
Si Si5 0.862031 0.889477 0.600765
Si Si6 0.792243 0.477762 0.419560
Si Si7 0.108768 0.426832 0.705585
Si Si8 0.774449 0.053202 0.655106
O O1 0.119299 0.039519 0.259614
O O2 0.032722 0.093806 0.145923
O O3 0.115263 0.184649 0.040548
O O4 0.101394 0.940861 0.024145
O O5 0.466793 0.765791 0.355945
O O6 0.181321 0.644008 0.520853
O O7 0.110541 0.685765 0.316919
O O8 0.189722 0.829175 0.351355
O O9 0.869102 0.258319 0.105660
O O10 0.913952 0.454801 0.214581
O O11 0.924323 0.399091 0.937113
O O12 0.803317 0.929158 0.596498
O O13 0.833112 0.555709 0.334361
O O14 0.744584 0.452724 0.317204
O O15 0.773437 0.563400 0.550023
#
# Coordination Sequence:
#
# PCOD8248030 Si02
#       8
#     8   4   8   8   8   8   8   8
#     4  10  23  44  72 100 137 172 220 283 350 409
#     4  10  24  48  76 108 130 170 228 288 340 424
#     4  11  25  42  65  92 144 176 227 282 339 396
#     4  11  26  45  74  94 138 179 222 285 348 411
#     4  10  23  44  68 102 140 177 218 281 347 401
#     4  12  23  41  60  98 131 181 227 283 317 394
#     4  12  25  46  64  97 136 186 224 276 353 394
#     4  11  25  38  66  98 130 181 235 270 328 402
#
# _framework density 22.304586
#
# number of rings (size 3 to 8) (size 9 to 14) (size 15 to 20)
#    0.000    1.067    2.667    3.200    7.467    4.800 
#    0.000    0.000    0.000    0.000    0.000    0.000 
#    0.000    0.000    0.000    0.000    0.000    0.000 
#
# Total GULP energy -743913.365778 kJ/mol
# GULP energy per Si atom -12398.556096 kJ/mol
# Density = 2.225382 g / cm^3
# Si number density = 22.304586 Si / 1000 Ang^3
#
#
#
# Elastic Constant Matrix: (Units=GPa)
#
#
# Indices 1 2 3 4 5 6 
#
# 1 64.5380 -10.2843 11.4840 0.0000 0.0000 0.0000
# 2 -10.2843 34.2934 7.2566 0.0000 0.0000 0.0000
# 3 11.4840 7.2566 119.2203 0.0000 0.0000 0.0000
# 4 0.0000 0.0000 0.0000 40.6399 0.0000 0.0000
# 5 0.0000 0.0000 0.0000 0.0000 33.0864 0.0000
# 6 0.0000 0.0000 0.0000 0.0000 0.0000 21.4215
#
#
#
# Elastic Compliance Matrix: (Units=1/GPa)
#
#
# Indices 1 2 3 4 5 6 
#
# 1 0.016703 0.005419 -0.001939 0.000000 0.000000 0.000000
# 2 0.005419 0.031299 -0.002427 0.000000 0.000000 0.000000
# 3 -0.001939 -0.002427 0.008722 0.000000 0.000000 0.000000
# 4 0.000000 0.000000 0.000000 0.024606 0.000000 0.000000
# 5 0.000000 0.000000 0.000000 0.000000 0.030224 0.000000
# 6 0.000000 0.000000 0.000000 0.000000 0.000000 0.046682
#
#
# Mechanical properties :
#
#
# Convention : Reuss Voigt Hill
#
# Bulk Modulus (GPa) = 16.99765 26.10714 21.55240
# Shear Modulus (GPa) = 28.45104 33.00258 30.72681
#
# Velocity S-wave (km/s) = 3.57539 3.85077 3.71563
# Velocity P-wave (km/s) = 4.96807 5.61262 5.30015
#
# Compressibility (1/GPa) = 0.05883166
#
# Stress axis : x y z
#
# Youngs Moduli (GPa) = 59.86824 31.94995 114.64831
#
# Poissons Ratio (x) = -0.17315 0.22228
# Poissons Ratio (y) = -0.32445 0.27826
# Poissons Ratio (z) = 0.11607 0.07755
#
# Static dielectric constant tensor:
#      x y z
#    x 3.951590 0.000000 0.000000 
#    y 0.000000 3.994900 0.000000 
#    z 0.000000 0.000000 4.315950 
# 
# 
# High freq. dielectric constant tensor:
#      x y z
#    x 1.864790 0.000000 0.000000 
#    y 0.000000 1.877070 0.000000 
#    z 0.000000 0.000000 1.901670 
# 
# From -- ./inp_files/8176.got.cif
#   From: 2010.03.12/outbox.cif.g09.slc.cpg/sg60_5_cif.got.tgz:8176.got - 2010.04.10 18:46:24.
