data_PCOD8248002
_publ_section_title
;
Structure prediction by ZEFSAII (Michael W. Deem and Ramdas Pophale) SiO2 
 PCOD8248002
Probable space group: P B C N
;
_chemical_formula_sum "Si O2"
_cell_formula_units_Z 40
_cell_length_a 8.243645
_cell_length_b 12.229876
_cell_length_c 18.085701
_cell_angle_alpha 90.000000
_cell_angle_beta 90.000000
_cell_angle_gamma 90.000000
_cell_volume 1823.377879
_symmetry_space_group_name_H-M "P B C N"
_symmetry_group_IT_number 60
_symmetry_cell_setting 'orthorhombic'
loop_
_space_group_symop_operation_xyz
x,y,z
1/2-x,1/2-y,1/2+z
1/2+x,1/2-y,-z
-x,y,1/2-z
-x,-y,-z
1/2+x,1/2+y,1/2-z
1/2-x,1/2+y,z
x,-y,1/2+z
loop_
_atom_site_type_symbol
_atom_site_label
_atom_site_fract_x
_atom_site_fract_y
_atom_site_fract_z
Si Si1 0.984933 0.501014 0.839059
Si Si2 0.188123 0.672961 0.915694
Si Si3 0.471981 0.642683 0.034053
Si Si4 0.648860 0.439725 0.402820
Si Si5 0.035064 0.261161 0.834015
O O1 0.827590 0.562242 0.870150
O O2 0.976866 0.376247 0.869320
O O3 0.000000 0.510808 0.750000
O O4 0.138014 0.558507 0.878342
O O5 0.275647 0.746202 0.852780
O O6 0.025032 0.737670 0.938908
O O7 0.310338 0.653690 0.983890
O O8 0.429732 0.562066 0.103135
O O9 0.626904 0.591841 0.989532
O O10 0.554550 0.347330 0.358965
O O11 0.000000 0.277658 0.750000
#
# Coordination Sequence:
#
# PCOD8248002 Si02
#       5
#     8   8   8   8   8
#     4  11  25  43  68  94 129 176 222 263 330 383
#     4  11  24  42  69  94 137 168 218 274 323 393
#     4  10  24  42  67 101 129 174 217 264 342 379
#     4  10  23  43  65  94 133 166 221 267 321 393
#     4  10  24  44  66  94 133 172 221 268 322 386
#
# _framework density 21.937308000000002
#
# number of rings (size 3 to 8) (size 9 to 14) (size 15 to 20)
#    0.000    1.600    0.000    2.400   16.800    0.800 
#    0.000    0.000    0.000    0.000    0.000    0.000 
#    0.000    0.000    0.000    0.000    0.000    0.000 
#
# Total GULP energy -495612.239522 kJ/mol
# GULP energy per Si atom -12390.305988 kJ/mol
# Density = 2.188738 g / cm^3
# Si number density = 21.937308 Si / 1000 Ang^3
#
#
#
# Elastic Constant Matrix: (Units=GPa)
#
#
# Indices 1 2 3 4 5 6 
#
# 1 112.0758 59.6473 52.1535 0.0000 0.0000 0.0000
# 2 59.6473 163.4473 51.1595 0.0000 0.0000 0.0000
# 3 52.1535 51.1595 62.0750 0.0000 0.0000 0.0000
# 4 0.0000 0.0000 0.0000 36.2979 0.0000 0.0000
# 5 0.0000 0.0000 0.0000 0.0000 35.7574 0.0000
# 6 0.0000 0.0000 0.0000 0.0000 0.0000 43.2221
#
#
#
# Elastic Compliance Matrix: (Units=1/GPa)
#
#
# Indices 1 2 3 4 5 6 
#
# 1 0.015159 -0.002083 -0.011019 0.000000 0.000000 0.000000
# 2 -0.002083 0.008531 -0.005281 0.000000 0.000000 0.000000
# 3 -0.011019 -0.005281 0.029720 0.000000 0.000000 0.000000
# 4 0.000000 0.000000 0.000000 0.027550 0.000000 0.000000
# 5 0.000000 0.000000 0.000000 0.000000 0.027966 0.000000
# 6 0.000000 0.000000 0.000000 0.000000 0.000000 0.023136
#
#
# Mechanical properties :
#
#
# Convention : Reuss Voigt Hill
#
# Bulk Modulus (GPa) = 60.08350 73.72430 66.90390
# Shear Modulus (GPa) = 28.67347 34.69799 31.68573
#
# Velocity S-wave (km/s) = 3.61926 3.98136 3.80462
# Velocity P-wave (km/s) = 6.70176 7.40370 7.06145
#
# Compressibility (1/GPa) = 0.01664350
#
# Stress axis : x y z
#
# Youngs Moduli (GPa) = 65.96837 117.21539 33.64722
#
# Poissons Ratio (x) = 0.24414 0.37077
# Poissons Ratio (y) = 0.13740 0.17770
# Poissons Ratio (z) = 0.72693 0.61904
#
# Static dielectric constant tensor:
#      x y z
#    x 3.946620 0.000000 0.000000 
#    y 0.000000 4.689000 0.000000 
#    z 0.000000 0.000000 4.094270 
# 
# 
# High freq. dielectric constant tensor:
#      x y z
#    x 1.858680 0.000000 0.000000 
#    y 0.000000 1.889790 0.000000 
#    z 0.000000 0.000000 1.842180 
# 
# From -- ./inp_files/18995.got.cif
#   From: 2010.03.12/outbox.cif.g09.slc.cpg/sg60_10_cif.got.tgz:18995.got - 2010.04.10 18:46:24.
