data_PCOD8248916
_publ_section_title
;
Structure prediction by ZEFSAII (Michael W. Deem and Ramdas Pophale) SiO2 
 PCOD8248916
Probable space group: P B C A
;
_chemical_formula_sum "Si O2"
_cell_formula_units_Z 48
_cell_length_a 16.749113
_cell_length_b 15.801986
_cell_length_c 9.719427
_cell_angle_alpha 90.000000
_cell_angle_beta 90.000000
_cell_angle_gamma 90.000000
_cell_volume 2572.433446
_symmetry_space_group_name_H-M "P B C A"
_symmetry_group_IT_number 61
_symmetry_cell_setting 'orthorhombic'
loop_
_space_group_symop_operation_xyz
x,y,z
1/2-x,-y,1/2+z
1/2+x,1/2-y,-z
-x,1/2+y,1/2-z
-x,-y,-z
1/2+x,y,1/2-z
1/2-x,1/2+y,z
x,1/2-y,1/2+z
loop_
_atom_site_type_symbol
_atom_site_label
_atom_site_fract_x
_atom_site_fract_y
_atom_site_fract_z
Si Si1 0.811844 0.998480 0.854214
Si Si2 0.814711 0.747518 0.684356
Si Si3 0.416638 0.203078 0.441881
Si Si4 0.399424 0.668180 0.070845
Si Si5 0.223485 0.590687 0.376582
Si Si6 0.852903 0.324689 0.266111
O O1 0.876305 0.927072 0.889341
O O2 0.740609 0.963209 0.759682
O O3 0.860245 0.073785 0.778111
O O4 0.767904 0.031795 0.990400
O O5 0.873823 0.766696 0.810483
O O6 0.858864 0.689628 0.573969
O O7 0.787769 0.834002 0.610058
O O8 0.739317 0.698025 0.744752
O O9 0.506429 0.171975 0.447744
O O10 0.365274 0.130024 0.365457
O O11 0.382723 0.219656 0.594005
O O12 0.407404 0.291318 0.359175
#
# Coordination Sequence:
#
# PCOD8248916 Si02
#       6
#     8   8   8   8   8   8
#     4  10  20  34  55  80 105 137 180 225 263 307
#     4  10  20  36  56  77 106 147 184 212 258 324
#     4  10  21  36  55  80 110 141 176 217 269 322
#     4  11  21  35  56  81 110 140 175 223 270 313
#     4   9  20  35  53  79 106 139 181 218 262 316
#     4  10  20  37  57  78 105 143 184 216 258 318
#
# _framework density 18.659375000000001
#
# number of rings (size 3 to 8) (size 9 to 14) (size 15 to 20)
#    0.000    2.000    0.000    5.000    0.000    5.333 
#    0.000    3.333    0.000    5.000    0.000    0.000 
#    0.000    0.000    0.000    0.000    0.000    0.000 
#
# Total GULP energy -595273.629613 kJ/mol
# GULP energy per Si atom -12401.533950 kJ/mol
# Density = 1.861691 g / cm^3
# Si number density = 18.659375 Si / 1000 Ang^3
#
#
#
# Elastic Constant Matrix: (Units=GPa)
#
#
# Indices 1 2 3 4 5 6 
#
# 1 126.8391 40.5062 70.6636 0.0000 0.0000 0.0000
# 2 40.5062 108.1474 65.4668 0.0000 0.0000 0.0000
# 3 70.6636 65.4668 117.6826 0.0000 0.0000 0.0000
# 4 0.0000 0.0000 0.0000 43.4205 0.0000 0.0000
# 5 0.0000 0.0000 0.0000 0.0000 27.2566 0.0000
# 6 0.0000 0.0000 0.0000 0.0000 0.0000 13.3276
#
#
#
# Elastic Compliance Matrix: (Units=1/GPa)
#
#
# Indices 1 2 3 4 5 6 
#
# 1 0.011850 -0.000198 -0.007005 0.000000 0.000000 0.000000
# 2 -0.000198 0.013945 -0.007639 0.000000 0.000000 0.000000
# 3 -0.007005 -0.007639 0.016953 0.000000 0.000000 0.000000
# 4 0.000000 0.000000 0.000000 0.023031 0.000000 0.000000
# 5 0.000000 0.000000 0.000000 0.000000 0.036688 0.000000
# 6 0.000000 0.000000 0.000000 0.000000 0.000000 0.075032
#
#
# Mechanical properties :
#
#
# Convention : Reuss Voigt Hill
#
# Bulk Modulus (GPa) = 76.54431 78.43803 77.49117
# Shear Modulus (GPa) = 23.63640 28.53644 26.08642
#
# Velocity S-wave (km/s) = 3.56298 3.91491 3.74308
# Velocity P-wave (km/s) = 7.61823 7.90971 7.76533
#
# Compressibility (1/GPa) = 0.01306433
#
# Stress axis : x y z
#
# Youngs Moduli (GPa) = 84.38860 71.71131 58.98516
#
# Poissons Ratio (x) = 0.01417 0.41322
# Poissons Ratio (y) = 0.01667 0.45058
# Poissons Ratio (z) = 0.59118 0.54779
#
# Static dielectric constant tensor:
#      x y z
#    x 3.245560 0.000000 0.000000 
#    y 0.000000 3.553000 0.000000 
#    z 0.000000 0.000000 3.590350 
# 
# 
# High freq. dielectric constant tensor:
#      x y z
#    x 1.709140 0.000000 0.000000 
#    y 0.000000 1.726830 0.000000 
#    z 0.000000 0.000000 1.737550 
# 
# From -- ./inp_files/3454.got.cif
#   From: 2010.03.12/outbox.cif.g09.slc.cpg/sg61_2_cif.got.tgz:3454.got - 2010.04.10 19:05:03.
