data_PCOD8248853
_publ_section_title
;
Structure prediction by ZEFSAII (Michael W. Deem and Ramdas Pophale) SiO2 
 PCOD8248853
Probable space group: P B C A
;
_chemical_formula_sum "Si O2"
_cell_formula_units_Z 56
_cell_length_a 18.837612
_cell_length_b 10.854330
_cell_length_c 12.994178
_cell_angle_alpha 90.000000
_cell_angle_beta 90.000000
_cell_angle_gamma 90.000000
_cell_volume 2656.915119
_symmetry_space_group_name_H-M "P B C A"
_symmetry_group_IT_number 61
_symmetry_cell_setting 'orthorhombic'
loop_
_space_group_symop_operation_xyz
x,y,z
1/2-x,-y,1/2+z
1/2+x,1/2-y,-z
-x,1/2+y,1/2-z
-x,-y,-z
1/2+x,y,1/2-z
1/2-x,1/2+y,z
x,1/2-y,1/2+z
loop_
_atom_site_type_symbol
_atom_site_label
_atom_site_fract_x
_atom_site_fract_y
_atom_site_fract_z
Si Si1 0.996996 0.184402 0.824399
Si Si2 0.693793 0.472619 0.298478
Si Si3 0.269903 0.817347 0.010463
Si Si4 0.826273 0.895115 0.863042
Si Si5 0.890111 0.392845 0.486277
Si Si6 0.351169 0.751548 0.323192
Si Si7 0.554071 0.573792 0.213839
O O1 0.940766 0.192489 0.916969
O O2 0.979497 0.294515 0.744333
O O3 0.074433 0.209202 0.874261
O O4 0.002407 0.047152 0.770420
O O5 0.694367 0.415082 0.413079
O O6 0.767345 0.544673 0.288236
O O7 0.695319 0.370893 0.207916
O O8 0.624613 0.557713 0.283923
O O9 0.284755 0.680111 0.049675
O O10 0.185808 0.829868 0.997406
O O11 0.306560 0.834047 0.899808
O O12 0.872198 0.814934 0.783949
O O13 0.880559 0.983303 0.920557
O O14 0.926986 0.421393 0.593567
#
# Coordination Sequence:
#
# PCOD8248853 Si02
#       7
#     8   8   8   8   8   8   8
#     4  11  24  41  62  92 125 166 214 258 312 383
#     4   9  20  36  59  87 119 156 208 260 309 378
#     4  10  21  37  60  90 121 159 208 266 320 371
#     4  10  19  37  59  88 121 160 213 264 311 376
#     4  11  23  39  65  91 123 169 212 258 316 383
#     4  10  21  37  59  85 122 164 205 260 322 374
#     4  11  23  43  64  89 127 170 209 260 319 375
#
# _framework density 21.077074
#
# number of rings (size 3 to 8) (size 9 to 14) (size 15 to 20)
#    0.000    1.714    0.000    4.714    0.000    6.857 
#    0.000    7.143    0.000    0.000    0.000    0.000 
#    0.000    0.000    0.000    0.000    0.000    0.000 
#
# Total GULP energy -694127.754440 kJ/mol
# GULP energy per Si atom -12395.138472 kJ/mol
# Density = 2.102910 g / cm^3
# Si number density = 21.077074 Si / 1000 Ang^3
#
#
#
# Elastic Constant Matrix: (Units=GPa)
#
#
# Indices 1 2 3 4 5 6 
#
# 1 87.2426 40.6126 48.9891 0.0000 0.0000 0.0000
# 2 40.6126 98.0068 41.1700 0.0000 0.0000 0.0000
# 3 48.9891 41.1700 95.2459 0.0000 0.0000 0.0000
# 4 0.0000 0.0000 0.0000 19.2119 0.0000 0.0000
# 5 0.0000 0.0000 0.0000 0.0000 34.6548 0.0000
# 6 0.0000 0.0000 0.0000 0.0000 0.0000 26.0318
#
#
#
# Elastic Compliance Matrix: (Units=1/GPa)
#
#
# Indices 1 2 3 4 5 6 
#
# 1 0.017441 -0.004226 -0.007144 0.000000 0.000000 0.000000
# 2 -0.004226 0.013491 -0.003658 0.000000 0.000000 0.000000
# 3 -0.007144 -0.003658 0.015755 0.000000 0.000000 0.000000
# 4 0.000000 0.000000 0.000000 0.052051 0.000000 0.000000
# 5 0.000000 0.000000 0.000000 0.000000 0.028856 0.000000
# 6 0.000000 0.000000 0.000000 0.000000 0.000000 0.038415
#
#
# Mechanical properties :
#
#
# Convention : Reuss Voigt Hill
#
# Bulk Modulus (GPa) = 60.12893 60.22654 60.17773
# Shear Modulus (GPa) = 24.80051 25.96127 25.38089
#
# Velocity S-wave (km/s) = 3.43397 3.51341 3.47391
# Velocity P-wave (km/s) = 6.65679 6.71529 6.68611
#
# Compressibility (1/GPa) = 0.01663093
#
# Stress axis : x y z
#
# Youngs Moduli (GPa) = 57.33529 74.12204 63.47332
#
# Poissons Ratio (x) = 0.31327 0.45345
# Poissons Ratio (y) = 0.24232 0.23217
# Poissons Ratio (z) = 0.40960 0.27112
#
# Static dielectric constant tensor:
#      x y z
#    x 3.846350 0.000000 0.000000 
#    y 0.000000 4.012640 0.000000 
#    z 0.000000 0.000000 3.626880 
# 
# 
# High freq. dielectric constant tensor:
#      x y z
#    x 1.830890 0.000000 0.000000 
#    y 0.000000 1.827790 0.000000 
#    z 0.000000 0.000000 1.820010 
# 
# From -- ./inp_files/6434.got.cif
#   From: 2010.03.12/outbox.cif.g09.slc.cpg/sg61_4_cif.got.tgz:6434.got - 2010.04.10 19:05:03.
