data_PCOD8248252
_publ_section_title
;
Structure prediction by ZEFSAII (Michael W. Deem and Ramdas Pophale) SiO2 
 PCOD8248252
Probable space group: P B C N
;
_chemical_formula_sum "Si O2"
_cell_formula_units_Z 36
_cell_length_a 7.702294
_cell_length_b 9.952962
_cell_length_c 19.099699
_cell_angle_alpha 90.000000
_cell_angle_beta 90.000000
_cell_angle_gamma 90.000000
_cell_volume 1464.195139
_symmetry_space_group_name_H-M "P B C N"
_symmetry_group_IT_number 60
_symmetry_cell_setting 'orthorhombic'
loop_
_space_group_symop_operation_xyz
x,y,z
1/2-x,1/2-y,1/2+z
1/2+x,1/2-y,-z
-x,y,1/2-z
-x,-y,-z
1/2+x,1/2+y,1/2-z
1/2-x,1/2+y,z
x,-y,1/2+z
loop_
_atom_site_type_symbol
_atom_site_label
_atom_site_fract_x
_atom_site_fract_y
_atom_site_fract_z
Si Si1 0.500000 0.216833 0.250000
Si Si2 0.344750 0.999978 0.066023
Si Si3 0.523064 0.402282 0.374665
Si Si4 0.196405 0.764595 0.478966
Si Si5 0.299907 0.077766 0.359476
O O1 0.582016 0.299737 0.314446
O O2 0.342476 0.129003 0.281491
O O3 0.512569 0.328809 0.049886
O O4 0.177132 0.010426 0.116716
O O5 0.318976 0.112853 0.005635
O O6 0.346419 0.847846 0.036550
O O7 0.342445 0.464527 0.349100
O O8 0.477568 0.023641 0.393971
O O9 0.280102 0.694406 0.409647
#
# Coordination Sequence:
#
# PCOD8248252 Si02
#       5
#     4   8   8   8   8
#     4  10  26  50  66 104 142 190 258 290 342 426
#     4  12  26  44  74 112 146 182 240 294 374 440
#     4  11  26  45  74 102 146 193 238 301 355 424
#     4  11  23  44  72 110 146 180 228 296 370 433
#     4  11  26  45  74 102 146 193 238 301 355 424
#
# _framework density 24.586887000000001
#
# number of rings (size 3 to 8) (size 9 to 14) (size 15 to 20)
#    0.000    0.889    2.222    4.000    9.333    1.778 
#    0.000    2.222    0.000    0.000    0.000    0.000 
#    0.000    0.000    0.000    0.000    0.000    0.000 
#
# Total GULP energy -446182.915299 kJ/mol
# GULP energy per Si atom -12393.969869 kJ/mol
# Density = 2.453093 g / cm^3
# Si number density = 24.586887 Si / 1000 Ang^3
#
#
#
# Elastic Constant Matrix: (Units=GPa)
#
#
# Indices 1 2 3 4 5 6 
#
# 1 143.7238 51.2147 57.0898 0.0000 0.0000 0.0000
# 2 51.2147 113.8018 33.4419 0.0000 0.0000 0.0000
# 3 57.0898 33.4419 111.7136 0.0000 0.0000 0.0000
# 4 0.0000 0.0000 0.0000 30.9766 0.0000 0.0000
# 5 0.0000 0.0000 0.0000 0.0000 24.3797 0.0000
# 6 0.0000 0.0000 0.0000 0.0000 0.0000 21.3144
#
#
#
# Elastic Compliance Matrix: (Units=1/GPa)
#
#
# Indices 1 2 3 4 5 6 
#
# 1 0.009678 -0.003182 -0.003993 0.000000 0.000000 0.000000
# 2 -0.003182 0.010681 -0.001571 0.000000 0.000000 0.000000
# 3 -0.003993 -0.001571 0.011463 0.000000 0.000000 0.000000
# 4 0.000000 0.000000 0.000000 0.032282 0.000000 0.000000
# 5 0.000000 0.000000 0.000000 0.000000 0.041018 0.000000
# 6 0.000000 0.000000 0.000000 0.000000 0.000000 0.046917
#
#
# Mechanical properties :
#
#
# Convention : Reuss Voigt Hill
#
# Bulk Modulus (GPa) = 69.79138 72.52579 71.15859
# Shear Modulus (GPa) = 28.68503 30.50033 29.59268
#
# Velocity S-wave (km/s) = 3.41938 3.52591 3.47305
# Velocity P-wave (km/s) = 6.63602 6.79249 6.71471
#
# Compressibility (1/GPa) = 0.01432842
#
# Stress axis : x y z
#
# Youngs Moduli (GPa) = 103.32924 93.62500 87.24085
#
# Poissons Ratio (x) = 0.29790 0.34837
# Poissons Ratio (y) = 0.32878 0.13708
# Poissons Ratio (z) = 0.41262 0.14711
#
# Static dielectric constant tensor:
#      x y z
#    x 4.491400 0.000000 0.000000 
#    y 0.000000 4.739270 0.000000 
#    z 0.000000 0.000000 4.493750 
# 
# 
# High freq. dielectric constant tensor:
#      x y z
#    x 1.976190 0.000000 0.000000 
#    y 0.000000 1.992660 0.000000 
#    z 0.000000 0.000000 1.965050 
# 
# From -- ./inp_files/21949.got.cif
#   From: 2010.03.12/outbox.cif.g09.slc.cpg/sg60_11_cif.got.tgz:21949.got - 2010.04.10 18:46:24.
