data_PCOD8248156
_publ_section_title
;
Structure prediction by ZEFSAII (Michael W. Deem and Ramdas Pophale) SiO2 
 PCOD8248156
Probable space group: P B C N
;
_chemical_formula_sum "Si O2"
_cell_formula_units_Z 56
_cell_length_a 20.100532
_cell_length_b 14.889100
_cell_length_c 8.231034
_cell_angle_alpha 90.000000
_cell_angle_beta 90.000000
_cell_angle_gamma 90.000000
_cell_volume 2463.374233
_symmetry_space_group_name_H-M "P B C N"
_symmetry_group_IT_number 60
_symmetry_cell_setting 'orthorhombic'
loop_
_space_group_symop_operation_xyz
x,y,z
1/2-x,1/2-y,1/2+z
1/2+x,1/2-y,-z
-x,y,1/2-z
-x,-y,-z
1/2+x,1/2+y,1/2-z
1/2-x,1/2+y,z
x,-y,1/2+z
loop_
_atom_site_type_symbol
_atom_site_label
_atom_site_fract_x
_atom_site_fract_y
_atom_site_fract_z
Si Si1 0.721971 0.039088 0.992852
Si Si2 0.500000 0.757590 0.750000
Si Si3 0.403067 0.369684 0.098710
Si Si4 0.777362 0.137179 0.423785
Si Si5 0.500000 0.948671 0.250000
Si Si6 0.358312 0.534392 0.301837
Si Si7 0.575870 0.095847 0.056001
Si Si8 0.775524 0.191060 0.781867
O O1 0.735632 0.102661 0.838191
O O2 0.716219 0.935683 0.929794
O O3 0.784744 0.032889 0.116007
O O4 0.654851 0.079175 0.069031
O O5 0.532111 0.690908 0.881645
O O6 0.444031 0.817098 0.839039
O O7 0.389209 0.439188 0.248197
O O8 0.340678 0.301519 0.103922
O O9 0.409951 0.418501 0.924470
O O10 0.846037 0.089220 0.365380
O O11 0.793467 0.182694 0.594119
O O12 0.763071 0.215628 0.295811
O O13 0.547852 0.890895 0.371009
O O14 0.546190 0.006893 0.134252
#
# Coordination Sequence:
#
# PCOD8248156 Si02
#       8
#     8   4   8   8   4   8   8   8
#     4  11  23  41  70 101 136 183 225 305 371 429
#     4  11  28  46  72  97 146 200 246 305 346 422
#     4  11  23  46  66 102 142 186 240 298 352 444
#     4  12  23  41  64 109 141 182 223 288 384 436
#     4   9  22  44  62  87 136 186 238 283 342 420
#     4  11  22  43  72  98 140 175 235 299 376 429
#     4  10  24  44  66  97 133 185 245 294 348 432
#     4  11  24  39  65 105 139 177 230 295 369 429
#
# _framework density 22.733046999999999
#
# number of rings (size 3 to 8) (size 9 to 14) (size 15 to 20)
#    0.000    1.143    4.286    1.714    8.000    2.857 
#    2.571    0.000    0.000    0.000    0.000    0.000 
#    0.000    0.000    0.000    0.000    0.000    0.000 
#
# Total GULP energy -694007.133157 kJ/mol
# GULP energy per Si atom -12392.984521 kJ/mol
# Density = 2.268131 g / cm^3
# Si number density = 22.733047 Si / 1000 Ang^3
#
#
#
# Elastic Constant Matrix: (Units=GPa)
#
#
# Indices 1 2 3 4 5 6 
#
# 1 51.9429 19.1183 17.7527 0.0000 0.0000 0.0000
# 2 19.1183 123.2230 34.6416 0.0000 0.0000 0.0000
# 3 17.7527 34.6416 105.5145 0.0000 0.0000 0.0000
# 4 0.0000 0.0000 0.0000 22.5905 0.0000 0.0000
# 5 0.0000 0.0000 0.0000 0.0000 28.7703 0.0000
# 6 0.0000 0.0000 0.0000 0.0000 0.0000 33.6047
#
#
#
# Elastic Compliance Matrix: (Units=1/GPa)
#
#
# Indices 1 2 3 4 5 6 
#
# 1 0.021107 -0.002508 -0.002728 0.000000 0.000000 0.000000
# 2 -0.002508 0.009239 -0.002611 0.000000 0.000000 0.000000
# 3 -0.002728 -0.002611 0.010794 0.000000 0.000000 0.000000
# 4 0.000000 0.000000 0.000000 0.044266 0.000000 0.000000
# 5 0.000000 0.000000 0.000000 0.000000 0.034758 0.000000
# 6 0.000000 0.000000 0.000000 0.000000 0.000000 0.029758
#
#
# Mechanical properties :
#
#
# Convention : Reuss Voigt Hill
#
# Bulk Modulus (GPa) = 39.29975 47.07842 43.18908
# Shear Modulus (GPa) = 28.71952 30.93760 29.82856
#
# Velocity S-wave (km/s) = 3.55820 3.69305 3.62625
# Velocity P-wave (km/s) = 5.84860 6.24012 6.04753
#
# Compressibility (1/GPa) = 0.02544546
#
# Stress axis : x y z
#
# Youngs Moduli (GPa) = 47.37694 108.24200 92.64739
#
# Poissons Ratio (x) = 0.27147 0.25273
# Poissons Ratio (y) = 0.11882 0.24192
# Poissons Ratio (z) = 0.12924 0.28264
#
# Static dielectric constant tensor:
#      x y z
#    x 3.814950 0.000000 0.000000 
#    y 0.000000 4.312160 0.000000 
#    z 0.000000 0.000000 4.302430 
# 
# 
# High freq. dielectric constant tensor:
#      x y z
#    x 1.859290 0.000000 0.000000 
#    y 0.000000 1.902730 0.000000 
#    z 0.000000 0.000000 1.910770 
# 
# From -- ./inp_files/7463.got.cif
#   From: 2010.03.12/outbox.cif.g09.slc.cpg/sg60_4_cif.got.tgz:7463.got - 2010.04.10 18:46:24.
