data_PCOD8248335
_publ_section_title
;
Structure prediction by ZEFSAII (Michael W. Deem and Ramdas Pophale) SiO2 
 PCOD8248335
Probable space group: P B C N
;
_chemical_formula_sum "Si O2"
_cell_formula_units_Z 64
_cell_length_a 8.686608
_cell_length_b 14.511260
_cell_length_c 23.446463
_cell_angle_alpha 90.000000
_cell_angle_beta 90.000000
_cell_angle_gamma 90.000000
_cell_volume 2955.511706
_symmetry_space_group_name_H-M "P B C N"
_symmetry_group_IT_number 60
_symmetry_cell_setting 'orthorhombic'
loop_
_space_group_symop_operation_xyz
x,y,z
1/2-x,1/2-y,1/2+z
1/2+x,1/2-y,-z
-x,y,1/2-z
-x,-y,-z
1/2+x,1/2+y,1/2-z
1/2-x,1/2+y,z
x,-y,1/2+z
loop_
_atom_site_type_symbol
_atom_site_label
_atom_site_fract_x
_atom_site_fract_y
_atom_site_fract_z
Si Si1 0.359906 0.171544 0.011073
Si Si2 0.822976 0.343004 0.758935
Si Si3 0.944219 0.671628 0.904647
Si Si4 0.431948 0.315099 0.433807
Si Si5 0.345534 0.561000 0.627373
Si Si6 0.734740 0.196810 0.670802
Si Si7 0.217375 0.858320 0.617678
Si Si8 0.830559 0.966154 0.249280
O O1 0.479971 0.137965 0.964192
O O2 0.190882 0.172674 0.983552
O O3 0.419140 0.266757 0.039072
O O4 0.342377 0.110646 0.068882
O O5 0.720981 0.277980 0.717573
O O6 0.791069 0.318097 0.824777
O O7 0.791412 0.450495 0.746009
O O8 0.000000 0.319687 0.750000
O O9 0.811567 0.596239 0.900439
O O10 0.885961 0.777003 0.909392
O O11 0.066142 0.669668 0.852804
O O12 0.502969 0.407653 0.406696
O O13 0.343348 0.265692 0.380794
O O14 0.373593 0.451198 0.631074
O O15 0.324651 0.594829 0.692761
O O16 0.804048 0.103300 0.697223
O O17 0.000000 0.011502 0.250000
#
# Coordination Sequence:
#
# PCOD8248335 Si02
#       8
#     8   8   8   8   8   8   8   8
#     4  11  22  43  67  92 131 168 225 272 325 387
#     4  11  26  42  67 103 135 174 220 272 334 398
#     4  11  25  44  66  99 127 175 223 276 328 396
#     4  11  21  42  66  96 128 175 219 278 324 392
#     4  11  24  41  68  94 136 170 219 273 337 395
#     4  11  25  40  72  95 130 180 224 263 339 401
#     4  11  24  42  69  95 135 173 215 272 336 387
#     4  11  24  43  64  99 140 172 218 277 327 398
#
# _framework density 21.654454999999999
#
# number of rings (size 3 to 8) (size 9 to 14) (size 15 to 20)
#    0.000    1.000    3.750    1.875    7.000    2.000 
#    0.000    0.000    0.000    0.000    0.000    0.000 
#    0.000    0.000    0.000    0.000    0.000    0.000 
#
# Total GULP energy -792892.101955 kJ/mol
# GULP energy per Si atom -12388.939093 kJ/mol
# Density = 2.160517 g / cm^3
# Si number density = 21.654455 Si / 1000 Ang^3
#
#
#
# Elastic Constant Matrix: (Units=GPa)
#
#
# Indices 1 2 3 4 5 6 
#
# 1 92.6216 18.1797 38.6521 0.0000 0.0000 0.0000
# 2 18.1797 52.0834 19.8541 0.0000 0.0000 0.0000
# 3 38.6521 19.8541 151.1485 0.0000 0.0000 0.0000
# 4 0.0000 0.0000 0.0000 21.3803 0.0000 0.0000
# 5 0.0000 0.0000 0.0000 0.0000 39.4494 0.0000
# 6 0.0000 0.0000 0.0000 0.0000 0.0000 21.6810
#
#
#
# Elastic Compliance Matrix: (Units=1/GPa)
#
#
# Indices 1 2 3 4 5 6 
#
# 1 0.012616 -0.003341 -0.002787 0.000000 0.000000 0.000000
# 2 -0.003341 0.021097 -0.001917 0.000000 0.000000 0.000000
# 3 -0.002787 -0.001917 0.007581 0.000000 0.000000 0.000000
# 4 0.000000 0.000000 0.000000 0.046772 0.000000 0.000000
# 5 0.000000 0.000000 0.000000 0.000000 0.025349 0.000000
# 6 0.000000 0.000000 0.000000 0.000000 0.000000 0.046123
#
#
# Mechanical properties :
#
#
# Convention : Reuss Voigt Hill
#
# Bulk Modulus (GPa) = 39.67798 49.91393 44.79596
# Shear Modulus (GPa) = 27.16977 31.11333 29.14155
#
# Velocity S-wave (km/s) = 3.54601 3.79464 3.67243
# Velocity P-wave (km/s) = 5.92694 6.50379 6.22205
#
# Compressibility (1/GPa) = 0.02520289
#
# Stress axis : x y z
#
# Youngs Moduli (GPa) = 79.26745 47.40056 131.91658
#
# Poissons Ratio (x) = 0.15836 0.36768
# Poissons Ratio (y) = 0.26483 0.25286
# Poissons Ratio (z) = 0.22094 0.09086
#
# Static dielectric constant tensor:
#      x y z
#    x 3.956540 0.000000 0.000000 
#    y 0.000000 3.507340 0.000000 
#    z 0.000000 0.000000 4.396060 
# 
# 
# High freq. dielectric constant tensor:
#      x y z
#    x 1.853740 0.000000 0.000000 
#    y 0.000000 1.821160 0.000000 
#    z 0.000000 0.000000 1.882160 
# 
# From -- ./inp_files/24066.got.cif
#   From: 2010.03.12/outbox.cif.g09.slc.cpg/sg60_13_cif.got.tgz:24066.got - 2010.04.10 18:46:24.
