data_PCOD8248569
_publ_section_title
;
Structure prediction by ZEFSAII (Michael W. Deem and Ramdas Pophale) SiO2 
 PCOD8248569
Probable space group: P B C N
;
_chemical_formula_sum "Si O2"
_cell_formula_units_Z 40
_cell_length_a 10.222107
_cell_length_b 10.750632
_cell_length_c 14.347661
_cell_angle_alpha 90.000000
_cell_angle_beta 90.000000
_cell_angle_gamma 90.000000
_cell_volume 1576.723445
_symmetry_space_group_name_H-M "P B C N"
_symmetry_group_IT_number 60
_symmetry_cell_setting 'orthorhombic'
loop_
_space_group_symop_operation_xyz
x,y,z
1/2-x,1/2-y,1/2+z
1/2+x,1/2-y,-z
-x,y,1/2-z
-x,-y,-z
1/2+x,1/2+y,1/2-z
1/2-x,1/2+y,z
x,-y,1/2+z
loop_
_atom_site_type_symbol
_atom_site_label
_atom_site_fract_x
_atom_site_fract_y
_atom_site_fract_z
Si Si1 0.500000 0.608961 0.750000
Si Si2 0.766709 0.132443 0.480994
Si Si3 0.500000 0.190507 0.750000
Si Si4 0.482144 0.750368 0.560020
Si Si5 0.296760 0.594877 0.227631
Si Si6 0.110365 0.487319 0.876513
O O1 0.472263 0.693903 0.661915
O O2 0.623193 0.520802 0.731397
O O3 0.663103 0.248584 0.486154
O O4 0.915491 0.176797 0.496241
O O5 0.759761 0.069473 0.379381
O O6 0.730574 0.032171 0.559310
O O7 0.628529 0.273779 0.765693
O O8 0.525739 0.104506 0.659842
O O9 0.518139 0.896621 0.564070
O O10 0.166306 0.596170 0.290501
#
# Coordination Sequence:
#
# PCOD8248569 Si02
#       6
#     4   8   4   8   8   8
#     4  11  25  50  74 110 159 201 258 316 396 469
#     4  12  27  46  78 112 157 200 264 319 388 467
#     4  11  25  48  72 108 153 201 258 320 386 471
#     4  12  27  48  77 116 153 205 259 324 386 464
#     4  11  26  46  77 111 153 208 252 322 392 460
#     4  12  25  49  74 111 152 205 256 324 389 463
#
# _framework density 25.369064000000002
#
# number of rings (size 3 to 8) (size 9 to 14) (size 15 to 20)
#    0.000    0.400    2.000    6.000    5.600    2.400 
#    0.000    0.000    0.000    0.000    0.000    0.000 
#    0.000    0.000    0.000    0.000    0.000    0.000 
#
# Total GULP energy -496220.781398 kJ/mol
# GULP energy per Si atom -12405.519535 kJ/mol
# Density = 2.531132 g / cm^3
# Si number density = 25.369064 Si / 1000 Ang^3
#
#
#
# Elastic Constant Matrix: (Units=GPa)
#
#
# Indices 1 2 3 4 5 6 
#
# 1 73.9698 -4.2314 -9.5381 0.0000 0.0000 0.0000
# 2 -4.2314 89.2974 -1.9563 0.0000 0.0000 0.0000
# 3 -9.5381 -1.9563 82.7732 0.0000 0.0000 0.0000
# 4 0.0000 0.0000 0.0000 34.5164 0.0000 0.0000
# 5 0.0000 0.0000 0.0000 0.0000 43.7657 0.0000
# 6 0.0000 0.0000 0.0000 0.0000 0.0000 21.5407
#
#
#
# Elastic Compliance Matrix: (Units=1/GPa)
#
#
# Indices 1 2 3 4 5 6 
#
# 1 0.013765 0.000687 0.001602 0.000000 0.000000 0.000000
# 2 0.000687 0.011239 0.000345 0.000000 0.000000 0.000000
# 3 0.001602 0.000345 0.012274 0.000000 0.000000 0.000000
# 4 0.000000 0.000000 0.000000 0.028972 0.000000 0.000000
# 5 0.000000 0.000000 0.000000 0.000000 0.022849 0.000000
# 6 0.000000 0.000000 0.000000 0.000000 0.000000 0.046424
#
#
# Mechanical properties :
#
#
# Convention : Reuss Voigt Hill
#
# Bulk Modulus (GPa) = 23.50351 23.84320 23.67335
# Shear Modulus (GPa) = 34.61761 37.41563 36.01662
#
# Velocity S-wave (km/s) = 3.69800 3.84455 3.77199
# Velocity P-wave (km/s) = 5.24580 5.39688 5.32187
#
# Compressibility (1/GPa) = 0.04254684
#
# Stress axis : x y z
#
# Youngs Moduli (GPa) = 72.64819 88.97854 81.47300
#
# Poissons Ratio (x) = -0.06116 -0.13055
# Poissons Ratio (y) = -0.04994 -0.02809
# Poissons Ratio (z) = -0.11641 -0.03068
#
# Static dielectric constant tensor:
#      x y z
#    x 4.804650 0.000000 0.000000 
#    y 0.000000 4.411820 0.000000 
#    z 0.000000 0.000000 4.499620 
# 
# 
# High freq. dielectric constant tensor:
#      x y z
#    x 2.021970 0.000000 0.000000 
#    y 0.000000 2.008140 0.000000 
#    z 0.000000 0.000000 2.024130 
# 
# From -- ./inp_files/15880.got.cif
#   From: 2010.03.12/outbox.cif.g09.slc.cpg/sg60_8_cif.got.tgz:15880.got - 2010.04.10 18:46:24.
