data_PCOD8248434
_publ_section_title
;
Structure prediction by ZEFSAII (Michael W. Deem and Ramdas Pophale) SiO2 
 PCOD8248434
Probable space group: P B C N
;
_chemical_formula_sum "Si O2"
_cell_formula_units_Z 40
_cell_length_a 8.381539
_cell_length_b 9.898796
_cell_length_c 21.912001
_cell_angle_alpha 90.000000
_cell_angle_beta 90.000000
_cell_angle_gamma 90.000000
_cell_volume 1817.976158
_symmetry_space_group_name_H-M "P B C N"
_symmetry_group_IT_number 60
_symmetry_cell_setting 'orthorhombic'
loop_
_space_group_symop_operation_xyz
x,y,z
1/2-x,1/2-y,1/2+z
1/2+x,1/2-y,-z
-x,y,1/2-z
-x,-y,-z
1/2+x,1/2+y,1/2-z
1/2-x,1/2+y,z
x,-y,1/2+z
loop_
_atom_site_type_symbol
_atom_site_label
_atom_site_fract_x
_atom_site_fract_y
_atom_site_fract_z
Si Si1 0.903127 0.127192 0.977973
Si Si2 0.054501 0.295866 0.876862
Si Si3 0.936320 0.048671 0.814882
Si Si4 0.407567 0.683289 0.387849
Si Si5 0.367177 0.068822 0.620023
O O1 0.742970 0.089106 0.940265
O O2 0.021404 0.223476 0.941017
O O3 0.860815 0.201475 0.041115
O O4 0.000000 0.000000 0.000000
O O5 0.237789 0.300040 0.855224
O O6 0.971929 0.207618 0.823822
O O7 0.988272 0.445941 0.885540
O O8 0.745216 0.035571 0.821560
O O9 0.000000 0.995825 0.750000
O O10 0.018440 0.962075 0.869412
O O11 0.532708 0.796473 0.366682
#
# Coordination Sequence:
#
# PCOD8248434 Si02
#       5
#     8   8   8   8   8
#     4  11  23  40  66  98 136 176 220 265 331 399
#     4  11  25  42  67 100 136 176 225 272 337 402
#     4  11  25  46  68  93 129 177 229 280 336 396
#     4  12  24  43  68 100 135 176 225 272 336 402
#     4  11  25  44  70  97 140 180 218 282 335 396
#
# _framework density 22.002489000000001
#
# number of rings (size 3 to 8) (size 9 to 14) (size 15 to 20)
#    0.000    0.800    4.000    4.800    2.800    4.800 
#    0.000    3.000    0.000    0.000    0.000    0.000 
#    0.000    0.000    0.000    0.000    0.000    0.000 
#
# Total GULP energy -495847.012916 kJ/mol
# GULP energy per Si atom -12396.175323 kJ/mol
# Density = 2.195241 g / cm^3
# Si number density = 22.002489 Si / 1000 Ang^3
#
#
#
# Elastic Constant Matrix: (Units=GPa)
#
#
# Indices 1 2 3 4 5 6 
#
# 1 157.7881 47.9048 32.5459 0.0000 0.0000 0.0000
# 2 47.9048 110.9324 15.5026 0.0000 0.0000 0.0000
# 3 32.5459 15.5026 100.2681 0.0000 0.0000 0.0000
# 4 0.0000 0.0000 0.0000 14.7416 0.0000 0.0000
# 5 0.0000 0.0000 0.0000 0.0000 13.5790 0.0000
# 6 0.0000 0.0000 0.0000 0.0000 0.0000 46.5917
#
#
#
# Elastic Compliance Matrix: (Units=1/GPa)
#
#
# Indices 1 2 3 4 5 6 
#
# 1 0.007675 -0.003032 -0.002023 0.000000 0.000000 0.000000
# 2 -0.003032 0.010411 -0.000626 0.000000 0.000000 0.000000
# 3 -0.002023 -0.000626 0.010726 0.000000 0.000000 0.000000
# 4 0.000000 0.000000 0.000000 0.067835 0.000000 0.000000
# 5 0.000000 0.000000 0.000000 0.000000 0.073643 0.000000
# 6 0.000000 0.000000 0.000000 0.000000 0.000000 0.021463
#
#
# Mechanical properties :
#
#
# Convention : Reuss Voigt Hill
#
# Bulk Modulus (GPa) = 57.29675 62.32170 59.80922
# Shear Modulus (GPa) = 23.93123 33.18481 28.55802
#
# Velocity S-wave (km/s) = 3.30155 3.88781 3.60661
# Velocity P-wave (km/s) = 6.37426 6.96704 6.67723
#
# Compressibility (1/GPa) = 0.01745300
#
# Stress axis : x y z
#
# Youngs Moduli (GPa) = 130.28879 96.05057 93.22722
#
# Poissons Ratio (x) = 0.29121 0.18856
# Poissons Ratio (y) = 0.39501 0.05832
# Poissons Ratio (z) = 0.26352 0.06009
#
# Static dielectric constant tensor:
#      x y z
#    x 3.772040 0.000000 0.000000 
#    y 0.000000 4.081080 0.000000 
#    z 0.000000 0.000000 4.199270 
# 
# 
# High freq. dielectric constant tensor:
#      x y z
#    x 1.876890 0.000000 0.000000 
#    y 0.000000 1.874740 0.000000 
#    z 0.000000 0.000000 1.844840 
# 
# From -- ./inp_files/23817.got.cif
#   From: 2010.03.12/outbox.cif.g09.slc.cpg/sg60_12_cif.got.tgz:23817.got - 2010.04.10 18:46:24.
