data_PCOD8248449
_publ_section_title
;
Structure prediction by ZEFSAII (Michael W. Deem and Ramdas Pophale) SiO2 
 PCOD8248449
Probable space group: P B C N
;
_chemical_formula_sum "Si O2"
_cell_formula_units_Z 48
_cell_length_a 14.279056
_cell_length_b 9.704292
_cell_length_c 16.832535
_cell_angle_alpha 90.000000
_cell_angle_beta 90.000000
_cell_angle_gamma 90.000000
_cell_volume 2332.452880
_symmetry_space_group_name_H-M "P B C N"
_symmetry_group_IT_number 60
_symmetry_cell_setting 'orthorhombic'
loop_
_space_group_symop_operation_xyz
x,y,z
1/2-x,1/2-y,1/2+z
1/2+x,1/2-y,-z
-x,y,1/2-z
-x,-y,-z
1/2+x,1/2+y,1/2-z
1/2-x,1/2+y,z
x,-y,1/2+z
loop_
_atom_site_type_symbol
_atom_site_label
_atom_site_fract_x
_atom_site_fract_y
_atom_site_fract_z
Si Si1 0.658161 0.911924 0.583569
Si Si2 0.752345 0.328866 0.170291
Si Si3 0.632963 0.419881 0.312338
Si Si4 0.967929 0.650563 0.337734
Si Si5 0.826347 0.437629 0.398620
Si Si6 0.405074 0.724003 0.212599
O O1 0.715067 0.772263 0.601827
O O2 0.548610 0.889231 0.600403
O O3 0.669614 0.949217 0.492432
O O4 0.696996 0.038419 0.634756
O O5 0.665014 0.374434 0.224345
O O6 0.822613 0.241886 0.224353
O O7 0.555960 0.312323 0.343963
O O8 0.719055 0.430497 0.372741
O O9 0.580659 0.565024 0.308982
O O10 0.872076 0.571628 0.358313
O O11 0.000000 0.607482 0.250000
O O12 0.882928 0.304030 0.368850
O O13 0.500000 0.784102 0.250000
#
# Coordination Sequence:
#
# PCOD8248449 Si02
#       6
#     8   8   8   8   8   8
#     4  12  26  42  70  99 137 175 225 283 340 404
#     4  11  23  44  66  96 131 179 225 274 334 398
#     4  11  23  42  68  96 131 176 225 270 330 393
#     4  12  23  44  69  98 129 179 227 272 330 407
#     4  11  25  43  65  99 137 175 218 277 343 395
#     4  11  23  42  67  98 127 178 227 275 320 405
#
# _framework density 20.579193
#
# number of rings (size 3 to 8) (size 9 to 14) (size 15 to 20)
#    0.000    0.667    3.333    6.500    4.667    0.000 
#    0.000    0.833    0.000    0.000    0.000    0.000 
#    0.000    0.000    0.000    0.000    0.000    0.000 
#
# Total GULP energy -595545.083579 kJ/mol
# GULP energy per Si atom -12407.189241 kJ/mol
# Density = 2.053235 g / cm^3
# Si number density = 20.579193 Si / 1000 Ang^3
#
#
#
# Elastic Constant Matrix: (Units=GPa)
#
#
# Indices 1 2 3 4 5 6 
#
# 1 73.1391 19.6069 18.9364 0.0000 0.0000 0.0000
# 2 19.6069 119.8402 17.4639 0.0000 0.0000 0.0000
# 3 18.9364 17.4639 101.3868 0.0000 0.0000 0.0000
# 4 0.0000 0.0000 0.0000 4.0017 0.0000 0.0000
# 5 0.0000 0.0000 0.0000 0.0000 26.5012 0.0000
# 6 0.0000 0.0000 0.0000 0.0000 0.0000 31.5605
#
#
#
# Elastic Compliance Matrix: (Units=1/GPa)
#
#
# Indices 1 2 3 4 5 6 
#
# 1 0.014855 -0.002078 -0.002417 0.000000 0.000000 0.000000
# 2 -0.002078 0.008850 -0.001136 0.000000 0.000000 0.000000
# 3 -0.002417 -0.001136 0.010510 0.000000 0.000000 0.000000
# 4 0.000000 0.000000 0.000000 0.249894 0.000000 0.000000
# 5 0.000000 0.000000 0.000000 0.000000 0.037734 0.000000
# 6 0.000000 0.000000 0.000000 0.000000 0.000000 0.031685
#
#
# Mechanical properties :
#
#
# Convention : Reuss Voigt Hill
#
# Bulk Modulus (GPa) = 43.56650 45.15338 44.35994
# Shear Modulus (GPa) = 13.42490 28.30329 20.86410
#
# Velocity S-wave (km/s) = 2.55689 3.71257 3.18755
# Velocity P-wave (km/s) = 5.47111 6.35347 5.92873
#
# Compressibility (1/GPa) = 0.02295342
#
# Stress axis : x y z
#
# Youngs Moduli (GPa) = 67.31555 112.99362 95.14485
#
# Poissons Ratio (x) = 0.23484 0.22993
# Poissons Ratio (y) = 0.13990 0.10811
# Poissons Ratio (z) = 0.16268 0.12839
#
# Static dielectric constant tensor:
#      x y z
#    x 3.818360 0.000000 0.000000 
#    y 0.000000 3.863130 0.000000 
#    z 0.000000 0.000000 3.627370 
# 
# 
# High freq. dielectric constant tensor:
#      x y z
#    x 1.814850 0.000000 0.000000 
#    y 0.000000 1.822360 0.000000 
#    z 0.000000 0.000000 1.790770 
# 
# From -- ./inp_files/20497.got.cif
#   From: 2010.03.12/outbox.cif.g09.slc.cpg/sg60_11_cif.got.tgz:20497.got - 2010.04.10 18:46:24.
