data_PCOD8248224
_publ_section_title
;
Structure prediction by ZEFSAII (Michael W. Deem and Ramdas Pophale) SiO2 
 PCOD8248224
Probable space group: P B C N
;
_chemical_formula_sum "Si O2"
_cell_formula_units_Z 32
_cell_length_a 8.916561
_cell_length_b 17.069545
_cell_length_c 8.933114
_cell_angle_alpha 90.000000
_cell_angle_beta 90.000000
_cell_angle_gamma 90.000000
_cell_volume 1359.634594
_symmetry_space_group_name_H-M "P B C N"
_symmetry_group_IT_number 60
_symmetry_cell_setting 'orthorhombic'
loop_
_space_group_symop_operation_xyz
x,y,z
1/2-x,1/2-y,1/2+z
1/2+x,1/2-y,-z
-x,y,1/2-z
-x,-y,-z
1/2+x,1/2+y,1/2-z
1/2-x,1/2+y,z
x,-y,1/2+z
loop_
_atom_site_type_symbol
_atom_site_label
_atom_site_fract_x
_atom_site_fract_y
_atom_site_fract_z
Si Si1 0.652905 0.431907 0.829479
Si Si2 0.096797 0.446774 0.108798
Si Si3 0.451643 0.331843 0.411446
Si Si4 0.751502 0.317291 0.580902
O O1 0.500000 0.458044 0.750000
O O2 0.756297 0.507801 0.835813
O O3 0.732011 0.361945 0.738276
O O4 0.623740 0.403383 0.998871
O O5 0.000000 0.420536 0.250000
O O6 0.144760 0.367746 0.028078
O O7 0.000000 0.500000 0.000000
O O8 0.500000 0.364615 0.250000
O O9 0.591561 0.299220 0.506373
O O10 0.332020 0.263667 0.383552
#
# Coordination Sequence:
#
# PCOD8248224 Si02
#       4
#     8   8   8   8
#     4  10  25  49  67 101 145 183 233 296 357 421
#     4  12  27  45  74 103 144 186 235 291 353 429
#     4  11  26  43  75 100 139 181 238 289 351 425
#     4  11  26  45  69 104 139 187 226 296 349 425
#
# _framework density 23.535737000000001
#
# number of rings (size 3 to 8) (size 9 to 14) (size 15 to 20)
#    0.000    1.000    2.500    1.500   10.500    8.000 
#    0.000    0.000    0.000    0.000    0.000    0.000 
#    0.000    0.000    0.000    0.000    0.000    0.000 
#
# Total GULP energy -397096.909429 kJ/mol
# GULP energy per Si atom -12409.278420 kJ/mol
# Density = 2.348217 g / cm^3
# Si number density = 23.535737 Si / 1000 Ang^3
#
#
#
# Elastic Constant Matrix: (Units=GPa)
#
#
# Indices 1 2 3 4 5 6 
#
# 1 99.9278 24.6419 31.6657 0.0000 0.0000 0.0000
# 2 24.6419 43.2325 15.6538 0.0000 0.0000 0.0000
# 3 31.6657 15.6538 151.2067 0.0000 0.0000 0.0000
# 4 0.0000 0.0000 0.0000 28.4235 0.0000 0.0000
# 5 0.0000 0.0000 0.0000 0.0000 42.9831 0.0000
# 6 0.0000 0.0000 0.0000 0.0000 0.0000 31.0236
#
#
#
# Elastic Compliance Matrix: (Units=1/GPa)
#
#
# Indices 1 2 3 4 5 6 
#
# 1 0.012147 -0.006236 -0.001898 0.000000 0.000000 0.000000
# 2 -0.006236 0.027233 -0.001513 0.000000 0.000000 0.000000
# 3 -0.001898 -0.001513 0.007168 0.000000 0.000000 0.000000
# 4 0.000000 0.000000 0.000000 0.035182 0.000000 0.000000
# 5 0.000000 0.000000 0.000000 0.000000 0.023265 0.000000
# 6 0.000000 0.000000 0.000000 0.000000 0.000000 0.032234
#
#
# Mechanical properties :
#
#
# Convention : Reuss Voigt Hill
#
# Bulk Modulus (GPa) = 36.69424 48.69884 42.69654
# Shear Modulus (GPa) = 30.19192 35.31307 32.75249
#
# Velocity S-wave (km/s) = 3.58552 3.87770 3.73447
# Velocity P-wave (km/s) = 5.72416 6.38633 6.06429
#
# Compressibility (1/GPa) = 0.02725223
#
# Stress axis : x y z
#
# Youngs Moduli (GPa) = 82.32820 36.71988 139.51593
#
# Poissons Ratio (x) = 0.22899 0.26482
# Poissons Ratio (y) = 0.51340 0.21114
# Poissons Ratio (z) = 0.15627 0.05557
#
# Static dielectric constant tensor:
#      x y z
#    x 4.524980 0.000000 0.000000 
#    y 0.000000 3.913840 0.000000 
#    z 0.000000 0.000000 4.529230 
# 
# 
# High freq. dielectric constant tensor:
#      x y z
#    x 1.950220 0.000000 0.000000 
#    y 0.000000 1.922340 0.000000 
#    z 0.000000 0.000000 1.950340 
# 
# From -- ./inp_files/3575.got.cif
#   From: 2010.03.12/outbox.cif.g09.slc.cpg/sg60_2_cif.got.tgz:3575.got - 2010.04.10 18:46:24.
