data_PCOD8248664
_publ_section_title
;
Structure prediction by ZEFSAII (Michael W. Deem and Ramdas Pophale) SiO2 
 PCOD8248664
Probable space group: P B C N
;
_chemical_formula_sum "Si O2"
_cell_formula_units_Z 32
_cell_length_a 8.801668
_cell_length_b 9.541035
_cell_length_c 16.825351
_cell_angle_alpha 90.000000
_cell_angle_beta 90.000000
_cell_angle_gamma 90.000000
_cell_volume 1412.942879
_symmetry_space_group_name_H-M "P B C N"
_symmetry_group_IT_number 60
_symmetry_cell_setting 'orthorhombic'
loop_
_space_group_symop_operation_xyz
x,y,z
1/2-x,1/2-y,1/2+z
1/2+x,1/2-y,-z
-x,y,1/2-z
-x,-y,-z
1/2+x,1/2+y,1/2-z
1/2-x,1/2+y,z
x,-y,1/2+z
loop_
_atom_site_type_symbol
_atom_site_label
_atom_site_fract_x
_atom_site_fract_y
_atom_site_fract_z
Si Si1 0.331130 0.689372 0.378880
Si Si2 0.668199 0.034641 0.526324
Si Si3 0.668801 0.713599 0.775207
Si Si4 0.334445 0.433823 0.630736
O O1 0.214465 0.565849 0.400911
O O2 0.325883 0.804386 0.447838
O O3 0.285252 0.762047 0.296565
O O4 0.496684 0.624658 0.370278
O O5 0.788233 0.007867 0.455487
O O6 0.500000 0.000000 0.500000
O O7 0.500000 0.754653 0.750000
O O8 0.677593 0.552988 0.802331
O O9 0.715820 0.811547 0.848544
#
# Coordination Sequence:
#
# PCOD8248664 Si02
#       4
#     8   8   8   8
#     4  12  25  45  70 100 138 180 229 284 343 409
#     4  12  25  44  69 101 137 182 230 284 345 410
#     4  12  25  44  67  97 132 176 224 278 339 406
#     4  12  26  45  69 100 137 178 226 282 340 405
#
# _framework density 22.647767000000002
#
# number of rings (size 3 to 8) (size 9 to 14) (size 15 to 20)
#    0.000    0.000    0.000   12.000    0.000    2.000 
#    0.000    0.000    0.000    0.000    0.000    0.000 
#    0.000    0.000    0.000    0.000    0.000    0.000 
#
# Total GULP energy -397137.098336 kJ/mol
# GULP energy per Si atom -12410.534323 kJ/mol
# Density = 2.259622 g / cm^3
# Si number density = 22.647767 Si / 1000 Ang^3
#
#
#
# Elastic Constant Matrix: (Units=GPa)
#
#
# Indices 1 2 3 4 5 6 
#
# 1 136.1737 71.1438 45.3942 0.0000 0.0000 0.0000
# 2 71.1438 139.3379 43.6415 0.0000 0.0000 0.0000
# 3 45.3942 43.6415 115.3076 0.0000 0.0000 0.0000
# 4 0.0000 0.0000 0.0000 55.0426 0.0000 0.0000
# 5 0.0000 0.0000 0.0000 0.0000 48.8136 0.0000
# 6 0.0000 0.0000 0.0000 0.0000 0.0000 41.3987
#
#
#
# Elastic Compliance Matrix: (Units=1/GPa)
#
#
# Indices 1 2 3 4 5 6 
#
# 1 0.010572 -0.004645 -0.002404 0.000000 0.000000 0.000000
# 2 -0.004645 0.010183 -0.002025 0.000000 0.000000 0.000000
# 3 -0.002404 -0.002025 0.010385 0.000000 0.000000 0.000000
# 4 0.000000 0.000000 0.000000 0.018168 0.000000 0.000000
# 5 0.000000 0.000000 0.000000 0.000000 0.020486 0.000000
# 6 0.000000 0.000000 0.000000 0.000000 0.000000 0.024155
#
#
# Mechanical properties :
#
#
# Convention : Reuss Voigt Hill
#
# Bulk Modulus (GPa) = 76.97277 79.01978 77.99627
# Shear Modulus (GPa) = 42.94522 44.42696 43.68609
#
# Velocity S-wave (km/s) = 4.35929 4.43386 4.39673
# Velocity P-wave (km/s) = 7.70705 7.82167 7.76457
#
# Compressibility (1/GPa) = 0.01299161
#
# Stress axis : x y z
#
# Youngs Moduli (GPa) = 94.59344 98.20562 96.28931
#
# Poissons Ratio (x) = 0.45614 0.23147
# Poissons Ratio (y) = 0.43937 0.19502
# Poissons Ratio (z) = 0.22739 0.19890
#
# Static dielectric constant tensor:
#      x y z
#    x 4.105060 0.000000 0.000000 
#    y 0.000000 4.322380 0.000000 
#    z 0.000000 0.000000 4.627860 
# 
# 
# High freq. dielectric constant tensor:
#      x y z
#    x 1.904810 0.000000 0.000000 
#    y 0.000000 1.910700 0.000000 
#    z 0.000000 0.000000 1.907150 
# 
# From -- ./inp_files/18954.got.cif
#   From: 2010.03.12/outbox.cif.g09.slc.cpg/sg60_10_cif.got.tgz:18954.got - 2010.04.10 18:46:24.
