data_PCOD8248535
_publ_section_title
;
Structure prediction by ZEFSAII (Michael W. Deem and Ramdas Pophale) SiO2 
 PCOD8248535
Probable space group: P B C N
;
_chemical_formula_sum "Si O2"
_cell_formula_units_Z 40
_cell_length_a 11.082573
_cell_length_b 13.219265
_cell_length_c 12.591952
_cell_angle_alpha 90.000000
_cell_angle_beta 90.000000
_cell_angle_gamma 90.000000
_cell_volume 1844.764654
_symmetry_space_group_name_H-M "P B C N"
_symmetry_group_IT_number 60
_symmetry_cell_setting 'orthorhombic'
loop_
_space_group_symop_operation_xyz
x,y,z
1/2-x,1/2-y,1/2+z
1/2+x,1/2-y,-z
-x,y,1/2-z
-x,-y,-z
1/2+x,1/2+y,1/2-z
1/2-x,1/2+y,z
x,-y,1/2+z
loop_
_atom_site_type_symbol
_atom_site_label
_atom_site_fract_x
_atom_site_fract_y
_atom_site_fract_z
Si Si1 0.151922 0.668055 0.852623
Si Si2 0.130386 0.797170 0.218570
Si Si3 0.339502 0.887623 0.586250
Si Si4 0.000000 0.498338 0.250000
Si Si5 0.000000 0.160877 0.250000
Si Si6 0.898991 0.997780 0.908719
O O1 0.294591 0.676471 0.825453
O O2 0.089305 0.771321 0.818485
O O3 0.110343 0.570638 0.786983
O O4 0.115133 0.655328 0.974447
O O5 0.203254 0.710396 0.154202
O O6 0.000000 0.753222 0.250000
O O7 0.107767 0.893855 0.145420
O O8 0.235014 0.967126 0.552825
O O9 0.450215 0.938239 0.650030
O O10 0.924790 0.089364 0.325675
O O11 0.000000 0.000000 0.000000
#
# Coordination Sequence:
#
# PCOD8248535 Si02
#       6
#     8   8   8   4   4   8
#     4  11  25  45  69 104 139 191 238 296 371 431
#     4  12  24  45  69 103 144 181 244 298 356 446
#     4  12  25  45  72 103 141 191 237 302 364 433
#     4  11  24  49  70 100 146 181 246 301 354 438
#     4  11  24  47  68  98 150 177 234 301 354 432
#     4  12  25  44  71 104 139 191 238 296 367 433
#
# _framework density 21.682981999999999
#
# number of rings (size 3 to 8) (size 9 to 14) (size 15 to 20)
#    0.000    0.400    6.000    3.000    0.000    0.000 
#    3.600    0.000    0.000    0.000    0.000    0.000 
#    0.000    0.000    0.000    0.000    0.000    0.000 
#
# Total GULP energy -495938.642996 kJ/mol
# GULP energy per Si atom -12398.466075 kJ/mol
# Density = 2.163363 g / cm^3
# Si number density = 21.682982 Si / 1000 Ang^3
#
#
#
# Elastic Constant Matrix: (Units=GPa)
#
#
# Indices 1 2 3 4 5 6 
#
# 1 104.3762 16.7920 21.4848 0.0000 0.0000 0.0000
# 2 16.7920 102.4518 24.4401 0.0000 0.0000 0.0000
# 3 21.4848 24.4401 100.0998 0.0000 0.0000 0.0000
# 4 0.0000 0.0000 0.0000 83.0005 0.0000 0.0000
# 5 0.0000 0.0000 0.0000 0.0000 44.7777 0.0000
# 6 0.0000 0.0000 0.0000 0.0000 0.0000 20.5887
#
#
#
# Elastic Compliance Matrix: (Units=1/GPa)
#
#
# Indices 1 2 3 4 5 6 
#
# 1 0.010164 -0.001216 -0.001885 0.000000 0.000000 0.000000
# 2 -0.001216 0.010510 -0.002305 0.000000 0.000000 0.000000
# 3 -0.001885 -0.002305 0.010957 0.000000 0.000000 0.000000
# 4 0.000000 0.000000 0.000000 0.012048 0.000000 0.000000
# 5 0.000000 0.000000 0.000000 0.000000 0.022333 0.000000
# 6 0.000000 0.000000 0.000000 0.000000 0.000000 0.048570
#
#
# Mechanical properties :
#
#
# Convention : Reuss Voigt Hill
#
# Bulk Modulus (GPa) = 48.03170 48.04019 48.03595
# Shear Modulus (GPa) = 37.78304 45.95410 41.86857
#
# Velocity S-wave (km/s) = 4.17888 4.60865 4.39902
# Velocity P-wave (km/s) = 6.74418 7.10798 6.92847
#
# Compressibility (1/GPa) = 0.02081958
#
# Stress axis : x y z
#
# Youngs Moduli (GPa) = 98.38311 95.14827 91.26321
#
# Poissons Ratio (x) = 0.11574 0.17200
# Poissons Ratio (y) = 0.11967 0.21036
# Poissons Ratio (z) = 0.18542 0.21932
#
# Static dielectric constant tensor:
#      x y z
#    x 3.965880 0.000000 0.000000 
#    y 0.000000 4.098110 0.000000 
#    z 0.000000 0.000000 3.858100 
# 
# 
# High freq. dielectric constant tensor:
#      x y z
#    x 1.853530 0.000000 0.000000 
#    y 0.000000 1.874050 0.000000 
#    z 0.000000 0.000000 1.850180 
# 
# From -- ./inp_files/10880.got.cif
#   From: 2010.03.12/outbox.cif.g09.slc.cpg/sg60_6_cif.got.tgz:10880.got - 2010.04.10 18:46:24.
