data_PCOD8248538
_publ_section_title
;
Structure prediction by ZEFSAII (Michael W. Deem and Ramdas Pophale) SiO2 
 PCOD8248538
Probable space group: P B C N
;
_chemical_formula_sum "Si O2"
_cell_formula_units_Z 40
_cell_length_a 11.955844
_cell_length_b 28.124233
_cell_length_c 5.164871
_cell_angle_alpha 90.000000
_cell_angle_beta 90.000000
_cell_angle_gamma 90.000000
_cell_volume 1736.682411
_symmetry_space_group_name_H-M "P B C N"
_symmetry_group_IT_number 60
_symmetry_cell_setting 'orthorhombic'
loop_
_space_group_symop_operation_xyz
x,y,z
1/2-x,1/2-y,1/2+z
1/2+x,1/2-y,-z
-x,y,1/2-z
-x,-y,-z
1/2+x,1/2+y,1/2-z
1/2-x,1/2+y,z
x,-y,1/2+z
loop_
_atom_site_type_symbol
_atom_site_label
_atom_site_fract_x
_atom_site_fract_y
_atom_site_fract_z
Si Si1 0.156780 0.661835 0.640527
Si Si2 0.000000 0.098668 0.250000
Si Si3 0.398934 0.680742 0.561698
Si Si4 0.685326 0.468878 0.890359
Si Si5 0.120152 0.397642 0.647406
Si Si6 0.000000 0.259733 0.250000
O O1 0.281452 0.679830 0.713417
O O2 0.174962 0.631716 0.380666
O O3 0.074672 0.705572 0.568004
O O4 0.106199 0.633683 0.887310
O O5 0.919284 0.066681 0.430514
O O6 0.083348 0.130819 0.417318
O O7 0.500000 0.689229 0.750000
O O8 0.405232 0.727035 0.380397
O O9 0.677193 0.490391 0.603715
O O10 0.803460 0.442475 0.923294
O O11 0.000000 0.415767 0.750000
#
# Coordination Sequence:
#
# PCOD8248538 Si02
#       6
#     8   4   8   8   8   4
#     4  12  26  48  74 102 150 190 244 292 358 434
#     4  11  24  48  70 106 148 190 236 294 380 427
#     4  11  27  44  74 106 149 192 241 303 354 435
#     4  12  27  45  75 109 141 185 243 303 363 441
#     4  12  25  49  76 104 141 195 240 296 366 431
#     4  11  28  44  70 112 138 196 248 292 356 423
#
# _framework density 23.032422
#
# number of rings (size 3 to 8) (size 9 to 14) (size 15 to 20)
#    0.000    0.400    4.000    3.000   11.200    0.800 
#    0.000    0.000    0.000    0.000    0.000    0.000 
#    0.000    0.000    0.000    0.000    0.000    0.000 
#
# Total GULP energy -496017.832598 kJ/mol
# GULP energy per Si atom -12400.445815 kJ/mol
# Density = 2.298000 g / cm^3
# Si number density = 23.032422 Si / 1000 Ang^3
#
#
#
# Elastic Constant Matrix: (Units=GPa)
#
#
# Indices 1 2 3 4 5 6 
#
# 1 138.8014 46.1770 2.6853 0.0000 0.0000 0.0000
# 2 46.1770 115.8030 25.7140 0.0000 0.0000 0.0000
# 3 2.6853 25.7140 90.8471 0.0000 0.0000 0.0000
# 4 0.0000 0.0000 0.0000 6.5144 0.0000 0.0000
# 5 0.0000 0.0000 0.0000 0.0000 31.6709 0.0000
# 6 0.0000 0.0000 0.0000 0.0000 0.0000 21.4728
#
#
#
# Elastic Compliance Matrix: (Units=1/GPa)
#
#
# Indices 1 2 3 4 5 6 
#
# 1 0.008353 -0.003496 0.000743 0.000000 0.000000 0.000000
# 2 -0.003496 0.010677 -0.002919 0.000000 0.000000 0.000000
# 3 0.000743 -0.002919 0.011812 0.000000 0.000000 0.000000
# 4 0.000000 0.000000 0.000000 0.153506 0.000000 0.000000
# 5 0.000000 0.000000 0.000000 0.000000 0.031575 0.000000
# 6 0.000000 0.000000 0.000000 0.000000 0.000000 0.046570
#
#
# Mechanical properties :
#
#
# Convention : Reuss Voigt Hill
#
# Bulk Modulus (GPa) = 51.28686 54.95600 53.12143
# Shear Modulus (GPa) = 17.83567 29.98998 23.91282
#
# Velocity S-wave (km/s) = 2.78577 3.61234 3.22564
# Velocity P-wave (km/s) = 5.71515 6.42735 6.08168
#
# Compressibility (1/GPa) = 0.01949817
#
# Stress axis : x y z
#
# Youngs Moduli (GPa) = 119.71532 93.65544 84.66158
#
# Poissons Ratio (x) = 0.32740 -0.06287
# Poissons Ratio (y) = 0.41849 0.24712
# Poissons Ratio (z) = -0.08889 0.27337
#
# Static dielectric constant tensor:
#      x y z
#    x 4.463930 0.000000 0.000000 
#    y 0.000000 4.304250 0.000000 
#    z 0.000000 0.000000 2.213180 
# 
# 
# High freq. dielectric constant tensor:
#      x y z
#    x 1.933380 0.000000 0.000000 
#    y 0.000000 1.914130 0.000000 
#    z 0.000000 0.000000 1.897810 
# 
# From -- ./inp_files/843.got.cif
#   From: 2010.03.12/outbox.cif.g09.slc.cpg/sg60_1_cif.got.tgz:843.got - 2010.04.10 18:46:24.
