data_PCOD8248636
_publ_section_title
;
Structure prediction by ZEFSAII (Michael W. Deem and Ramdas Pophale) SiO2 
 PCOD8248636
Probable space group: P B C N
;
_chemical_formula_sum "Si O2"
_cell_formula_units_Z 48
_cell_length_a 8.651371
_cell_length_b 29.475941
_cell_length_c 8.916152
_cell_angle_alpha 90.000000
_cell_angle_beta 90.000000
_cell_angle_gamma 90.000000
_cell_volume 2273.683858
_symmetry_space_group_name_H-M "P B C N"
_symmetry_group_IT_number 60
_symmetry_cell_setting 'orthorhombic'
loop_
_space_group_symop_operation_xyz
x,y,z
1/2-x,1/2-y,1/2+z
1/2+x,1/2-y,-z
-x,y,1/2-z
-x,-y,-z
1/2+x,1/2+y,1/2-z
1/2-x,1/2+y,z
x,-y,1/2+z
loop_
_atom_site_type_symbol
_atom_site_label
_atom_site_fract_x
_atom_site_fract_y
_atom_site_fract_z
Si Si1 0.594597 0.784096 0.473276
Si Si2 0.105723 0.386731 0.027378
Si Si3 0.233194 0.388719 0.348676
Si Si4 0.844478 0.029061 0.489956
Si Si5 0.166726 0.535513 0.309249
Si Si6 0.735081 0.785699 0.156969
O O1 0.639541 0.835086 0.519460
O O2 0.689529 0.771932 0.324340
O O3 0.633407 0.748806 0.604202
O O4 0.412958 0.780321 0.448539
O O5 0.200910 0.401339 0.175486
O O6 0.924007 0.393616 0.056180
O O7 0.162177 0.415501 0.886515
O O8 0.359832 0.422733 0.421730
O O9 0.297225 0.337338 0.355454
O O10 0.798801 0.037372 0.317675
O O11 0.705925 0.002186 0.568226
O O12 0.000000 0.000000 0.500000
O O13 0.000000 0.521111 0.250000
#
# Coordination Sequence:
#
# PCOD8248636 Si02
#       6
#     8   8   8   8   8   8
#     4   9  19  37  60  91 125 159 206 255 308 362
#     4   9  19  38  65  93 117 159 220 267 294 367
#     4   9  19  39  65  87 122 167 211 258 316 367
#     4  12  26  42  61  92 130 164 203 265 329 379
#     4  12  24  41  66  93 118 161 218 259 308 377
#     4   9  19  37  61  90 124 164 204 254 305 369
#
# _framework density 21.111115000000002
#
# number of rings (size 3 to 8) (size 9 to 14) (size 15 to 20)
#    0.000    2.000    1.667    4.000    2.333    2.000 
#    3.000    0.000    0.000    0.000    0.000    0.000 
#    0.000    0.000    0.000    0.000    0.000    0.000 
#
# Total GULP energy -595283.561762 kJ/mol
# GULP energy per Si atom -12401.740870 kJ/mol
# Density = 2.106307 g / cm^3
# Si number density = 21.111115 Si / 1000 Ang^3
#
#
#
# Elastic Constant Matrix: (Units=GPa)
#
#
# Indices 1 2 3 4 5 6 
#
# 1 70.2554 40.1268 35.9317 0.0000 0.0000 0.0000
# 2 40.1268 104.2680 44.4415 0.0000 0.0000 0.0000
# 3 35.9317 44.4415 86.4041 0.0000 0.0000 0.0000
# 4 0.0000 0.0000 0.0000 45.6644 0.0000 0.0000
# 5 0.0000 0.0000 0.0000 0.0000 31.9776 0.0000
# 6 0.0000 0.0000 0.0000 0.0000 0.0000 38.7459
#
#
#
# Elastic Compliance Matrix: (Units=1/GPa)
#
#
# Indices 1 2 3 4 5 6 
#
# 1 0.020178 -0.005365 -0.005632 0.000000 0.000000 0.000000
# 2 -0.005365 0.013710 -0.004821 0.000000 0.000000 0.000000
# 3 -0.005632 -0.004821 0.016395 0.000000 0.000000 0.000000
# 4 0.000000 0.000000 0.000000 0.021899 0.000000 0.000000
# 5 0.000000 0.000000 0.000000 0.000000 0.031272 0.000000
# 6 0.000000 0.000000 0.000000 0.000000 0.000000 0.025809
#
#
# Mechanical properties :
#
#
# Convention : Reuss Voigt Hill
#
# Bulk Modulus (GPa) = 53.62372 55.76974 54.69673
# Shear Modulus (GPa) = 29.91958 32.63941 31.27949
#
# Velocity S-wave (km/s) = 3.76871 3.93628 3.85341
# Velocity P-wave (km/s) = 6.66284 6.86540 6.76488
#
# Compressibility (1/GPa) = 0.01864846
#
# Stress axis : x y z
#
# Youngs Moduli (GPa) = 49.55780 72.93926 60.99420
#
# Poissons Ratio (x) = 0.39133 0.34351
# Poissons Ratio (y) = 0.26588 0.29403
# Poissons Ratio (z) = 0.27910 0.35161
#
# Static dielectric constant tensor:
#      x y z
#    x 3.471520 0.000000 0.000000 
#    y 0.000000 3.918680 0.000000 
#    z 0.000000 0.000000 3.870910 
# 
# 
# High freq. dielectric constant tensor:
#      x y z
#    x 1.803470 0.000000 0.000000 
#    y 0.000000 1.836490 0.000000 
#    z 0.000000 0.000000 1.830340 
# 
# From -- ./inp_files/4167.got.cif
#   From: 2010.03.12/outbox.cif.g09.slc.cpg/sg60_3_cif.got.tgz:4167.got - 2010.04.10 18:46:24.
