data_PCOD8248703
_publ_section_title
;
Structure prediction by ZEFSAII (Michael W. Deem and Ramdas Pophale) SiO2 
 PCOD8248703
Probable space group: P B C A
;
_chemical_formula_sum "Si O2"
_cell_formula_units_Z 56
_cell_length_a 15.221438
_cell_length_b 8.459777
_cell_length_c 21.665437
_cell_angle_alpha 90.000000
_cell_angle_beta 90.000000
_cell_angle_gamma 90.000000
_cell_volume 2789.857696
_symmetry_space_group_name_H-M "P B C A"
_symmetry_group_IT_number 61
_symmetry_cell_setting 'orthorhombic'
loop_
_space_group_symop_operation_xyz
x,y,z
1/2-x,-y,1/2+z
1/2+x,1/2-y,-z
-x,1/2+y,1/2-z
-x,-y,-z
1/2+x,y,1/2-z
1/2-x,1/2+y,z
x,1/2-y,1/2+z
loop_
_atom_site_type_symbol
_atom_site_label
_atom_site_fract_x
_atom_site_fract_y
_atom_site_fract_z
Si Si1 0.942625 0.086380 0.144129
Si Si2 0.360964 0.529065 0.978774
Si Si3 0.294622 0.842564 0.931153
Si Si4 0.242886 0.741685 0.175143
Si Si5 0.305743 0.979281 0.261880
Si Si6 0.333545 0.124643 0.853220
Si Si7 0.370013 0.997598 0.617507
O O1 0.923403 0.046220 0.072789
O O2 0.883174 0.972490 0.187572
O O3 0.921851 0.272246 0.157821
O O4 0.044375 0.049783 0.157693
O O5 0.353761 0.718774 0.968757
O O6 0.266444 0.443176 0.977272
O O7 0.399844 0.497644 0.046276
O O8 0.236470 0.748842 0.881300
O O9 0.355013 0.974310 0.896983
O O10 0.195509 0.651326 0.231323
O O11 0.166256 0.833019 0.138668
O O12 0.292814 0.629493 0.127109
O O13 0.316914 0.854446 0.206225
O O14 0.209681 0.945595 0.291421
#
# Coordination Sequence:
#
# PCOD8248703 Si02
#       7
#     8   8   8   8   8   8   8
#     4  11  22  35  65  93 117 149 204 261 300 341
#     4  10  19  35  59  88 123 156 199 250 296 361
#     4   9  16  29  57  89 112 155 196 229 309 348
#     4  10  24  40  61  79 122 170 194 238 303 364
#     4  11  18  38  63  88 116 148 201 250 297 351
#     4  10  16  32  58  93 116 142 188 257 297 347
#     4  11  24  43  56  85 124 166 202 238 304 371
#
# _framework density 20.072709
#
# number of rings (size 3 to 8) (size 9 to 14) (size 15 to 20)
#    0.000    1.714    5.714    1.286    0.000    1.143 
#    0.000    3.571    0.000    0.000    0.000    0.000 
#    0.000    0.000    0.000    0.000    0.000    0.000 
#
# Total GULP energy -694184.479259 kJ/mol
# GULP energy per Si atom -12396.151415 kJ/mol
# Density = 2.002702 g / cm^3
# Si number density = 20.072709 Si / 1000 Ang^3
#
#
#
# Elastic Constant Matrix: (Units=GPa)
#
#
# Indices 1 2 3 4 5 6 
#
# 1 79.8251 28.1525 18.0448 0.0000 0.0000 0.0000
# 2 28.1525 112.1477 21.9278 0.0000 0.0000 0.0000
# 3 18.0448 21.9278 80.0361 0.0000 0.0000 0.0000
# 4 0.0000 0.0000 0.0000 28.5630 0.0000 0.0000
# 5 0.0000 0.0000 0.0000 0.0000 14.6144 0.0000
# 6 0.0000 0.0000 0.0000 0.0000 0.0000 23.0422
#
#
#
# Elastic Compliance Matrix: (Units=1/GPa)
#
#
# Indices 1 2 3 4 5 6 
#
# 1 0.014148 -0.003094 -0.002342 0.000000 0.000000 0.000000
# 2 -0.003094 0.010098 -0.002069 0.000000 0.000000 0.000000
# 3 -0.002342 -0.002069 0.013589 0.000000 0.000000 0.000000
# 4 0.000000 0.000000 0.000000 0.035010 0.000000 0.000000
# 5 0.000000 0.000000 0.000000 0.000000 0.068426 0.000000
# 6 0.000000 0.000000 0.000000 0.000000 0.000000 0.043399
#
#
# Mechanical properties :
#
#
# Convention : Reuss Voigt Hill
#
# Bulk Modulus (GPa) = 43.81088 45.36212 44.58650
# Shear Modulus (GPa) = 24.12103 26.83617 25.47860
#
# Velocity S-wave (km/s) = 3.47029 3.66040 3.56661
# Velocity P-wave (km/s) = 6.15879 6.36495 6.26272
#
# Compressibility (1/GPa) = 0.02282538
#
# Stress axis : x y z
#
# Youngs Moduli (GPa) = 70.68191 99.02988 73.58729
#
# Poissons Ratio (x) = 0.30636 0.17236
# Poissons Ratio (y) = 0.21866 0.15226
# Poissons Ratio (z) = 0.16555 0.20490
#
# Static dielectric constant tensor:
#      x y z
#    x 3.234140 0.000000 0.000000 
#    y 0.000000 3.977520 0.000000 
#    z 0.000000 0.000000 3.543170 
# 
# 
# High freq. dielectric constant tensor:
#      x y z
#    x 1.736420 0.000000 0.000000 
#    y 0.000000 1.797460 0.000000 
#    z 0.000000 0.000000 1.782780 
# 
# From -- ./inp_files/9012.got.cif
#   From: 2010.03.12/outbox.cif.g09.slc.cpg/sg61_5_cif.got.tgz:9012.got - 2010.04.10 19:05:03.
