data_PCOD8248369
_publ_section_title
;
Structure prediction by ZEFSAII (Michael W. Deem and Ramdas Pophale) SiO2 
 PCOD8248369
Probable space group: P B C N
;
_chemical_formula_sum "Si O2"
_cell_formula_units_Z 48
_cell_length_a 9.361569
_cell_length_b 13.375466
_cell_length_c 16.278442
_cell_angle_alpha 90.000000
_cell_angle_beta 90.000000
_cell_angle_gamma 90.000000
_cell_volume 2038.310778
_symmetry_space_group_name_H-M "P B C N"
_symmetry_group_IT_number 60
_symmetry_cell_setting 'orthorhombic'
loop_
_space_group_symop_operation_xyz
x,y,z
1/2-x,1/2-y,1/2+z
1/2+x,1/2-y,-z
-x,y,1/2-z
-x,-y,-z
1/2+x,1/2+y,1/2-z
1/2-x,1/2+y,z
x,-y,1/2+z
loop_
_atom_site_type_symbol
_atom_site_label
_atom_site_fract_x
_atom_site_fract_y
_atom_site_fract_z
Si Si1 0.900938 0.125475 0.674103
Si Si2 0.150511 0.341512 0.067397
Si Si3 0.335797 0.232574 0.743878
Si Si4 0.569703 0.743394 0.958640
Si Si5 0.727242 0.054087 0.210224
Si Si6 0.066095 0.548104 0.125710
O O1 0.743886 0.171798 0.685107
O O2 0.863524 0.007752 0.675546
O O3 0.000000 0.158413 0.750000
O O4 0.972019 0.164765 0.591476
O O5 0.212833 0.304909 0.154555
O O6 0.289381 0.317233 0.010611
O O7 0.101881 0.457729 0.062390
O O8 0.016707 0.274482 0.039805
O O9 0.500000 0.206345 0.750000
O O10 0.299297 0.345527 0.760452
O O11 0.614325 0.844218 0.908718
O O12 0.650468 0.012851 0.292576
O O13 0.604244 0.062087 0.140926
#
# Coordination Sequence:
#
# PCOD8248369 Si02
#       6
#     8   8   8   8   8   8
#     4  12  22  45  70 100 137 188 238 304 360 422
#     4  12  27  45  70 104 148 197 245 298 369 451
#     4  12  24  42  70 106 138 179 247 306 358 428
#     4  12  27  47  71 103 153 196 241 298 382 437
#     4  11  22  39  76 105 133 180 246 305 363 422
#     4  11  22  45  72 105 139 195 243 298 368 439
#
# _framework density 23.548909999999999
#
# number of rings (size 3 to 8) (size 9 to 14) (size 15 to 20)
#    0.000    0.333    6.667    2.000    4.667    0.000 
#    0.000    0.833    0.000    0.000    0.000    0.000 
#    0.000    0.000    0.000    0.000    0.000    0.000 
#
# Total GULP energy -595031.777049 kJ/mol
# GULP energy per Si atom -12396.495355 kJ/mol
# Density = 2.349531 g / cm^3
# Si number density = 23.548910 Si / 1000 Ang^3
#
#
#
# Elastic Constant Matrix: (Units=GPa)
#
#
# Indices 1 2 3 4 5 6 
#
# 1 116.6946 32.0591 1.3228 0.0000 0.0000 0.0000
# 2 32.0591 126.1617 15.5792 0.0000 0.0000 0.0000
# 3 1.3228 15.5792 19.2559 0.0000 0.0000 0.0000
# 4 0.0000 0.0000 0.0000 -52.9073 0.0000 0.0000
# 5 0.0000 0.0000 0.0000 0.0000 35.9572 0.0000
# 6 0.0000 0.0000 0.0000 0.0000 0.0000 50.2690
#
#
#
# Elastic Compliance Matrix: (Units=1/GPa)
#
#
# Indices 1 2 3 4 5 6 
#
# 1 0.009247 -0.002523 0.001406 0.000000 0.000000 0.000000
# 2 -0.002523 0.009495 -0.007508 0.000000 0.000000 0.000000
# 3 0.001406 -0.007508 0.057910 0.000000 0.000000 0.000000
# 4 0.000000 0.000000 0.000000 -0.018901 0.000000 0.000000
# 5 0.000000 0.000000 0.000000 0.000000 0.027811 0.000000
# 6 0.000000 0.000000 0.000000 0.000000 0.000000 0.019893
#
#
# Mechanical properties :
#
#
# Convention : Reuss Voigt Hill
#
# Bulk Modulus (GPa) = 16.83484 40.00382 28.41933
# Shear Modulus (GPa) = 35.08638 20.87387 27.98012
#
# Velocity S-wave (km/s) = 3.86416 2.98049 3.45072
# Velocity P-wave (km/s) = 5.20321 5.37297 5.28877
#
# Compressibility (1/GPa) = 0.05940062
#
# Stress axis : x y z
#
# Youngs Moduli (GPa) = 108.14714 105.32167 17.26813
#
# Poissons Ratio (x) = 0.26576 -0.02428
# Poissons Ratio (y) = 0.27289 0.12966
# Poissons Ratio (z) = -0.15209 0.79080
#
# Static dielectric constant tensor:
#      x y z
#    x 4.467700 0.000000 0.000000 
#    y 0.000000 4.381730 0.000000 
#    z 0.000000 0.000000 4.114140 
# 
# 
# High freq. dielectric constant tensor:
#      x y z
#    x 1.946260 0.000000 0.000000 
#    y 0.000000 1.941820 0.000000 
#    z 0.000000 0.000000 1.908270 
# 
# From -- ./inp_files/19319.got.cif
#   From: 2010.03.12/outbox.cif.g09.slc.cpg/sg60_10_cif.got.tgz:19319.got - 2010.04.10 18:46:24.
