data_PCOD8248403
_publ_section_title
;
Structure prediction by ZEFSAII (Michael W. Deem and Ramdas Pophale) SiO2 
 PCOD8248403
Probable space group: P B C N
;
_chemical_formula_sum "Si O2"
_cell_formula_units_Z 40
_cell_length_a 18.118374
_cell_length_b 8.818656
_cell_length_c 11.952983
_cell_angle_alpha 90.000000
_cell_angle_beta 90.000000
_cell_angle_gamma 90.000000
_cell_volume 1909.844129
_symmetry_space_group_name_H-M "P B C N"
_symmetry_group_IT_number 60
_symmetry_cell_setting 'orthorhombic'
loop_
_space_group_symop_operation_xyz
x,y,z
1/2-x,1/2-y,1/2+z
1/2+x,1/2-y,-z
-x,y,1/2-z
-x,-y,-z
1/2+x,1/2+y,1/2-z
1/2-x,1/2+y,z
x,-y,1/2+z
loop_
_atom_site_type_symbol
_atom_site_label
_atom_site_fract_x
_atom_site_fract_y
_atom_site_fract_z
Si Si1 0.342133 0.250043 0.677739
Si Si2 0.924314 0.653287 0.189638
Si Si3 0.690842 0.900300 0.867794
Si Si4 0.468958 0.333550 0.510850
Si Si5 0.389217 0.158827 0.915525
O O1 0.274779 0.364481 0.661217
O O2 0.409928 0.319556 0.609453
O O3 0.363649 0.254679 0.808333
O O4 0.322921 0.080486 0.638040
O O5 0.861839 0.688460 0.281115
O O6 0.900158 0.515422 0.112666
O O7 0.000000 0.609006 0.250000
O O8 0.932420 0.797997 0.109359
O O9 0.674349 0.834441 0.990732
O O10 0.500000 0.500000 0.500000
O O11 0.534578 0.217793 0.534482
#
# Coordination Sequence:
#
# PCOD8248403 Si02
#       5
#     8   8   8   8   8
#     4  11  27  44  69 103 140 181 233 282 358 407
#     4  11  22  43  72  98 131 183 233 281 347 415
#     4  11  25  43  71 103 140 184 227 290 348 421
#     4  12  26  44  71 102 141 181 238 290 340 415
#     4  11  23  46  71  97 137 182 230 286 344 418
#
# _framework density 20.944116999999999
#
# number of rings (size 3 to 8) (size 9 to 14) (size 15 to 20)
#    0.000    0.800    4.000    3.600    5.600    3.200 
#    0.000    0.000    0.000    0.000    0.000    0.000 
#    0.000    0.000    0.000    0.000    0.000    0.000 
#
# Total GULP energy -496241.434674 kJ/mol
# GULP energy per Si atom -12406.035867 kJ/mol
# Density = 2.089645 g / cm^3
# Si number density = 20.944117 Si / 1000 Ang^3
#
#
#
# Elastic Constant Matrix: (Units=GPa)
#
#
# Indices 1 2 3 4 5 6 
#
# 1 71.4519 46.0945 26.8953 0.0000 0.0000 0.0000
# 2 46.0945 86.2007 62.5876 0.0000 0.0000 0.0000
# 3 26.8953 62.5876 140.6898 0.0000 0.0000 0.0000
# 4 0.0000 0.0000 0.0000 28.3934 0.0000 0.0000
# 5 0.0000 0.0000 0.0000 0.0000 34.4073 0.0000
# 6 0.0000 0.0000 0.0000 0.0000 0.0000 38.0426
#
#
#
# Elastic Compliance Matrix: (Units=1/GPa)
#
#
# Indices 1 2 3 4 5 6 
#
# 1 0.021575 -0.012618 0.001489 0.000000 0.000000 0.000000
# 2 -0.012618 0.024515 -0.008494 0.000000 0.000000 0.000000
# 3 0.001489 -0.008494 0.010602 0.000000 0.000000 0.000000
# 4 0.000000 0.000000 0.000000 0.035219 0.000000 0.000000
# 5 0.000000 0.000000 0.000000 0.000000 0.029064 0.000000
# 6 0.000000 0.000000 0.000000 0.000000 0.000000 0.026286
#
#
# Mechanical properties :
#
#
# Convention : Reuss Voigt Hill
#
# Bulk Modulus (GPa) = 57.31895 63.27745 60.29820
# Shear Modulus (GPa) = 25.99806 31.01965 28.50886
#
# Velocity S-wave (km/s) = 3.52704 3.85264 3.69343
# Velocity P-wave (km/s) = 6.63428 7.07591 6.85865
#
# Compressibility (1/GPa) = 0.01744624
#
# Stress axis : x y z
#
# Youngs Moduli (GPa) = 46.35007 40.79134 94.32403
#
# Poissons Ratio (x) = 0.51470 -0.14043
# Poissons Ratio (y) = 0.58484 0.80116
# Poissons Ratio (z) = -0.06900 0.34647
#
# Static dielectric constant tensor:
#      x y z
#    x 3.800480 0.000000 0.000000 
#    y 0.000000 3.541720 0.000000 
#    z 0.000000 0.000000 4.123740 
# 
# 
# High freq. dielectric constant tensor:
#      x y z
#    x 1.827020 0.000000 0.000000 
#    y 0.000000 1.808690 0.000000 
#    z 0.000000 0.000000 1.843430 
# 
# From -- ./inp_files/12275.got.cif
#   From: 2010.03.12/outbox.cif.g09.slc.cpg/sg60_7_cif.got.tgz:12275.got - 2010.04.10 18:46:24.
