data_PCOD8248350
_publ_section_title
;
Structure prediction by ZEFSAII (Michael W. Deem and Ramdas Pophale) SiO2 
 PCOD8248350
Probable space group: P B C N
;
_chemical_formula_sum "Si O2"
_cell_formula_units_Z 56
_cell_length_a 15.708627
_cell_length_b 10.612721
_cell_length_c 14.668790
_cell_angle_alpha 90.000000
_cell_angle_beta 90.000000
_cell_angle_gamma 90.000000
_cell_volume 2445.452693
_symmetry_space_group_name_H-M "P B C N"
_symmetry_group_IT_number 60
_symmetry_cell_setting 'orthorhombic'
loop_
_space_group_symop_operation_xyz
x,y,z
1/2-x,1/2-y,1/2+z
1/2+x,1/2-y,-z
-x,y,1/2-z
-x,-y,-z
1/2+x,1/2+y,1/2-z
1/2-x,1/2+y,z
x,-y,1/2+z
loop_
_atom_site_type_symbol
_atom_site_label
_atom_site_fract_x
_atom_site_fract_y
_atom_site_fract_z
Si Si1 0.209043 0.739204 0.323565
Si Si2 0.656058 0.318602 0.824253
Si Si3 0.578546 0.405878 0.497699
Si Si4 0.990589 0.320937 0.419197
Si Si5 0.732347 0.589039 0.506323
Si Si6 0.910271 0.092839 0.794335
Si Si7 0.389686 0.044332 0.430588
O O1 0.291622 0.732940 0.260494
O O2 0.236462 0.808115 0.415040
O O3 0.140277 0.815915 0.269574
O O4 0.165681 0.604821 0.348580
O O5 0.576745 0.224289 0.842605
O O6 0.627241 0.454892 0.795076
O O7 0.713804 0.333762 0.914389
O O8 0.500000 0.500000 0.500000
O O9 0.559279 0.290420 0.565071
O O10 0.662691 0.480926 0.528918
O O11 0.588973 0.350817 0.396136
O O12 0.939851 0.348012 0.513386
O O13 0.041963 0.445585 0.388101
O O14 0.825269 0.525284 0.499352
O O15 0.000000 0.080326 0.750000
#
# Coordination Sequence:
#
# PCOD8248350 Si02
#       7
#     8   8   8   8   8   8   8
#     4  12  26  47  70 116 147 198 255 317 368 469
#     4  11  26  46  75 107 151 201 253 310 381 445
#     4  11  21  44  76 104 142 199 254 315 374 449
#     4  11  24  46  76 110 149 199 249 314 389 456
#     4  11  25  45  78 102 150 203 258 304 375 463
#     4  11  24  41  71 107 144 188 253 312 362 443
#     4  11  26  46  74 109 156 199 248 315 393 451
#
# _framework density 22.899647000000002
#
# number of rings (size 3 to 8) (size 9 to 14) (size 15 to 20)
#    0.000    0.857    4.286    2.571    8.000    1.143 
#    0.000    1.429    0.000    0.000    0.000    0.000 
#    0.000    0.000    0.000    0.000    0.000    0.000 
#
# Total GULP energy -694556.762047 kJ/mol
# GULP energy per Si atom -12402.799322 kJ/mol
# Density = 2.284753 g / cm^3
# Si number density = 22.899647 Si / 1000 Ang^3
#
#
#
# Elastic Constant Matrix: (Units=GPa)
#
#
# Indices 1 2 3 4 5 6 
#
# 1 113.4555 37.3149 52.8377 0.0000 0.0000 0.0000
# 2 37.3149 94.8728 51.2760 0.0000 0.0000 0.0000
# 3 52.8377 51.2760 104.1753 0.0000 0.0000 0.0000
# 4 0.0000 0.0000 0.0000 32.4184 0.0000 0.0000
# 5 0.0000 0.0000 0.0000 0.0000 51.3178 0.0000
# 6 0.0000 0.0000 0.0000 0.0000 0.0000 33.6099
#
#
#
# Elastic Compliance Matrix: (Units=1/GPa)
#
#
# Indices 1 2 3 4 5 6 
#
# 1 0.011790 -0.001914 -0.005037 0.000000 0.000000 0.000000
# 2 -0.001914 0.014672 -0.006250 0.000000 0.000000 0.000000
# 3 -0.005037 -0.006250 0.015231 0.000000 0.000000 0.000000
# 4 0.000000 0.000000 0.000000 0.030847 0.000000 0.000000
# 5 0.000000 0.000000 0.000000 0.000000 0.019486 0.000000
# 6 0.000000 0.000000 0.000000 0.000000 0.000000 0.029753
#
#
# Mechanical properties :
#
#
# Convention : Reuss Voigt Hill
#
# Bulk Modulus (GPa) = 65.41381 66.15121 65.78251
# Shear Modulus (GPa) = 32.62032 34.87422 33.74727
#
# Velocity S-wave (km/s) = 3.77834 3.90669 3.84305
# Velocity P-wave (km/s) = 6.90376 7.02138 6.96282
#
# Compressibility (1/GPa) = 0.01528729
#
# Stress axis : x y z
#
# Youngs Moduli (GPa) = 84.81995 68.15885 65.65685
#
# Poissons Ratio (x) = 0.13049 0.33074
# Poissons Ratio (y) = 0.16239 0.41039
# Poissons Ratio (z) = 0.42727 0.42602
#
# Static dielectric constant tensor:
#      x y z
#    x 4.536730 0.000000 0.000000 
#    y 0.000000 3.417400 0.000000 
#    z 0.000000 0.000000 4.150260 
# 
# 
# High freq. dielectric constant tensor:
#      x y z
#    x 1.923030 0.000000 0.000000 
#    y 0.000000 1.911480 0.000000 
#    z 0.000000 0.000000 1.894430 
# 
# From -- ./inp_files/16842.got.cif
#   From: 2010.03.12/outbox.cif.g09.slc.cpg/sg60_9_cif.got.tgz:16842.got - 2010.04.10 18:46:24.
