data_PCOD8248988
_publ_section_title
;
Structure prediction by ZEFSAII (Michael W. Deem and Ramdas Pophale) SiO2 
 PCOD8248988
Probable space group: P B C A
;
_chemical_formula_sum "Si O2"
_cell_formula_units_Z 64
_cell_length_a 9.438435
_cell_length_b 12.650909
_cell_length_c 26.924298
_cell_angle_alpha 90.000000
_cell_angle_beta 90.000000
_cell_angle_gamma 90.000000
_cell_volume 3214.889941
_symmetry_space_group_name_H-M "P B C A"
_symmetry_group_IT_number 61
_symmetry_cell_setting 'orthorhombic'
loop_
_space_group_symop_operation_xyz
x,y,z
1/2-x,-y,1/2+z
1/2+x,1/2-y,-z
-x,1/2+y,1/2-z
-x,-y,-z
1/2+x,y,1/2-z
1/2-x,1/2+y,z
x,1/2-y,1/2+z
loop_
_atom_site_type_symbol
_atom_site_label
_atom_site_fract_x
_atom_site_fract_y
_atom_site_fract_z
Si Si1 0.895057 0.094552 0.489947
Si Si2 0.381817 0.254983 0.919067
Si Si3 0.567666 0.255428 0.567883
Si Si4 0.078364 0.099487 0.021839
Si Si5 0.601271 0.629802 0.262107
Si Si6 0.509495 0.685567 0.829831
Si Si7 0.317262 0.194506 0.811771
Si Si8 0.142362 0.516841 0.735237
O O1 0.889958 0.163533 0.539978
O O2 0.739867 0.061803 0.469333
O O3 0.960266 0.151040 0.442308
O O4 0.000000 0.000000 0.500000
O O5 0.221990 0.302899 0.917880
O O6 0.495617 0.349333 0.930381
O O7 0.400539 0.202821 0.864504
O O8 0.584035 0.189803 0.518449
O O9 0.494249 0.186036 0.610628
O O10 0.000000 0.000000 0.000000
O O11 0.580610 0.706461 0.309475
O O12 0.661989 0.695526 0.216212
O O13 0.451380 0.585933 0.244359
O O14 0.700658 0.528978 0.273981
O O15 0.349103 0.673308 0.812443
O O16 0.598003 0.582592 0.813679
O O17 0.379533 0.094649 0.782201
#
# Coordination Sequence:
#
# PCOD8248988 Si02
#       8
#     8   8   8   8   8   8   8   8
#     4  10  20  37  60  86 118 152 188 240 296 344
#     4   9  20  39  61  82 112 152 198 239 280 349
#     4   9  20  39  59  82 114 151 192 242 288 341
#     4  10  20  37  59  85 115 154 194 235 288 347
#     4  11  22  39  61  85 118 154 197 249 301 354
#     4  10  21  39  61  87 118 155 199 248 296 358
#     4  10  21  39  63  86 115 158 203 243 296 360
#     4  11  22  39  60  87 118 155 197 246 303 356
#
# _framework density 19.907368999999999
#
# number of rings (size 3 to 8) (size 9 to 14) (size 15 to 20)
#    0.000    2.000    2.500    0.750    0.000    3.000 
#    9.000    0.000    0.000    0.000    0.000    0.000 
#    0.000    0.000    0.000    0.000    0.000    0.000 
#
# Total GULP energy -793247.069596 kJ/mol
# GULP energy per Si atom -12394.485462 kJ/mol
# Density = 1.986206 g / cm^3
# Si number density = 19.907369 Si / 1000 Ang^3
#
#
#
# Elastic Constant Matrix: (Units=GPa)
#
#
# Indices 1 2 3 4 5 6 
#
# 1 92.8880 18.6973 7.8218 0.0000 0.0000 0.0000
# 2 18.6973 55.1310 -11.3243 0.0000 0.0000 0.0000
# 3 7.8218 -11.3243 58.3665 0.0000 0.0000 0.0000
# 4 0.0000 0.0000 0.0000 15.3164 0.0000 0.0000
# 5 0.0000 0.0000 0.0000 0.0000 29.5085 0.0000
# 6 0.0000 0.0000 0.0000 0.0000 0.0000 43.9649
#
#
#
# Elastic Compliance Matrix: (Units=1/GPa)
#
#
# Indices 1 2 3 4 5 6 
#
# 1 0.011888 -0.004540 -0.002474 0.000000 0.000000 0.000000
# 2 -0.004540 0.020625 0.004610 0.000000 0.000000 0.000000
# 3 -0.002474 0.004610 0.018359 0.000000 0.000000 0.000000
# 4 0.000000 0.000000 0.000000 0.065290 0.000000 0.000000
# 5 0.000000 0.000000 0.000000 0.000000 0.033889 0.000000
# 6 0.000000 0.000000 0.000000 0.000000 0.000000 0.022745
#
#
# Mechanical properties :
#
#
# Convention : Reuss Voigt Hill
#
# Bulk Modulus (GPa) = 21.70854 26.30834 24.00844
# Shear Modulus (GPa) = 25.91238 30.50399 28.20818
#
# Velocity S-wave (km/s) = 3.61175 3.91870 3.76835
# Velocity P-wave (km/s) = 5.32179 5.80681 5.56958
#
# Compressibility (1/GPa) = 0.04606482
#
# Stress axis : x y z
#
# Youngs Moduli (GPa) = 84.11989 48.48433 54.46890
#
# Poissons Ratio (x) = 0.22011 0.13475
# Poissons Ratio (y) = 0.38189 -0.25111
# Poissons Ratio (z) = 0.20811 -0.22352
#
# Static dielectric constant tensor:
#      x y z
#    x 3.616190 0.000000 0.000000 
#    y 0.000000 3.469960 0.000000 
#    z 0.000000 0.000000 4.063750 
# 
# 
# High freq. dielectric constant tensor:
#      x y z
#    x 1.787600 0.000000 0.000000 
#    y 0.000000 1.772710 0.000000 
#    z 0.000000 0.000000 1.767050 
# 
# From -- ./inp_files/2425.got.cif
#   From: 2010.03.12/outbox.cif.g09.slc.cpg/sg61_2_cif.got.tgz:2425.got - 2010.04.10 19:05:03.
