data_PCOD8248051
_publ_section_title
;
Structure prediction by ZEFSAII (Michael W. Deem and Ramdas Pophale) SiO2 
 PCOD8248051
Probable space group: P B C N
;
_chemical_formula_sum "Si O2"
_cell_formula_units_Z 48
_cell_length_a 11.269607
_cell_length_b 11.588399
_cell_length_c 17.523735
_cell_angle_alpha 90.000000
_cell_angle_beta 90.000000
_cell_angle_gamma 90.000000
_cell_volume 2288.542006
_symmetry_space_group_name_H-M "P B C N"
_symmetry_group_IT_number 60
_symmetry_cell_setting 'orthorhombic'
loop_
_space_group_symop_operation_xyz
x,y,z
1/2-x,1/2-y,1/2+z
1/2+x,1/2-y,-z
-x,y,1/2-z
-x,-y,-z
1/2+x,1/2+y,1/2-z
1/2-x,1/2+y,z
x,-y,1/2+z
loop_
_atom_site_type_symbol
_atom_site_label
_atom_site_fract_x
_atom_site_fract_y
_atom_site_fract_z
Si Si1 0.407109 0.221941 0.096029
Si Si2 0.443088 0.970616 0.826260
Si Si3 0.310219 0.632315 0.323933
Si Si4 0.571377 0.194785 0.581673
Si Si5 0.148433 0.176674 0.155486
Si Si6 0.988891 0.956072 0.337319
O O1 0.465491 0.124363 0.146379
O O2 0.269242 0.221954 0.118303
O O3 0.470772 0.344440 0.110571
O O4 0.426679 0.192165 0.008595
O O5 0.500000 0.026911 0.750000
O O6 0.321049 0.908050 0.806531
O O7 0.419129 0.063826 0.891045
O O8 0.315344 0.731832 0.388390
O O9 0.358652 0.693557 0.246908
O O10 0.389949 0.525638 0.354621
O O11 0.452162 0.249365 0.614856
O O12 0.123572 0.039562 0.144378
O O13 0.000000 0.914797 0.250000
#
# Coordination Sequence:
#
# PCOD8248051 Si02
#       6
#     8   8   8   8   8   8
#     4  12  26  40  68 103 134 172 220 277 336 398
#     4  12  25  43  67  98 130 173 230 271 328 393
#     4  10  23  45  70  93 130 177 231 271 318 403
#     4  11  27  43  67  98 140 177 211 280 345 387
#     4  10  23  45  67  96 133 175 226 270 333 392
#     4   9  22  42  67  94 125 175 223 270 325 390
#
# _framework density 20.974055
#
# number of rings (size 3 to 8) (size 9 to 14) (size 15 to 20)
#    0.000    1.333    1.667    3.500    7.000    5.333 
#    0.000    0.000    0.000    0.000    0.000    0.000 
#    0.000    0.000    0.000    0.000    0.000    0.000 
#
# Total GULP energy -595188.471761 kJ/mol
# GULP energy per Si atom -12399.759828 kJ/mol
# Density = 2.092632 g / cm^3
# Si number density = 20.974055 Si / 1000 Ang^3
#
#
#
# Elastic Constant Matrix: (Units=GPa)
#
#
# Indices 1 2 3 4 5 6 
#
# 1 104.7126 17.9041 29.8061 0.0000 0.0000 0.0000
# 2 17.9041 77.0596 20.9086 0.0000 0.0000 0.0000
# 3 29.8061 20.9086 91.4917 0.0000 0.0000 0.0000
# 4 0.0000 0.0000 0.0000 13.5588 0.0000 0.0000
# 5 0.0000 0.0000 0.0000 0.0000 21.7680 0.0000
# 6 0.0000 0.0000 0.0000 0.0000 0.0000 30.0109
#
#
#
# Elastic Compliance Matrix: (Units=1/GPa)
#
#
# Indices 1 2 3 4 5 6 
#
# 1 0.010718 -0.001645 -0.003116 0.000000 0.000000 0.000000
# 2 -0.001645 0.014087 -0.002684 0.000000 0.000000 0.000000
# 3 -0.003116 -0.002684 0.012558 0.000000 0.000000 0.000000
# 4 0.000000 0.000000 0.000000 0.073753 0.000000 0.000000
# 5 0.000000 0.000000 0.000000 0.000000 0.045939 0.000000
# 6 0.000000 0.000000 0.000000 0.000000 0.000000 0.033321
#
#
# Mechanical properties :
#
#
# Convention : Reuss Voigt Hill
#
# Bulk Modulus (GPa) = 44.49331 45.61127 45.05229
# Shear Modulus (GPa) = 23.50101 26.71056 25.10578
#
# Velocity S-wave (km/s) = 3.35099 3.57249 3.46351
# Velocity P-wave (km/s) = 6.01928 6.22982 6.12545
#
# Compressibility (1/GPa) = 0.02247529
#
# Stress axis : x y z
#
# Youngs Moduli (GPa) = 93.30014 70.98618 79.62871
#
# Poissons Ratio (x) = 0.11676 0.24811
# Poissons Ratio (y) = 0.15346 0.21368
# Poissons Ratio (z) = 0.29071 0.19049
#
# Static dielectric constant tensor:
#      x y z
#    x 3.855260 0.000000 0.000000 
#    y 0.000000 3.808260 0.000000 
#    z 0.000000 0.000000 3.795460 
# 
# 
# High freq. dielectric constant tensor:
#      x y z
#    x 1.827310 0.000000 0.000000 
#    y 0.000000 1.826230 0.000000 
#    z 0.000000 0.000000 1.819620 
# 
# From -- ./inp_files/20007.got.cif
#   From: 2010.03.12/outbox.cif.g09.slc.cpg/sg60_11_cif.got.tgz:20007.got - 2010.04.10 18:46:24.
