data_PCOD8248886
_publ_section_title
;
Structure prediction by ZEFSAII (Michael W. Deem and Ramdas Pophale) SiO2 
 PCOD8248886
Probable space group: P B C A
;
_chemical_formula_sum "Si O2"
_cell_formula_units_Z 56
_cell_length_a 14.336901
_cell_length_b 13.023178
_cell_length_c 13.201119
_cell_angle_alpha 90.000000
_cell_angle_beta 90.000000
_cell_angle_gamma 90.000000
_cell_volume 2464.807511
_symmetry_space_group_name_H-M "P B C A"
_symmetry_group_IT_number 61
_symmetry_cell_setting 'orthorhombic'
loop_
_space_group_symop_operation_xyz
x,y,z
1/2-x,-y,1/2+z
1/2+x,1/2-y,-z
-x,1/2+y,1/2-z
-x,-y,-z
1/2+x,y,1/2-z
1/2-x,1/2+y,z
x,1/2-y,1/2+z
loop_
_atom_site_type_symbol
_atom_site_label
_atom_site_fract_x
_atom_site_fract_y
_atom_site_fract_z
Si Si1 0.411362 0.347143 0.082062
Si Si2 0.253162 0.178990 0.045789
Si Si3 0.908807 0.650865 0.188358
Si Si4 0.946329 0.270297 0.210319
Si Si5 0.298908 0.997655 0.680405
Si Si6 0.244382 0.321391 0.317882
Si Si7 0.942740 0.728325 0.975093
O O1 0.339252 0.254697 0.061056
O O2 0.454863 0.345870 0.194687
O O3 0.358809 0.456828 0.084222
O O4 0.497852 0.332141 0.005564
O O5 0.265953 0.087879 0.127933
O O6 0.245103 0.134096 0.932087
O O7 0.156972 0.239005 0.069225
O O8 0.860195 0.547767 0.226998
O O9 0.842949 0.749693 0.203694
O O10 0.934858 0.647673 0.068502
O O11 0.000737 0.664980 0.258297
O O12 0.837008 0.250220 0.190237
O O13 0.997540 0.324203 0.114589
O O14 0.240480 0.088391 0.734010
#
# Coordination Sequence:
#
# PCOD8248886 Si02
#       7
#     8   8   8   8   8   8   8
#     4  10  23  41  63  94 126 165 208 259 313 372
#     4  11  22  42  65  90 127 167 207 257 316 369
#     4  10  22  42  64  91 125 167 204 259 316 371
#     4  10  19  40  66  84 121 166 204 251 310 370
#     4  11  22  39  63  96 127 158 217 256 308 374
#     4  10  23  42  63  91 128 167 208 255 316 376
#     4  10  21  40  68  87 120 169 209 248 320 368
#
# _framework density 22.719826999999999
#
# number of rings (size 3 to 8) (size 9 to 14) (size 15 to 20)
#    0.000    1.714    2.857    1.714    0.000    2.857 
#    2.571   17.143    0.000    0.000    0.000    0.000 
#    0.000    0.000    0.000    0.000    0.000    0.000 
#
# Total GULP energy -693796.542982 kJ/mol
# GULP energy per Si atom -12389.223982 kJ/mol
# Density = 2.266812 g / cm^3
# Si number density = 22.719827 Si / 1000 Ang^3
#
#
#
# Elastic Constant Matrix: (Units=GPa)
#
#
# Indices 1 2 3 4 5 6 
#
# 1 78.6044 9.5405 22.3915 0.0000 0.0000 0.0000
# 2 9.5405 62.2365 21.6151 0.0000 0.0000 0.0000
# 3 22.3915 21.6151 105.0093 0.0000 0.0000 0.0000
# 4 0.0000 0.0000 0.0000 20.1416 0.0000 0.0000
# 5 0.0000 0.0000 0.0000 0.0000 39.9260 0.0000
# 6 0.0000 0.0000 0.0000 0.0000 0.0000 20.7565
#
#
#
# Elastic Compliance Matrix: (Units=1/GPa)
#
#
# Indices 1 2 3 4 5 6 
#
# 1 0.013622 -0.001162 -0.002665 0.000000 0.000000 0.000000
# 2 -0.001162 0.017404 -0.003335 0.000000 0.000000 0.000000
# 3 -0.002665 -0.003335 0.010778 0.000000 0.000000 0.000000
# 4 0.000000 0.000000 0.000000 0.049648 0.000000 0.000000
# 5 0.000000 0.000000 0.000000 0.000000 0.025046 0.000000
# 6 0.000000 0.000000 0.000000 0.000000 0.000000 0.048178
#
#
# Mechanical properties :
#
#
# Convention : Reuss Voigt Hill
#
# Bulk Modulus (GPa) = 36.39134 39.21606 37.80370
# Shear Modulus (GPa) = 26.57293 28.98501 27.77897
#
# Velocity S-wave (km/s) = 3.42364 3.57565 3.50047
# Velocity P-wave (km/s) = 5.62855 5.86048 5.74569
#
# Compressibility (1/GPa) = 0.02747907
#
# Stress axis : x y z
#
# Youngs Moduli (GPa) = 73.40895 57.45783 92.78404
#
# Poissons Ratio (x) = 0.06679 0.24731
# Poissons Ratio (y) = 0.08534 0.30939
# Poissons Ratio (z) = 0.19567 0.19160
#
# Static dielectric constant tensor:
#      x y z
#    x 4.383930 0.000000 0.000000 
#    y 0.000000 3.669900 0.000000 
#    z 0.000000 0.000000 4.572020 
# 
# 
# High freq. dielectric constant tensor:
#      x y z
#    x 1.904610 0.000000 0.000000 
#    y 0.000000 1.839830 0.000000 
#    z 0.000000 0.000000 1.921820 
# 
# From -- ./inp_files/7831.got.cif
#   From: 2010.03.12/outbox.cif.g09.slc.cpg/sg61_4_cif.got.tgz:7831.got - 2010.04.10 19:05:03.
