data_PCOD8248971
_publ_section_title
;
Structure prediction by ZEFSAII (Michael W. Deem and Ramdas Pophale) SiO2 
 PCOD8248971
Probable space group: P B C A
;
_chemical_formula_sum "Si O2"
_cell_formula_units_Z 56
_cell_length_a 8.978109
_cell_length_b 15.003324
_cell_length_c 19.294269
_cell_angle_alpha 90.000000
_cell_angle_beta 90.000000
_cell_angle_gamma 90.000000
_cell_volume 2598.966556
_symmetry_space_group_name_H-M "P B C A"
_symmetry_group_IT_number 61
_symmetry_cell_setting 'orthorhombic'
loop_
_space_group_symop_operation_xyz
x,y,z
1/2-x,-y,1/2+z
1/2+x,1/2-y,-z
-x,1/2+y,1/2-z
-x,-y,-z
1/2+x,y,1/2-z
1/2-x,1/2+y,z
x,1/2-y,1/2+z
loop_
_atom_site_type_symbol
_atom_site_label
_atom_site_fract_x
_atom_site_fract_y
_atom_site_fract_z
Si Si1 0.479267 0.534773 0.907214
Si Si2 0.317607 0.595032 0.275747
Si Si3 0.971739 0.347473 0.156521
Si Si4 0.250000 0.500000 0.514141
Si Si5 0.182393 0.095032 0.775748
Si Si6 0.520733 0.465227 0.592786
Si Si7 0.971739 0.347473 0.656521
O O1 0.643229 0.560308 0.936118
O O2 0.445085 0.582283 0.834873
O O3 0.472971 0.426425 0.899656
O O4 0.354709 0.560923 0.964579
O O5 0.250000 0.500000 0.253902
O O6 0.445085 0.582283 0.334873
O O7 0.393704 0.639496 0.210328
O O8 0.185684 0.656353 0.303532
O O9 0.814316 0.343647 0.196468
O O10 0.972971 0.426425 0.100344
O O11 0.993148 0.250000 0.121293
O O12 0.106296 0.360503 0.210328
O O13 0.356771 0.439692 0.563883
O O14 0.354709 0.560922 0.464579
#
# Coordination Sequence:
#
# PCOD8248971 Si02
#       7
#     8   8   8   8   8   8   8
#     4  10  20  37  60  84 107 147 193 229 265 335
#     4  10  20  37  58  85 110 150 189 232 276 338
#     4  11  22  36  56  87 119 144 178 238 295 332
#     4  10  20  36  62  82 104 148 202 224 262 318
#     4  10  20  37  58  85 110 150 189 232 276 338
#     4  10  20  37  60  84 107 147 193 229 265 335
#     4  11  22  36  56  87 119 144 178 238 295 332
#
# _framework density 21.547025000000001
#
# number of rings (size 3 to 8) (size 9 to 14) (size 15 to 20)
#    0.000    1.714    4.286    4.286    6.000    0.000 
#    0.000    1.429    0.000    0.000    0.000    0.000 
#    0.000    0.000    0.000    0.000    0.000    0.000 
#
# Total GULP energy -694018.678807 kJ/mol
# GULP energy per Si atom -12393.190693 kJ/mol
# Density = 2.149798 g / cm^3
# Si number density = 21.547025 Si / 1000 Ang^3
#
#
#
# Elastic Constant Matrix: (Units=GPa)
#
#
# Indices 1 2 3 4 5 6 
#
# 1 119.3838 2.6854 27.2330 0.0000 0.0000 0.0000
# 2 2.6854 86.5223 14.7257 0.0000 0.0000 0.0000
# 3 27.2330 14.7257 52.0410 0.0000 0.0000 0.0000
# 4 0.0000 0.0000 0.0000 0.4487 0.0000 0.0000
# 5 0.0000 0.0000 0.0000 0.0000 44.3066 0.0000
# 6 0.0000 0.0000 0.0000 0.0000 0.0000 10.7350
#
#
#
# Elastic Compliance Matrix: (Units=1/GPa)
#
#
# Indices 1 2 3 4 5 6 
#
# 1 0.009540 0.000582 -0.005157 0.000000 0.000000 0.000000
# 2 0.000582 0.012178 -0.003750 0.000000 0.000000 0.000000
# 3 -0.005157 -0.003750 0.022975 0.000000 0.000000 0.000000
# 4 0.000000 0.000000 0.000000 2.228834 0.000000 0.000000
# 5 0.000000 0.000000 0.000000 0.000000 0.022570 0.000000
# 6 0.000000 0.000000 0.000000 0.000000 0.000000 0.093153
#
#
# Mechanical properties :
#
#
# Convention : Reuss Voigt Hill
#
# Bulk Modulus (GPa) = 35.66058 38.58171 37.12114
# Shear Modulus (GPa) = 2.07018 25.31826 13.69422
#
# Velocity S-wave (km/s) = 0.98125 3.43158 2.52375
# Velocity P-wave (km/s) = 4.22728 5.80049 5.07521
#
# Compressibility (1/GPa) = 0.02804217
#
# Stress axis : x y z
#
# Youngs Moduli (GPa) = 104.82680 82.11567 43.52508
#
# Poissons Ratio (x) = -0.04775 0.22444
# Poissons Ratio (y) = -0.06096 0.16323
# Poissons Ratio (z) = 0.54055 0.30795
#
# Static dielectric constant tensor:
#      x y z
#    x 4.246870 0.000000 0.000000 
#    y 0.000000 3.479360 0.000000 
#    z 0.000000 0.000000 3.836140 
# 
# 
# High freq. dielectric constant tensor:
#      x y z
#    x 1.873480 0.000000 0.000000 
#    y 0.000000 1.780900 0.000000 
#    z 0.000000 0.000000 1.842800 
# 
# From -- ./inp_files/10155.got.cif
#   From: 2010.03.12/outbox.cif.g09.slc.cpg/sg61_6_cif.got.tgz:10155.got - 2010.04.10 19:05:03.
