data_PCOD8248934
_publ_section_title
;
Structure prediction by ZEFSAII (Michael W. Deem and Ramdas Pophale) SiO2 
 PCOD8248934
Probable space group: P B C A
;
_chemical_formula_sum "Si O2"
_cell_formula_units_Z 64
_cell_length_a 17.730892
_cell_length_b 18.487950
_cell_length_c 9.408845
_cell_angle_alpha 90.000000
_cell_angle_beta 90.000000
_cell_angle_gamma 90.000000
_cell_volume 3084.293201
_symmetry_space_group_name_H-M "P B C A"
_symmetry_group_IT_number 61
_symmetry_cell_setting 'orthorhombic'
loop_
_space_group_symop_operation_xyz
x,y,z
1/2-x,-y,1/2+z
1/2+x,1/2-y,-z
-x,1/2+y,1/2-z
-x,-y,-z
1/2+x,y,1/2-z
1/2-x,1/2+y,z
x,1/2-y,1/2+z
loop_
_atom_site_type_symbol
_atom_site_label
_atom_site_fract_x
_atom_site_fract_y
_atom_site_fract_z
Si Si1 0.026417 0.823148 0.174920
Si Si2 0.480589 0.043184 0.138924
Si Si3 0.347043 0.699945 0.863498
Si Si4 0.676584 0.018391 0.853876
Si Si5 0.793296 0.552850 0.540770
Si Si6 0.934748 0.483806 0.393315
Si Si7 0.151428 0.324693 0.056366
Si Si8 0.977589 0.192023 0.509099
O O1 0.062940 0.898464 0.130829
O O2 0.059197 0.813582 0.334968
O O3 0.935788 0.818710 0.158067
O O4 0.058109 0.761097 0.070701
O O5 0.404061 0.009468 0.201307
O O6 0.548307 0.031036 0.251193
O O7 0.466379 0.126153 0.100150
O O8 0.500000 0.000000 0.000000
O O9 0.314848 0.637086 0.965315
O O10 0.312333 0.700112 0.705786
O O11 0.316848 0.776085 0.927392
O O12 0.720512 0.032186 0.706299
O O13 0.666197 0.089534 0.954791
O O14 0.716220 0.959069 0.953478
O O15 0.854664 0.504121 0.459619
O O16 0.000000 0.500000 0.500000
O O17 0.064888 0.301731 0.046355
#
# Coordination Sequence:
#
# PCOD8248934 Si02
#       8
#     8   8   8   8   8   8   8   8
#     4  10  20  35  56  90 124 155 204 255 308 364
#     4  12  22  40  65  91 123 161 209 258 308 370
#     4   9  18  35  56  85 117 152 196 247 299 363
#     4  11  24  41  59  91 125 159 207 256 308 375
#     4  11  25  40  61  90 124 162 206 256 313 370
#     4  12  22  40  65  90 124 162 208 259 311 365
#     4   9  18  35  56  84 118 150 196 249 297 363
#     4  10  21  34  58  91 123 159 202 255 308 364
#
# _framework density 20.750295999999999
#
# number of rings (size 3 to 8) (size 9 to 14) (size 15 to 20)
#    0.000    1.500    5.000    0.750    3.500    3.000 
#    0.000    1.250    0.000    0.000    0.000    0.000 
#    0.000    0.000    0.000    0.000    0.000    0.000 
#
# Total GULP energy -793013.629674 kJ/mol
# GULP energy per Si atom -12390.837964 kJ/mol
# Density = 2.070307 g / cm^3
# Si number density = 20.750296 Si / 1000 Ang^3
#
#
#
# Elastic Constant Matrix: (Units=GPa)
#
#
# Indices 1 2 3 4 5 6 
#
# 1 24.4144 10.5891 4.3730 0.0000 0.0000 0.0000
# 2 10.5891 139.7308 59.5190 0.0000 0.0000 0.0000
# 3 4.3730 59.5190 99.4606 0.0000 0.0000 0.0000
# 4 0.0000 0.0000 0.0000 46.9859 0.0000 0.0000
# 5 0.0000 0.0000 0.0000 0.0000 27.7070 0.0000
# 6 0.0000 0.0000 0.0000 0.0000 0.0000 19.4633
#
#
#
# Elastic Compliance Matrix: (Units=1/GPa)
#
#
# Indices 1 2 3 4 5 6 
#
# 1 0.042352 -0.003243 0.000079 0.000000 0.000000 0.000000
# 2 -0.003243 0.009853 -0.005754 0.000000 0.000000 0.000000
# 3 0.000079 -0.005754 0.013494 0.000000 0.000000 0.000000
# 4 0.000000 0.000000 0.000000 0.021283 0.000000 0.000000
# 5 0.000000 0.000000 0.000000 0.000000 0.036092 0.000000
# 6 0.000000 0.000000 0.000000 0.000000 0.000000 0.051379
#
#
# Mechanical properties :
#
#
# Convention : Reuss Voigt Hill
#
# Bulk Modulus (GPa) = 20.89306 45.84086 33.36696
# Shear Modulus (GPa) = 24.01038 31.43957 27.72498
#
# Velocity S-wave (km/s) = 3.40532 3.89670 3.65927
# Velocity P-wave (km/s) = 5.05493 6.51040 5.82828
#
# Compressibility (1/GPa) = 0.04786278
#
# Stress axis : x y z
#
# Youngs Moduli (GPa) = 23.61166 101.48968 74.10741
#
# Poissons Ratio (x) = 0.32913 -0.00582
# Poissons Ratio (y) = 0.07657 0.42640
# Poissons Ratio (z) = -0.00186 0.58395
#
# Static dielectric constant tensor:
#      x y z
#    x 3.312720 0.000000 0.000000 
#    y 0.000000 4.409830 0.000000 
#    z 0.000000 0.000000 4.113390 
# 
# 
# High freq. dielectric constant tensor:
#      x y z
#    x 1.763990 0.000000 0.000000 
#    y 0.000000 1.816570 0.000000 
#    z 0.000000 0.000000 1.830150 
# 
# From -- ./inp_files/3727.got.cif
#   From: 2010.03.12/outbox.cif.g09.slc.cpg/sg61_2_cif.got.tgz:3727.got - 2010.04.10 19:05:03.
