data_PCOD8248925
_publ_section_title
;
Structure prediction by ZEFSAII (Michael W. Deem and Ramdas Pophale) SiO2 
 PCOD8248925
Probable space group: P B C A
;
_chemical_formula_sum "Si O2"
_cell_formula_units_Z 56
_cell_length_a 24.499545
_cell_length_b 4.975855
_cell_length_c 22.391394
_cell_angle_alpha 90.000000
_cell_angle_beta 90.000000
_cell_angle_gamma 90.000000
_cell_volume 2729.649385
_symmetry_space_group_name_H-M "P B C A"
_symmetry_group_IT_number 61
_symmetry_cell_setting 'orthorhombic'
loop_
_space_group_symop_operation_xyz
x,y,z
1/2-x,-y,1/2+z
1/2+x,1/2-y,-z
-x,1/2+y,1/2-z
-x,-y,-z
1/2+x,y,1/2-z
1/2-x,1/2+y,z
x,1/2-y,1/2+z
loop_
_atom_site_type_symbol
_atom_site_label
_atom_site_fract_x
_atom_site_fract_y
_atom_site_fract_z
Si Si1 0.642012 0.075665 0.899534
Si Si2 0.285584 0.473591 0.493089
Si Si3 0.512985 0.589839 0.212123
Si Si4 0.086569 0.581067 0.648257
Si Si5 0.629310 0.757646 0.226318
Si Si6 0.286211 0.980444 0.855880
Si Si7 0.285794 0.920465 0.211338
O O1 0.661380 0.031548 0.967063
O O2 0.617687 0.371520 0.893520
O O3 0.593734 0.869410 0.882583
O O4 0.694369 0.036680 0.856524
O O5 0.236345 0.677394 0.507470
O O6 0.304096 0.499741 0.424662
O O7 0.514357 0.363010 0.263423
O O8 0.477684 0.488607 0.155179
O O9 0.575341 0.646728 0.192904
O O10 0.112686 0.575176 0.714585
O O11 0.660096 0.960049 0.182275
O O12 0.665864 0.499484 0.243651
O O13 0.236791 0.185473 0.840475
O O14 0.233085 0.113402 0.222785
#
# Coordination Sequence:
#
# PCOD8248925 Si02
#       7
#     8   8   8   8   8   8   8
#     4  11  20  34  53  75 104 136 170 214 266 303
#     4  10  20  36  55  76 104 141 180 211 249 310
#     4  10  20  35  53  75 105 138 175 212 257 318
#     4  10  21  34  53  80 103 132 173 220 264 308
#     4  10  21  35  54  76 107 140 170 209 264 310
#     4  10  22  37  54  78 108 142 178 211 248 308
#     4  11  20  29  44  72 103 127 158 201 250 303
#
# _framework density 20.515457000000001
#
# number of rings (size 3 to 8) (size 9 to 14) (size 15 to 20)
#    0.000    1.714    0.000    6.857    0.000    5.714 
#    0.000    0.000    0.000    1.714    0.000    0.000 
#    0.000    0.000    0.000    0.000    0.000    0.000 
#
# Total GULP energy -694634.248349 kJ/mol
# GULP energy per Si atom -12404.183006 kJ/mol
# Density = 2.046876 g / cm^3
# Si number density = 20.515457 Si / 1000 Ang^3
#
#
#
# Elastic Constant Matrix: (Units=GPa)
#
#
# Indices 1 2 3 4 5 6 
#
# 1 94.1595 17.9562 21.3426 0.0000 0.0000 0.0000
# 2 17.9562 80.9497 7.7267 0.0000 0.0000 0.0000
# 3 21.3426 7.7267 51.2767 0.0000 0.0000 0.0000
# 4 0.0000 0.0000 0.0000 20.9654 0.0000 0.0000
# 5 0.0000 0.0000 0.0000 0.0000 21.5869 0.0000
# 6 0.0000 0.0000 0.0000 0.0000 0.0000 26.1909
#
#
#
# Elastic Compliance Matrix: (Units=1/GPa)
#
#
# Indices 1 2 3 4 5 6 
#
# 1 0.012113 -0.002238 -0.004705 0.000000 0.000000 0.000000
# 2 -0.002238 0.012947 -0.001019 0.000000 0.000000 0.000000
# 3 -0.004705 -0.001019 0.021614 0.000000 0.000000 0.000000
# 4 0.000000 0.000000 0.000000 0.047698 0.000000 0.000000
# 5 0.000000 0.000000 0.000000 0.000000 0.046324 0.000000
# 6 0.000000 0.000000 0.000000 0.000000 0.000000 0.038181
#
#
# Mechanical properties :
#
#
# Convention : Reuss Voigt Hill
#
# Bulk Modulus (GPa) = 32.52011 35.60410 34.06210
# Shear Modulus (GPa) = 24.38409 25.70600 25.04504
#
# Velocity S-wave (km/s) = 3.45131 3.54362 3.49777
# Velocity P-wave (km/s) = 5.63631 5.84256 5.74036
#
# Compressibility (1/GPa) = 0.03075021
#
# Stress axis : x y z
#
# Youngs Moduli (GPa) = 82.55299 77.23750 46.26664
#
# Poissons Ratio (x) = 0.17285 0.21767
# Poissons Ratio (y) = 0.18475 0.04717
# Poissons Ratio (z) = 0.38838 0.07874
#
# Static dielectric constant tensor:
#      x y z
#    x 3.687060 0.000000 0.000000 
#    y 0.000000 3.857180 0.000000 
#    z 0.000000 0.000000 3.563240 
# 
# 
# High freq. dielectric constant tensor:
#      x y z
#    x 1.786700 0.000000 0.000000 
#    y 0.000000 1.824190 0.000000 
#    z 0.000000 0.000000 1.771780 
# 
# From -- ./inp_files/10660.got.cif
#   From: 2010.03.12/outbox.cif.g09.slc.cpg/sg61_6_cif.got.tgz:10660.got - 2010.04.10 19:05:03.
