data_PCOD8248752
_publ_section_title
;
Structure prediction by ZEFSAII (Michael W. Deem and Ramdas Pophale) SiO2 
 PCOD8248752
Probable space group: P B C A
;
_chemical_formula_sum "Si O2"
_cell_formula_units_Z 56
_cell_length_a 17.380653
_cell_length_b 17.897574
_cell_length_c 10.645255
_cell_angle_alpha 90.000000
_cell_angle_beta 90.000000
_cell_angle_gamma 90.000000
_cell_volume 3311.435688
_symmetry_space_group_name_H-M "P B C A"
_symmetry_group_IT_number 61
_symmetry_cell_setting 'orthorhombic'
loop_
_space_group_symop_operation_xyz
x,y,z
1/2-x,-y,1/2+z
1/2+x,1/2-y,-z
-x,1/2+y,1/2-z
-x,-y,-z
1/2+x,y,1/2-z
1/2-x,1/2+y,z
x,1/2-y,1/2+z
loop_
_atom_site_type_symbol
_atom_site_label
_atom_site_fract_x
_atom_site_fract_y
_atom_site_fract_z
Si Si1 0.792596 0.890904 0.159961
Si Si2 0.540317 0.388627 0.204736
Si Si3 0.059759 0.709564 0.873161
Si Si4 0.321849 0.358601 0.556946
Si Si5 0.812341 0.206238 0.832243
Si Si6 0.873751 0.028887 0.231881
Si Si7 0.075361 0.862038 0.986310
O O1 0.879352 0.857665 0.145108
O O2 0.753849 0.842986 0.270451
O O3 0.798843 0.978946 0.195132
O O4 0.744510 0.889087 0.032847
O O5 0.512987 0.335285 0.318221
O O6 0.556540 0.470986 0.264515
O O7 0.478294 0.396832 0.093969
O O8 0.118764 0.723540 0.761694
O O9 0.100594 0.663137 0.983331
O O10 0.032696 0.790118 0.925024
O O11 0.282663 0.287929 0.626564
O O12 0.348853 0.422061 0.651322
O O13 0.843302 0.163056 0.954482
O O14 0.904640 0.077083 0.116567
#
# Coordination Sequence:
#
# PCOD8248752 Si02
#       7
#     8   8   8   8   8   8   8
#     4   9  22  34  52  82 114 137 177 229 276 310
#     4   9  21  35  53  81 114 135 176 231 277 312
#     4   9  18  35  58  82  98 144 186 221 260 325
#     4  10  19  36  58  77 109 146 188 215 262 331
#     4   9  18  35  58  79 101 143 186 221 256 331
#     4  10  21  34  53  82 108 143 174 225 272 327
#     4  10  18  34  61  76 106 145 186 215 267 329
#
# _framework density 16.911095
#
# number of rings (size 3 to 8) (size 9 to 14) (size 15 to 20)
#    0.857    1.714    1.429    0.429    2.000    1.714 
#    0.000    0.000    0.000    0.000    0.000    0.000 
#    0.000    0.000    0.000    0.000    0.000    0.000 
#
# Total GULP energy -693951.091846 kJ/mol
# GULP energy per Si atom -12391.983783 kJ/mol
# Density = 1.687260 g / cm^3
# Si number density = 16.911095 Si / 1000 Ang^3
#
#
#
# Elastic Constant Matrix: (Units=GPa)
#
#
# Indices 1 2 3 4 5 6 
#
# 1 72.6777 54.1904 37.7649 0.0000 0.0000 0.0000
# 2 54.1904 129.7492 67.8817 0.0000 0.0000 0.0000
# 3 37.7649 67.8817 93.2549 0.0000 0.0000 0.0000
# 4 0.0000 0.0000 0.0000 31.8392 0.0000 0.0000
# 5 0.0000 0.0000 0.0000 0.0000 23.1557 0.0000
# 6 0.0000 0.0000 0.0000 0.0000 0.0000 14.4756
#
#
#
# Elastic Compliance Matrix: (Units=1/GPa)
#
#
# Indices 1 2 3 4 5 6 
#
# 1 0.020614 -0.006851 -0.003361 0.000000 0.000000 0.000000
# 2 -0.006851 0.014725 -0.007944 0.000000 0.000000 0.000000
# 3 -0.003361 -0.007944 0.017867 0.000000 0.000000 0.000000
# 4 0.000000 0.000000 0.000000 0.031408 0.000000 0.000000
# 5 0.000000 0.000000 0.000000 0.000000 0.043186 0.000000
# 6 0.000000 0.000000 0.000000 0.000000 0.000000 0.069082
#
#
# Mechanical properties :
#
#
# Convention : Reuss Voigt Hill
#
# Bulk Modulus (GPa) = 59.19352 68.37287 63.78320
# Shear Modulus (GPa) = 20.93591 22.95044 21.94318
#
# Velocity S-wave (km/s) = 3.52234 3.68791 3.60608
# Velocity P-wave (km/s) = 7.18479 7.65851 7.42543
#
# Compressibility (1/GPa) = 0.01689374
#
# Stress axis : x y z
#
# Youngs Moduli (GPa) = 48.51006 67.91341 55.97008
#
# Poissons Ratio (x) = 0.46530 0.18811
# Poissons Ratio (y) = 0.33236 0.44461
# Poissons Ratio (z) = 0.16304 0.53949
#
# Static dielectric constant tensor:
#      x y z
#    x 3.001530 0.000000 0.000000 
#    y 0.000000 3.201900 0.000000 
#    z 0.000000 0.000000 3.206840 
# 
# 
# High freq. dielectric constant tensor:
#      x y z
#    x 1.631330 0.000000 0.000000 
#    y 0.000000 1.657880 0.000000 
#    z 0.000000 0.000000 1.657580 
# 
# From -- ./inp_files/6319.got.cif
#   From: 2010.03.12/outbox.cif.g09.slc.cpg/sg61_4_cif.got.tgz:6319.got - 2010.04.10 19:05:03.
