data_PCOD8248286
_publ_section_title
;
Structure prediction by ZEFSAII (Michael W. Deem and Ramdas Pophale) SiO2 
 PCOD8248286
Probable space group: P B C N
;
_chemical_formula_sum "Si O2"
_cell_formula_units_Z 48
_cell_length_a 11.446348
_cell_length_b 13.541503
_cell_length_c 14.939722
_cell_angle_alpha 90.000000
_cell_angle_beta 90.000000
_cell_angle_gamma 90.000000
_cell_volume 2315.668201
_symmetry_space_group_name_H-M "P B C N"
_symmetry_group_IT_number 60
_symmetry_cell_setting 'orthorhombic'
loop_
_space_group_symop_operation_xyz
x,y,z
1/2-x,1/2-y,1/2+z
1/2+x,1/2-y,-z
-x,y,1/2-z
-x,-y,-z
1/2+x,1/2+y,1/2-z
1/2-x,1/2+y,z
x,-y,1/2+z
loop_
_atom_site_type_symbol
_atom_site_label
_atom_site_fract_x
_atom_site_fract_y
_atom_site_fract_z
Si Si1 0.775697 0.847040 0.607741
Si Si2 0.863474 0.261140 0.770030
Si Si3 0.129445 0.523101 0.848214
Si Si4 0.381055 0.965770 0.650807
Si Si5 0.782623 0.347109 0.410440
Si Si6 0.525135 0.777966 0.147494
O O1 0.697897 0.778881 0.674360
O O2 0.743836 0.963360 0.618088
O O3 0.766917 0.812684 0.505250
O O4 0.912034 0.827334 0.631064
O O5 0.836694 0.355299 0.834142
O O6 0.806648 0.172646 0.827410
O O7 0.000000 0.242341 0.750000
O O8 0.129026 0.529610 0.741290
O O9 0.115345 0.634654 0.885574
O O10 0.016339 0.459345 0.879944
O O11 0.305947 0.033643 0.582986
O O12 0.902574 0.285427 0.402822
O O13 0.500000 0.793336 0.250000
#
# Coordination Sequence:
#
# PCOD8248286 Si02
#       6
#     8   8   8   8   8   8
#     4  11  23  35  62  97 121 162 214 262 316 370
#     4  11  21  40  64  90 127 167 208 264 313 373
#     4   9  16  35  60  89 113 156 212 252 302 365
#     4   9  16  35  61  86 117 155 210 253 301 364
#     4  11  24  37  63  96 126 166 212 261 319 375
#     4  11  20  40  64  88 125 172 209 258 316 378
#
# _framework density 20.728359000000001
#
# number of rings (size 3 to 8) (size 9 to 14) (size 15 to 20)
#    0.000    1.667    8.333    0.000    2.333    4.000 
#    0.000    0.000   11.000    2.000    0.000    0.000 
#    0.000    0.000    0.000    0.000    0.000    0.000 
#
# Total GULP energy -594635.897608 kJ/mol
# GULP energy per Si atom -12388.247867 kJ/mol
# Density = 2.068118 g / cm^3
# Si number density = 20.728359 Si / 1000 Ang^3
#
#
#
# Elastic Constant Matrix: (Units=GPa)
#
#
# Indices 1 2 3 4 5 6 
#
# 1 107.3426 45.4029 25.9004 0.0000 0.0000 0.0000
# 2 45.4029 69.2647 15.0008 0.0000 0.0000 0.0000
# 3 25.9004 15.0008 73.1721 0.0000 0.0000 0.0000
# 4 0.0000 0.0000 0.0000 20.0308 0.0000 0.0000
# 5 0.0000 0.0000 0.0000 0.0000 14.4402 0.0000
# 6 0.0000 0.0000 0.0000 0.0000 0.0000 35.9971
#
#
#
# Elastic Compliance Matrix: (Units=1/GPa)
#
#
# Indices 1 2 3 4 5 6 
#
# 1 0.013534 -0.008198 -0.003110 0.000000 0.000000 0.000000
# 2 -0.008198 0.020074 -0.001214 0.000000 0.000000 0.000000
# 3 -0.003110 -0.001214 0.015016 0.000000 0.000000 0.000000
# 4 0.000000 0.000000 0.000000 0.049923 0.000000 0.000000
# 5 0.000000 0.000000 0.000000 0.000000 0.069251 0.000000
# 6 0.000000 0.000000 0.000000 0.000000 0.000000 0.027780
#
#
# Mechanical properties :
#
#
# Convention : Reuss Voigt Hill
#
# Bulk Modulus (GPa) = 42.40682 46.93197 44.66940
# Shear Modulus (GPa) = 21.88368 24.99200 23.43784
#
# Velocity S-wave (km/s) = 3.25273 3.47607 3.36626
# Velocity P-wave (km/s) = 5.88301 6.22907 6.05851
#
# Compressibility (1/GPa) = 0.02358111
#
# Stress axis : x y z
#
# Youngs Moduli (GPa) = 73.88901 49.81602 66.59575
#
# Poissons Ratio (x) = 0.40839 0.20711
# Poissons Ratio (y) = 0.60573 0.08081
# Poissons Ratio (z) = 0.22979 0.06045
#
# Static dielectric constant tensor:
#      x y z
#    x 3.767910 0.000000 0.000000 
#    y 0.000000 3.550960 0.000000 
#    z 0.000000 0.000000 3.594900 
# 
# 
# High freq. dielectric constant tensor:
#      x y z
#    x 1.791300 0.000000 0.000000 
#    y 0.000000 1.790310 0.000000 
#    z 0.000000 0.000000 1.805110 
# 
# From -- ./inp_files/16050.got.cif
#   From: 2010.03.12/outbox.cif.g09.slc.cpg/sg60_9_cif.got.tgz:16050.got - 2010.04.10 18:46:24.
