data_PCOD8248409
_publ_section_title
;
Structure prediction by ZEFSAII (Michael W. Deem and Ramdas Pophale) SiO2 
 PCOD8248409
Probable space group: P B C N
;
_chemical_formula_sum "Si O2"
_cell_formula_units_Z 56
_cell_length_a 13.017443
_cell_length_b 13.777119
_cell_length_c 14.030378
_cell_angle_alpha 90.000000
_cell_angle_beta 90.000000
_cell_angle_gamma 90.000000
_cell_volume 2516.248135
_symmetry_space_group_name_H-M "P B C N"
_symmetry_group_IT_number 60
_symmetry_cell_setting 'orthorhombic'
loop_
_space_group_symop_operation_xyz
x,y,z
1/2-x,1/2-y,1/2+z
1/2+x,1/2-y,-z
-x,y,1/2-z
-x,-y,-z
1/2+x,1/2+y,1/2-z
1/2-x,1/2+y,z
x,-y,1/2+z
loop_
_atom_site_type_symbol
_atom_site_label
_atom_site_fract_x
_atom_site_fract_y
_atom_site_fract_z
Si Si1 0.111149 0.806615 0.217002
Si Si2 0.062257 0.173410 0.348228
Si Si3 0.856295 0.214639 0.413779
Si Si4 0.191363 0.387278 0.696200
Si Si5 0.275788 0.085513 0.602069
Si Si6 0.253727 0.184158 0.888168
Si Si7 0.761307 0.041497 0.114905
O O1 0.111262 0.699219 0.165413
O O2 0.166208 0.890201 0.153753
O O3 0.173727 0.779164 0.311064
O O4 0.000000 0.843676 0.250000
O O5 0.139267 0.262196 0.369093
O O6 0.120492 0.069863 0.358062
O O7 0.000000 0.186997 0.250000
O O8 0.973335 0.179966 0.429839
O O9 0.806485 0.147916 0.330984
O O10 0.853463 0.326125 0.377289
O O11 0.787815 0.205180 0.507284
O O12 0.170642 0.487540 0.639911
O O13 0.186891 0.405481 0.809687
O O14 0.259365 0.080014 0.489807
O O15 0.264469 0.070058 0.874562
#
# Coordination Sequence:
#
# PCOD8248409 Si02
#       7
#     8   8   8   8   8   8   8
#     4  11  25  43  67  98 137 183 233 297 362 420
#     4  12  25  47  72 103 144 192 241 294 361 433
#     4  11  24  43  73 100 136 190 235 288 359 423
#     4  11  22  45  67  99 140 182 233 298 351 421
#     4  11  23  45  69  97 141 186 233 295 356 427
#     4  12  25  45  70 105 145 183 235 302 358 427
#     4  12  24  43  71 100 144 180 236 297 352 424
#
# _framework density 22.255355000000002
#
# number of rings (size 3 to 8) (size 9 to 14) (size 15 to 20)
#    0.000    0.571    7.143    0.857    2.000    2.286 
#    2.571    0.714    0.000    0.000    0.000    0.000 
#    0.000    0.000    0.000    0.000    0.000    0.000 
#
# Total GULP energy -694035.293544 kJ/mol
# GULP energy per Si atom -12393.487385 kJ/mol
# Density = 2.220470 g / cm^3
# Si number density = 22.255355 Si / 1000 Ang^3
#
#
#
# Elastic Constant Matrix: (Units=GPa)
#
#
# Indices 1 2 3 4 5 6 
#
# 1 56.3185 -24.3924 8.2786 0.0000 0.0000 0.0000
# 2 -24.3924 89.3736 3.6869 0.0000 0.0000 0.0000
# 3 8.2786 3.6869 110.5167 0.0000 0.0000 0.0000
# 4 0.0000 0.0000 0.0000 29.4403 0.0000 0.0000
# 5 0.0000 0.0000 0.0000 0.0000 32.5645 0.0000
# 6 0.0000 0.0000 0.0000 0.0000 0.0000 34.7011
#
#
#
# Elastic Compliance Matrix: (Units=1/GPa)
#
#
# Indices 1 2 3 4 5 6 
#
# 1 0.020458 0.005655 -0.001721 0.000000 0.000000 0.000000
# 2 0.005655 0.012767 -0.000849 0.000000 0.000000 0.000000
# 3 -0.001721 -0.000849 0.009206 0.000000 0.000000 0.000000
# 4 0.000000 0.000000 0.000000 0.033967 0.000000 0.000000
# 5 0.000000 0.000000 0.000000 0.000000 0.030708 0.000000
# 6 0.000000 0.000000 0.000000 0.000000 0.000000 0.028818
#
#
# Mechanical properties :
#
#
# Convention : Reuss Voigt Hill
#
# Bulk Modulus (GPa) = 20.57646 25.70608 23.14127
# Shear Modulus (GPa) = 34.25693 37.25023 35.75358
#
# Velocity S-wave (km/s) = 3.92761 4.09561 4.01248
# Velocity P-wave (km/s) = 5.46203 5.82588 5.64689
#
# Compressibility (1/GPa) = 0.04859922
#
# Stress axis : x y z
#
# Youngs Moduli (GPa) = 48.88004 78.32495 108.62870
#
# Poissons Ratio (x) = -0.44290 0.18696
# Poissons Ratio (y) = -0.27640 0.09228
# Poissons Ratio (z) = 0.08413 0.06654
#
# Static dielectric constant tensor:
#      x y z
#    x 3.700010 0.000000 0.000000 
#    y 0.000000 4.482130 0.000000 
#    z 0.000000 0.000000 4.311180 
# 
# 
# High freq. dielectric constant tensor:
#      x y z
#    x 1.839920 0.000000 0.000000 
#    y 0.000000 1.897540 0.000000 
#    z 0.000000 0.000000 1.892270 
# 
# From -- ./inp_files/16189.got.cif
#   From: 2010.03.12/outbox.cif.g09.slc.cpg/sg60_9_cif.got.tgz:16189.got - 2010.04.10 18:46:24.
