data_PCOD8248134
_publ_section_title
;
Structure prediction by ZEFSAII (Michael W. Deem and Ramdas Pophale) SiO2 
 PCOD8248134
Probable space group: P B C N
;
_chemical_formula_sum "Si O2"
_cell_formula_units_Z 56
_cell_length_a 8.228978
_cell_length_b 14.634725
_cell_length_c 20.656678
_cell_angle_alpha 90.000000
_cell_angle_beta 90.000000
_cell_angle_gamma 90.000000
_cell_volume 2487.659564
_symmetry_space_group_name_H-M "P B C N"
_symmetry_group_IT_number 60
_symmetry_cell_setting 'orthorhombic'
loop_
_space_group_symop_operation_xyz
x,y,z
1/2-x,1/2-y,1/2+z
1/2+x,1/2-y,-z
-x,y,1/2-z
-x,-y,-z
1/2+x,1/2+y,1/2-z
1/2-x,1/2+y,z
x,-y,1/2+z
loop_
_atom_site_type_symbol
_atom_site_label
_atom_site_fract_x
_atom_site_fract_y
_atom_site_fract_z
Si Si1 0.806188 0.056415 0.177645
Si Si2 0.276292 0.823218 0.034328
Si Si3 0.678501 0.494631 0.530247
Si Si4 0.500000 0.406794 0.250000
Si Si5 0.849191 0.681749 0.560563
Si Si6 0.330280 0.737673 0.663903
Si Si7 0.465793 0.748644 0.317167
Si Si8 0.000000 0.384243 0.750000
O O1 0.804677 0.052577 0.100100
O O2 0.884277 0.151784 0.199380
O O3 0.632588 0.051844 0.214606
O O4 0.909819 0.969277 0.198235
O O5 0.461480 0.806575 0.050126
O O6 0.140501 0.794441 0.089248
O O7 0.270003 0.931267 0.021151
O O8 0.237556 0.768942 0.969264
O O9 0.500000 0.500000 0.500000
O O10 0.766604 0.592098 0.532029
O O11 0.633207 0.346038 0.287802
O O12 0.839816 0.691414 0.639182
O O13 0.431446 0.823916 0.689922
O O14 0.143840 0.767492 0.654384
O O15 0.500000 0.801976 0.250000
#
# Coordination Sequence:
#
# PCOD8248134 Si02
#       8
#     8   8   8   4   8   8   8   4
#     4  12  25  43  72 103 149 184 248 305 371 437
#     4  11  24  46  68 105 142 191 235 306 363 438
#     4  12  27  46  71 106 144 193 243 304 363 442
#     4  11  24  44  62 105 140 188 238 313 358 435
#     4  11  26  44  75 103 143 190 244 298 368 440
#     4  10  24  42  71  98 140 190 244 296 370 438
#     4  11  22  46  72 100 139 191 239 296 366 432
#     4  11  24  44  70 107 138 198 242 301 368 443
#
# _framework density 22.511118
#
# number of rings (size 3 to 8) (size 9 to 14) (size 15 to 20)
#    0.000    0.857    3.571    2.143    6.000    3.429 
#    2.571    0.000    0.000    0.000    0.000    0.000 
#    0.000    0.000    0.000    0.000    0.000    0.000 
#
# Total GULP energy -693835.863124 kJ/mol
# GULP energy per Si atom -12389.926127 kJ/mol
# Density = 2.245988 g / cm^3
# Si number density = 22.511118 Si / 1000 Ang^3
#
#
#
# Elastic Constant Matrix: (Units=GPa)
#
#
# Indices 1 2 3 4 5 6 
#
# 1 93.9637 29.5432 34.0432 0.0000 0.0000 0.0000
# 2 29.5432 72.7015 19.4340 0.0000 0.0000 0.0000
# 3 34.0432 19.4340 131.2251 0.0000 0.0000 0.0000
# 4 0.0000 0.0000 0.0000 19.8982 0.0000 0.0000
# 5 0.0000 0.0000 0.0000 0.0000 35.3223 0.0000
# 6 0.0000 0.0000 0.0000 0.0000 0.0000 27.4747
#
#
#
# Elastic Compliance Matrix: (Units=1/GPa)
#
#
# Indices 1 2 3 4 5 6 
#
# 1 0.013066 -0.004585 -0.002711 0.000000 0.000000 0.000000
# 2 -0.004585 0.015931 -0.001170 0.000000 0.000000 0.000000
# 3 -0.002711 -0.001170 0.008497 0.000000 0.000000 0.000000
# 4 0.000000 0.000000 0.000000 0.050256 0.000000 0.000000
# 5 0.000000 0.000000 0.000000 0.000000 0.028311 0.000000
# 6 0.000000 0.000000 0.000000 0.000000 0.000000 0.036397
#
#
# Mechanical properties :
#
#
# Convention : Reuss Voigt Hill
#
# Bulk Modulus (GPa) = 48.63140 51.54790 50.08965
# Shear Modulus (GPa) = 28.36998 30.86370 29.61684
#
# Velocity S-wave (km/s) = 3.55387 3.70678 3.63113
# Velocity P-wave (km/s) = 6.20405 6.42408 6.31502
#
# Compressibility (1/GPa) = 0.02056285
#
# Stress axis : x y z
#
# Youngs Moduli (GPa) = 76.53428 62.77168 117.68919
#
# Poissons Ratio (x) = 0.28781 0.31901
# Poissons Ratio (y) = 0.35091 0.13768
# Poissons Ratio (z) = 0.20746 0.07343
#
# Static dielectric constant tensor:
#      x y z
#    x 4.334710 0.000000 0.000000 
#    y 0.000000 3.901330 0.000000 
#    z 0.000000 0.000000 4.711620 
# 
# 
# High freq. dielectric constant tensor:
#      x y z
#    x 1.892800 0.000000 0.000000 
#    y 0.000000 1.881210 0.000000 
#    z 0.000000 0.000000 1.906260 
# 
# From -- ./inp_files/22242.got.cif
#   From: 2010.03.12/outbox.cif.g09.slc.cpg/sg60_12_cif.got.tgz:22242.got - 2010.04.10 18:46:24.
