data_PCOD8248233
_publ_section_title
;
Structure prediction by ZEFSAII (Michael W. Deem and Ramdas Pophale) SiO2 
 PCOD8248233
Probable space group: P B C N
;
_chemical_formula_sum "Si O2"
_cell_formula_units_Z 40
_cell_length_a 5.875147
_cell_length_b 23.572126
_cell_length_c 12.995423
_cell_angle_alpha 90.000000
_cell_angle_beta 90.000000
_cell_angle_gamma 90.000000
_cell_volume 1799.732302
_symmetry_space_group_name_H-M "P B C N"
_symmetry_group_IT_number 60
_symmetry_cell_setting 'orthorhombic'
loop_
_space_group_symop_operation_xyz
x,y,z
1/2-x,1/2-y,1/2+z
1/2+x,1/2-y,-z
-x,y,1/2-z
-x,-y,-z
1/2+x,1/2+y,1/2-z
1/2-x,1/2+y,z
x,-y,1/2+z
loop_
_atom_site_type_symbol
_atom_site_label
_atom_site_fract_x
_atom_site_fract_y
_atom_site_fract_z
Si Si1 0.613416 0.392091 0.854806
Si Si2 0.545038 0.295997 0.134051
Si Si3 0.757113 0.510281 0.803725
Si Si4 0.794146 0.895914 0.464777
Si Si5 0.597486 0.186629 0.484951
O O1 0.500000 0.370469 0.750000
O O2 0.783851 0.443990 0.831201
O O3 0.719520 0.335676 0.903059
O O4 0.438308 0.416906 0.938166
O O5 0.500000 0.275284 0.250000
O O6 0.414245 0.354657 0.117365
O O7 0.472306 0.248417 0.052700
O O8 0.807480 0.307655 0.102422
O O9 0.500000 0.519353 0.750000
O O10 0.773555 0.547387 0.906229
O O11 0.000000 0.526662 0.750000
O O12 0.590790 0.861172 0.515020
#
# Coordination Sequence:
#
# PCOD8248233 Si02
#       5
#     8   8   8   8   8
#     4  10  26  45  69 101 140 186 244 297 369 435
#     4  11  25  43  67 100 145 184 242 299 366 431
#     4  11  27  47  75 109 145 191 245 300 372 437
#     4  11  25  45  70 100 145 186 243 294 368 435
#     4  11  25  43  69 102 139 189 239 298 363 437
#
# _framework density 22.225528000000001
#
# number of rings (size 3 to 8) (size 9 to 14) (size 15 to 20)
#    0.000    1.200    2.000    1.200   16.800    0.800 
#    0.000    0.000    0.000    0.000    0.000    0.000 
#    0.000    0.000    0.000    0.000    0.000    0.000 
#
# Total GULP energy -495525.702035 kJ/mol
# GULP energy per Si atom -12388.142551 kJ/mol
# Density = 2.217494 g / cm^3
# Si number density = 22.225528 Si / 1000 Ang^3
#
#
#
# Elastic Constant Matrix: (Units=GPa)
#
#
# Indices 1 2 3 4 5 6 
#
# 1 86.1648 -0.1212 29.9152 0.0000 0.0000 0.0000
# 2 -0.1212 57.2989 6.6883 0.0000 0.0000 0.0000
# 3 29.9152 6.6883 103.5260 0.0000 0.0000 0.0000
# 4 0.0000 0.0000 0.0000 105.0209 0.0000 0.0000
# 5 0.0000 0.0000 0.0000 0.0000 18.2238 0.0000
# 6 0.0000 0.0000 0.0000 0.0000 0.0000 -60.6429
#
#
#
# Elastic Compliance Matrix: (Units=1/GPa)
#
#
# Indices 1 2 3 4 5 6 
#
# 1 0.012912 0.000466 -0.003761 0.000000 0.000000 0.000000
# 2 0.000466 0.017602 -0.001272 0.000000 0.000000 0.000000
# 3 -0.003761 -0.001272 0.010828 0.000000 0.000000 0.000000
# 4 0.000000 0.000000 0.000000 0.009522 0.000000 0.000000
# 5 0.000000 0.000000 0.000000 0.000000 0.054873 0.000000
# 6 0.000000 0.000000 0.000000 0.000000 0.000000 -0.016490
#
#
# Mechanical properties :
#
#
# Convention : Reuss Voigt Hill
#
# Bulk Modulus (GPa) = 31.04749 35.55049 33.29899
# Shear Modulus (GPa) = 45.82209 26.55418 36.18813
#
# Velocity S-wave (km/s) = 4.54551 3.46028 4.03950
# Velocity P-wave (km/s) = 6.44581 5.65639 6.06396
#
# Compressibility (1/GPa) = 0.03220873
#
# Stress axis : x y z
#
# Youngs Moduli (GPa) = 77.44623 56.81236 92.34928
#
# Poissons Ratio (x) = -0.02649 0.34735
# Poissons Ratio (y) = -0.03612 0.11746
# Poissons Ratio (z) = 0.29130 0.07226
#
# Static dielectric constant tensor:
#      x y z
#    x 4.438800 0.000000 0.000000 
#    y 0.000000 3.906960 0.000000 
#    z 0.000000 0.000000 3.094550 
# 
# 
# High freq. dielectric constant tensor:
#      x y z
#    x 1.877380 0.000000 0.000000 
#    y 0.000000 1.887910 0.000000 
#    z 0.000000 0.000000 1.875380 
# 
# From -- ./inp_files/9082.got.cif
#   From: 2010.03.12/outbox.cif.g09.slc.cpg/sg60_5_cif.got.tgz:9082.got - 2010.04.10 18:46:24.
