data_PCOD8248070
_publ_section_title
;
Structure prediction by ZEFSAII (Michael W. Deem and Ramdas Pophale) SiO2 
 PCOD8248070
Probable space group: P B C N
;
_chemical_formula_sum "Si O2"
_cell_formula_units_Z 40
_cell_length_a 16.747062
_cell_length_b 12.009228
_cell_length_c 8.594154
_cell_angle_alpha 90.000000
_cell_angle_beta 90.000000
_cell_angle_gamma 90.000000
_cell_volume 1728.450115
_symmetry_space_group_name_H-M "P B C N"
_symmetry_group_IT_number 60
_symmetry_cell_setting 'orthorhombic'
loop_
_space_group_symop_operation_xyz
x,y,z
1/2-x,1/2-y,1/2+z
1/2+x,1/2-y,-z
-x,y,1/2-z
-x,-y,-z
1/2+x,1/2+y,1/2-z
1/2-x,1/2+y,z
x,-y,1/2+z
loop_
_atom_site_type_symbol
_atom_site_label
_atom_site_fract_x
_atom_site_fract_y
_atom_site_fract_z
Si Si1 0.956422 0.216638 0.088847
Si Si2 0.886808 0.153631 0.565015
Si Si3 0.658789 0.447740 0.739616
Si Si4 0.835165 0.394290 0.643255
Si Si5 0.081457 0.442086 0.551968
O O1 0.892570 0.119972 0.113309
O O2 0.908808 0.325241 0.035609
O O3 0.000000 0.245730 0.250000
O O4 0.019062 0.180657 0.954154
O O5 0.859327 0.086217 0.414338
O O6 0.837731 0.267410 0.585196
O O7 0.866595 0.076883 0.714521
O O8 0.751088 0.422868 0.717155
O O9 0.847053 0.475333 0.496619
O O10 0.907714 0.419416 0.764369
O O11 0.000000 0.500000 0.500000
#
# Coordination Sequence:
#
# PCOD8248070 Si02
#       5
#     8   8   8   8   8
#     4  10  23  46  74 101 145 191 243 297 360 439
#     4  11  26  49  70 109 145 199 246 297 368 444
#     4  11  27  45  73 104 150 192 242 305 371 433
#     4  12  28  44  75 107 149 190 250 306 370 427
#     4  12  25  47  72 105 141 191 248 302 360 433
#
# _framework density 23.142122000000001
#
# number of rings (size 3 to 8) (size 9 to 14) (size 15 to 20)
#    0.000    0.800    2.000    3.600   11.200    0.000 
#    0.000    0.000    0.000    0.000    0.000    0.000 
#    0.000    0.000    0.000    0.000    0.000    0.000 
#
# Total GULP energy -496149.309844 kJ/mol
# GULP energy per Si atom -12403.732746 kJ/mol
# Density = 2.308945 g / cm^3
# Si number density = 23.142122 Si / 1000 Ang^3
#
#
#
# Elastic Constant Matrix: (Units=GPa)
#
#
# Indices 1 2 3 4 5 6 
#
# 1 76.8963 27.5147 10.9904 0.0000 0.0000 0.0000
# 2 27.5147 172.5079 47.7333 0.0000 0.0000 0.0000
# 3 10.9904 47.7333 90.3285 0.0000 0.0000 0.0000
# 4 0.0000 0.0000 0.0000 35.9044 0.0000 0.0000
# 5 0.0000 0.0000 0.0000 0.0000 11.0458 0.0000
# 6 0.0000 0.0000 0.0000 0.0000 0.0000 21.5451
#
#
#
# Elastic Compliance Matrix: (Units=1/GPa)
#
#
# Indices 1 2 3 4 5 6 
#
# 1 0.013820 -0.002037 -0.000605 0.000000 0.000000 0.000000
# 2 -0.002037 0.007090 -0.003499 0.000000 0.000000 0.000000
# 3 -0.000605 -0.003499 0.012993 0.000000 0.000000 0.000000
# 4 0.000000 0.000000 0.000000 0.027852 0.000000 0.000000
# 5 0.000000 0.000000 0.000000 0.000000 0.090532 0.000000
# 6 0.000000 0.000000 0.000000 0.000000 0.000000 0.046414
#
#
# Mechanical properties :
#
#
# Convention : Reuss Voigt Hill
#
# Bulk Modulus (GPa) = 46.25029 56.91217 51.58123
# Shear Modulus (GPa) = 22.91587 30.59870 26.75728
#
# Velocity S-wave (km/s) = 3.15020 3.64016 3.40401
# Velocity P-wave (km/s) = 5.76718 6.50489 6.14711
#
# Compressibility (1/GPa) = 0.02162149
#
# Stress axis : x y z
#
# Youngs Moduli (GPa) = 72.35993 141.04767 76.96334
#
# Poissons Ratio (x) = 0.28728 0.04657
# Poissons Ratio (y) = 0.14738 0.26927
# Poissons Ratio (z) = 0.04379 0.49349
#
# Static dielectric constant tensor:
#      x y z
#    x 4.157880 0.000000 0.000000 
#    y 0.000000 4.500700 0.000000 
#    z 0.000000 0.000000 4.241810 
# 
# 
# High freq. dielectric constant tensor:
#      x y z
#    x 1.912370 0.000000 0.000000 
#    y 0.000000 1.931580 0.000000 
#    z 0.000000 0.000000 1.918050 
# 
# From -- ./inp_files/6510.got.cif
#   From: 2010.03.12/outbox.cif.g09.slc.cpg/sg60_4_cif.got.tgz:6510.got - 2010.04.10 18:46:24.
