data_PCOD8248001
_publ_section_title
;
Structure prediction by ZEFSAII (Michael W. Deem and Ramdas Pophale) SiO2 
 PCOD8248001
Probable space group: P B C N
;
_chemical_formula_sum "Si O2"
_cell_formula_units_Z 64
_cell_length_a 22.867964
_cell_length_b 15.219773
_cell_length_c 8.692019
_cell_angle_alpha 90.000000
_cell_angle_beta 90.000000
_cell_angle_gamma 90.000000
_cell_volume 3025.215674
_symmetry_space_group_name_H-M "P B C N"
_symmetry_group_IT_number 60
_symmetry_cell_setting 'orthorhombic'
loop_
_space_group_symop_operation_xyz
x,y,z
1/2-x,1/2-y,1/2+z
1/2+x,1/2-y,-z
-x,y,1/2-z
-x,-y,-z
1/2+x,1/2+y,1/2-z
1/2-x,1/2+y,z
x,-y,1/2+z
loop_
_atom_site_type_symbol
_atom_site_label
_atom_site_fract_x
_atom_site_fract_y
_atom_site_fract_z
Si Si1 0.156291 0.077434 0.982592
Si Si2 0.245753 0.811321 0.952490
Si Si3 0.126560 0.729071 0.510448
Si Si4 0.603684 0.079223 0.459494
Si Si5 0.729178 0.135030 0.392544
Si Si6 0.856891 0.096659 0.877102
Si Si7 0.933075 0.591260 0.791555
Si Si8 0.935512 0.253526 0.804525
O O1 0.129157 0.167309 0.051092
O O2 0.157354 0.079787 0.799726
O O3 0.222644 0.067252 0.044030
O O4 0.119804 0.993829 0.045554
O O5 0.310503 0.817864 0.024917
O O6 0.249440 0.827037 0.770630
O O7 0.221295 0.713789 0.984683
O O8 0.202512 0.879365 0.033572
O O9 0.083266 0.682857 0.628208
O O10 0.104935 0.718094 0.336704
O O11 0.667565 0.085521 0.382689
O O12 0.607736 0.076269 0.643539
O O13 0.562341 0.161846 0.414866
O O14 0.574009 0.989432 0.407320
O O15 0.906752 0.170993 0.894237
O O16 0.000000 0.598970 0.750000
O O17 0.000000 0.226012 0.750000
#
# Coordination Sequence:
#
# PCOD8248001 Si02
#       8
#     8   8   8   8   8   8   8   8
#     4  10  24  39  64  94 137 163 215 272 332 396
#     4  11  21  40  64  93 133 160 221 263 333 399
#     4  10  23  43  65  93 127 169 215 276 325 386
#     4  12  25  41  66  96 129 172 227 266 343 384
#     4  11  23  38  65 100 127 179 207 275 335 409
#     4  11  23  42  65  99 132 177 213 274 335 391
#     4  12  27  44  65  93 132 178 226 276 322 396
#     4  11  22  45  70  94 131 176 224 272 333 397
#
# _framework density 21.155515000000001
#
# number of rings (size 3 to 8) (size 9 to 14) (size 15 to 20)
#    0.000    1.000    2.500    4.500    7.000    1.000 
#    0.000    3.125    0.000    0.000    0.000    0.000 
#    0.000    0.000    0.000    0.000    0.000    0.000 
#
# Total GULP energy -793819.101780 kJ/mol
# GULP energy per Si atom -12403.423465 kJ/mol
# Density = 2.110736 g / cm^3
# Si number density = 21.155515 Si / 1000 Ang^3
#
#
#
# Elastic Constant Matrix: (Units=GPa)
#
#
# Indices 1 2 3 4 5 6 
#
# 1 76.3094 35.1305 11.9748 0.0000 0.0000 0.0000
# 2 35.1305 125.8883 45.7350 0.0000 0.0000 0.0000
# 3 11.9748 45.7350 92.2837 0.0000 0.0000 0.0000
# 4 0.0000 0.0000 0.0000 34.3559 0.0000 0.0000
# 5 0.0000 0.0000 0.0000 0.0000 30.2448 0.0000
# 6 0.0000 0.0000 0.0000 0.0000 0.0000 25.6969
#
#
#
# Elastic Compliance Matrix: (Units=1/GPa)
#
#
# Indices 1 2 3 4 5 6 
#
# 1 0.015038 -0.004253 0.000157 0.000000 0.000000 0.000000
# 2 -0.004253 0.010891 -0.004845 0.000000 0.000000 0.000000
# 3 0.000157 -0.004845 0.013217 0.000000 0.000000 0.000000
# 4 0.000000 0.000000 0.000000 0.029107 0.000000 0.000000
# 5 0.000000 0.000000 0.000000 0.000000 0.033064 0.000000
# 6 0.000000 0.000000 0.000000 0.000000 0.000000 0.038915
#
#
# Mechanical properties :
#
#
# Convention : Reuss Voigt Hill
#
# Bulk Modulus (GPa) = 47.03322 53.35131 50.19226
# Shear Modulus (GPa) = 30.26564 31.50226 30.88395
#
# Velocity S-wave (km/s) = 3.78647 3.86305 3.82495
# Velocity P-wave (km/s) = 6.43404 6.72093 6.57905
#
# Compressibility (1/GPa) = 0.02126157
#
# Stress axis : x y z
#
# Youngs Moduli (GPa) = 66.49762 91.81994 75.65892
#
# Poissons Ratio (x) = 0.39055 -0.01185
# Poissons Ratio (y) = 0.28284 0.36660
# Poissons Ratio (z) = -0.01041 0.44491
#
# Static dielectric constant tensor:
#      x y z
#    x 3.768800 0.000000 0.000000 
#    y 0.000000 3.984040 0.000000 
#    z 0.000000 0.000000 3.855680 
# 
# 
# High freq. dielectric constant tensor:
#      x y z
#    x 1.817040 0.000000 0.000000 
#    y 0.000000 1.836140 0.000000 
#    z 0.000000 0.000000 1.834990 
# 
# From -- ./inp_files/7966.got.cif
#   From: 2010.03.12/outbox.cif.g09.slc.cpg/sg60_4_cif.got.tgz:7966.got - 2010.04.10 18:46:24.
