data_PCOD8248336
_publ_section_title
;
Structure prediction by ZEFSAII (Michael W. Deem and Ramdas Pophale) SiO2 
 PCOD8248336
Probable space group: P B C N
;
_chemical_formula_sum "Si O2"
_cell_formula_units_Z 40
_cell_length_a 9.851033
_cell_length_b 20.267481
_cell_length_c 9.777968
_cell_angle_alpha 90.000000
_cell_angle_beta 90.000000
_cell_angle_gamma 90.000000
_cell_volume 1952.226304
_symmetry_space_group_name_H-M "P B C N"
_symmetry_group_IT_number 60
_symmetry_cell_setting 'orthorhombic'
loop_
_space_group_symop_operation_xyz
x,y,z
1/2-x,1/2-y,1/2+z
1/2+x,1/2-y,-z
-x,y,1/2-z
-x,-y,-z
1/2+x,1/2+y,1/2-z
1/2-x,1/2+y,z
x,-y,1/2+z
loop_
_atom_site_type_symbol
_atom_site_label
_atom_site_fract_x
_atom_site_fract_y
_atom_site_fract_z
Si Si1 0.398648 0.737285 0.419203
Si Si2 0.504326 0.589403 0.096147
Si Si3 0.650545 0.060261 0.801751
Si Si4 0.676465 0.791960 0.365788
Si Si5 0.780359 0.986370 0.027316
O O1 0.461088 0.665369 0.409992
O O2 0.527657 0.786318 0.438260
O O3 0.292695 0.742734 0.543135
O O4 0.321343 0.754098 0.278629
O O5 0.500000 0.562978 0.250000
O O6 0.616330 0.547569 0.015717
O O7 0.355752 0.578841 0.029263
O O8 0.500000 0.071317 0.750000
O O9 0.710820 0.131170 0.845022
O O10 0.735515 0.027935 0.680060
O O11 0.656160 0.008802 0.928641
#
# Coordination Sequence:
#
# PCOD8248336 Si02
#       5
#     8   8   8   8   8
#     4  11  24  45  68  94 136 173 222 277 331 393
#     4  11  21  42  69  95 125 170 223 280 317 392
#     4  12  24  45  64  98 139 174 218 273 332 403
#     4  11  25  43  67  99 134 175 224 276 328 401
#     4  11  25  41  69  98 131 169 223 270 337 383
#
# _framework density 20.489428
#
# number of rings (size 3 to 8) (size 9 to 14) (size 15 to 20)
#    0.000    0.800    8.000    0.600    2.800    0.800 
#    0.000    0.000    0.000    0.000    0.000    0.000 
#    0.000    0.000    0.000    0.000    0.000    0.000 
#
# Total GULP energy -496024.651983 kJ/mol
# GULP energy per Si atom -12400.616300 kJ/mol
# Density = 2.044279 g / cm^3
# Si number density = 20.489428 Si / 1000 Ang^3
#
#
#
# Elastic Constant Matrix: (Units=GPa)
#
#
# Indices 1 2 3 4 5 6 
#
# 1 50.1487 30.3093 36.1775 0.0000 0.0000 0.0000
# 2 30.3093 105.6160 42.9503 0.0000 0.0000 0.0000
# 3 36.1775 42.9503 106.0379 0.0000 0.0000 0.0000
# 4 0.0000 0.0000 0.0000 31.1654 0.0000 0.0000
# 5 0.0000 0.0000 0.0000 0.0000 42.1977 0.0000
# 6 0.0000 0.0000 0.0000 0.0000 0.0000 13.9176
#
#
#
# Elastic Compliance Matrix: (Units=1/GPa)
#
#
# Indices 1 2 3 4 5 6 
#
# 1 0.028549 -0.005066 -0.007688 0.000000 0.000000 0.000000
# 2 -0.005066 0.012235 -0.003227 0.000000 0.000000 0.000000
# 3 -0.007688 -0.003227 0.013361 0.000000 0.000000 0.000000
# 4 0.000000 0.000000 0.000000 0.032087 0.000000 0.000000
# 5 0.000000 0.000000 0.000000 0.000000 0.023698 0.000000
# 6 0.000000 0.000000 0.000000 0.000000 0.000000 0.071852
#
#
# Mechanical properties :
#
#
# Convention : Reuss Voigt Hill
#
# Bulk Modulus (GPa) = 45.08329 53.40853 49.24591
# Shear Modulus (GPa) = 22.61038 27.61384 25.11211
#
# Velocity S-wave (km/s) = 3.32552 3.67510 3.50467
# Velocity P-wave (km/s) = 6.06601 6.64315 6.36113
#
# Compressibility (1/GPa) = 0.02218117
#
# Stress axis : x y z
#
# Youngs Moduli (GPa) = 35.02750 81.73599 74.84659
#
# Poissons Ratio (x) = 0.41411 0.57543
# Poissons Ratio (y) = 0.17746 0.24153
# Poissons Ratio (z) = 0.26929 0.26376
#
# Static dielectric constant tensor:
#      x y z
#    x 3.743450 0.000000 0.000000 
#    y 0.000000 3.708200 0.000000 
#    z 0.000000 0.000000 3.919080 
# 
# 
# High freq. dielectric constant tensor:
#      x y z
#    x 1.798120 0.000000 0.000000 
#    y 0.000000 1.803690 0.000000 
#    z 0.000000 0.000000 1.806270 
# 
# From -- ./inp_files/4932.got.cif
#   From: 2010.03.12/outbox.cif.g09.slc.cpg/sg60_3_cif.got.tgz:4932.got - 2010.04.10 18:46:24.
