data_PCOD8248717
_publ_section_title
;
Structure prediction by ZEFSAII (Michael W. Deem and Ramdas Pophale) SiO2 
 PCOD8248717
Probable space group: P B C A
;
_chemical_formula_sum "Si O2"
_cell_formula_units_Z 48
_cell_length_a 9.363150
_cell_length_b 13.144252
_cell_length_c 18.448859
_cell_angle_alpha 90.000000
_cell_angle_beta 90.000000
_cell_angle_gamma 90.000000
_cell_volume 2270.530653
_symmetry_space_group_name_H-M "P B C A"
_symmetry_group_IT_number 61
_symmetry_cell_setting 'orthorhombic'
loop_
_space_group_symop_operation_xyz
x,y,z
1/2-x,-y,1/2+z
1/2+x,1/2-y,-z
-x,1/2+y,1/2-z
-x,-y,-z
1/2+x,y,1/2-z
1/2-x,1/2+y,z
x,1/2-y,1/2+z
loop_
_atom_site_type_symbol
_atom_site_label
_atom_site_fract_x
_atom_site_fract_y
_atom_site_fract_z
Si Si1 0.135044 0.897004 0.438904
Si Si2 0.456384 0.802474 0.783795
Si Si3 0.347402 0.994019 0.703853
Si Si4 0.656494 0.012290 0.665369
Si Si5 0.163897 0.729908 0.332061
Si Si6 0.893928 0.056938 0.400533
O O1 0.284823 0.942319 0.409588
O O2 0.108989 0.785659 0.404443
O O3 0.145699 0.885744 0.525125
O O4 0.005128 0.967813 0.415021
O O5 0.380735 0.879240 0.727793
O O6 0.568016 0.735872 0.737145
O O7 0.329259 0.734630 0.818218
O O8 0.540512 0.861926 0.845931
O O9 0.248169 0.992495 0.632888
O O10 0.495811 0.051002 0.683424
O O11 0.264042 0.048526 0.770294
O O12 0.656764 0.890582 0.656841
#
# Coordination Sequence:
#
# PCOD8248717 Si02
#       6
#     8   8   8   8   8   8
#     4  11  24  39  63  92 131 165 208 252 330 385
#     4  10  18  40  65  84 121 162 207 259 301 365
#     4  10  17  35  67  80 115 164 205 246 317 351
#     4  10  19  38  63  87 123 162 203 267 295 368
#     4  10  21  39  61  92 118 163 209 251 308 376
#     4  11  21  41  63  91 126 170 198 266 323 367
#
# _framework density 21.140432000000001
#
# number of rings (size 3 to 8) (size 9 to 14) (size 15 to 20)
#    0.000    1.667    8.333    0.000    0.000    3.333 
#    6.000    0.000    3.667    0.000    0.000    0.000 
#    0.000    0.000    0.000    0.000    0.000    0.000 
#
# Total GULP energy -595138.002665 kJ/mol
# GULP energy per Si atom -12398.708389 kJ/mol
# Density = 2.109232 g / cm^3
# Si number density = 21.140432 Si / 1000 Ang^3
#
#
#
# Elastic Constant Matrix: (Units=GPa)
#
#
# Indices 1 2 3 4 5 6 
#
# 1 128.4094 3.7611 26.5647 0.0000 0.0000 0.0000
# 2 3.7611 17.3585 16.4198 0.0000 0.0000 0.0000
# 3 26.5647 16.4198 95.4611 0.0000 0.0000 0.0000
# 4 0.0000 0.0000 0.0000 28.0154 0.0000 0.0000
# 5 0.0000 0.0000 0.0000 0.0000 31.7486 0.0000
# 6 0.0000 0.0000 0.0000 0.0000 0.0000 18.8511
#
#
#
# Elastic Compliance Matrix: (Units=1/GPa)
#
#
# Indices 1 2 3 4 5 6 
#
# 1 0.008266 0.000460 -0.002379 0.000000 0.000000 0.000000
# 2 0.000460 0.068829 -0.011967 0.000000 0.000000 0.000000
# 3 -0.002379 -0.011967 0.013196 0.000000 0.000000 0.000000
# 4 0.000000 0.000000 0.000000 0.035695 0.000000 0.000000
# 5 0.000000 0.000000 0.000000 0.000000 0.031497 0.000000
# 6 0.000000 0.000000 0.000000 0.000000 0.000000 0.053047
#
#
# Mechanical properties :
#
#
# Convention : Reuss Voigt Hill
#
# Bulk Modulus (GPa) = 15.99540 37.19113 26.59327
# Shear Modulus (GPa) = 19.29436 28.68857 23.99146
#
# Velocity S-wave (km/s) = 3.02433 3.68781 3.37243
# Velocity P-wave (km/s) = 4.44726 5.98029 5.26982
#
# Compressibility (1/GPa) = 0.06251798
#
# Stress axis : x y z
#
# Youngs Moduli (GPa) = 120.97207 14.52880 75.78074
#
# Poissons Ratio (x) = -0.00668 0.18031
# Poissons Ratio (y) = -0.05561 0.90686
# Poissons Ratio (z) = 0.28784 0.17386
#
# Static dielectric constant tensor:
#      x y z
#    x 4.438110 0.000000 0.000000 
#    y 0.000000 3.466800 0.000000 
#    z 0.000000 0.000000 3.873390 
# 
# 
# High freq. dielectric constant tensor:
#      x y z
#    x 1.847580 0.000000 0.000000 
#    y 0.000000 1.811830 0.000000 
#    z 0.000000 0.000000 1.813870 
# 
# From -- ./inp_files/8902.got.cif
#   From: 2010.03.12/outbox.cif.g09.slc.cpg/sg61_5_cif.got.tgz:8902.got - 2010.04.10 19:05:03.
