data_PCOD8248547
_publ_section_title
;
Structure prediction by ZEFSAII (Michael W. Deem and Ramdas Pophale) SiO2 
 PCOD8248547
Probable space group: P B C N
;
_chemical_formula_sum "Si O2"
_cell_formula_units_Z 40
_cell_length_a 9.820976
_cell_length_b 15.799904
_cell_length_c 11.172472
_cell_angle_alpha 90.000000
_cell_angle_beta 90.000000
_cell_angle_gamma 90.000000
_cell_volume 1733.637821
_symmetry_space_group_name_H-M "P B C N"
_symmetry_group_IT_number 60
_symmetry_cell_setting 'orthorhombic'
loop_
_space_group_symop_operation_xyz
x,y,z
1/2-x,1/2-y,1/2+z
1/2+x,1/2-y,-z
-x,y,1/2-z
-x,-y,-z
1/2+x,1/2+y,1/2-z
1/2-x,1/2+y,z
x,-y,1/2+z
loop_
_atom_site_type_symbol
_atom_site_label
_atom_site_fract_x
_atom_site_fract_y
_atom_site_fract_z
Si Si1 0.287896 0.411794 0.017424
Si Si2 0.740051 0.902377 0.971787
Si Si3 0.465900 0.711379 0.937969
Si Si4 0.988838 0.642175 0.888470
Si Si5 0.361767 0.860980 0.781038
O O1 0.325018 0.510274 0.037718
O O2 0.406813 0.353262 0.072597
O O3 0.156874 0.399230 0.097552
O O4 0.244820 0.395726 0.878739
O O5 0.719075 0.855637 0.843848
O O6 0.827471 0.839188 0.050115
O O7 0.600672 0.917312 0.046107
O O8 0.432626 0.773058 0.826568
O O9 0.500253 0.765003 0.055281
O O10 0.000000 0.654105 0.750000
O O11 0.500000 0.917446 0.750000
#
# Coordination Sequence:
#
# PCOD8248547 Si02
#       5
#     8   8   8   8   8
#     4  11  26  45  72 106 143 186 238 305 366 423
#     4  12  26  46  72 106 144 190 239 305 369 430
#     4  11  26  46  71 104 144 187 243 295 368 430
#     4  11  25  43  73 100 141 190 244 286 359 441
#     4  11  25  46  74  98 146 186 245 291 354 437
#
# _framework density 23.072870000000002
#
# number of rings (size 3 to 8) (size 9 to 14) (size 15 to 20)
#    0.000    0.800    4.000    3.600    8.400    0.000 
#    0.000    0.000    0.000    0.000    0.000    0.000 
#    0.000    0.000    0.000    0.000    0.000    0.000 
#
# Total GULP energy -495527.393087 kJ/mol
# GULP energy per Si atom -12388.184827 kJ/mol
# Density = 2.302036 g / cm^3
# Si number density = 23.072870 Si / 1000 Ang^3
#
#
#
# Elastic Constant Matrix: (Units=GPa)
#
#
# Indices 1 2 3 4 5 6 
#
# 1 80.7925 15.4175 34.2177 0.0000 0.0000 0.0000
# 2 15.4175 97.6471 51.6028 0.0000 0.0000 0.0000
# 3 34.2177 51.6028 153.8135 0.0000 0.0000 0.0000
# 4 0.0000 0.0000 0.0000 11.4938 0.0000 0.0000
# 5 0.0000 0.0000 0.0000 0.0000 -15.8092 0.0000
# 6 0.0000 0.0000 0.0000 0.0000 0.0000 41.4407
#
#
#
# Elastic Compliance Matrix: (Units=1/GPa)
#
#
# Indices 1 2 3 4 5 6 
#
# 1 0.013701 -0.000672 -0.002823 0.000000 0.000000 0.000000
# 2 -0.000672 0.012481 -0.004038 0.000000 0.000000 0.000000
# 3 -0.002823 -0.004038 0.008484 0.000000 0.000000 0.000000
# 4 0.000000 0.000000 0.000000 0.087003 0.000000 0.000000
# 5 0.000000 0.000000 0.000000 0.000000 -0.063254 0.000000
# 6 0.000000 0.000000 0.000000 0.000000 0.000000 0.024131
#
#
# Mechanical properties :
#
#
# Convention : Reuss Voigt Hill
#
# Bulk Modulus (GPa) = 51.01591 59.41435 55.21513
# Shear Modulus (GPa) = 48.01071 22.82608 35.41840
#
# Velocity S-wave (km/s) = 4.56656 3.14873 3.92224
# Velocity P-wave (km/s) = 7.06848 6.24708 6.67043
#
# Compressibility (1/GPa) = 0.01960173
#
# Stress axis : x y z
#
# Youngs Moduli (GPa) = 72.98739 80.12302 117.86980
#
# Poissons Ratio (x) = 0.05381 0.33270
# Poissons Ratio (y) = 0.04902 0.47593
# Poissons Ratio (z) = 0.20602 0.32352
#
# Static dielectric constant tensor:
#      x y z
#    x 4.252880 0.000000 0.000000 
#    y 0.000000 4.300390 0.000000 
#    z 0.000000 0.000000 4.081090 
# 
# 
# High freq. dielectric constant tensor:
#      x y z
#    x 1.919610 0.000000 0.000000 
#    y 0.000000 1.904080 0.000000 
#    z 0.000000 0.000000 1.918780 
# 
# From -- ./inp_files/9746.got.cif
#   From: 2010.03.12/outbox.cif.g09.slc.cpg/sg60_5_cif.got.tgz:9746.got - 2010.04.10 18:46:24.
