data_PCOD8248381
_publ_section_title
;
Structure prediction by ZEFSAII (Michael W. Deem and Ramdas Pophale) SiO2 
 PCOD8248381
Probable space group: P B C N
;
_chemical_formula_sum "Si O2"
_cell_formula_units_Z 36
_cell_length_a 23.774489
_cell_length_b 5.037265
_cell_length_c 13.408289
_cell_angle_alpha 90.000000
_cell_angle_beta 90.000000
_cell_angle_gamma 90.000000
_cell_volume 1605.755255
_symmetry_space_group_name_H-M "P B C N"
_symmetry_group_IT_number 60
_symmetry_cell_setting 'orthorhombic'
loop_
_space_group_symop_operation_xyz
x,y,z
1/2-x,1/2-y,1/2+z
1/2+x,1/2-y,-z
-x,y,1/2-z
-x,-y,-z
1/2+x,1/2+y,1/2-z
1/2-x,1/2+y,z
x,-y,1/2+z
loop_
_atom_site_type_symbol
_atom_site_label
_atom_site_fract_x
_atom_site_fract_y
_atom_site_fract_z
Si Si1 0.420130 0.644505 0.610604
Si Si2 0.000000 0.374169 0.750000
Si Si3 0.620503 0.923938 0.711637
Si Si4 0.787280 0.303235 0.324560
Si Si5 0.374521 0.858001 0.012585
O O1 0.483274 0.690731 0.653689
O O2 0.376486 0.689426 0.704136
O O3 0.415994 0.354099 0.564398
O O4 0.403674 0.856545 0.525212
O O5 0.944162 0.542805 0.718501
O O6 0.634222 0.801993 0.604057
O O7 0.664873 0.151750 0.740093
O O8 0.736604 0.509811 0.310375
O O9 0.813721 0.338729 0.434881
#
# Coordination Sequence:
#
# PCOD8248381 Si02
#       5
#     8   4   8   8   8
#     4   9  22  40  60  99 134 168 217 276 320 412
#     4   8  20  46  62 104 138 178 220 282 344 412
#     4   9  22  43  66 100 133 179 219 280 345 403
#     4  11  24  43  65  92 131 168 224 283 326 396
#     4  11  22  41  67  93 131 174 227 268 343 399
#
# _framework density 22.419357000000002
#
# number of rings (size 3 to 8) (size 9 to 14) (size 15 to 20)
#    1.333    0.889    0.000    2.667    0.000    9.778 
#    0.000    0.000    0.000    0.000    0.000    0.000 
#    0.000    0.000    0.000    0.000    0.000    0.000 
#
# Total GULP energy -446010.306037 kJ/mol
# GULP energy per Si atom -12389.175168 kJ/mol
# Density = 2.236833 g / cm^3
# Si number density = 22.419357 Si / 1000 Ang^3
#
#
#
# Elastic Constant Matrix: (Units=GPa)
#
#
# Indices 1 2 3 4 5 6 
#
# 1 106.9462 17.7278 11.4194 0.0000 0.0000 0.0000
# 2 17.7278 50.8451 14.4721 0.0000 0.0000 0.0000
# 3 11.4194 14.4721 143.5108 0.0000 0.0000 0.0000
# 4 0.0000 0.0000 0.0000 18.4099 0.0000 0.0000
# 5 0.0000 0.0000 0.0000 0.0000 20.9374 0.0000
# 6 0.0000 0.0000 0.0000 0.0000 0.0000 22.8700
#
#
#
# Elastic Compliance Matrix: (Units=1/GPa)
#
#
# Indices 1 2 3 4 5 6 
#
# 1 0.009953 -0.003341 -0.000455 0.000000 0.000000 0.000000
# 2 -0.003341 0.021370 -0.001889 0.000000 0.000000 0.000000
# 3 -0.000455 -0.001889 0.007195 0.000000 0.000000 0.000000
# 4 0.000000 0.000000 0.000000 0.054319 0.000000 0.000000
# 5 0.000000 0.000000 0.000000 0.000000 0.047761 0.000000
# 6 0.000000 0.000000 0.000000 0.000000 0.000000 0.043725
#
#
# Mechanical properties :
#
#
# Convention : Reuss Voigt Hill
#
# Bulk Modulus (GPa) = 36.83532 43.17119 40.00325
# Shear Modulus (GPa) = 24.42093 29.62231 27.02162
#
# Velocity S-wave (km/s) = 3.30400 3.63889 3.47548
# Velocity P-wave (km/s) = 5.56965 6.07893 5.82985
#
# Compressibility (1/GPa) = 0.02714786
#
# Stress axis : x y z
#
# Youngs Moduli (GPa) = 100.47368 46.79441 138.98845
#
# Poissons Ratio (x) = 0.15632 0.06325
# Poissons Ratio (y) = 0.33565 0.26258
# Poissons Ratio (z) = 0.04572 0.08840
#
# Static dielectric constant tensor:
#      x y z
#    x 4.009270 0.000000 0.000000 
#    y 0.000000 3.583940 0.000000 
#    z 0.000000 0.000000 3.968520 
# 
# 
# High freq. dielectric constant tensor:
#      x y z
#    x 1.882190 0.000000 0.000000 
#    y 0.000000 1.857100 0.000000 
#    z 0.000000 0.000000 1.875760 
# 
# From -- ./inp_files/17810.got.cif
#   From: 2010.03.12/outbox.cif.g09.slc.cpg/sg60_9_cif.got.tgz:17810.got - 2010.04.10 18:46:24.
