data_PCOD8248294
_publ_section_title
;
Structure prediction by ZEFSAII (Michael W. Deem and Ramdas Pophale) SiO2 
 PCOD8248294
Probable space group: P B C N
;
_chemical_formula_sum "Si O2"
_cell_formula_units_Z 64
_cell_length_a 10.555680
_cell_length_b 28.152973
_cell_length_c 9.106287
_cell_angle_alpha 90.000000
_cell_angle_beta 90.000000
_cell_angle_gamma 90.000000
_cell_volume 2706.149675
_symmetry_space_group_name_H-M "P B C N"
_symmetry_group_IT_number 60
_symmetry_cell_setting 'orthorhombic'
loop_
_space_group_symop_operation_xyz
x,y,z
1/2-x,1/2-y,1/2+z
1/2+x,1/2-y,-z
-x,y,1/2-z
-x,-y,-z
1/2+x,1/2+y,1/2-z
1/2-x,1/2+y,z
x,-y,1/2+z
loop_
_atom_site_type_symbol
_atom_site_label
_atom_site_fract_x
_atom_site_fract_y
_atom_site_fract_z
Si Si1 0.639613 0.886468 0.179066
Si Si2 0.221780 0.293282 0.801892
Si Si3 0.371063 0.894140 0.820151
Si Si4 0.295489 0.698112 0.960074
Si Si5 0.741768 0.949001 0.422244
Si Si6 0.232582 0.554571 0.068716
Si Si7 0.987513 0.060243 0.086223
Si Si8 0.960426 0.167310 0.092194
O O1 0.500000 0.878933 0.250000
O O2 0.740612 0.914838 0.280710
O O3 0.696272 0.835745 0.126132
O O4 0.629577 0.920901 0.038306
O O5 0.124646 0.336756 0.829403
O O6 0.251737 0.290715 0.627161
O O7 0.331372 0.303386 0.924611
O O8 0.171731 0.243164 0.858304
O O9 0.500000 0.913217 0.750000
O O10 0.258230 0.912689 0.714461
O O11 0.351563 0.920013 0.972980
O O12 0.434235 0.674582 0.967895
O O13 0.882121 0.963985 0.482181
O O14 0.684911 0.001436 0.390989
O O15 0.376289 0.558112 0.005353
O O16 0.000000 0.037199 0.250000
O O17 0.926696 0.112308 0.099996
O O18 0.000000 0.186851 0.250000
#
# Coordination Sequence:
#
# PCOD8248294 Si02
#       8
#     8   8   8   8   8   8   8   8
#     4  12  28  48  70 106 154 189 238 305 352 427
#     4  11  24  45  74 106 142 186 239 296 367 429
#     4  12  25  46  73 103 144 194 246 292 354 437
#     4  11  25  46  74 107 142 190 236 297 363 431
#     4  12  27  42  75 109 141 193 245 296 361 430
#     4  12  24  49  71 103 147 193 241 298 366 422
#     4  11  20  43  74 102 142 182 237 300 356 416
#     4   9  18  42  71  97 137 182 225 291 353 415
#
# _framework density 23.649836000000001
#
# number of rings (size 3 to 8) (size 9 to 14) (size 15 to 20)
#    0.000    0.750    5.000    2.625    1.750    6.000 
#    0.000    1.250    0.000    0.000    0.000    0.000 
#    0.000    0.000    0.000    0.000    0.000    0.000 
#
# Total GULP energy -792871.465597 kJ/mol
# GULP energy per Si atom -12388.616650 kJ/mol
# Density = 2.359601 g / cm^3
# Si number density = 23.649836 Si / 1000 Ang^3
#
#
#
# Elastic Constant Matrix: (Units=GPa)
#
#
# Indices 1 2 3 4 5 6 
#
# 1 80.1157 24.8118 16.8054 0.0000 0.0000 0.0000
# 2 24.8118 152.8848 55.2515 0.0000 0.0000 0.0000
# 3 16.8054 55.2515 89.3698 0.0000 0.0000 0.0000
# 4 0.0000 0.0000 0.0000 55.8239 0.0000 0.0000
# 5 0.0000 0.0000 0.0000 0.0000 38.7330 0.0000
# 6 0.0000 0.0000 0.0000 0.0000 0.0000 -13.9224
#
#
#
# Elastic Compliance Matrix: (Units=1/GPa)
#
#
# Indices 1 2 3 4 5 6 
#
# 1 0.013297 -0.001615 -0.001502 0.000000 0.000000 0.000000
# 2 -0.001615 0.008619 -0.005025 0.000000 0.000000 0.000000
# 3 -0.001502 -0.005025 0.014578 0.000000 0.000000 0.000000
# 4 0.000000 0.000000 0.000000 0.017913 0.000000 0.000000
# 5 0.000000 0.000000 0.000000 0.000000 0.025818 0.000000
# 6 0.000000 0.000000 0.000000 0.000000 0.000000 -0.071827
#
#
# Mechanical properties :
#
#
# Convention : Reuss Voigt Hill
#
# Bulk Modulus (GPa) = 49.47861 57.34531 53.41196
# Shear Modulus (GPa) = 159.13498 31.16033 95.14765
#
# Velocity S-wave (km/s) = 8.21182 3.63377 6.34974
# Velocity P-wave (km/s) = 10.52990 6.47349 8.74028
#
# Compressibility (1/GPa) = 0.02021075
#
# Stress axis : x y z
#
# Youngs Moduli (GPa) = 75.20363 116.02356 68.59478
#
# Poissons Ratio (x) = 0.18741 0.10302
# Poissons Ratio (y) = 0.12147 0.34467
# Poissons Ratio (z) = 0.11294 0.58299
#
# Static dielectric constant tensor:
#      x y z
#    x 4.238980 0.000000 0.000000 
#    y 0.000000 4.170140 0.000000 
#    z 0.000000 0.000000 4.656590 
# 
# 
# High freq. dielectric constant tensor:
#      x y z
#    x 1.935860 0.000000 0.000000 
#    y 0.000000 1.939900 0.000000 
#    z 0.000000 0.000000 1.930380 
# 
# From -- ./inp_files/5359.got.cif
#   From: 2010.03.12/outbox.cif.g09.slc.cpg/sg60_3_cif.got.tgz:5359.got - 2010.04.10 18:46:24.
