data_PCOD8248238
_publ_section_title
;
Structure prediction by ZEFSAII (Michael W. Deem and Ramdas Pophale) SiO2 
 PCOD8248238
Probable space group: P B C N
;
_chemical_formula_sum "Si O2"
_cell_formula_units_Z 36
_cell_length_a 9.951062
_cell_length_b 8.198592
_cell_length_c 18.558937
_cell_angle_alpha 90.000000
_cell_angle_beta 90.000000
_cell_angle_gamma 90.000000
_cell_volume 1514.125257
_symmetry_space_group_name_H-M "P B C N"
_symmetry_group_IT_number 60
_symmetry_cell_setting 'orthorhombic'
loop_
_space_group_symop_operation_xyz
x,y,z
1/2-x,1/2-y,1/2+z
1/2+x,1/2-y,-z
-x,y,1/2-z
-x,-y,-z
1/2+x,1/2+y,1/2-z
1/2-x,1/2+y,z
x,-y,1/2+z
loop_
_atom_site_type_symbol
_atom_site_label
_atom_site_fract_x
_atom_site_fract_y
_atom_site_fract_z
Si Si1 0.115102 0.792808 0.057657
Si Si2 0.393725 0.273027 0.896698
Si Si3 0.863393 0.455086 0.377910
Si Si4 0.500000 0.861952 0.750000
Si Si5 0.130364 0.117214 0.857058
O O1 0.126866 0.597952 0.063745
O O2 0.212952 0.881408 0.116182
O O3 0.962388 0.841580 0.074446
O O4 0.146466 0.842367 0.975687
O O5 0.539541 0.192895 0.899302
O O6 0.287674 0.136192 0.873564
O O7 0.391013 0.424856 0.840487
O O8 0.903256 0.523541 0.298712
O O9 0.596162 0.741169 0.706570
#
# Coordination Sequence:
#
# PCOD8248238 Si02
#       5
#     8   8   8   4   8
#     4  11  22  41  66 100 132 169 217 271 332 384
#     4  12  23  42  67  99 127 170 218 273 333 380
#     4  11  24  41  67  94 135 176 214 274 323 398
#     4  10  26  46  62  96 130 176 226 256 330 394
#     4  11  24  40  65  92 131 170 213 270 315 390
#
# _framework density 23.776102999999999
#
# number of rings (size 3 to 8) (size 9 to 14) (size 15 to 20)
#    0.000    0.889    0.000    8.000    0.000    8.000 
#    0.000    0.000    0.000    0.000    0.000    0.000 
#    0.000    0.000    0.000    0.000    0.000    0.000 
#
# Total GULP energy -446416.513540 kJ/mol
# GULP energy per Si atom -12400.458709 kJ/mol
# Density = 2.372199 g / cm^3
# Si number density = 23.776103 Si / 1000 Ang^3
#
#
#
# Elastic Constant Matrix: (Units=GPa)
#
#
# Indices 1 2 3 4 5 6 
#
# 1 76.0469 26.0751 9.8023 0.0000 0.0000 0.0000
# 2 26.0751 147.8025 23.2556 0.0000 0.0000 0.0000
# 3 9.8023 23.2556 99.8859 0.0000 0.0000 0.0000
# 4 0.0000 0.0000 0.0000 30.9724 0.0000 0.0000
# 5 0.0000 0.0000 0.0000 0.0000 21.3387 0.0000
# 6 0.0000 0.0000 0.0000 0.0000 0.0000 43.7731
#
#
#
# Elastic Compliance Matrix: (Units=1/GPa)
#
#
# Indices 1 2 3 4 5 6 
#
# 1 0.014063 -0.002350 -0.000833 0.000000 0.000000 0.000000
# 2 -0.002350 0.007416 -0.001496 0.000000 0.000000 0.000000
# 3 -0.000833 -0.001496 0.010441 0.000000 0.000000 0.000000
# 4 0.000000 0.000000 0.000000 0.032287 0.000000 0.000000
# 5 0.000000 0.000000 0.000000 0.000000 0.046863 0.000000
# 6 0.000000 0.000000 0.000000 0.000000 0.000000 0.022845
#
#
# Mechanical properties :
#
#
# Convention : Reuss Voigt Hill
#
# Bulk Modulus (GPa) = 44.32135 49.11126 46.71630
# Shear Modulus (GPa) = 33.15794 36.85701 35.00747
#
# Velocity S-wave (km/s) = 3.73847 3.94149 3.84132
# Velocity P-wave (km/s) = 6.10872 6.43540 6.27419
#
# Compressibility (1/GPa) = 0.02256249
#
# Stress axis : x y z
#
# Youngs Moduli (GPa) = 71.10921 134.84864 95.77214
#
# Poissons Ratio (x) = 0.31688 0.07977
# Poissons Ratio (y) = 0.16710 0.14327
# Poissons Ratio (z) = 0.05923 0.20172
#
# Static dielectric constant tensor:
#      x y z
#    x 4.229570 0.000000 0.000000 
#    y 0.000000 4.441710 0.000000 
#    z 0.000000 0.000000 4.060840 
# 
# 
# High freq. dielectric constant tensor:
#      x y z
#    x 1.948850 0.000000 0.000000 
#    y 0.000000 1.962370 0.000000 
#    z 0.000000 0.000000 1.921030 
# 
# From -- ./inp_files/21901.got.cif
#   From: 2010.03.12/outbox.cif.g09.slc.cpg/sg60_11_cif.got.tgz:21901.got - 2010.04.10 18:46:24.
