data_PCOD8248484
_publ_section_title
;
Structure prediction by ZEFSAII (Michael W. Deem and Ramdas Pophale) SiO2 
 PCOD8248484
Probable space group: P B C N
;
_chemical_formula_sum "Si O2"
_cell_formula_units_Z 64
_cell_length_a 11.307831
_cell_length_b 18.268835
_cell_length_c 13.305469
_cell_angle_alpha 90.000000
_cell_angle_beta 90.000000
_cell_angle_gamma 90.000000
_cell_volume 2748.655744
_symmetry_space_group_name_H-M "P B C N"
_symmetry_group_IT_number 60
_symmetry_cell_setting 'orthorhombic'
loop_
_space_group_symop_operation_xyz
x,y,z
1/2-x,1/2-y,1/2+z
1/2+x,1/2-y,-z
-x,y,1/2-z
-x,-y,-z
1/2+x,1/2+y,1/2-z
1/2-x,1/2+y,z
x,-y,1/2+z
loop_
_atom_site_type_symbol
_atom_site_label
_atom_site_fract_x
_atom_site_fract_y
_atom_site_fract_z
Si Si1 0.464648 0.428587 0.615546
Si Si2 0.635207 0.034494 0.257148
Si Si3 0.703877 0.708312 0.936916
Si Si4 0.362033 0.777033 0.235520
Si Si5 0.022528 0.909294 0.115535
Si Si6 0.705095 0.358375 0.656604
Si Si7 0.224181 0.376944 0.567303
Si Si8 0.239243 0.097140 0.841068
O O1 0.428767 0.511018 0.650553
O O2 0.498435 0.421364 0.500341
O O3 0.581846 0.402803 0.676290
O O4 0.350464 0.375809 0.628118
O O5 0.500000 0.010782 0.250000
O O6 0.678517 0.092908 0.173724
O O7 0.642672 0.068601 0.368715
O O8 0.715579 0.964149 0.235926
O O9 0.829147 0.699855 0.878539
O O10 0.610533 0.660052 0.871783
O O11 0.670740 0.794814 0.942626
O O12 0.715350 0.675601 0.046650
O O13 0.500000 0.765688 0.250000
O O14 0.289882 0.703789 0.259607
O O15 0.315621 0.832329 0.318483
O O16 0.901932 0.891662 0.177845
O O17 0.239510 0.417514 0.459648
#
# Coordination Sequence:
#
# PCOD8248484 Si02
#       8
#     8   8   8   8   8   8   8   8
#     4   9  19  40  72 102 131 181 238 296 354 418
#     4  12  28  46  69 103 145 192 243 296 362 445
#     4  11  24  44  71 109 144 186 235 307 374 432
#     4  12  26  44  69 105 145 195 241 292 366 456
#     4   9  20  40  72 102 136 175 238 302 357 417
#     4  11  23  46  73 102 143 187 242 301 365 432
#     4  11  24  45  70 103 145 185 236 305 373 436
#     4  11  25  48  70 103 143 185 247 303 361 438
#
# _framework density 23.284108
#
# number of rings (size 3 to 8) (size 9 to 14) (size 15 to 20)
#    0.000    1.250    3.750    1.125    3.500    3.000 
#    2.250    0.000    0.000    0.000    0.000    0.000 
#    0.000    0.000    0.000    0.000    0.000    0.000 
#
# Total GULP energy -793231.080783 kJ/mol
# GULP energy per Si atom -12394.235637 kJ/mol
# Density = 2.323111 g / cm^3
# Si number density = 23.284108 Si / 1000 Ang^3
#
#
#
# Elastic Constant Matrix: (Units=GPa)
#
#
# Indices 1 2 3 4 5 6 
#
# 1 91.9613 28.2334 24.1872 0.0000 0.0000 0.0000
# 2 28.2334 132.8074 24.7014 0.0000 0.0000 0.0000
# 3 24.1872 24.7014 41.4344 0.0000 0.0000 0.0000
# 4 0.0000 0.0000 0.0000 28.5331 0.0000 0.0000
# 5 0.0000 0.0000 0.0000 0.0000 35.4977 0.0000
# 6 0.0000 0.0000 0.0000 0.0000 0.0000 41.9147
#
#
#
# Elastic Compliance Matrix: (Units=1/GPa)
#
#
# Indices 1 2 3 4 5 6 
#
# 1 0.013119 -0.001535 -0.006743 0.000000 0.000000 0.000000
# 2 -0.001535 0.008648 -0.004260 0.000000 0.000000 0.000000
# 3 -0.006743 -0.004260 0.030610 0.000000 0.000000 0.000000
# 4 0.000000 0.000000 0.000000 0.035047 0.000000 0.000000
# 5 0.000000 0.000000 0.000000 0.000000 0.028171 0.000000
# 6 0.000000 0.000000 0.000000 0.000000 0.000000 0.023858
#
#
# Mechanical properties :
#
#
# Convention : Reuss Voigt Hill
#
# Bulk Modulus (GPa) = 36.62726 46.71634 41.67180
# Shear Modulus (GPa) = 28.79695 33.79451 31.29573
#
# Velocity S-wave (km/s) = 3.52058 3.81385 3.67015
# Velocity P-wave (km/s) = 5.68249 6.28499 5.99132
#
# Compressibility (1/GPa) = 0.02730207
#
# Stress axis : x y z
#
# Youngs Moduli (GPa) = 76.22608 115.63003 32.66866
#
# Poissons Ratio (x) = 0.17746 0.22029
# Poissons Ratio (y) = 0.11699 0.13916
# Poissons Ratio (z) = 0.51400 0.49256
#
# Static dielectric constant tensor:
#      x y z
#    x 4.187510 0.000000 0.000000 
#    y 0.000000 4.493890 0.000000 
#    z 0.000000 0.000000 4.345730 
# 
# 
# High freq. dielectric constant tensor:
#      x y z
#    x 1.900150 0.000000 0.000000 
#    y 0.000000 1.928880 0.000000 
#    z 0.000000 0.000000 1.949440 
# 
# From -- ./inp_files/16370.got.cif
#   From: 2010.03.12/outbox.cif.g09.slc.cpg/sg60_9_cif.got.tgz:16370.got - 2010.04.10 18:46:24.
