data_PCOD8248160
_publ_section_title
;
Structure prediction by ZEFSAII (Michael W. Deem and Ramdas Pophale) SiO2 
 PCOD8248160
Probable space group: P B C N
;
_chemical_formula_sum "Si O2"
_cell_formula_units_Z 64
_cell_length_a 30.270890
_cell_length_b 8.780791
_cell_length_c 11.486523
_cell_angle_alpha 90.000000
_cell_angle_beta 90.000000
_cell_angle_gamma 90.000000
_cell_volume 3053.144904
_symmetry_space_group_name_H-M "P B C N"
_symmetry_group_IT_number 60
_symmetry_cell_setting 'orthorhombic'
loop_
_space_group_symop_operation_xyz
x,y,z
1/2-x,1/2-y,1/2+z
1/2+x,1/2-y,-z
-x,y,1/2-z
-x,-y,-z
1/2+x,1/2+y,1/2-z
1/2-x,1/2+y,z
x,-y,1/2+z
loop_
_atom_site_type_symbol
_atom_site_label
_atom_site_fract_x
_atom_site_fract_y
_atom_site_fract_z
Si Si1 0.072122 0.815241 0.896269
Si Si2 0.600843 0.720510 0.352192
Si Si3 0.254774 0.987270 0.642831
Si Si4 0.959708 0.125598 0.679654
Si Si5 0.304317 0.280069 0.257828
Si Si6 0.393147 0.364223 0.136502
Si Si7 0.692356 0.757014 0.471697
Si Si8 0.514733 0.168889 0.973156
O O1 0.100163 0.752057 0.787223
O O2 0.023413 0.744331 0.895809
O O3 0.067006 0.997610 0.889943
O O4 0.099536 0.779022 0.013412
O O5 0.594850 0.542105 0.378106
O O6 0.646593 0.781002 0.403860
O O7 0.561239 0.819222 0.406791
O O8 0.289847 0.883352 0.709702
O O9 0.217374 0.890512 0.577570
O O10 0.234364 0.096191 0.742216
O O11 0.278807 0.090934 0.545799
O O12 0.926192 0.209084 0.768728
O O13 0.980962 0.249521 0.596553
O O14 0.000000 0.047490 0.750000
O O15 0.343743 0.339975 0.177944
O O16 0.317699 0.268058 0.392372
O O17 0.500000 0.000000 0.000000
#
# Coordination Sequence:
#
# PCOD8248160 Si02
#       8
#     8   8   8   8   8   8   8   8
#     4  11  23  43  66  94 131 172 230 277 320 394
#     4  11  24  42  67 100 133 177 225 278 332 395
#     4  10  24  44  69 104 135 180 221 277 351 410
#     4  11  21  39  68  92 124 170 226 272 324 388
#     4  11  23  43  71 101 137 177 224 277 344 402
#     4  11  22  40  70 101 125 173 228 278 324 398
#     4  11  23  46  70 104 141 175 228 283 340 416
#     4  12  25  43  65  93 136 178 219 277 338 401
#
# _framework density 20.961991000000001
#
# number of rings (size 3 to 8) (size 9 to 14) (size 15 to 20)
#    0.000    1.000    3.750    3.750    1.750    2.000 
#   15.750    0.000    0.000    0.000    0.000    0.000 
#    0.000    0.000    0.000    0.000    0.000    0.000 
#
# Total GULP energy -793769.583045 kJ/mol
# GULP energy per Si atom -12402.649735 kJ/mol
# Density = 2.091428 g / cm^3
# Si number density = 20.961991 Si / 1000 Ang^3
#
#
#
# Elastic Constant Matrix: (Units=GPa)
#
#
# Indices 1 2 3 4 5 6 
#
# 1 124.8250 41.1560 62.7870 0.0000 0.0000 0.0000
# 2 41.1560 99.2056 44.4082 0.0000 0.0000 0.0000
# 3 62.7870 44.4082 144.5417 0.0000 0.0000 0.0000
# 4 0.0000 0.0000 0.0000 18.7061 0.0000 0.0000
# 5 0.0000 0.0000 0.0000 0.0000 43.0164 0.0000
# 6 0.0000 0.0000 0.0000 0.0000 0.0000 23.9263
#
#
#
# Elastic Compliance Matrix: (Units=1/GPa)
#
#
# Indices 1 2 3 4 5 6 
#
# 1 0.010874 -0.002779 -0.003870 0.000000 0.000000 0.000000
# 2 -0.002779 0.012398 -0.002602 0.000000 0.000000 0.000000
# 3 -0.003870 -0.002602 0.009399 0.000000 0.000000 0.000000
# 4 0.000000 0.000000 0.000000 0.053459 0.000000 0.000000
# 5 0.000000 0.000000 0.000000 0.000000 0.023247 0.000000
# 6 0.000000 0.000000 0.000000 0.000000 0.000000 0.041795
#
#
# Mechanical properties :
#
#
# Convention : Reuss Voigt Hill
#
# Bulk Modulus (GPa) = 70.57483 73.91941 72.24712
# Shear Modulus (GPa) = 28.67058 31.81115 30.24086
#
# Velocity S-wave (km/s) = 3.70231 3.89982 3.80235
# Velocity P-wave (km/s) = 7.21230 7.45776 7.33606
#
# Compressibility (1/GPa) = 0.01416936
#
# Stress axis : x y z
#
# Youngs Moduli (GPa) = 91.96329 80.66075 106.39704
#
# Poissons Ratio (x) = 0.22415 0.41173
# Poissons Ratio (y) = 0.25555 0.27683
# Poissons Ratio (z) = 0.35587 0.20987
#
# Static dielectric constant tensor:
#      x y z
#    x 3.832890 0.000000 0.000000 
#    y 0.000000 3.608230 0.000000 
#    z 0.000000 0.000000 4.470540 
# 
# 
# High freq. dielectric constant tensor:
#      x y z
#    x 1.829230 0.000000 0.000000 
#    y 0.000000 1.802670 0.000000 
#    z 0.000000 0.000000 1.833830 
# 
# From -- ./inp_files/13388.got.cif
#   From: 2010.03.12/outbox.cif.g09.slc.cpg/sg60_7_cif.got.tgz:13388.got - 2010.04.10 18:46:24.
