data_PCOD8248784
_publ_section_title
;
Structure prediction by ZEFSAII (Michael W. Deem and Ramdas Pophale) SiO2 
 PCOD8248784
Probable space group: P B C A
;
_chemical_formula_sum "Si O2"
_cell_formula_units_Z 48
_cell_length_a 17.342089
_cell_length_b 9.378706
_cell_length_c 15.334114
_cell_angle_alpha 90.000000
_cell_angle_beta 90.000000
_cell_angle_gamma 90.000000
_cell_volume 2494.037736
_symmetry_space_group_name_H-M "P B C A"
_symmetry_group_IT_number 61
_symmetry_cell_setting 'orthorhombic'
loop_
_space_group_symop_operation_xyz
x,y,z
1/2-x,-y,1/2+z
1/2+x,1/2-y,-z
-x,1/2+y,1/2-z
-x,-y,-z
1/2+x,y,1/2-z
1/2-x,1/2+y,z
x,1/2-y,1/2+z
loop_
_atom_site_type_symbol
_atom_site_label
_atom_site_fract_x
_atom_site_fract_y
_atom_site_fract_z
Si Si1 0.056248 0.598269 0.267318
Si Si2 0.794066 0.155438 0.138317
Si Si3 0.664165 0.548918 0.578867
Si Si4 0.730079 0.784376 0.320199
Si Si5 0.154201 0.512547 0.113017
Si Si6 0.918145 0.415625 0.252560
O O1 0.127623 0.573168 0.333058
O O2 0.079111 0.534061 0.172800
O O3 0.038734 0.765612 0.261062
O O4 0.978180 0.521692 0.299632
O O5 0.814447 0.283849 0.072972
O O6 0.752560 0.224347 0.223179
O O7 0.741795 0.041814 0.090380
O O8 0.626621 0.500506 0.487292
O O9 0.605906 0.519379 0.658527
O O10 0.711043 0.648947 0.380483
O O11 0.656931 0.892787 0.313227
O O12 0.802665 0.867951 0.358055
#
# Coordination Sequence:
#
# PCOD8248784 Si02
#       6
#     8   8   8   8   8   8
#     4   9  19  33  50  70  97 131 165 199 236 287
#     4   9  18  33  51  73  99 129 164 198 237 290
#     4  10  19  32  52  76 101 125 157 205 249 285
#     4   9  18  33  51  73  99 129 164 198 237 290
#     4  10  19  32  52  76 101 125 157 205 249 285
#     4   9  19  33  50  70  97 131 165 199 236 287
#
# _framework density 19.245899999999999
#
# number of rings (size 3 to 8) (size 9 to 14) (size 15 to 20)
#    0.000    3.333    0.000    5.000    0.000    4.667 
#    0.000    0.000    0.000   25.000    0.000    0.000 
#    0.000    0.000    0.000    0.000    0.000    0.000 
#
# Total GULP energy -594932.330640 kJ/mol
# GULP energy per Si atom -12394.423555 kJ/mol
# Density = 1.920210 g / cm^3
# Si number density = 19.245900 Si / 1000 Ang^3
#
#
#
# Elastic Constant Matrix: (Units=GPa)
#
#
# Indices 1 2 3 4 5 6 
#
# 1 43.9053 19.3414 1.9379 0.0000 0.0000 0.0000
# 2 19.3414 32.5352 -7.1333 0.0000 0.0000 0.0000
# 3 1.9379 -7.1333 43.4630 0.0000 0.0000 0.0000
# 4 0.0000 0.0000 0.0000 14.4289 0.0000 0.0000
# 5 0.0000 0.0000 0.0000 0.0000 12.2588 0.0000
# 6 0.0000 0.0000 0.0000 0.0000 0.0000 42.5531
#
#
#
# Elastic Compliance Matrix: (Units=1/GPa)
#
#
# Indices 1 2 3 4 5 6 
#
# 1 0.031750 -0.019901 -0.004682 0.000000 0.000000 0.000000
# 2 -0.019901 0.044357 0.008167 0.000000 0.000000 0.000000
# 3 -0.004682 0.008167 0.024557 0.000000 0.000000 0.000000
# 4 0.000000 0.000000 0.000000 0.069305 0.000000 0.000000
# 5 0.000000 0.000000 0.000000 0.000000 0.081574 0.000000
# 6 0.000000 0.000000 0.000000 0.000000 0.000000 0.023500
#
#
# Mechanical properties :
#
#
# Convention : Reuss Voigt Hill
#
# Bulk Modulus (GPa) = 14.74196 16.46614 15.60405
# Shear Modulus (GPa) = 15.12924 20.89865 18.01394
#
# Velocity S-wave (km/s) = 2.80679 3.29884 3.06271
# Velocity P-wave (km/s) = 4.26386 4.80458 4.54228
#
# Compressibility (1/GPa) = 0.06783357
#
# Stress axis : x y z
#
# Youngs Moduli (GPa) = 31.49625 22.54425 40.72108
#
# Poissons Ratio (x) = 0.44865 0.19065
# Poissons Ratio (y) = 0.62680 -0.33258
# Poissons Ratio (z) = 0.14746 -0.18413
#
# Static dielectric constant tensor:
#      x y z
#    x 3.176980 0.000000 0.000000 
#    y 0.000000 3.505210 0.000000 
#    z 0.000000 0.000000 3.340170 
# 
# 
# High freq. dielectric constant tensor:
#      x y z
#    x 1.723200 0.000000 0.000000 
#    y 0.000000 1.753140 0.000000 
#    z 0.000000 0.000000 1.727430 
# 
# From -- ./inp_files/9614.got.cif
#   From: 2010.03.12/outbox.cif.g09.slc.cpg/sg61_5_cif.got.tgz:9614.got - 2010.04.10 19:05:03.
