data_PCOD8248441
_publ_section_title
;
Structure prediction by ZEFSAII (Michael W. Deem and Ramdas Pophale) SiO2 
 PCOD8248441
Probable space group: P B C N
;
_chemical_formula_sum "Si O2"
_cell_formula_units_Z 48
_cell_length_a 16.493830
_cell_length_b 16.231187
_cell_length_c 8.218965
_cell_angle_alpha 90.000000
_cell_angle_beta 90.000000
_cell_angle_gamma 90.000000
_cell_volume 2200.335605
_symmetry_space_group_name_H-M "P B C N"
_symmetry_group_IT_number 60
_symmetry_cell_setting 'orthorhombic'
loop_
_space_group_symop_operation_xyz
x,y,z
1/2-x,1/2-y,1/2+z
1/2+x,1/2-y,-z
-x,y,1/2-z
-x,-y,-z
1/2+x,1/2+y,1/2-z
1/2-x,1/2+y,z
x,-y,1/2+z
loop_
_atom_site_type_symbol
_atom_site_label
_atom_site_fract_x
_atom_site_fract_y
_atom_site_fract_z
Si Si1 0.943251 0.891607 0.528087
Si Si2 0.667345 0.748434 0.099774
Si Si3 0.238212 0.639407 0.165734
Si Si4 0.414307 0.938058 0.828341
Si Si5 0.586047 0.115688 0.795896
Si Si6 0.606342 0.452494 0.873066
O O1 0.913057 0.796505 0.523085
O O2 0.911340 0.936364 0.687392
O O3 0.041516 0.898423 0.520133
O O4 0.903452 0.948650 0.388730
O O5 0.722362 0.676987 0.173376
O O6 0.649366 0.814614 0.242101
O O7 0.719211 0.788632 0.959087
O O8 0.155155 0.596401 0.213361
O O9 0.301813 0.575411 0.083343
O O10 0.500000 0.910556 0.750000
O O11 0.404924 0.036639 0.822600
O O12 0.406217 0.907501 0.014078
O O13 0.500000 0.155464 0.750000
#
# Coordination Sequence:
#
# PCOD8248441 Si02
#       6
#     8   8   8   8   8   8
#     4   9  20  40  64  90 120 166 216 259 324 380
#     4  11  24  39  61  96 129 170 210 276 332 379
#     4  11  24  40  60  95 135 169 224 269 329 387
#     4  11  23  44  64  97 126 174 222 263 323 410
#     4  11  23  41  70  89 127 170 216 266 331 391
#     4   9  20  39  63  86 121 163 215 259 313 391
#
# _framework density 21.814855000000001
#
# number of rings (size 3 to 8) (size 9 to 14) (size 15 to 20)
#    0.000    1.667    0.000    5.000    4.667    8.000 
#    3.000    0.000    0.000    0.000    0.000    0.000 
#    0.000    0.000    0.000    0.000    0.000    0.000 
#
# Total GULP energy -594986.379304 kJ/mol
# GULP energy per Si atom -12395.549569 kJ/mol
# Density = 2.176520 g / cm^3
# Si number density = 21.814855 Si / 1000 Ang^3
#
#
#
# Elastic Constant Matrix: (Units=GPa)
#
#
# Indices 1 2 3 4 5 6 
#
# 1 150.5445 54.0729 32.1130 0.0000 0.0000 0.0000
# 2 54.0729 73.9619 24.5384 0.0000 0.0000 0.0000
# 3 32.1130 24.5384 53.8632 0.0000 0.0000 0.0000
# 4 0.0000 0.0000 0.0000 37.5792 0.0000 0.0000
# 5 0.0000 0.0000 0.0000 0.0000 22.9509 0.0000
# 6 0.0000 0.0000 0.0000 0.0000 0.0000 33.7031
#
#
#
# Elastic Compliance Matrix: (Units=1/GPa)
#
#
# Indices 1 2 3 4 5 6 
#
# 1 0.009379 -0.005892 -0.002907 0.000000 0.000000 0.000000
# 2 -0.005892 0.019630 -0.005430 0.000000 0.000000 0.000000
# 3 -0.002907 -0.005430 0.022773 0.000000 0.000000 0.000000
# 4 0.000000 0.000000 0.000000 0.026610 0.000000 0.000000
# 5 0.000000 0.000000 0.000000 0.000000 0.043571 0.000000
# 6 0.000000 0.000000 0.000000 0.000000 0.000000 0.029671
#
#
# Mechanical properties :
#
#
# Convention : Reuss Voigt Hill
#
# Bulk Modulus (GPa) = 42.87718 55.53538 49.20628
# Shear Modulus (GPa) = 26.61452 30.02300 28.31876
#
# Velocity S-wave (km/s) = 3.49666 3.71383 3.60688
# Velocity P-wave (km/s) = 5.99999 6.62593 6.32071
#
# Compressibility (1/GPa) = 0.02332243
#
# Stress axis : x y z
#
# Youngs Moduli (GPa) = 106.61879 50.94293 43.91255
#
# Poissons Ratio (x) = 0.30018 0.12767
# Poissons Ratio (y) = 0.62825 0.23843
# Poissons Ratio (z) = 0.30999 0.27660
#
# Static dielectric constant tensor:
#      x y z
#    x 4.378040 0.000000 0.000000 
#    y 0.000000 3.978110 0.000000 
#    z 0.000000 0.000000 3.760160 
# 
# 
# High freq. dielectric constant tensor:
#      x y z
#    x 1.865250 0.000000 0.000000 
#    y 0.000000 1.853560 0.000000 
#    z 0.000000 0.000000 1.848970 
# 
# From -- ./inp_files/6735.got.cif
#   From: 2010.03.12/outbox.cif.g09.slc.cpg/sg60_4_cif.got.tgz:6735.got - 2010.04.10 18:46:24.
