data_PCOD8248338
_publ_section_title
;
Structure prediction by ZEFSAII (Michael W. Deem and Ramdas Pophale) SiO2 
 PCOD8248338
Probable space group: P B C N
;
_chemical_formula_sum "Si O2"
_cell_formula_units_Z 44
_cell_length_a 9.536023
_cell_length_b 13.344858
_cell_length_c 14.973068
_cell_angle_alpha 90.000000
_cell_angle_beta 90.000000
_cell_angle_gamma 90.000000
_cell_volume 1905.425810
_symmetry_space_group_name_H-M "P B C N"
_symmetry_group_IT_number 60
_symmetry_cell_setting 'orthorhombic'
loop_
_space_group_symop_operation_xyz
x,y,z
1/2-x,1/2-y,1/2+z
1/2+x,1/2-y,-z
-x,y,1/2-z
-x,-y,-z
1/2+x,1/2+y,1/2-z
1/2-x,1/2+y,z
x,-y,1/2+z
loop_
_atom_site_type_symbol
_atom_site_label
_atom_site_fract_x
_atom_site_fract_y
_atom_site_fract_z
Si Si1 0.801724 0.921858 0.888429
Si Si2 0.203320 0.405439 0.422834
Si Si3 0.711034 0.906266 0.693993
Si Si4 0.500000 0.249745 0.250000
Si Si5 0.445056 0.296693 0.906210
Si Si6 0.531403 0.379558 0.405442
O O1 0.718852 0.940539 0.797294
O O2 0.889536 0.816805 0.887407
O O3 0.918935 0.006440 0.904099
O O4 0.691144 0.924068 0.970270
O O5 0.157521 0.503002 0.367413
O O6 0.094970 0.319177 0.392644
O O7 0.362909 0.375781 0.400796
O O8 0.599541 0.817061 0.687498
O O9 0.860717 0.866679 0.662142
O O10 0.588062 0.319485 0.318652
O O11 0.405820 0.326802 0.007332
#
# Coordination Sequence:
#
# PCOD8248338 Si02
#       6
#     8   8   8   4   8   8
#     4  11  23  42  73  98 125 180 237 272 328 411
#     4  11  22  44  67  98 136 173 219 281 341 399
#     4  12  24  44  64  99 140 175 228 277 334 414
#     4  12  26  42  66 102 140 176 220 290 352 388
#     4  11  22  41  69  97 130 168 229 282 330 395
#     4  11  21  42  70  96 125 179 227 276 331 405
#
# _framework density 23.091951000000002
#
# number of rings (size 3 to 8) (size 9 to 14) (size 15 to 20)
#    0.000    0.727    5.455    3.818    0.000    0.000 
#    3.273    5.455    0.000    0.000    0.000    0.000 
#    0.000    0.000    0.000    0.000    0.000    0.000 
#
# Total GULP energy -545744.822969 kJ/mol
# GULP energy per Si atom -12403.291431 kJ/mol
# Density = 2.303939 g / cm^3
# Si number density = 23.091951 Si / 1000 Ang^3
#
#
#
# Elastic Constant Matrix: (Units=GPa)
#
#
# Indices 1 2 3 4 5 6 
#
# 1 24.9143 9.4489 1.5095 0.0000 0.0000 0.0000
# 2 9.4489 97.4610 36.6995 0.0000 0.0000 0.0000
# 3 1.5095 36.6995 141.6361 0.0000 0.0000 0.0000
# 4 0.0000 0.0000 0.0000 41.1192 0.0000 0.0000
# 5 0.0000 0.0000 0.0000 0.0000 17.5239 0.0000
# 6 0.0000 0.0000 0.0000 0.0000 0.0000 19.4816
#
#
#
# Elastic Compliance Matrix: (Units=1/GPa)
#
#
# Indices 1 2 3 4 5 6 
#
# 1 0.041727 -0.004297 0.000669 0.000000 0.000000 0.000000
# 2 -0.004297 0.011812 -0.003015 0.000000 0.000000 0.000000
# 3 0.000669 -0.003015 0.007834 0.000000 0.000000 0.000000
# 4 0.000000 0.000000 0.000000 0.024320 0.000000 0.000000
# 5 0.000000 0.000000 0.000000 0.000000 0.057065 0.000000
# 6 0.000000 0.000000 0.000000 0.000000 0.000000 0.051330
#
#
# Mechanical properties :
#
#
# Convention : Reuss Voigt Hill
#
# Bulk Modulus (GPa) = 20.79570 39.92525 30.36047
# Shear Modulus (GPa) = 22.38092 30.04851 26.21472
#
# Velocity S-wave (km/s) = 3.11659 3.61120 3.37298
# Velocity P-wave (km/s) = 4.68786 5.89194 5.32405
#
# Compressibility (1/GPa) = 0.04808687
#
# Stress axis : x y z
#
# Youngs Moduli (GPa) = 23.96534 84.65662 127.64187
#
# Poissons Ratio (x) = 0.36379 -0.08536
# Poissons Ratio (y) = 0.10299 0.38483
# Poissons Ratio (z) = -0.01603 0.25523
#
# Static dielectric constant tensor:
#      x y z
#    x 3.642210 0.000000 0.000000 
#    y 0.000000 4.184710 0.000000 
#    z 0.000000 0.000000 4.377110 
# 
# 
# High freq. dielectric constant tensor:
#      x y z
#    x 1.875890 0.000000 0.000000 
#    y 0.000000 1.916100 0.000000 
#    z 0.000000 0.000000 1.930180 
# 
# From -- ./inp_files/15997.got.cif
#   From: 2010.03.12/outbox.cif.g09.slc.cpg/sg60_8_cif.got.tgz:15997.got - 2010.04.10 18:46:24.
