data_PCOD8248818
_publ_section_title
;
Structure prediction by ZEFSAII (Michael W. Deem and Ramdas Pophale) SiO2 
 PCOD8248818
Probable space group: P B C A
;
_chemical_formula_sum "Si O2"
_cell_formula_units_Z 48
_cell_length_a 27.217173
_cell_length_b 7.986602
_cell_length_c 10.804556
_cell_angle_alpha 90.000000
_cell_angle_beta 90.000000
_cell_angle_gamma 90.000000
_cell_volume 2348.615816
_symmetry_space_group_name_H-M "P B C A"
_symmetry_group_IT_number 61
_symmetry_cell_setting 'orthorhombic'
loop_
_space_group_symop_operation_xyz
x,y,z
1/2-x,-y,1/2+z
1/2+x,1/2-y,-z
-x,1/2+y,1/2-z
-x,-y,-z
1/2+x,y,1/2-z
1/2-x,1/2+y,z
x,1/2-y,1/2+z
loop_
_atom_site_type_symbol
_atom_site_label
_atom_site_fract_x
_atom_site_fract_y
_atom_site_fract_z
Si Si1 0.765185 0.209657 0.551477
Si Si2 0.682590 0.017294 0.666303
Si Si3 0.532130 0.962064 0.378931
Si Si4 0.991467 0.878360 0.616734
Si Si5 0.398947 0.819098 0.480117
Si Si6 0.811540 0.594591 0.934231
O O1 0.721026 0.168805 0.646230
O O2 0.801933 0.348106 0.600253
O O3 0.734925 0.275648 0.429874
O O4 0.797944 0.044965 0.535478
O O5 0.628762 0.065020 0.618417
O O6 0.680551 0.988309 0.811326
O O7 0.535767 0.758894 0.372220
O O8 0.500000 0.000000 0.500000
O O9 0.510231 0.023033 0.246945
O O10 0.582857 0.060226 0.406994
O O11 0.941488 0.776291 0.593977
O O12 0.000000 0.000000 0.500000
O O13 0.362645 0.683388 0.537739
#
# Coordination Sequence:
#
# PCOD8248818 Si02
#       6
#     8   8   8   8   8   8
#     4   9  20  34  54  83 109 151 198 232 286 344
#     4  10  19  35  56  79 114 150 189 240 287 340
#     4  10  21  40  63  88 117 152 194 240 295 355
#     4  11  23  42  65  88 117 155 195 243 300 358
#     4  10  22  37  58  89 117 148 192 240 293 353
#     4  10  19  36  57  81 116 152 192 241 288 340
#
# _framework density 20.437570999999998
#
# number of rings (size 3 to 8) (size 9 to 14) (size 15 to 20)
#    0.000    2.000    0.000    4.000    0.000    2.667 
#    0.000    8.333    0.000    0.000    0.000    0.000 
#    0.000    0.000    0.000    0.000    0.000    0.000 
#
# Total GULP energy -594770.677674 kJ/mol
# GULP energy per Si atom -12391.055785 kJ/mol
# Density = 2.039105 g / cm^3
# Si number density = 20.437571 Si / 1000 Ang^3
#
#
#
# Elastic Constant Matrix: (Units=GPa)
#
#
# Indices 1 2 3 4 5 6 
#
# 1 92.6194 50.6662 26.6989 0.0000 0.0000 0.0000
# 2 50.6662 128.9950 37.0161 0.0000 0.0000 0.0000
# 3 26.6989 37.0161 110.3089 0.0000 0.0000 0.0000
# 4 0.0000 0.0000 0.0000 29.3235 0.0000 0.0000
# 5 0.0000 0.0000 0.0000 0.0000 16.8449 0.0000
# 6 0.0000 0.0000 0.0000 0.0000 0.0000 42.7792
#
#
#
# Elastic Compliance Matrix: (Units=1/GPa)
#
#
# Indices 1 2 3 4 5 6 
#
# 1 0.014038 -0.005022 -0.001712 0.000000 0.000000 0.000000
# 2 -0.005022 0.010375 -0.002266 0.000000 0.000000 0.000000
# 3 -0.001712 -0.002266 0.010240 0.000000 0.000000 0.000000
# 4 0.000000 0.000000 0.000000 0.034102 0.000000 0.000000
# 5 0.000000 0.000000 0.000000 0.000000 0.059365 0.000000
# 6 0.000000 0.000000 0.000000 0.000000 0.000000 0.023376
#
#
# Mechanical properties :
#
#
# Convention : Reuss Voigt Hill
#
# Bulk Modulus (GPa) = 60.05303 62.29842 61.17573
# Shear Modulus (GPa) = 28.56348 32.29232 30.42790
#
# Velocity S-wave (km/s) = 3.74250 3.97929 3.86271
# Velocity P-wave (km/s) = 6.93704 7.18759 7.06343
#
# Compressibility (1/GPa) = 0.01665195
#
# Stress axis : x y z
#
# Youngs Moduli (GPa) = 71.23570 96.38421 97.65346
#
# Poissons Ratio (x) = 0.48408 0.16722
# Poissons Ratio (y) = 0.35777 0.22128
# Poissons Ratio (z) = 0.12198 0.21840
#
# Static dielectric constant tensor:
#      x y z
#    x 3.777390 0.000000 0.000000 
#    y 0.000000 4.050470 0.000000 
#    z 0.000000 0.000000 3.660130 
# 
# 
# High freq. dielectric constant tensor:
#      x y z
#    x 1.789370 0.000000 0.000000 
#    y 0.000000 1.812610 0.000000 
#    z 0.000000 0.000000 1.795500 
# 
# From -- ./inp_files/2317.got.cif
#   From: 2010.03.12/outbox.cif.g09.slc.cpg/sg61_2_cif.got.tgz:2317.got - 2010.04.10 19:05:03.
