data_PCOD8248776
_publ_section_title
;
Structure prediction by ZEFSAII (Michael W. Deem and Ramdas Pophale) SiO2 
 PCOD8248776
Probable space group: P B C A
;
_chemical_formula_sum "Si O2"
_cell_formula_units_Z 56
_cell_length_a 20.055909
_cell_length_b 26.412669
_cell_length_c 5.013816
_cell_angle_alpha 90.000000
_cell_angle_beta 90.000000
_cell_angle_gamma 90.000000
_cell_volume 2655.969180
_symmetry_space_group_name_H-M "P B C A"
_symmetry_group_IT_number 61
_symmetry_cell_setting 'orthorhombic'
loop_
_space_group_symop_operation_xyz
x,y,z
1/2-x,-y,1/2+z
1/2+x,1/2-y,-z
-x,1/2+y,1/2-z
-x,-y,-z
1/2+x,y,1/2-z
1/2-x,1/2+y,z
x,1/2-y,1/2+z
loop_
_atom_site_type_symbol
_atom_site_label
_atom_site_fract_x
_atom_site_fract_y
_atom_site_fract_z
Si Si1 0.014197 0.221146 0.697553
Si Si2 0.855503 0.219153 0.681367
Si Si3 0.212437 0.516365 0.531833
Si Si4 0.962548 0.951403 0.748553
Si Si5 0.603523 0.982573 0.857071
Si Si6 0.511451 0.109649 0.731230
Si Si7 0.639814 0.895799 0.213723
O O1 0.041257 0.261646 0.911086
O O2 0.934794 0.219383 0.683984
O O3 0.040579 0.166141 0.778950
O O4 0.826796 0.247693 0.939082
O O5 0.831484 0.160544 0.661521
O O6 0.226440 0.487533 0.815421
O O7 0.192447 0.574555 0.596957
O O8 0.151415 0.491224 0.362530
O O9 0.945041 0.923720 0.025170
O O10 0.030471 0.984566 0.780778
O O11 0.902113 0.986845 0.640641
O O12 0.978876 0.908848 0.530234
O O13 0.631221 0.926676 0.934466
O O14 0.433172 0.107174 0.645610
#
# Coordination Sequence:
#
# PCOD8248776 Si02
#       7
#     8   8   8   8   8   8   8
#     4   9  16  27  43  66 102 139 172 210 263 323
#     4   9  19  30  48  75 102 137 175 210 255 323
#     4  12  24  37  54  77 107 147 188 220 268 329
#     4  10  21  32  53  76 107 143 188 218 263 316
#     4  10  22  36  54  77 109 148 183 224 263 315
#     4  10  19  31  49  76 105 143 181 220 262 321
#     4  10  21  35  55  74 113 146 177 214 273 317
#
# _framework density 21.084579999999999
#
# number of rings (size 3 to 8) (size 9 to 14) (size 15 to 20)
#    0.000    2.000    2.857    0.857    4.000    5.143 
#    0.000    0.000    0.000    0.000    0.000    0.000 
#    0.000   22.857    0.000    2.571    0.000    0.000 
#
# Total GULP energy -694008.381936 kJ/mol
# GULP energy per Si atom -12393.006820 kJ/mol
# Density = 2.103659 g / cm^3
# Si number density = 21.084580 Si / 1000 Ang^3
#
#
#
# Elastic Constant Matrix: (Units=GPa)
#
#
# Indices 1 2 3 4 5 6 
#
# 1 33.7752 23.5509 3.6664 0.0000 0.0000 0.0000
# 2 23.5509 133.0268 27.1691 0.0000 0.0000 0.0000
# 3 3.6664 27.1691 94.9149 0.0000 0.0000 0.0000
# 4 0.0000 0.0000 0.0000 34.4303 0.0000 0.0000
# 5 0.0000 0.0000 0.0000 0.0000 23.0220 0.0000
# 6 0.0000 0.0000 0.0000 0.0000 0.0000 15.0520
#
#
#
# Elastic Compliance Matrix: (Units=1/GPa)
#
#
# Indices 1 2 3 4 5 6 
#
# 1 0.033794 -0.006071 0.000432 0.000000 0.000000 0.000000
# 2 -0.006071 0.009075 -0.002363 0.000000 0.000000 0.000000
# 3 0.000432 -0.002363 0.011195 0.000000 0.000000 0.000000
# 4 0.000000 0.000000 0.000000 0.029044 0.000000 0.000000
# 5 0.000000 0.000000 0.000000 0.000000 0.043437 0.000000
# 6 0.000000 0.000000 0.000000 0.000000 0.000000 0.066436
#
#
# Mechanical properties :
#
#
# Convention : Reuss Voigt Hill
#
# Bulk Modulus (GPa) = 26.27391 41.16552 33.71972
# Shear Modulus (GPa) = 22.55587 28.32290 25.43938
#
# Velocity S-wave (km/s) = 3.27430 3.66908 3.47730
# Velocity P-wave (km/s) = 5.17522 6.12502 5.67005
#
# Compressibility (1/GPa) = 0.03806056
#
# Stress axis : x y z
#
# Youngs Moduli (GPa) = 29.59109 110.19589 89.32178
#
# Poissons Ratio (x) = 0.66902 -0.03863
# Poissons Ratio (y) = 0.17965 0.21108
# Poissons Ratio (z) = -0.01280 0.26040
#
# Static dielectric constant tensor:
#      x y z
#    x 3.420410 0.000000 0.000000 
#    y 0.000000 3.908370 0.000000 
#    z 0.000000 0.000000 4.026020 
# 
# 
# High freq. dielectric constant tensor:
#      x y z
#    x 1.755190 0.000000 0.000000 
#    y 0.000000 1.818300 0.000000 
#    z 0.000000 0.000000 1.851270 
# 
# From -- ./inp_files/1051.got.cif
#   From: 2010.03.12/outbox.cif.g09.slc.cpg/sg61_1_cif.got.tgz:1051.got - 2010.04.10 19:05:03.
