data_PCOD8248560
_publ_section_title
;
Structure prediction by ZEFSAII (Michael W. Deem and Ramdas Pophale) SiO2 
 PCOD8248560
Probable space group: P B C N
;
_chemical_formula_sum "Si O2"
_cell_formula_units_Z 28
_cell_length_a 11.142952
_cell_length_b 8.509736
_cell_length_c 13.226555
_cell_angle_alpha 90.000000
_cell_angle_beta 90.000000
_cell_angle_gamma 90.000000
_cell_volume 1254.189293
_symmetry_space_group_name_H-M "P B C N"
_symmetry_group_IT_number 60
_symmetry_cell_setting 'orthorhombic'
loop_
_space_group_symop_operation_xyz
x,y,z
1/2-x,1/2-y,1/2+z
1/2+x,1/2-y,-z
-x,y,1/2-z
-x,-y,-z
1/2+x,1/2+y,1/2-z
1/2-x,1/2+y,z
x,-y,1/2+z
loop_
_atom_site_type_symbol
_atom_site_label
_atom_site_fract_x
_atom_site_fract_y
_atom_site_fract_z
Si Si1 0.890959 0.586843 0.382878
Si Si2 0.796144 0.892292 0.282039
Si Si3 0.886696 0.382334 0.113683
Si Si4 0.500000 0.370629 0.750000
O O1 0.854377 0.723737 0.305184
O O2 0.812369 0.431192 0.359156
O O3 0.864184 0.645446 0.495695
O O4 0.030741 0.538209 0.368825
O O5 0.741944 0.898574 0.168498
O O6 0.895328 0.024361 0.295910
O O7 0.954492 0.231336 0.156601
#
# Coordination Sequence:
#
# PCOD8248560 Si02
#       4
#     8   8   8   4
#     4  11  25  45  75 102 141 185 236 287 359 408
#     4  12  25  46  70 105 140 187 226 292 350 420
#     4  11  25  49  70 102 143 182 235 298 340 427
#     4  12  26  44  70 100 144 182 232 280 356 406
#
# _framework density 22.325178000000001
#
# number of rings (size 3 to 8) (size 9 to 14) (size 15 to 20)
#    0.000    0.571    5.714    0.000    8.000    1.143 
#    5.143    0.000    0.000    0.000    0.000    0.000 
#    0.000    0.000    0.000    0.000    0.000    0.000 
#
# Total GULP energy -347296.629909 kJ/mol
# GULP energy per Si atom -12403.451068 kJ/mol
# Density = 2.227436 g / cm^3
# Si number density = 22.325178 Si / 1000 Ang^3
#
#
#
# Elastic Constant Matrix: (Units=GPa)
#
#
# Indices 1 2 3 4 5 6 
#
# 1 62.1458 19.4029 23.7643 0.0000 0.0000 0.0000
# 2 19.4029 90.5581 24.8395 0.0000 0.0000 0.0000
# 3 23.7643 24.8395 94.6249 0.0000 0.0000 0.0000
# 4 0.0000 0.0000 0.0000 22.1199 0.0000 0.0000
# 5 0.0000 0.0000 0.0000 0.0000 35.2672 0.0000
# 6 0.0000 0.0000 0.0000 0.0000 0.0000 50.4253
#
#
#
# Elastic Compliance Matrix: (Units=1/GPa)
#
#
# Indices 1 2 3 4 5 6 
#
# 1 0.018479 -0.002895 -0.003881 0.000000 0.000000 0.000000
# 2 -0.002895 0.012353 -0.002516 0.000000 0.000000 0.000000
# 3 -0.003881 -0.002516 0.012203 0.000000 0.000000 0.000000
# 4 0.000000 0.000000 0.000000 0.045208 0.000000 0.000000
# 5 0.000000 0.000000 0.000000 0.000000 0.028355 0.000000
# 6 0.000000 0.000000 0.000000 0.000000 0.000000 0.019831
#
#
# Mechanical properties :
#
#
# Convention : Reuss Voigt Hill
#
# Bulk Modulus (GPa) = 40.89618 42.59358 41.74488
# Shear Modulus (GPa) = 30.64415 33.51727 32.08071
#
# Velocity S-wave (km/s) = 3.70892 3.87889 3.79486
# Velocity P-wave (km/s) = 6.05802 6.25949 6.15958
#
# Compressibility (1/GPa) = 0.02445216
#
# Stress axis : x y z
#
# Youngs Moduli (GPa) = 54.11527 80.95254 81.94635
#
# Poissons Ratio (x) = 0.23434 0.31803
# Poissons Ratio (y) = 0.15665 0.20615
# Poissons Ratio (z) = 0.21002 0.20365
#
# Static dielectric constant tensor:
#      x y z
#    x 4.304990 0.000000 0.000000 
#    y 0.000000 4.076030 0.000000 
#    z 0.000000 0.000000 3.920000 
# 
# 
# High freq. dielectric constant tensor:
#      x y z
#    x 1.892550 0.000000 0.000000 
#    y 0.000000 1.883210 0.000000 
#    z 0.000000 0.000000 1.872510 
# 
# From -- ./inp_files/15512.got.cif
#   From: 2010.03.12/outbox.cif.g09.slc.cpg/sg60_8_cif.got.tgz:15512.got - 2010.04.10 18:46:24.
