data_PCOD8248912
_publ_section_title
;
Structure prediction by ZEFSAII (Michael W. Deem and Ramdas Pophale) SiO2 
 PCOD8248912
Probable space group: P B C A
;
_chemical_formula_sum "Si O2"
_cell_formula_units_Z 56
_cell_length_a 22.273802
_cell_length_b 5.211544
_cell_length_c 21.973543
_cell_angle_alpha 90.000000
_cell_angle_beta 90.000000
_cell_angle_gamma 90.000000
_cell_volume 2550.708629
_symmetry_space_group_name_H-M "P B C A"
_symmetry_group_IT_number 61
_symmetry_cell_setting 'orthorhombic'
loop_
_space_group_symop_operation_xyz
x,y,z
1/2-x,-y,1/2+z
1/2+x,1/2-y,-z
-x,1/2+y,1/2-z
-x,-y,-z
1/2+x,y,1/2-z
1/2-x,1/2+y,z
x,1/2-y,1/2+z
loop_
_atom_site_type_symbol
_atom_site_label
_atom_site_fract_x
_atom_site_fract_y
_atom_site_fract_z
Si Si1 0.540541 0.693161 0.566956
Si Si2 0.418773 0.079591 0.062115
Si Si3 0.105880 0.229466 0.738734
Si Si4 0.230351 0.396404 0.703647
Si Si5 0.946145 0.280768 0.314122
Si Si6 0.280306 0.485993 0.569204
Si Si7 0.928100 0.788914 0.136408
O O1 0.558462 0.736252 0.496818
O O2 0.468370 0.647574 0.574802
O O3 0.577565 0.438998 0.587595
O O4 0.563632 0.938025 0.603987
O O5 0.418796 0.282957 0.117368
O O6 0.351158 0.972308 0.056280
O O7 0.162787 0.300710 0.697078
O O8 0.058884 0.448583 0.719817
O O9 0.123651 0.223625 0.811423
O O10 0.084296 0.945888 0.723436
O O11 0.232068 0.671653 0.738759
O O12 0.262960 0.484246 0.640635
O O13 0.016441 0.228218 0.318903
O O14 0.244984 0.725701 0.538585
#
# Coordination Sequence:
#
# PCOD8248912 Si02
#       7
#     8   8   8   8   8   8   8
#     4  10  24  40  62  89 122 172 211 252 313 374
#     4  10  22  40  64  92 128 160 210 269 317 375
#     4  12  22  37  59  86 124 158 192 249 307 365
#     4  10  20  34  53  82 112 146 191 239 303 362
#     4  11  21  34  59  90 118 153 194 248 311 357
#     4  10  20  34  56  88 121 152 193 254 322 370
#     4  11  23  39  57  86 123 162 205 238 293 381
#
# _framework density 21.954681000000001
#
# number of rings (size 3 to 8) (size 9 to 14) (size 15 to 20)
#    0.000    1.429    0.000    7.714    0.000    9.714 
#    0.000    0.000    0.000    5.143    0.000    0.000 
#    0.000    0.000    0.000    0.000    0.000    0.000 
#
# Total GULP energy -693739.382074 kJ/mol
# GULP energy per Si atom -12388.203251 kJ/mol
# Density = 2.190471 g / cm^3
# Si number density = 21.954681 Si / 1000 Ang^3
#
#
#
# Elastic Constant Matrix: (Units=GPa)
#
#
# Indices 1 2 3 4 5 6 
#
# 1 66.7234 17.4370 5.5070 0.0000 0.0000 0.0000
# 2 17.4370 150.3051 43.9593 0.0000 0.0000 0.0000
# 3 5.5070 43.9593 87.9102 0.0000 0.0000 0.0000
# 4 0.0000 0.0000 0.0000 24.6627 0.0000 0.0000
# 5 0.0000 0.0000 0.0000 0.0000 19.1899 0.0000
# 6 0.0000 0.0000 0.0000 0.0000 0.0000 18.7299
#
#
#
# Elastic Compliance Matrix: (Units=1/GPa)
#
#
# Indices 1 2 3 4 5 6 
#
# 1 0.015456 -0.001769 -0.000084 0.000000 0.000000 0.000000
# 2 -0.001769 0.007995 -0.003887 0.000000 0.000000 0.000000
# 3 -0.000084 -0.003887 0.013324 0.000000 0.000000 0.000000
# 4 0.000000 0.000000 0.000000 0.040547 0.000000 0.000000
# 5 0.000000 0.000000 0.000000 0.000000 0.052111 0.000000
# 6 0.000000 0.000000 0.000000 0.000000 0.000000 0.053390
#
#
# Mechanical properties :
#
#
# Convention : Reuss Voigt Hill
#
# Bulk Modulus (GPa) = 39.53109 48.74950 44.14029
# Shear Modulus (GPa) = 24.66268 28.38554 26.52411
#
# Velocity S-wave (km/s) = 3.35527 3.59961 3.47959
# Velocity P-wave (km/s) = 5.74937 6.28722 6.02430
#
# Compressibility (1/GPa) = 0.02529654
#
# Stress axis : x y z
#
# Youngs Moduli (GPa) = 64.69832 125.07532 75.05101
#
# Poissons Ratio (x) = 0.22121 0.00629
# Poissons Ratio (y) = 0.11442 0.29174
# Poissons Ratio (z) = 0.00543 0.48619
#
# Static dielectric constant tensor:
#      x y z
#    x 3.976010 0.000000 0.000000 
#    y 0.000000 4.531810 0.000000 
#    z 0.000000 0.000000 3.982970 
# 
# 
# High freq. dielectric constant tensor:
#      x y z
#    x 1.841300 0.000000 0.000000 
#    y 0.000000 1.884790 0.000000 
#    z 0.000000 0.000000 1.835180 
# 
# From -- ./inp_files/11171.got.cif
#   From: 2010.03.12/outbox.cif.g09.slc.cpg/sg61_6_cif.got.tgz:11171.got - 2010.04.10 19:05:03.
