data_PCOD8248688
_publ_section_title
;
Structure prediction by ZEFSAII (Michael W. Deem and Ramdas Pophale) SiO2 
 PCOD8248688
Probable space group: P B C N
;
_chemical_formula_sum "Si O2"
_cell_formula_units_Z 28
_cell_length_a 10.588084
_cell_length_b 9.438556
_cell_length_c 11.945210
_cell_angle_alpha 90.000000
_cell_angle_beta 90.000000
_cell_angle_gamma 90.000000
_cell_volume 1193.759180
_symmetry_space_group_name_H-M "P B C N"
_symmetry_group_IT_number 60
_symmetry_cell_setting 'orthorhombic'
loop_
_space_group_symop_operation_xyz
x,y,z
1/2-x,1/2-y,1/2+z
1/2+x,1/2-y,-z
-x,y,1/2-z
-x,-y,-z
1/2+x,1/2+y,1/2-z
1/2-x,1/2+y,z
x,-y,1/2+z
loop_
_atom_site_type_symbol
_atom_site_label
_atom_site_fract_x
_atom_site_fract_y
_atom_site_fract_z
Si Si1 0.746382 0.489904 0.272894
Si Si2 0.570211 0.129798 0.944519
Si Si3 0.116428 0.258122 0.824863
Si Si4 0.500000 0.680871 0.250000
O O1 0.798864 0.431699 0.391863
O O2 0.729309 0.351442 0.196538
O O3 0.854292 0.583154 0.215484
O O4 0.619678 0.583132 0.279805
O O5 0.482831 0.213693 0.855573
O O6 0.596016 0.243734 0.042379
O O7 0.500000 0.000000 0.000000
O O8 0.000000 0.202164 0.750000
#
# Coordination Sequence:
#
# PCOD8248688 Si02
#       4
#     8   8   8   4
#     4  12  27  48  77 118 155 206 261 322 395 464
#     4  12  27  50  79 112 158 209 260 326 390 467
#     4  12  27  48  78 115 157 208 265 320 394 470
#     4  12  28  48  74 116 156 202 264 320 394 464
#
# _framework density 23.455317000000001
#
# number of rings (size 3 to 8) (size 9 to 14) (size 15 to 20)
#    0.000    0.000    7.143    1.714    4.000    3.429 
#    0.000    0.000    0.000    0.000    0.000    0.000 
#    0.000    0.000    0.000    0.000    0.000    0.000 
#
# Total GULP energy -347137.711055 kJ/mol
# GULP energy per Si atom -12397.775395 kJ/mol
# Density = 2.340193 g / cm^3
# Si number density = 23.455317 Si / 1000 Ang^3
#
#
#
# Elastic Constant Matrix: (Units=GPa)
#
#
# Indices 1 2 3 4 5 6 
#
# 1 103.1622 37.3237 54.1013 0.0000 0.0000 0.0000
# 2 37.3237 139.3681 69.6847 0.0000 0.0000 0.0000
# 3 54.1013 69.6847 187.3899 0.0000 0.0000 0.0000
# 4 0.0000 0.0000 0.0000 28.0304 0.0000 0.0000
# 5 0.0000 0.0000 0.0000 0.0000 49.9715 0.0000
# 6 0.0000 0.0000 0.0000 0.0000 0.0000 56.9441
#
#
#
# Elastic Compliance Matrix: (Units=1/GPa)
#
#
# Indices 1 2 3 4 5 6 
#
# 1 0.011774 -0.001785 -0.002735 0.000000 0.000000 0.000000
# 2 -0.001785 0.009085 -0.002863 0.000000 0.000000 0.000000
# 3 -0.002735 -0.002863 0.007191 0.000000 0.000000 0.000000
# 4 0.000000 0.000000 0.000000 0.035676 0.000000 0.000000
# 5 0.000000 0.000000 0.000000 0.000000 0.020011 0.000000
# 6 0.000000 0.000000 0.000000 0.000000 0.000000 0.017561
#
#
# Mechanical properties :
#
#
# Convention : Reuss Voigt Hill
#
# Bulk Modulus (GPa) = 75.28843 83.57107 79.42975
# Shear Modulus (GPa) = 41.49639 44.90989 43.20314
#
# Velocity S-wave (km/s) = 4.21071 4.38048 4.29643
# Velocity P-wave (km/s) = 7.47051 7.82892 7.65181
#
# Compressibility (1/GPa) = 0.01328225
#
# Stress axis : x y z
#
# Youngs Moduli (GPa) = 84.93351 110.07304 139.06663
#
# Poissons Ratio (x) = 0.19653 0.38039
# Poissons Ratio (y) = 0.15165 0.39813
# Poissons Ratio (z) = 0.23232 0.31513
#
# Static dielectric constant tensor:
#      x y z
#    x 4.423480 0.000000 0.000000 
#    y 0.000000 4.556160 0.000000 
#    z 0.000000 0.000000 5.334770 
# 
# 
# High freq. dielectric constant tensor:
#      x y z
#    x 1.929560 0.000000 0.000000 
#    y 0.000000 1.954720 0.000000 
#    z 0.000000 0.000000 1.924190 
# 
# From -- ./inp_files/10524.got.cif
#   From: 2010.03.12/outbox.cif.g09.slc.cpg/sg60_6_cif.got.tgz:10524.got - 2010.04.10 18:46:24.
