data_PCOD8248600
_publ_section_title
;
Structure prediction by ZEFSAII (Michael W. Deem and Ramdas Pophale) SiO2 
 PCOD8248600
Probable space group: P B C N
;
_chemical_formula_sum "Si O2"
_cell_formula_units_Z 32
_cell_length_a 12.748496
_cell_length_b 12.661099
_cell_length_c 9.052259
_cell_angle_alpha 90.000000
_cell_angle_beta 90.000000
_cell_angle_gamma 90.000000
_cell_volume 1461.124853
_symmetry_space_group_name_H-M "P B C N"
_symmetry_group_IT_number 60
_symmetry_cell_setting 'orthorhombic'
loop_
_space_group_symop_operation_xyz
x,y,z
1/2-x,1/2-y,1/2+z
1/2+x,1/2-y,-z
-x,y,1/2-z
-x,-y,-z
1/2+x,1/2+y,1/2-z
1/2-x,1/2+y,z
x,-y,1/2+z
loop_
_atom_site_type_symbol
_atom_site_label
_atom_site_fract_x
_atom_site_fract_y
_atom_site_fract_z
Si Si1 0.095616 0.218777 0.348426
Si Si2 0.392436 0.945983 0.451037
Si Si3 0.566600 0.572619 0.890695
Si Si4 0.255263 0.068169 0.224129
O O1 0.088887 0.345348 0.346015
O O2 0.093109 0.177237 0.516420
O O3 0.201280 0.177983 0.270510
O O4 0.000000 0.172824 0.250000
O O5 0.335696 0.903837 0.596359
O O6 0.500000 0.000000 0.500000
O O7 0.318263 0.027255 0.366061
O O8 0.500000 0.608664 0.750000
O O9 0.671493 0.517275 0.832312
O O10 0.500000 0.500000 0.000000
#
# Coordination Sequence:
#
# PCOD8248600 Si02
#       4
#     8   8   8   8
#     4  12  26  45  75 108 142 189 242 305 373 429
#     4  12  29  49  70 102 156 196 240 298 366 438
#     4  12  21  43  71 108 141 175 238 311 357 425
#     4  12  24  47  72 104 141 191 247 299 359 438
#
# _framework density 21.900935
#
# number of rings (size 3 to 8) (size 9 to 14) (size 15 to 20)
#    0.000    0.000    7.500    2.250    3.500    4.000 
#    0.000    0.000    0.000    0.000    0.000    0.000 
#    0.000    0.000    0.000    0.000    0.000    0.000 
#
# Total GULP energy -396935.210746 kJ/mol
# GULP energy per Si atom -12404.225336 kJ/mol
# Density = 2.185109 g / cm^3
# Si number density = 21.900935 Si / 1000 Ang^3
#
#
#
# Elastic Constant Matrix: (Units=GPa)
#
#
# Indices 1 2 3 4 5 6 
#
# 1 158.7444 54.5977 67.5503 0.0000 0.0000 0.0000
# 2 54.5977 101.7481 29.4894 0.0000 0.0000 0.0000
# 3 67.5503 29.4894 134.8604 0.0000 0.0000 0.0000
# 4 0.0000 0.0000 0.0000 38.7174 0.0000 0.0000
# 5 0.0000 0.0000 0.0000 0.0000 62.3625 0.0000
# 6 0.0000 0.0000 0.0000 0.0000 0.0000 32.4696
#
#
#
# Elastic Compliance Matrix: (Units=1/GPa)
#
#
# Indices 1 2 3 4 5 6 
#
# 1 0.009237 -0.003860 -0.003782 0.000000 0.000000 0.000000
# 2 -0.003860 0.012106 -0.000714 0.000000 0.000000 0.000000
# 3 -0.003782 -0.000714 0.009466 0.000000 0.000000 0.000000
# 4 0.000000 0.000000 0.000000 0.025828 0.000000 0.000000
# 5 0.000000 0.000000 0.000000 0.000000 0.016035 0.000000
# 6 0.000000 0.000000 0.000000 0.000000 0.000000 0.030798
#
#
# Mechanical properties :
#
#
# Convention : Reuss Voigt Hill
#
# Bulk Modulus (GPa) = 70.94160 77.62529 74.28345
# Shear Modulus (GPa) = 40.03796 42.95760 41.49778
#
# Velocity S-wave (km/s) = 4.28031 4.43363 4.35765
# Velocity P-wave (km/s) = 7.54258 7.85686 7.70132
#
# Compressibility (1/GPa) = 0.01409610
#
# Stress axis : x y z
#
# Youngs Moduli (GPa) = 108.26514 82.60117 105.64408
#
# Poissons Ratio (x) = 0.31885 0.39959
# Poissons Ratio (y) = 0.41791 0.07541
# Poissons Ratio (z) = 0.40951 0.05896
#
# Static dielectric constant tensor:
#      x y z
#    x 4.114020 0.000000 0.000000 
#    y 0.000000 3.698500 0.000000 
#    z 0.000000 0.000000 4.387830 
# 
# 
# High freq. dielectric constant tensor:
#      x y z
#    x 1.874580 0.000000 0.000000 
#    y 0.000000 1.846900 0.000000 
#    z 0.000000 0.000000 1.883420 
# 
# From -- ./inp_files/4516.got.cif
#   From: 2010.03.12/outbox.cif.g09.slc.cpg/sg60_3_cif.got.tgz:4516.got - 2010.04.10 18:46:24.
