data_PCOD8248190
_publ_section_title
;
Structure prediction by ZEFSAII (Michael W. Deem and Ramdas Pophale) SiO2 
 PCOD8248190
Probable space group: P B C N
;
_chemical_formula_sum "Si O2"
_cell_formula_units_Z 28
_cell_length_a 20.944934
_cell_length_b 7.190421
_cell_length_c 8.527357
_cell_angle_alpha 90.000000
_cell_angle_beta 90.000000
_cell_angle_gamma 90.000000
_cell_volume 1284.244636
_symmetry_space_group_name_H-M "P B C N"
_symmetry_group_IT_number 60
_symmetry_cell_setting 'orthorhombic'
loop_
_space_group_symop_operation_xyz
x,y,z
1/2-x,1/2-y,1/2+z
1/2+x,1/2-y,-z
-x,y,1/2-z
-x,-y,-z
1/2+x,1/2+y,1/2-z
1/2-x,1/2+y,z
x,-y,1/2+z
loop_
_atom_site_type_symbol
_atom_site_label
_atom_site_fract_x
_atom_site_fract_y
_atom_site_fract_z
Si Si1 0.091240 0.598190 0.000154
Si Si2 0.691693 0.375924 0.624822
Si Si3 0.320639 0.245468 0.518959
Si Si4 0.000000 0.528062 0.250000
O O1 0.148122 0.739736 0.976445
O O2 0.040716 0.608174 0.860127
O O3 0.118232 0.388666 0.022178
O O4 0.050736 0.654327 0.154733
O O5 0.761947 0.373346 0.549406
O O6 0.694029 0.321304 0.806807
O O7 0.665601 0.584753 0.600409
#
# Coordination Sequence:
#
# PCOD8248190 Si02
#       4
#     8   8   8   4
#     4  11  24  48  70  98 140 177 236 270 342 399
#     4  12  26  42  70 105 139 176 224 286 348 404
#     4  12  26  42  70 105 139 176 224 286 348 404
#     4  10  24  46  74  90 134 198 220 280 322 408
#
# _framework density 21.802699
#
# number of rings (size 3 to 8) (size 9 to 14) (size 15 to 20)
#    0.000    0.571    5.714    1.714    8.000    0.000 
#    0.000    8.571    0.000    0.000    0.000    0.000 
#    0.000    0.000    0.000    0.000    0.000    0.000 
#
# Total GULP energy -347228.754514 kJ/mol
# GULP energy per Si atom -12401.026947 kJ/mol
# Density = 2.175308 g / cm^3
# Si number density = 21.802699 Si / 1000 Ang^3
#
#
#
# Elastic Constant Matrix: (Units=GPa)
#
#
# Indices 1 2 3 4 5 6 
#
# 1 101.2773 30.7974 43.6763 0.0000 0.0000 0.0000
# 2 30.7974 96.4028 17.6142 0.0000 0.0000 0.0000
# 3 43.6763 17.6142 110.1898 0.0000 0.0000 0.0000
# 4 0.0000 0.0000 0.0000 26.6970 0.0000 0.0000
# 5 0.0000 0.0000 0.0000 0.0000 40.8674 0.0000
# 6 0.0000 0.0000 0.0000 0.0000 0.0000 7.7599
#
#
#
# Elastic Compliance Matrix: (Units=1/GPa)
#
#
# Indices 1 2 3 4 5 6 
#
# 1 0.012836 -0.003266 -0.004566 0.000000 0.000000 0.000000
# 2 -0.003266 0.011516 -0.000546 0.000000 0.000000 0.000000
# 3 -0.004566 -0.000546 0.010972 0.000000 0.000000 0.000000
# 4 0.000000 0.000000 0.000000 0.037457 0.000000 0.000000
# 5 0.000000 0.000000 0.000000 0.000000 0.024469 0.000000
# 6 0.000000 0.000000 0.000000 0.000000 0.000000 0.128867
#
#
# Mechanical properties :
#
#
# Convention : Reuss Voigt Hill
#
# Bulk Modulus (GPa) = 53.85592 54.67176 54.26384
# Shear Modulus (GPa) = 20.07506 29.45033 24.76270
#
# Velocity S-wave (km/s) = 3.03770 3.67926 3.37376
# Velocity P-wave (km/s) = 6.08758 6.57111 6.33396
#
# Compressibility (1/GPa) = 0.01856806
#
# Stress axis : x y z
#
# Youngs Moduli (GPa) = 77.90470 86.83217 91.13847
#
# Poissons Ratio (x) = 0.28364 0.41612
# Poissons Ratio (y) = 0.25447 0.04978
# Poissons Ratio (z) = 0.35570 0.04743
#
# Static dielectric constant tensor:
#      x y z
#    x 4.041090 0.000000 0.000000 
#    y 0.000000 3.716700 0.000000 
#    z 0.000000 0.000000 4.244790 
# 
# 
# High freq. dielectric constant tensor:
#      x y z
#    x 1.868670 0.000000 0.000000 
#    y 0.000000 1.830820 0.000000 
#    z 0.000000 0.000000 1.879780 
# 
# From -- ./inp_files/6439.got.cif
#   From: 2010.03.12/outbox.cif.g09.slc.cpg/sg60_4_cif.got.tgz:6439.got - 2010.04.10 18:46:24.
