data_PCOD8248846
_publ_section_title
;
Structure prediction by ZEFSAII (Michael W. Deem and Ramdas Pophale) SiO2 
 PCOD8248846
Probable space group: P B C A
;
_chemical_formula_sum "Si O2"
_cell_formula_units_Z 32
_cell_length_a 16.603734
_cell_length_b 5.196727
_cell_length_c 17.374845
_cell_angle_alpha 90.000000
_cell_angle_beta 90.000000
_cell_angle_gamma 90.000000
_cell_volume 1499.189765
_symmetry_space_group_name_H-M "P B C A"
_symmetry_group_IT_number 61
_symmetry_cell_setting 'orthorhombic'
loop_
_space_group_symop_operation_xyz
x,y,z
1/2-x,-y,1/2+z
1/2+x,1/2-y,-z
-x,1/2+y,1/2-z
-x,-y,-z
1/2+x,y,1/2-z
1/2-x,1/2+y,z
x,1/2-y,1/2+z
loop_
_atom_site_type_symbol
_atom_site_label
_atom_site_fract_x
_atom_site_fract_y
_atom_site_fract_z
Si Si1 0.712913 0.042273 0.297594
Si Si2 0.029982 0.873133 0.211798
Si Si3 0.280363 0.147685 0.032437
Si Si4 0.532829 0.749738 0.958517
O O1 0.734909 0.313520 0.257622
O O2 0.620072 0.979358 0.288359
O O3 0.738593 0.061813 0.386881
O O4 0.976319 0.123527 0.232909
O O5 0.002361 0.766576 0.129009
O O6 0.229856 0.373554 0.988062
O O7 0.371241 0.237507 0.041204
O O8 0.500000 0.500000 0.000000
O O9 0.500000 0.000000 0.000000
#
# Coordination Sequence:
#
# PCOD8248846 Si02
#       4
#     8   8   8   8
#     4  10  19  36  67  93 117 171 244 259 297 405
#     4  12  25  41  67 103 139 172 224 288 345 400
#     4  10  19  36  67  93 117 171 244 260 297 406
#     4  12  25  41  67 103 139 173 224 290 346 397
#
# _framework density 21.344861999999999
#
# number of rings (size 3 to 8) (size 9 to 14) (size 15 to 20)
#    0.000    1.000    5.000    4.500    7.000    0.000 
#    0.000    0.000    0.000   30.000    0.000    0.000 
#    0.000    0.000    0.000    0.000    0.000    0.000 
#
# Total GULP energy -396445.572543 kJ/mol
# GULP energy per Si atom -12388.924142 kJ/mol
# Density = 2.129628 g / cm^3
# Si number density = 21.344862 Si / 1000 Ang^3
#
#
#
# Elastic Constant Matrix: (Units=GPa)
#
#
# Indices 1 2 3 4 5 6 
#
# 1 123.5838 67.4575 49.4170 0.0000 0.0000 0.0000
# 2 67.4575 245.7228 48.7191 0.0000 0.0000 0.0000
# 3 49.4170 48.7191 63.4650 0.0000 0.0000 0.0000
# 4 0.0000 0.0000 0.0000 31.9436 0.0000 0.0000
# 5 0.0000 0.0000 0.0000 0.0000 20.7816 0.0000
# 6 0.0000 0.0000 0.0000 0.0000 0.0000 48.2771
#
#
#
# Elastic Compliance Matrix: (Units=1/GPa)
#
#
# Indices 1 2 3 4 5 6 
#
# 1 0.012358 -0.001751 -0.008278 0.000000 0.000000 0.000000
# 2 -0.001751 0.005048 -0.002512 0.000000 0.000000 0.000000
# 3 -0.008278 -0.002512 0.024131 0.000000 0.000000 0.000000
# 4 0.000000 0.000000 0.000000 0.031305 0.000000 0.000000
# 5 0.000000 0.000000 0.000000 0.000000 0.048120 0.000000
# 6 0.000000 0.000000 0.000000 0.000000 0.000000 0.020714
#
#
# Mechanical properties :
#
#
# Convention : Reuss Voigt Hill
#
# Bulk Modulus (GPa) = 60.77328 84.88433 72.82880
# Shear Modulus (GPa) = 29.02893 38.01232 33.52062
#
# Velocity S-wave (km/s) = 3.69181 4.22461 3.96716
# Velocity P-wave (km/s) = 6.83422 7.97814 7.42823
#
# Compressibility (1/GPa) = 0.01645460
#
# Stress axis : x y z
#
# Youngs Moduli (GPa) = 80.92144 198.08229 41.44123
#
# Poissons Ratio (x) = 0.34689 0.34305
# Poissons Ratio (y) = 0.14171 0.10409
# Poissons Ratio (z) = 0.66986 0.49755
#
# Static dielectric constant tensor:
#      x y z
#    x 3.744520 0.000000 0.000000 
#    y 0.000000 5.904280 0.000000 
#    z 0.000000 0.000000 3.608510 
# 
# 
# High freq. dielectric constant tensor:
#      x y z
#    x 1.842990 0.000000 0.000000 
#    y 0.000000 1.890940 0.000000 
#    z 0.000000 0.000000 1.777210 
# 
# From -- ./inp_files/331.got.cif
#   From: 2010.03.12/outbox.cif.g09.slc.cpg/sg61_1_cif.got.tgz:331.got - 2010.04.10 19:05:03.
