data_PCOD8248854
_publ_section_title
;
Structure prediction by ZEFSAII (Michael W. Deem and Ramdas Pophale) SiO2 
 PCOD8248854
Probable space group: P B C A
;
_chemical_formula_sum "Si O2"
_cell_formula_units_Z 64
_cell_length_a 18.849906
_cell_length_b 9.804281
_cell_length_c 18.064381
_cell_angle_alpha 90.000000
_cell_angle_beta 90.000000
_cell_angle_gamma 90.000000
_cell_volume 3338.474193
_symmetry_space_group_name_H-M "P B C A"
_symmetry_group_IT_number 61
_symmetry_cell_setting 'orthorhombic'
loop_
_space_group_symop_operation_xyz
x,y,z
1/2-x,-y,1/2+z
1/2+x,1/2-y,-z
-x,1/2+y,1/2-z
-x,-y,-z
1/2+x,y,1/2-z
1/2-x,1/2+y,z
x,1/2-y,1/2+z
loop_
_atom_site_type_symbol
_atom_site_label
_atom_site_fract_x
_atom_site_fract_y
_atom_site_fract_z
Si Si1 0.670961 0.789897 0.957295
Si Si2 0.791048 0.514328 0.461167
Si Si3 0.442338 0.904263 0.536842
Si Si4 0.172362 0.729912 0.215513
Si Si5 0.965451 0.163823 0.706780
Si Si6 0.562682 0.409854 0.792041
Si Si7 0.215557 0.476389 0.710521
Si Si8 0.973386 0.360037 0.035576
O O1 0.711045 0.647576 0.975095
O O2 0.720742 0.909674 0.992005
O O3 0.653022 0.797545 0.870044
O O4 0.595649 0.799463 0.996591
O O5 0.863777 0.573011 0.497255
O O6 0.787381 0.557296 0.375846
O O7 0.438956 0.949584 0.622094
O O8 0.462535 0.746807 0.525980
O O9 0.500000 0.000000 0.500000
O O10 0.102349 0.751738 0.263825
O O11 0.217565 0.601934 0.247063
O O12 0.222850 0.862474 0.223907
O O13 0.954959 0.122954 0.621672
O O14 0.033019 0.259565 0.720703
O O15 0.982982 0.026346 0.751173
O O16 0.641495 0.419040 0.756883
O O17 0.000000 0.500000 0.000000
#
# Coordination Sequence:
#
# PCOD8248854 Si02
#       8
#     8   8   8   8   8   8   8   8
#     4  10  20  36  58  85 116 154 195 245 295 350
#     4   9  18  33  57  83 112 147 195 239 287 357
#     4  10  19  37  61  84 114 156 198 245 300 355
#     4   9  18  34  59  78 109 148 191 234 283 341
#     4  10  22  38  57  84 115 151 190 243 291 355
#     4   9  20  35  56  83 115 144 195 239 283 352
#     4   8  16  32  52  82 103 141 186 233 275 335
#     4  11  25  38  57  87 123 155 201 249 300 364
#
# _framework density 19.170435999999999
#
# number of rings (size 3 to 8) (size 9 to 14) (size 15 to 20)
#    0.000    2.500    1.250    0.750    3.500    1.000 
#    4.500    2.500    2.750    0.000    0.000    0.000 
#    0.000    0.000    0.000    0.000    0.000    0.000 
#
# Total GULP energy -793287.724344 kJ/mol
# GULP energy per Si atom -12395.120693 kJ/mol
# Density = 1.912680 g / cm^3
# Si number density = 19.170436 Si / 1000 Ang^3
#
#
#
# Elastic Constant Matrix: (Units=GPa)
#
#
# Indices 1 2 3 4 5 6 
#
# 1 57.2801 18.7571 21.0061 0.0000 0.0000 0.0000
# 2 18.7571 87.6679 34.3058 0.0000 0.0000 0.0000
# 3 21.0061 34.3058 56.0290 0.0000 0.0000 0.0000
# 4 0.0000 0.0000 0.0000 26.9269 0.0000 0.0000
# 5 0.0000 0.0000 0.0000 0.0000 23.0862 0.0000
# 6 0.0000 0.0000 0.0000 0.0000 0.0000 41.5477
#
#
#
# Elastic Compliance Matrix: (Units=1/GPa)
#
#
# Indices 1 2 3 4 5 6 
#
# 1 0.020457 -0.001809 -0.006562 0.000000 0.000000 0.000000
# 2 -0.001809 0.015161 -0.008605 0.000000 0.000000 0.000000
# 3 -0.006562 -0.008605 0.025576 0.000000 0.000000 0.000000
# 4 0.000000 0.000000 0.000000 0.037138 0.000000 0.000000
# 5 0.000000 0.000000 0.000000 0.000000 0.043316 0.000000
# 6 0.000000 0.000000 0.000000 0.000000 0.000000 0.024069
#
#
# Mechanical properties :
#
#
# Convention : Reuss Voigt Hill
#
# Bulk Modulus (GPa) = 36.70647 38.79057 37.74852
# Shear Modulus (GPa) = 23.95225 26.77269 25.36247
#
# Velocity S-wave (km/s) = 3.53857 3.74111 3.64125
# Velocity P-wave (km/s) = 5.99035 6.24017 6.11654
#
# Compressibility (1/GPa) = 0.02724315
#
# Stress axis : x y z
#
# Youngs Moduli (GPa) = 48.88327 65.95941 39.09841
#
# Poissons Ratio (x) = 0.11933 0.25656
# Poissons Ratio (y) = 0.08843 0.33642
# Poissons Ratio (z) = 0.32077 0.56755
#
# Static dielectric constant tensor:
#      x y z
#    x 3.724760 0.000000 0.000000 
#    y 0.000000 3.617200 0.000000 
#    z 0.000000 0.000000 3.259340 
# 
# 
# High freq. dielectric constant tensor:
#      x y z
#    x 1.748530 0.000000 0.000000 
#    y 0.000000 1.756110 0.000000 
#    z 0.000000 0.000000 1.710260 
# 
# From -- ./inp_files/9773.got.cif
#   From: 2010.03.12/outbox.cif.g09.slc.cpg/sg61_5_cif.got.tgz:9773.got - 2010.04.10 19:05:03.
