data_PCOD8248545
_publ_section_title
;
Structure prediction by ZEFSAII (Michael W. Deem and Ramdas Pophale) SiO2 
 PCOD8248545
Probable space group: P B C N
;
_chemical_formula_sum "Si O2"
_cell_formula_units_Z 16
_cell_length_a 7.396307
_cell_length_b 6.794283
_cell_length_c 13.145726
_cell_angle_alpha 90.000000
_cell_angle_beta 90.000000
_cell_angle_gamma 90.000000
_cell_volume 660.606949
_symmetry_space_group_name_H-M "P B C N"
_symmetry_group_IT_number 60
_symmetry_cell_setting 'orthorhombic'
loop_
_space_group_symop_operation_xyz
x,y,z
1/2-x,1/2-y,1/2+z
1/2+x,1/2-y,-z
-x,y,1/2-z
-x,-y,-z
1/2+x,1/2+y,1/2-z
1/2-x,1/2+y,z
x,-y,1/2+z
loop_
_atom_site_type_symbol
_atom_site_label
_atom_site_fract_x
_atom_site_fract_y
_atom_site_fract_z
Si Si1 0.110697 0.310551 0.532704
Si Si2 0.485254 0.560259 0.132529
O O1 0.295673 0.365289 0.586781
O O2 0.000000 0.500000 0.500000
O O3 0.141173 0.176284 0.430492
O O4 0.997676 0.173853 0.612802
O O5 0.500000 0.615009 0.250000
#
# Coordination Sequence:
#
# PCOD8248545 Si02
#       2
#     8   8
#     4  11  24  50  73 108 153 193 252 309 364 454
#     4  11  26  47  78 112 150 200 249 311 380 443
#
# _framework density 24.220151999999999
#
# number of rings (size 3 to 8) (size 9 to 14) (size 15 to 20)
#    0.000    1.000    5.000    0.000    0.000   10.000 
#    0.000    0.000    0.000    0.000    0.000    0.000 
#    0.000    0.000    0.000    0.000    0.000    0.000 
#
# Total GULP energy -198240.111117 kJ/mol
# GULP energy per Si atom -12390.006945 kJ/mol
# Density = 2.416503 g / cm^3
# Si number density = 24.220152 Si / 1000 Ang^3
#
#
#
# Elastic Constant Matrix: (Units=GPa)
#
#
# Indices 1 2 3 4 5 6 
#
# 1 111.5790 56.3671 71.2053 0.0000 0.0000 0.0000
# 2 56.3671 169.5380 54.8986 0.0000 0.0000 0.0000
# 3 71.2053 54.8986 237.9506 0.0000 0.0000 0.0000
# 4 0.0000 0.0000 0.0000 28.8253 0.0000 0.0000
# 5 0.0000 0.0000 0.0000 0.0000 40.0669 0.0000
# 6 0.0000 0.0000 0.0000 0.0000 0.0000 31.7745
#
#
#
# Elastic Compliance Matrix: (Units=1/GPa)
#
#
# Indices 1 2 3 4 5 6 
#
# 1 0.012484 -0.003178 -0.003002 0.000000 0.000000 0.000000
# 2 -0.003178 0.007184 -0.000706 0.000000 0.000000 0.000000
# 3 -0.003002 -0.000706 0.005264 0.000000 0.000000 0.000000
# 4 0.000000 0.000000 0.000000 0.034692 0.000000 0.000000
# 5 0.000000 0.000000 0.000000 0.000000 0.024958 0.000000
# 6 0.000000 0.000000 0.000000 0.000000 0.000000 0.031472
#
#
# Mechanical properties :
#
#
# Convention : Reuss Voigt Hill
#
# Bulk Modulus (GPa) = 89.62585 98.22329 93.92457
# Shear Modulus (GPa) = 37.44002 42.57312 40.00657
#
# Velocity S-wave (km/s) = 3.93596 4.19711 4.06863
# Velocity P-wave (km/s) = 7.59873 8.00812 7.80611
#
# Compressibility (1/GPa) = 0.01115750
#
# Stress axis : x y z
#
# Youngs Moduli (GPa) = 80.10292 139.20176 189.97066
#
# Poissons Ratio (x) = 0.44243 0.57038
# Poissons Ratio (y) = 0.25460 0.13418
# Poissons Ratio (z) = 0.24050 0.09832
#
# Static dielectric constant tensor:
#      x y z
#    x 4.845860 0.000000 0.000000 
#    y 0.000000 5.284060 0.000000 
#    z 0.000000 0.000000 4.445960 
# 
# 
# High freq. dielectric constant tensor:
#      x y z
#    x 1.957850 0.000000 0.000000 
#    y 0.000000 1.993780 0.000000 
#    z 0.000000 0.000000 1.947620 
# 
# From -- ./inp_files/3189.got.cif
#   From: 2010.03.12/outbox.cif.g09.slc.cpg/sg60_2_cif.got.tgz:3189.got - 2010.04.10 18:46:24.
