data_PCOD8248852
_publ_section_title
;
Structure prediction by ZEFSAII (Michael W. Deem and Ramdas Pophale) SiO2 
 PCOD8248852
Probable space group: P B C A
;
_chemical_formula_sum "Si O2"
_cell_formula_units_Z 48
_cell_length_a 11.877728
_cell_length_b 21.258690
_cell_length_c 7.664888
_cell_angle_alpha 90.000000
_cell_angle_beta 90.000000
_cell_angle_gamma 90.000000
_cell_volume 1935.422065
_symmetry_space_group_name_H-M "P B C A"
_symmetry_group_IT_number 61
_symmetry_cell_setting 'orthorhombic'
loop_
_space_group_symop_operation_xyz
x,y,z
1/2-x,-y,1/2+z
1/2+x,1/2-y,-z
-x,1/2+y,1/2-z
-x,-y,-z
1/2+x,y,1/2-z
1/2-x,1/2+y,z
x,1/2-y,1/2+z
loop_
_atom_site_type_symbol
_atom_site_label
_atom_site_fract_x
_atom_site_fract_y
_atom_site_fract_z
Si Si1 0.918933 0.375841 0.672719
Si Si2 0.362484 0.561754 0.857750
Si Si3 0.917371 0.509316 0.301070
Si Si4 0.296591 0.567234 0.486719
Si Si5 0.464759 0.812163 0.378811
Si Si6 0.474673 0.677803 0.489689
O O1 0.805802 0.412955 0.636528
O O2 0.936494 0.325506 0.518295
O O3 0.921517 0.342305 0.862692
O O4 0.021118 0.424838 0.667516
O O5 0.494144 0.547883 0.801848
O O6 0.276607 0.549079 0.693679
O O7 0.363154 0.636319 0.900964
O O8 0.334436 0.513094 0.021579
O O9 0.855411 0.508660 0.114668
O O10 0.377610 0.626708 0.491424
O O11 0.418233 0.742434 0.418406
O O12 0.519820 0.814049 0.186166
#
# Coordination Sequence:
#
# PCOD8248852 Si02
#       6
#     8   8   8   8   8   8
#     4  10  21  38  56  88 116 148 196 237 283 350
#     4   9  19  37  60  82 111 154 191 235 291 343
#     4   9  19  39  60  82 121 152 185 241 292 336
#     4  10  21  37  60  87 113 153 195 231 287 348
#     4  10  19  37  59  77 112 151 191 234 292 338
#     4  10  20  38  59  80 116 154 182 243 291 336
#
# _framework density 24.800792000000001
#
# number of rings (size 3 to 8) (size 9 to 14) (size 15 to 20)
#    0.000    2.333    1.667    0.500    0.000    1.333 
#   15.000    0.000    0.000    0.000    0.000    0.000 
#    0.000    0.000    0.000    0.000    0.000    0.000 
#
# Total GULP energy -594846.974861 kJ/mol
# GULP energy per Si atom -12392.645310 kJ/mol
# Density = 2.474434 g / cm^3
# Si number density = 24.800792 Si / 1000 Ang^3
#
#
#
# Elastic Constant Matrix: (Units=GPa)
#
#
# Indices 1 2 3 4 5 6 
#
# 1 19.4787 -14.2933 13.7868 0.0000 0.0000 0.0000
# 2 -14.2933 95.1828 21.5546 0.0000 0.0000 0.0000
# 3 13.7868 21.5546 134.7233 0.0000 0.0000 0.0000
# 4 0.0000 0.0000 0.0000 38.0504 0.0000 0.0000
# 5 0.0000 0.0000 0.0000 0.0000 46.0207 0.0000
# 6 0.0000 0.0000 0.0000 0.0000 0.0000 15.7840
#
#
#
# Elastic Compliance Matrix: (Units=1/GPa)
#
#
# Indices 1 2 3 4 5 6 
#
# 1 0.066224 0.011911 -0.008683 0.000000 0.000000 0.000000
# 2 0.011911 0.013043 -0.003306 0.000000 0.000000 0.000000
# 3 -0.008683 -0.003306 0.008840 0.000000 0.000000 0.000000
# 4 0.000000 0.000000 0.000000 0.026281 0.000000 0.000000
# 5 0.000000 0.000000 0.000000 0.000000 0.021729 0.000000
# 6 0.000000 0.000000 0.000000 0.000000 0.000000 0.063355
#
#
# Mechanical properties :
#
#
# Convention : Reuss Voigt Hill
#
# Bulk Modulus (GPa) = 11.36982 32.38676 21.87829
# Shear Modulus (GPa) = 21.83929 35.19346 28.51638
#
# Velocity S-wave (km/s) = 2.97069 3.77111 3.39457
# Velocity P-wave (km/s) = 4.04488 5.66117 4.91985
#
# Compressibility (1/GPa) = 0.08795217
#
# Stress axis : x y z
#
# Youngs Moduli (GPa) = 15.10032 76.66770 113.12175
#
# Poissons Ratio (x) = -0.91318 0.98219
# Poissons Ratio (y) = -0.17986 0.37395
# Poissons Ratio (z) = 0.13111 0.25344
#
# Static dielectric constant tensor:
#      x y z
#    x 4.131450 0.000000 0.000000 
#    y 0.000000 4.751190 0.000000 
#    z 0.000000 0.000000 5.553970 
# 
# 
# High freq. dielectric constant tensor:
#      x y z
#    x 1.938180 0.000000 0.000000 
#    y 0.000000 2.004630 0.000000 
#    z 0.000000 0.000000 2.022060 
# 
# From -- ./inp_files/2265.got.cif
#   From: 2010.03.12/outbox.cif.g09.slc.cpg/sg61_2_cif.got.tgz:2265.got - 2010.04.10 19:05:03.
