data_PCOD8248503
_publ_section_title
;
Structure prediction by ZEFSAII (Michael W. Deem and Ramdas Pophale) SiO2 
 PCOD8248503
Probable space group: P B C N
;
_chemical_formula_sum "Si O2"
_cell_formula_units_Z 48
_cell_length_a 15.949625
_cell_length_b 8.809483
_cell_length_c 16.848738
_cell_angle_alpha 90.000000
_cell_angle_beta 90.000000
_cell_angle_gamma 90.000000
_cell_volume 2367.381641
_symmetry_space_group_name_H-M "P B C N"
_symmetry_group_IT_number 60
_symmetry_cell_setting 'orthorhombic'
loop_
_space_group_symop_operation_xyz
x,y,z
1/2-x,1/2-y,1/2+z
1/2+x,1/2-y,-z
-x,y,1/2-z
-x,-y,-z
1/2+x,1/2+y,1/2-z
1/2-x,1/2+y,z
x,-y,1/2+z
loop_
_atom_site_type_symbol
_atom_site_label
_atom_site_fract_x
_atom_site_fract_y
_atom_site_fract_z
Si Si1 0.597224 0.699395 0.182689
Si Si2 0.181648 0.478339 0.266747
Si Si3 0.739910 0.599445 0.076559
Si Si4 0.207406 0.835048 0.533756
Si Si5 0.816706 0.220826 0.828597
Si Si6 0.413130 0.432835 0.659961
O O1 0.598957 0.876029 0.212073
O O2 0.654133 0.678499 0.105488
O O3 0.635806 0.608607 0.258287
O O4 0.507688 0.625543 0.164765
O O5 0.221958 0.504898 0.352358
O O6 0.244298 0.381719 0.211328
O O7 0.155754 0.637956 0.227028
O O8 0.803654 0.727332 0.043224
O O9 0.722279 0.502482 0.998472
O O10 0.286271 0.787202 0.587647
O O11 0.123980 0.838597 0.586537
O O12 0.898411 0.114859 0.847335
#
# Coordination Sequence:
#
# PCOD8248503 Si02
#       6
#     8   8   8   8   8   8
#     4  11  24  43  65  93 138 176 218 281 343 392
#     4  12  20  40  71  96 126 179 232 269 315 406
#     4  12  22  37  67  98 128 174 225 273 331 395
#     4  12  22  37  65  99 128 171 226 274 324 400
#     4  12  20  40  70  97 127 176 236 268 314 405
#     4  11  24  43  65  94 137 175 220 279 342 387
#
# _framework density 20.275565
#
# number of rings (size 3 to 8) (size 9 to 14) (size 15 to 20)
#    0.000    0.333   10.000    0.000    0.000    0.667 
#    0.000    4.167    0.000    0.000    0.000    0.000 
#    0.000    0.000    0.000    0.000    0.000    0.000 
#
# Total GULP energy -594740.967749 kJ/mol
# GULP energy per Si atom -12390.436828 kJ/mol
# Density = 2.022942 g / cm^3
# Si number density = 20.275565 Si / 1000 Ang^3
#
#
#
# Elastic Constant Matrix: (Units=GPa)
#
#
# Indices 1 2 3 4 5 6 
#
# 1 71.7679 57.4003 33.1147 0.0000 0.0000 0.0000
# 2 57.4003 118.5976 37.3930 0.0000 0.0000 0.0000
# 3 33.1147 37.3930 113.5779 0.0000 0.0000 0.0000
# 4 0.0000 0.0000 0.0000 49.8283 0.0000 0.0000
# 5 0.0000 0.0000 0.0000 0.0000 27.9888 0.0000
# 6 0.0000 0.0000 0.0000 0.0000 0.0000 25.6032
#
#
#
# Elastic Compliance Matrix: (Units=1/GPa)
#
#
# Indices 1 2 3 4 5 6 
#
# 1 0.023940 -0.010473 -0.003532 0.000000 0.000000 0.000000
# 2 -0.010473 0.013990 -0.001552 0.000000 0.000000 0.000000
# 3 -0.003532 -0.001552 0.010345 0.000000 0.000000 0.000000
# 4 0.000000 0.000000 0.000000 0.020069 0.000000 0.000000
# 5 0.000000 0.000000 0.000000 0.000000 0.035729 0.000000
# 6 0.000000 0.000000 0.000000 0.000000 0.000000 0.039058
#
#
# Mechanical properties :
#
#
# Convention : Reuss Voigt Hill
#
# Bulk Modulus (GPa) = 58.27275 62.19548 60.23412
# Shear Modulus (GPa) = 27.78302 32.41974 30.10138
#
# Velocity S-wave (km/s) = 3.70573 4.00303 3.85725
# Velocity P-wave (km/s) = 6.86387 7.21854 7.04344
#
# Compressibility (1/GPa) = 0.01716068
#
# Stress axis : x y z
#
# Youngs Moduli (GPa) = 41.77112 71.47810 96.66149
#
# Poissons Ratio (x) = 0.74860 0.34139
# Poissons Ratio (y) = 0.43748 0.15006
# Poissons Ratio (z) = 0.14753 0.11097
#
# Static dielectric constant tensor:
#      x y z
#    x 3.246450 0.000000 0.000000 
#    y 0.000000 4.058020 0.000000 
#    z 0.000000 0.000000 4.007330 
# 
# 
# High freq. dielectric constant tensor:
#      x y z
#    x 1.742580 0.000000 0.000000 
#    y 0.000000 1.812400 0.000000 
#    z 0.000000 0.000000 1.813380 
# 
# From -- ./inp_files/20801.got.cif
#   From: 2010.03.12/outbox.cif.g09.slc.cpg/sg60_11_cif.got.tgz:20801.got - 2010.04.10 18:46:24.
