data_PCOD8248120
_publ_section_title
;
Structure prediction by ZEFSAII (Michael W. Deem and Ramdas Pophale) SiO2 
 PCOD8248120
Probable space group: P B C N
;
_chemical_formula_sum "Si O2"
_cell_formula_units_Z 48
_cell_length_a 11.675112
_cell_length_b 7.732716
_cell_length_c 24.585080
_cell_angle_alpha 90.000000
_cell_angle_beta 90.000000
_cell_angle_gamma 90.000000
_cell_volume 2219.549022
_symmetry_space_group_name_H-M "P B C N"
_symmetry_group_IT_number 60
_symmetry_cell_setting 'orthorhombic'
loop_
_space_group_symop_operation_xyz
x,y,z
1/2-x,1/2-y,1/2+z
1/2+x,1/2-y,-z
-x,y,1/2-z
-x,-y,-z
1/2+x,1/2+y,1/2-z
1/2-x,1/2+y,z
x,-y,1/2+z
loop_
_atom_site_type_symbol
_atom_site_label
_atom_site_fract_x
_atom_site_fract_y
_atom_site_fract_z
Si Si1 0.613240 0.147671 0.873866
Si Si2 0.122190 0.489278 0.739339
Si Si3 0.685510 0.327476 0.193956
Si Si4 0.377049 0.357304 0.872130
Si Si5 0.788730 0.646321 0.436381
Si Si6 0.372643 0.555949 0.495200
O O1 0.487808 0.232674 0.867414
O O2 0.708150 0.297481 0.884675
O O3 0.644126 0.018687 0.824287
O O4 0.625013 0.012663 0.923748
O O5 0.112246 0.296189 0.765636
O O6 0.228115 0.575950 0.767378
O O7 0.000000 0.582117 0.750000
O O8 0.760634 0.226730 0.149777
O O9 0.602609 0.463599 0.161985
O O10 0.345555 0.387022 0.934430
O O11 0.865150 0.801715 0.457387
O O12 0.709906 0.600146 0.488167
O O13 0.500000 0.500000 0.500000
#
# Coordination Sequence:
#
# PCOD8248120 Si02
#       6
#     8   8   8   8   8   8
#     4  11  22  43  67  96 131 170 217 267 327 391
#     4  11  22  43  64  92 123 165 211 264 323 384
#     4  10  24  43  64  92 126 164 216 266 321 378
#     4  11  22  43  66  92 129 171 215 270 318 385
#     4  10  24  42  64  95 136 174 214 270 326 384
#     4  11  22  42  64  96 131 173 220 263 324 388
#
# _framework density 21.626014000000001
#
# number of rings (size 3 to 8) (size 9 to 14) (size 15 to 20)
#    0.000    1.333    3.333    2.000    0.000    2.000 
#   12.000    0.000    0.000    0.000    0.000    0.000 
#    0.000    0.000    0.000    0.000    0.000    0.000 
#
# Total GULP energy -594677.431104 kJ/mol
# GULP energy per Si atom -12389.113148 kJ/mol
# Density = 2.157679 g / cm^3
# Si number density = 21.626014 Si / 1000 Ang^3
#
#
#
# Elastic Constant Matrix: (Units=GPa)
#
#
# Indices 1 2 3 4 5 6 
#
# 1 103.2864 43.5962 49.9808 0.0000 0.0000 0.0000
# 2 43.5962 93.6102 41.9590 0.0000 0.0000 0.0000
# 3 49.9808 41.9590 114.6171 0.0000 0.0000 0.0000
# 4 0.0000 0.0000 0.0000 -4.6062 0.0000 0.0000
# 5 0.0000 0.0000 0.0000 0.0000 24.3435 0.0000
# 6 0.0000 0.0000 0.0000 0.0000 0.0000 29.6857
#
#
#
# Elastic Compliance Matrix: (Units=1/GPa)
#
#
# Indices 1 2 3 4 5 6 
#
# 1 0.013640 -0.004410 -0.004334 0.000000 0.000000 0.000000
# 2 -0.004410 0.014205 -0.003277 0.000000 0.000000 0.000000
# 3 -0.004334 -0.003277 0.011814 0.000000 0.000000 0.000000
# 4 0.000000 0.000000 0.000000 -0.217100 0.000000 0.000000
# 5 0.000000 0.000000 0.000000 0.000000 0.041079 0.000000
# 6 0.000000 0.000000 0.000000 0.000000 0.000000 0.033686
#
#
# Mechanical properties :
#
#
# Convention : Reuss Voigt Hill
#
# Bulk Modulus (GPa) = 64.02866 64.73172 64.38019
# Shear Modulus (GPa) = -68.09464 21.61645 -23.23909
#
# Velocity S-wave (km/s) = -5.61745 3.16501 -3.28165
# Velocity P-wave (km/s) = 3.52176 6.58435 3.93388
#
# Compressibility (1/GPa) = 0.01561801
#
# Stress axis : x y z
#
# Youngs Moduli (GPa) = 73.31187 70.39565 84.64396
#
# Poissons Ratio (x) = 0.31045 0.36682
# Poissons Ratio (y) = 0.32331 0.27740
# Poissons Ratio (z) = 0.31771 0.23070
#
# Static dielectric constant tensor:
#      x y z
#    x 3.705120 0.000000 0.000000 
#    y 0.000000 4.182830 0.000000 
#    z 0.000000 0.000000 3.834060 
# 
# 
# High freq. dielectric constant tensor:
#      x y z
#    x 1.844600 0.000000 0.000000 
#    y 0.000000 1.855450 0.000000 
#    z 0.000000 0.000000 1.859740 
# 
# From -- ./inp_files/24257.got.cif
#   From: 2010.03.12/outbox.cif.g09.slc.cpg/sg60_13_cif.got.tgz:24257.got - 2010.04.10 18:46:24.
