data_PCOD8248364
_publ_section_title
;
Structure prediction by ZEFSAII (Michael W. Deem and Ramdas Pophale) SiO2 
 PCOD8248364
Probable space group: P B C N
;
_chemical_formula_sum "Si O2"
_cell_formula_units_Z 56
_cell_length_a 23.190363
_cell_length_b 13.683252
_cell_length_c 8.717784
_cell_angle_alpha 90.000000
_cell_angle_beta 90.000000
_cell_angle_gamma 90.000000
_cell_volume 2766.323565
_symmetry_space_group_name_H-M "P B C N"
_symmetry_group_IT_number 60
_symmetry_cell_setting 'orthorhombic'
loop_
_space_group_symop_operation_xyz
x,y,z
1/2-x,1/2-y,1/2+z
1/2+x,1/2-y,-z
-x,y,1/2-z
-x,-y,-z
1/2+x,1/2+y,1/2-z
1/2-x,1/2+y,z
x,-y,1/2+z
loop_
_atom_site_type_symbol
_atom_site_label
_atom_site_fract_x
_atom_site_fract_y
_atom_site_fract_z
Si Si1 0.114354 0.632715 0.480577
Si Si2 0.994950 0.607835 0.570173
Si Si3 0.215591 0.956843 0.782172
Si Si4 0.628496 0.200576 0.531128
Si Si5 0.307382 0.632778 0.607587
Si Si6 0.841406 0.460886 0.819291
Si Si7 0.193115 0.750587 0.662121
O O1 0.126437 0.554940 0.615869
O O2 0.119321 0.585586 0.313718
O O3 0.159868 0.721829 0.503944
O O4 0.048860 0.669847 0.502691
O O5 0.937702 0.666876 0.524071
O O6 0.000000 0.598937 0.750000
O O7 0.000000 0.500000 0.500000
O O8 0.280307 0.992385 0.748236
O O9 0.198175 0.866897 0.673034
O O10 0.176867 0.052169 0.737840
O O11 0.212638 0.928946 0.959270
O O12 0.636858 0.301841 0.435335
O O13 0.667587 0.117435 0.453900
O O14 0.652854 0.212033 0.700809
O O15 0.256476 0.703950 0.664626
#
# Coordination Sequence:
#
# PCOD8248364 Si02
#       7
#     8   8   8   8   8   8   8
#     4  12  23  36  58  91 126 166 205 252 311 374
#     4  12  24  40  62  91 128 169 207 259 315 381
#     4  11  23  36  60  88 125 163 202 252 315 371
#     4  11  25  40  59  89 129 165 208 258 314 378
#     4  11  24  39  61  89 125 167 205 261 312 376
#     4  12  21  35  58  91 127 163 201 252 306 381
#     4  11  22  39  59  90 123 162 207 250 319 372
#
# _framework density 20.243473999999999
#
# number of rings (size 3 to 8) (size 9 to 14) (size 15 to 20)
#    0.000    0.571    7.143    1.714    2.000    1.143 
#    0.000    0.000    0.000    0.857    0.000    0.000 
#    0.000    0.000    0.000    0.000    0.000    0.000 
#
# Total GULP energy -694321.256926 kJ/mol
# GULP energy per Si atom -12398.593874 kJ/mol
# Density = 2.019740 g / cm^3
# Si number density = 20.243474 Si / 1000 Ang^3
#
#
#
# Elastic Constant Matrix: (Units=GPa)
#
#
# Indices 1 2 3 4 5 6 
#
# 1 100.0618 37.5529 25.3773 0.0000 0.0000 0.0000
# 2 37.5529 96.0931 16.0618 0.0000 0.0000 0.0000
# 3 25.3773 16.0618 27.0700 0.0000 0.0000 0.0000
# 4 0.0000 0.0000 0.0000 27.8166 0.0000 0.0000
# 5 0.0000 0.0000 0.0000 0.0000 21.9489 0.0000
# 6 0.0000 0.0000 0.0000 0.0000 0.0000 30.6347
#
#
#
# Elastic Compliance Matrix: (Units=1/GPa)
#
#
# Indices 1 2 3 4 5 6 
#
# 1 0.014199 -0.003690 -0.011122 0.000000 0.000000 0.000000
# 2 -0.003690 0.012511 -0.003964 0.000000 0.000000 0.000000
# 3 -0.011122 -0.003964 0.049720 0.000000 0.000000 0.000000
# 4 0.000000 0.000000 0.000000 0.035950 0.000000 0.000000
# 5 0.000000 0.000000 0.000000 0.000000 0.045560 0.000000
# 6 0.000000 0.000000 0.000000 0.000000 0.000000 0.032643
#
#
# Mechanical properties :
#
#
# Convention : Reuss Voigt Hill
#
# Bulk Modulus (GPa) = 25.72142 42.35654 34.03898
# Shear Modulus (GPa) = 20.73869 25.69557 23.21713
#
# Velocity S-wave (km/s) = 3.20420 3.56663 3.39026
# Velocity P-wave (km/s) = 5.14031 6.15874 5.67243
#
# Compressibility (1/GPa) = 0.03887811
#
# Stress axis : x y z
#
# Youngs Moduli (GPa) = 70.42544 79.92821 20.11266
#
# Poissons Ratio (x) = 0.29494 0.22369
# Poissons Ratio (y) = 0.25987 0.07973
# Poissons Ratio (z) = 0.78327 0.31685
#
# Static dielectric constant tensor:
#      x y z
#    x 3.733630 0.000000 0.000000 
#    y 0.000000 3.817730 0.000000 
#    z 0.000000 0.000000 3.913150 
# 
# 
# High freq. dielectric constant tensor:
#      x y z
#    x 1.767160 0.000000 0.000000 
#    y 0.000000 1.780740 0.000000 
#    z 0.000000 0.000000 1.806880 
# 
# From -- ./inp_files/7434.got.cif
#   From: 2010.03.12/outbox.cif.g09.slc.cpg/sg60_4_cif.got.tgz:7434.got - 2010.04.10 18:46:24.
