data_PCOD8248763
_publ_section_title
;
Structure prediction by ZEFSAII (Michael W. Deem and Ramdas Pophale) SiO2 
 PCOD8248763
Probable space group: P B C A
;
_chemical_formula_sum "Si O2"
_cell_formula_units_Z 64
_cell_length_a 9.767919
_cell_length_b 19.088662
_cell_length_c 17.629660
_cell_angle_alpha 90.000000
_cell_angle_beta 90.000000
_cell_angle_gamma 90.000000
_cell_volume 3287.164774
_symmetry_space_group_name_H-M "P B C A"
_symmetry_group_IT_number 61
_symmetry_cell_setting 'orthorhombic'
loop_
_space_group_symop_operation_xyz
x,y,z
1/2-x,-y,1/2+z
1/2+x,1/2-y,-z
-x,1/2+y,1/2-z
-x,-y,-z
1/2+x,y,1/2-z
1/2-x,1/2+y,z
x,1/2-y,1/2+z
loop_
_atom_site_type_symbol
_atom_site_label
_atom_site_fract_x
_atom_site_fract_y
_atom_site_fract_z
Si Si1 0.886127 0.479057 0.832487
Si Si2 0.459869 0.872679 0.324279
Si Si3 0.967524 0.760110 0.568347
Si Si4 0.347832 0.619359 0.174659
Si Si5 0.226066 0.377879 0.178475
Si Si6 0.285533 0.746259 0.077004
Si Si7 0.093220 0.976710 0.845788
Si Si8 0.139493 0.398415 0.853033
O O1 0.795190 0.412265 0.852508
O O2 0.823450 0.551070 0.863571
O O3 0.887951 0.488207 0.742816
O O4 0.033950 0.462199 0.866948
O O5 0.445399 0.803721 0.374351
O O6 0.615838 0.883417 0.295245
O O7 0.364104 0.859750 0.251730
O O8 0.419062 0.942309 0.374410
O O9 0.888380 0.739596 0.492637
O O10 0.896250 0.830139 0.599318
O O11 0.129267 0.772805 0.553493
O O12 0.349328 0.696946 0.141900
O O13 0.461742 0.570165 0.136371
O O14 0.362696 0.623963 0.265048
O O15 0.208813 0.323037 0.111436
O O16 0.218469 0.932434 0.880722
#
# Coordination Sequence:
#
# PCOD8248763 Si02
#       8
#     8   8   8   8   8   8   8   8
#     4   9  17  34  58  88 118 143 183 242 293 337
#     4  10  21  39  62  90 119 149 189 239 292 348
#     4  11  25  43  57  81 119 159 199 239 285 344
#     4  10  18  37  62  87 113 149 188 239 293 340
#     4  10  21  38  62  90 119 149 189 240 295 344
#     4  11  25  42  57  81 119 160 197 240 287 342
#     4   9  19  32  60  93 115 143 188 239 298 341
#     4  10  20  37  62  90 115 148 195 242 285 349
#
# _framework density 19.469664999999999
#
# number of rings (size 3 to 8) (size 9 to 14) (size 15 to 20)
#    0.000    2.000    2.500    0.750    7.000    1.000 
#    0.000    2.500    0.000    0.000    0.000    0.000 
#    0.000    0.000    0.000    0.000    0.000    0.000 
#
# Total GULP energy -793326.481325 kJ/mol
# GULP energy per Si atom -12395.726271 kJ/mol
# Density = 1.942535 g / cm^3
# Si number density = 19.469665 Si / 1000 Ang^3
#
#
#
# Elastic Constant Matrix: (Units=GPa)
#
#
# Indices 1 2 3 4 5 6 
#
# 1 96.6388 17.7060 29.5732 0.0000 0.0000 0.0000
# 2 17.7060 89.9312 16.1580 0.0000 0.0000 0.0000
# 3 29.5732 16.1580 44.1619 0.0000 0.0000 0.0000
# 4 0.0000 0.0000 0.0000 5.1910 0.0000 0.0000
# 5 0.0000 0.0000 0.0000 0.0000 24.0574 0.0000
# 6 0.0000 0.0000 0.0000 0.0000 0.0000 34.3441
#
#
#
# Elastic Compliance Matrix: (Units=1/GPa)
#
#
# Indices 1 2 3 4 5 6 
#
# 1 0.013111 -0.001075 -0.008387 0.000000 0.000000 0.000000
# 2 -0.001075 0.011990 -0.003667 0.000000 0.000000 0.000000
# 3 -0.008387 -0.003667 0.029602 0.000000 0.000000 0.000000
# 4 0.000000 0.000000 0.000000 0.192640 0.000000 0.000000
# 5 0.000000 0.000000 0.000000 0.000000 0.041567 0.000000
# 6 0.000000 0.000000 0.000000 0.000000 0.000000 0.029117
#
#
# Mechanical properties :
#
#
# Convention : Reuss Voigt Hill
#
# Bulk Modulus (GPa) = 35.15449 39.73404 37.44426
# Shear Modulus (GPa) = 14.13359 23.87149 19.00254
#
# Velocity S-wave (km/s) = 2.69723 3.50535 3.12750
# Velocity P-wave (km/s) = 5.27212 6.06925 5.68468
#
# Compressibility (1/GPa) = 0.02844587
#
# Stress axis : x y z
#
# Youngs Moduli (GPa) = 76.27067 83.40219 33.78146
#
# Poissons Ratio (x) = 0.08962 0.28332
# Poissons Ratio (y) = 0.08195 0.12389
# Poissons Ratio (z) = 0.63967 0.30587
#
# Static dielectric constant tensor:
#      x y z
#    x 3.940570 0.000000 0.000000 
#    y 0.000000 3.822910 0.000000 
#    z 0.000000 0.000000 3.067720 
# 
# 
# High freq. dielectric constant tensor:
#      x y z
#    x 1.775660 0.000000 0.000000 
#    y 0.000000 1.779320 0.000000 
#    z 0.000000 0.000000 1.711060 
# 
# From -- ./inp_files/10203.got.cif
#   From: 2010.03.12/outbox.cif.g09.slc.cpg/sg61_6_cif.got.tgz:10203.got - 2010.04.10 19:05:03.
