data_PCOD8248984
_publ_section_title
;
Structure prediction by ZEFSAII (Michael W. Deem and Ramdas Pophale) SiO2 
 PCOD8248984
Probable space group: P B C A
;
_chemical_formula_sum "Si O2"
_cell_formula_units_Z 64
_cell_length_a 21.495418
_cell_length_b 9.519256
_cell_length_c 16.621074
_cell_angle_alpha 90.000000
_cell_angle_beta 90.000000
_cell_angle_gamma 90.000000
_cell_volume 3401.010590
_symmetry_space_group_name_H-M "P B C A"
_symmetry_group_IT_number 61
_symmetry_cell_setting 'orthorhombic'
loop_
_space_group_symop_operation_xyz
x,y,z
1/2-x,-y,1/2+z
1/2+x,1/2-y,-z
-x,1/2+y,1/2-z
-x,-y,-z
1/2+x,y,1/2-z
1/2-x,1/2+y,z
x,1/2-y,1/2+z
loop_
_atom_site_type_symbol
_atom_site_label
_atom_site_fract_x
_atom_site_fract_y
_atom_site_fract_z
Si Si1 0.714126 0.154912 0.127808
Si Si2 0.438095 0.013445 0.250018
Si Si3 0.114766 0.557604 0.927256
Si Si4 0.013351 0.794270 0.324605
Si Si5 0.198587 0.441229 0.289164
Si Si6 0.723090 0.800879 0.984684
Si Si7 0.271554 0.573259 0.610621
Si Si8 0.412377 0.576910 0.584711
O O1 0.707959 0.275364 0.194923
O O2 0.726604 0.234817 0.044633
O O3 0.651546 0.065213 0.118844
O O4 0.768708 0.043883 0.147155
O O5 0.471015 0.140307 0.294993
O O6 0.487014 0.883093 0.251791
O O7 0.374444 0.973581 0.294622
O O8 0.422925 0.042638 0.154915
O O9 0.074567 0.632658 0.859696
O O10 0.158261 0.675665 0.969033
O O11 0.072508 0.488222 0.997422
O O12 0.959652 0.793966 0.394722
O O13 0.231064 0.472036 0.203434
O O14 0.720251 0.693418 0.908872
O O15 0.746526 0.947426 0.949027
O O16 0.341167 0.629058 0.589733
#
# Coordination Sequence:
#
# PCOD8248984 Si02
#       8
#     8   8   8   8   8   8   8   8
#     4  12  22  36  61  90 124 159 206 250 312 366
#     4   9  22  38  63  87 122 157 206 253 309 364
#     4  11  21  36  63  90 118 163 207 247 316 369
#     4  10  21  39  64  85 119 160 207 256 305 368
#     4  11  23  39  58  93 127 161 205 259 307 377
#     4  11  19  37  58  87 119 159 197 248 300 382
#     4  10  20  37  59  83 124 158 199 243 314 360
#     4   8  19  37  62  82 114 161 197 247 299 372
#
# _framework density 18.817936
#
# number of rings (size 3 to 8) (size 9 to 14) (size 15 to 20)
#    0.750    1.000    3.750    1.875    1.750    0.000 
#    0.000    0.000    0.000    1.500    0.000    0.000 
#    0.000    0.000    0.000    0.000    0.000    0.000 
#
# Total GULP energy -792983.480755 kJ/mol
# GULP energy per Si atom -12390.366887 kJ/mol
# Density = 1.877511 g / cm^3
# Si number density = 18.817936 Si / 1000 Ang^3
#
#
#
# Elastic Constant Matrix: (Units=GPa)
#
#
# Indices 1 2 3 4 5 6 
#
# 1 62.3965 50.8924 21.8328 0.0000 0.0000 0.0000
# 2 50.8924 99.7575 18.6055 0.0000 0.0000 0.0000
# 3 21.8328 18.6055 49.2032 0.0000 0.0000 0.0000
# 4 0.0000 0.0000 0.0000 34.1720 0.0000 0.0000
# 5 0.0000 0.0000 0.0000 0.0000 30.6080 0.0000
# 6 0.0000 0.0000 0.0000 0.0000 0.0000 31.2529
#
#
#
# Elastic Compliance Matrix: (Units=1/GPa)
#
#
# Indices 1 2 3 4 5 6 
#
# 1 0.030209 -0.013891 -0.008152 0.000000 0.000000 0.000000
# 2 -0.013891 0.017172 -0.000330 0.000000 0.000000 0.000000
# 3 -0.008152 -0.000330 0.024066 0.000000 0.000000 0.000000
# 4 0.000000 0.000000 0.000000 0.029264 0.000000 0.000000
# 5 0.000000 0.000000 0.000000 0.000000 0.032671 0.000000
# 6 0.000000 0.000000 0.000000 0.000000 0.000000 0.031997
#
#
# Mechanical properties :
#
#
# Convention : Reuss Voigt Hill
#
# Bulk Modulus (GPa) = 37.45037 43.77986 40.61511
# Shear Modulus (GPa) = 22.82851 27.20834 25.01843
#
# Velocity S-wave (km/s) = 3.48677 3.80659 3.65019
# Velocity P-wave (km/s) = 6.01288 6.52960 6.27656
#
# Compressibility (1/GPa) = 0.02670201
#
# Stress axis : x y z
#
# Youngs Moduli (GPa) = 33.10304 58.23290 41.55284
#
# Poissons Ratio (x) = 0.80891 0.33873
# Poissons Ratio (y) = 0.45983 0.01370
# Poissons Ratio (z) = 0.26985 0.01920
#
# Static dielectric constant tensor:
#      x y z
#    x 3.373140 0.000000 0.000000 
#    y 0.000000 3.373990 0.000000 
#    z 0.000000 0.000000 3.522360 
# 
# 
# High freq. dielectric constant tensor:
#      x y z
#    x 1.721970 0.000000 0.000000 
#    y 0.000000 1.716750 0.000000 
#    z 0.000000 0.000000 1.734000 
# 
# From -- ./inp_files/9776.got.cif
#   From: 2010.03.12/outbox.cif.g09.slc.cpg/sg61_5_cif.got.tgz:9776.got - 2010.04.10 19:05:03.
