data_PCOD8248303
_publ_section_title
;
Structure prediction by ZEFSAII (Michael W. Deem and Ramdas Pophale) SiO2 
 PCOD8248303
Probable space group: P B C N
;
_chemical_formula_sum "Si O2"
_cell_formula_units_Z 64
_cell_length_a 20.911549
_cell_length_b 15.880220
_cell_length_c 9.790734
_cell_angle_alpha 90.000000
_cell_angle_beta 90.000000
_cell_angle_gamma 90.000000
_cell_volume 3251.306934
_symmetry_space_group_name_H-M "P B C N"
_symmetry_group_IT_number 60
_symmetry_cell_setting 'orthorhombic'
loop_
_space_group_symop_operation_xyz
x,y,z
1/2-x,1/2-y,1/2+z
1/2+x,1/2-y,-z
-x,y,1/2-z
-x,-y,-z
1/2+x,1/2+y,1/2-z
1/2-x,1/2+y,z
x,-y,1/2+z
loop_
_atom_site_type_symbol
_atom_site_label
_atom_site_fract_x
_atom_site_fract_y
_atom_site_fract_z
Si Si1 0.673869 0.810082 0.326682
Si Si2 0.071009 0.819164 0.746331
Si Si3 0.435967 0.558223 0.004681
Si Si4 0.726541 0.894990 0.085375
Si Si5 0.635299 0.400006 0.502481
Si Si6 0.864438 0.154084 0.704331
Si Si7 0.704523 0.193609 0.310960
Si Si8 0.277537 0.088701 0.436574
O O1 0.610276 0.755491 0.322553
O O2 0.678138 0.882023 0.211287
O O3 0.732015 0.747994 0.295911
O O4 0.673690 0.857165 0.471895
O O5 0.072652 0.904279 0.655807
O O6 0.000000 0.783161 0.750000
O O7 0.092925 0.840158 0.900370
O O8 0.377309 0.497546 0.963309
O O9 0.500000 0.500000 0.000000
O O10 0.425946 0.635376 0.895097
O O11 0.799771 0.875919 0.126963
O O12 0.699427 0.833585 0.967832
O O13 0.718550 0.990221 0.034400
O O14 0.618296 0.393930 0.343294
O O15 0.708342 0.375234 0.523032
O O16 0.855339 0.251541 0.753038
O O17 0.709995 0.108632 0.221773
#
# Coordination Sequence:
#
# PCOD8248303 Si02
#       8
#     8   8   8   8   8   8   8   8
#     4  11  22  39  59  86 122 158 206 254 321 373
#     4  12  25  43  62  86 123 176 212 254 305 385
#     4  12  25  41  59  88 131 171 215 249 297 376
#     4  11  22  36  59  91 120 158 205 260 323 373
#     4  12  23  37  60  88 127 166 214 249 307 365
#     4  11  24  37  60  88 126 171 204 258 314 375
#     4  11  21  35  56  86 124 160 201 254 316 375
#     4  12  22  36  60  93 122 158 204 262 315 375
#
# _framework density 19.684391999999999
#
# number of rings (size 3 to 8) (size 9 to 14) (size 15 to 20)
#    0.000    0.500    6.250    5.250    0.000    0.000 
#    0.000    0.000    0.000    0.750    0.000    0.000 
#    0.000    0.000    0.000    0.000    0.000    0.000 
#
# Total GULP energy -793255.409297 kJ/mol
# GULP energy per Si atom -12394.615770 kJ/mol
# Density = 1.963959 g / cm^3
# Si number density = 19.684392 Si / 1000 Ang^3
#
#
#
# Elastic Constant Matrix: (Units=GPa)
#
#
# Indices 1 2 3 4 5 6 
#
# 1 74.6678 40.8572 28.1645 0.0000 0.0000 0.0000
# 2 40.8572 90.6173 33.9502 0.0000 0.0000 0.0000
# 3 28.1645 33.9502 121.6191 0.0000 0.0000 0.0000
# 4 0.0000 0.0000 0.0000 40.4276 0.0000 0.0000
# 5 0.0000 0.0000 0.0000 0.0000 20.2192 0.0000
# 6 0.0000 0.0000 0.0000 0.0000 0.0000 30.8589
#
#
#
# Elastic Compliance Matrix: (Units=1/GPa)
#
#
# Indices 1 2 3 4 5 6 
#
# 1 0.018272 -0.007430 -0.002157 0.000000 0.000000 0.000000
# 2 -0.007430 0.015346 -0.002563 0.000000 0.000000 0.000000
# 3 -0.002157 -0.002563 0.009437 0.000000 0.000000 0.000000
# 4 0.000000 0.000000 0.000000 0.024736 0.000000 0.000000
# 5 0.000000 0.000000 0.000000 0.000000 0.049458 0.000000
# 6 0.000000 0.000000 0.000000 0.000000 0.000000 0.032406
#
#
# Mechanical properties :
#
#
# Convention : Reuss Voigt Hill
#
# Bulk Modulus (GPa) = 53.32159 54.76088 54.04123
# Shear Modulus (GPa) = 27.74584 30.56329 29.15457
#
# Velocity S-wave (km/s) = 3.75845 3.94466 3.85268
# Velocity P-wave (km/s) = 6.78098 6.97331 6.87781
#
# Compressibility (1/GPa) = 0.01875413
#
# Stress axis : x y z
#
# Youngs Moduli (GPa) = 54.72830 65.16430 105.96052
#
# Poissons Ratio (x) = 0.48419 0.22859
# Poissons Ratio (y) = 0.40664 0.27159
# Poissons Ratio (z) = 0.11806 0.16702
#
# Static dielectric constant tensor:
#      x y z
#    x 3.390980 0.000000 0.000000 
#    y 0.000000 3.650440 0.000000 
#    z 0.000000 0.000000 3.841250 
# 
# 
# High freq. dielectric constant tensor:
#      x y z
#    x 1.721740 0.000000 0.000000 
#    y 0.000000 1.763740 0.000000 
#    z 0.000000 0.000000 1.791590 
# 
# From -- ./inp_files/7972.got.cif
#   From: 2010.03.12/outbox.cif.g09.slc.cpg/sg60_4_cif.got.tgz:7972.got - 2010.04.10 18:46:24.
