data_PCOD8248343
_publ_section_title
;
Structure prediction by ZEFSAII (Michael W. Deem and Ramdas Pophale) SiO2 
 PCOD8248343
Probable space group: P B C N
;
_chemical_formula_sum "Si O2"
_cell_formula_units_Z 48
_cell_length_a 14.987105
_cell_length_b 16.761787
_cell_length_c 9.666970
_cell_angle_alpha 90.000000
_cell_angle_beta 90.000000
_cell_angle_gamma 90.000000
_cell_volume 2428.445931
_symmetry_space_group_name_H-M "P B C N"
_symmetry_group_IT_number 60
_symmetry_cell_setting 'orthorhombic'
loop_
_space_group_symop_operation_xyz
x,y,z
1/2-x,1/2-y,1/2+z
1/2+x,1/2-y,-z
-x,y,1/2-z
-x,-y,-z
1/2+x,1/2+y,1/2-z
1/2-x,1/2+y,z
x,-y,1/2+z
loop_
_atom_site_type_symbol
_atom_site_label
_atom_site_fract_x
_atom_site_fract_y
_atom_site_fract_z
Si Si1 0.500000 0.151246 0.750000
Si Si2 0.820357 0.147894 0.643269
Si Si3 0.178459 0.581757 0.644969
Si Si4 0.725710 0.100126 0.385829
Si Si5 0.255335 0.180042 0.398806
Si Si6 0.000000 0.185523 0.750000
Si Si7 0.908445 0.272701 0.995104
O O1 0.577478 0.094182 0.806541
O O2 0.533605 0.209230 0.629615
O O3 0.743746 0.127143 0.751457
O O4 0.804593 0.100605 0.500241
O O5 0.817752 0.242905 0.619095
O O6 0.918476 0.128003 0.702792
O O7 0.196915 0.488654 0.647565
O O8 0.191765 0.616442 0.491739
O O9 0.764686 0.141072 0.249145
O O10 0.640897 0.147181 0.445694
O O11 0.162383 0.203440 0.470172
O O12 0.027097 0.242198 0.624049
#
# Coordination Sequence:
#
# PCOD8248343 Si02
#       7
#     4   8   8   8   8   4   8
#     4  12  26  41  68 101 136 164 222 272 332 395
#     4  11  22  44  66  95 126 178 223 268 319 389
#     4  12  24  44  66  98 139 171 212 275 336 394
#     4  11  24  42  67  97 139 171 213 267 345 392
#     4  11  21  43  68  91 133 179 218 265 320 397
#     4  12  22  43  72  97 128 170 236 272 314 379
#     4  11  25  41  69 102 126 179 221 270 327 388
#
# _framework density 19.765729
#
# number of rings (size 3 to 8) (size 9 to 14) (size 15 to 20)
#    0.000    0.667    6.667    3.000    2.333    1.333 
#    0.000    0.833    0.000    0.000    0.000    0.000 
#    0.000    0.000    0.000    0.000    0.000    0.000 
#
# Total GULP energy -595453.390488 kJ/mol
# GULP energy per Si atom -12405.278968 kJ/mol
# Density = 1.972074 g / cm^3
# Si number density = 19.765729 Si / 1000 Ang^3
#
#
#
# Elastic Constant Matrix: (Units=GPa)
#
#
# Indices 1 2 3 4 5 6 
#
# 1 111.9510 31.2515 33.5009 0.0000 0.0000 0.0000
# 2 31.2515 66.1959 22.5651 0.0000 0.0000 0.0000
# 3 33.5009 22.5651 119.9629 0.0000 0.0000 0.0000
# 4 0.0000 0.0000 0.0000 26.6291 0.0000 0.0000
# 5 0.0000 0.0000 0.0000 0.0000 38.3338 0.0000
# 6 0.0000 0.0000 0.0000 0.0000 0.0000 13.4294
#
#
#
# Elastic Compliance Matrix: (Units=1/GPa)
#
#
# Indices 1 2 3 4 5 6 
#
# 1 0.010805 -0.004352 -0.002199 0.000000 0.000000 0.000000
# 2 -0.004352 0.017894 -0.002151 0.000000 0.000000 0.000000
# 3 -0.002199 -0.002151 0.009355 0.000000 0.000000 0.000000
# 4 0.000000 0.000000 0.000000 0.037553 0.000000 0.000000
# 5 0.000000 0.000000 0.000000 0.000000 0.026087 0.000000
# 6 0.000000 0.000000 0.000000 0.000000 0.000000 0.074464
#
#
# Mechanical properties :
#
#
# Convention : Reuss Voigt Hill
#
# Bulk Modulus (GPa) = 48.42259 52.52721 50.47490
# Shear Modulus (GPa) = 24.94465 29.73126 27.33795
#
# Velocity S-wave (km/s) = 3.55634 3.88259 3.72304
# Velocity P-wave (km/s) = 6.43544 6.83607 6.63878
#
# Compressibility (1/GPa) = 0.02065152
#
# Stress axis : x y z
#
# Youngs Moduli (GPa) = 92.54725 55.88387 106.90005
#
# Poissons Ratio (x) = 0.24319 0.23507
# Poissons Ratio (y) = 0.40273 0.22991
# Poissons Ratio (z) = 0.20351 0.12019
#
# Static dielectric constant tensor:
#      x y z
#    x 3.706290 0.000000 0.000000 
#    y 0.000000 3.371590 0.000000 
#    z 0.000000 0.000000 4.064410 
# 
# 
# High freq. dielectric constant tensor:
#      x y z
#    x 1.768980 0.000000 0.000000 
#    y 0.000000 1.751580 0.000000 
#    z 0.000000 0.000000 1.799780 
# 
# From -- ./inp_files/5976.got.cif
#   From: 2010.03.12/outbox.cif.g09.slc.cpg/sg60_3_cif.got.tgz:5976.got - 2010.04.10 18:46:24.
