data_PCOD8248496
_publ_section_title
;
Structure prediction by ZEFSAII (Michael W. Deem and Ramdas Pophale) SiO2 
 PCOD8248496
Probable space group: P B C N
;
_chemical_formula_sum "Si O2"
_cell_formula_units_Z 60
_cell_length_a 28.952258
_cell_length_b 11.072092
_cell_length_c 9.456447
_cell_angle_alpha 90.000000
_cell_angle_beta 90.000000
_cell_angle_gamma 90.000000
_cell_volume 3031.378170
_symmetry_space_group_name_H-M "P B C N"
_symmetry_group_IT_number 60
_symmetry_cell_setting 'orthorhombic'
loop_
_space_group_symop_operation_xyz
x,y,z
1/2-x,1/2-y,1/2+z
1/2+x,1/2-y,-z
-x,y,1/2-z
-x,-y,-z
1/2+x,1/2+y,1/2-z
1/2-x,1/2+y,z
x,-y,1/2+z
loop_
_atom_site_type_symbol
_atom_site_label
_atom_site_fract_x
_atom_site_fract_y
_atom_site_fract_z
Si Si1 0.260416 0.106591 0.557385
Si Si2 0.348126 0.042542 0.973582
Si Si3 0.023423 0.924842 0.382883
Si Si4 0.208593 0.252248 0.320083
Si Si5 0.100951 0.384256 0.755903
Si Si6 0.000000 0.307692 0.750000
Si Si7 0.824064 0.952073 0.872050
Si Si8 0.125892 0.116623 0.842547
O O1 0.243254 0.190892 0.430502
O O2 0.260806 0.182167 0.701942
O O3 0.310639 0.057811 0.516576
O O4 0.227241 0.993800 0.586522
O O5 0.324749 0.155625 0.898184
O O6 0.386000 0.985776 0.869430
O O7 0.373939 0.089720 0.110200
O O8 0.077820 0.947520 0.378237
O O9 0.000000 0.988348 0.250000
O O10 0.009573 0.781307 0.385336
O O11 0.000000 0.000000 0.500000
O O12 0.176726 0.152473 0.245115
O O13 0.045618 0.388822 0.728179
O O14 0.118289 0.256817 0.814045
O O15 0.852819 0.060851 0.801401
O O16 0.843575 0.901617 0.018572
#
# Coordination Sequence:
#
# PCOD8248496 Si02
#       8
#     8   8   8   8   8   4   8   8
#     4  12  26  45  63  97 132 174 223 273 337 391
#     4  12  26  45  69  96 129 182 225 277 326 400
#     4   9  18  37  63  95 129 169 212 267 335 389
#     4  12  26  42  66  94 131 175 225 272 332 392
#     4  11  25  46  70  96 134 172 228 276 334 400
#     4   8  22  42  68  96 132 176 212 280 340 390
#     4  12  25  42  63  98 132 176 217 269 336 394
#     4  11  24  40  67  98 135 170 218 275 330 403
#
# _framework density 19.792978000000002
#
# number of rings (size 3 to 8) (size 9 to 14) (size 15 to 20)
#    0.400    0.533    2.667    4.000    5.600    0.533 
#    0.000    0.000    0.000    0.000    0.000    0.000 
#    0.000    0.000    0.000    0.000    0.000    0.000 
#
# Total GULP energy -743909.539623 kJ/mol
# GULP energy per Si atom -12398.492327 kJ/mol
# Density = 1.974793 g / cm^3
# Si number density = 19.792978 Si / 1000 Ang^3
#
#
#
# Elastic Constant Matrix: (Units=GPa)
#
#
# Indices 1 2 3 4 5 6 
#
# 1 127.4015 45.8233 54.3931 0.0000 0.0000 0.0000
# 2 45.8233 85.7567 52.4623 0.0000 0.0000 0.0000
# 3 54.3931 52.4623 139.1251 0.0000 0.0000 0.0000
# 4 0.0000 0.0000 0.0000 45.5642 0.0000 0.0000
# 5 0.0000 0.0000 0.0000 0.0000 28.7231 0.0000
# 6 0.0000 0.0000 0.0000 0.0000 0.0000 36.4893
#
#
#
# Elastic Compliance Matrix: (Units=1/GPa)
#
#
# Indices 1 2 3 4 5 6 
#
# 1 0.010371 -0.003979 -0.002554 0.000000 0.000000 0.000000
# 2 -0.003979 0.016684 -0.004736 0.000000 0.000000 0.000000
# 3 -0.002554 -0.004736 0.009972 0.000000 0.000000 0.000000
# 4 0.000000 0.000000 0.000000 0.021947 0.000000 0.000000
# 5 0.000000 0.000000 0.000000 0.000000 0.034815 0.000000
# 6 0.000000 0.000000 0.000000 0.000000 0.000000 0.027405
#
#
# Mechanical properties :
#
#
# Convention : Reuss Voigt Hill
#
# Bulk Modulus (GPa) = 69.01653 73.07118 71.04385
# Shear Modulus (GPa) = 33.65589 35.46228 34.55908
#
# Velocity S-wave (km/s) = 4.12806 4.23739 4.18308
# Velocity P-wave (km/s) = 7.59382 7.80631 7.70080
#
# Compressibility (1/GPa) = 0.01448928
#
# Stress axis : x y z
#
# Youngs Moduli (GPa) = 96.42401 59.93713 100.27906
#
# Poissons Ratio (x) = 0.23849 0.25613
# Poissons Ratio (y) = 0.38367 0.47489
# Poissons Ratio (z) = 0.24629 0.28385
#
# Static dielectric constant tensor:
#      x y z
#    x 3.701070 0.000000 0.000000 
#    y 0.000000 3.658790 0.000000 
#    z 0.000000 0.000000 3.707300 
# 
# 
# High freq. dielectric constant tensor:
#      x y z
#    x 1.777060 0.000000 0.000000 
#    y 0.000000 1.773680 0.000000 
#    z 0.000000 0.000000 1.783610 
# 
# From -- ./inp_files/8481.got.cif
#   From: 2010.03.12/outbox.cif.g09.slc.cpg/sg60_5_cif.got.tgz:8481.got - 2010.04.10 18:46:24.
