data_PCOD8248860
_publ_section_title
;
Structure prediction by ZEFSAII (Michael W. Deem and Ramdas Pophale) SiO2 
 PCOD8248860
Probable space group: P B C A
;
_chemical_formula_sum "Si O2"
_cell_formula_units_Z 56
_cell_length_a 15.360388
_cell_length_b 5.222081
_cell_length_c 33.229399
_cell_angle_alpha 90.000000
_cell_angle_beta 90.000000
_cell_angle_gamma 90.000000
_cell_volume 2665.436106
_symmetry_space_group_name_H-M "P B C A"
_symmetry_group_IT_number 61
_symmetry_cell_setting 'orthorhombic'
loop_
_space_group_symop_operation_xyz
x,y,z
1/2-x,-y,1/2+z
1/2+x,1/2-y,-z
-x,1/2+y,1/2-z
-x,-y,-z
1/2+x,y,1/2-z
1/2-x,1/2+y,z
x,1/2-y,1/2+z
loop_
_atom_site_type_symbol
_atom_site_label
_atom_site_fract_x
_atom_site_fract_y
_atom_site_fract_z
Si Si1 0.304789 0.983197 0.799878
Si Si2 0.695512 0.020065 0.293465
Si Si3 0.658456 0.964355 0.977406
Si Si4 0.061585 0.525088 0.638856
Si Si5 0.696217 0.983553 0.070922
Si Si6 0.949145 0.475111 0.135196
Si Si7 0.149864 0.464016 0.557125
O O1 0.254548 0.724625 0.811572
O O2 0.330640 0.988040 0.753195
O O3 0.393482 0.993901 0.824445
O O4 0.743061 0.283056 0.304875
O O5 0.606329 0.003703 0.317940
O O6 0.748286 0.931852 0.952625
O O7 0.607134 0.701815 0.967566
O O8 0.604173 0.204825 0.959869
O O9 0.675266 0.001303 0.024089
O O10 0.134730 0.491894 0.604514
O O11 0.988630 0.308776 0.634328
O O12 0.022627 0.808282 0.635114
O O13 0.740413 0.715963 0.082773
O O14 0.607811 0.012109 0.095382
#
# Coordination Sequence:
#
# PCOD8248860 Si02
#       7
#     8   8   8   8   8   8   8
#     4  10  21  43  68  96 122 162 216 257 299 356
#     4  10  23  41  68  96 122 162 216 259 292 366
#     4  10  19  37  63  88 105 157 211 256 303 344
#     4  12  26  41  59  97 133 167 200 248 328 374
#     4  12  21  41  67  91 115 158 226 258 300 372
#     4  12  26  41  61  94 134 167 198 253 323 378
#     4  10  20  36  59  86 118 151 205 255 293 370
#
# _framework density 21.009695000000001
#
# number of rings (size 3 to 8) (size 9 to 14) (size 15 to 20)
#    0.000    1.143    2.857    4.286    4.000    1.143 
#    0.000    4.286    0.000    0.000    0.000    0.000 
#    0.000    0.000    0.000    0.000    0.000    0.000 
#
# Total GULP energy -694500.805902 kJ/mol
# GULP energy per Si atom -12401.800105 kJ/mol
# Density = 2.096188 g / cm^3
# Si number density = 21.009695 Si / 1000 Ang^3
#
#
#
# Elastic Constant Matrix: (Units=GPa)
#
#
# Indices 1 2 3 4 5 6 
#
# 1 47.6133 -7.2292 45.4291 0.0000 0.0000 0.0000
# 2 -7.2292 125.5692 9.9494 0.0000 0.0000 0.0000
# 3 45.4291 9.9494 98.9686 0.0000 0.0000 0.0000
# 4 0.0000 0.0000 0.0000 15.4834 0.0000 0.0000
# 5 0.0000 0.0000 0.0000 0.0000 10.8135 0.0000
# 6 0.0000 0.0000 0.0000 0.0000 0.0000 40.8211
#
#
#
# Elastic Compliance Matrix: (Units=1/GPa)
#
#
# Indices 1 2 3 4 5 6 
#
# 1 0.038997 0.003693 -0.018272 0.000000 0.000000 0.000000
# 2 0.003693 0.008377 -0.002537 0.000000 0.000000 0.000000
# 3 -0.018272 -0.002537 0.018747 0.000000 0.000000 0.000000
# 4 0.000000 0.000000 0.000000 0.064585 0.000000 0.000000
# 5 0.000000 0.000000 0.000000 0.000000 0.092477 0.000000
# 6 0.000000 0.000000 0.000000 0.000000 0.000000 0.024497
#
#
# Mechanical properties :
#
#
# Convention : Reuss Voigt Hill
#
# Bulk Modulus (GPa) = 31.35949 40.93886 36.14918
# Shear Modulus (GPa) = 17.09154 28.35703 22.72429
#
# Velocity S-wave (km/s) = 2.85530 3.67783 3.29235
# Velocity P-wave (km/s) = 5.08222 6.12888 5.62993
#
# Compressibility (1/GPa) = 0.03188827
#
# Stress axis : x y z
#
# Youngs Moduli (GPa) = 25.64309 119.36901 53.34324
#
# Poissons Ratio (x) = -0.44081 0.97468
# Poissons Ratio (y) = -0.09470 0.13535
# Poissons Ratio (z) = 0.46855 0.30288
#
# Static dielectric constant tensor:
#      x y z
#    x 3.427370 0.000000 0.000000 
#    y 0.000000 5.050460 0.000000 
#    z 0.000000 0.000000 3.895930 
# 
# 
# High freq. dielectric constant tensor:
#      x y z
#    x 1.790470 0.000000 0.000000 
#    y 0.000000 1.860140 0.000000 
#    z 0.000000 0.000000 1.834660 
# 
# From -- ./inp_files/11821.got.cif
#   From: 2010.03.12/outbox.cif.g09.slc.cpg/sg61_6_cif.got.tgz:11821.got - 2010.04.10 19:05:03.
