data_PCOD8248891
_publ_section_title
;
Structure prediction by ZEFSAII (Michael W. Deem and Ramdas Pophale) SiO2 
 PCOD8248891
Probable space group: P B C A
;
_chemical_formula_sum "Si O2"
_cell_formula_units_Z 40
_cell_length_a 14.482446
_cell_length_b 15.302729
_cell_length_c 8.951101
_cell_angle_alpha 90.000000
_cell_angle_beta 90.000000
_cell_angle_gamma 90.000000
_cell_volume 1983.751475
_symmetry_space_group_name_H-M "P B C A"
_symmetry_group_IT_number 61
_symmetry_cell_setting 'orthorhombic'
loop_
_space_group_symop_operation_xyz
x,y,z
1/2-x,-y,1/2+z
1/2+x,1/2-y,-z
-x,1/2+y,1/2-z
-x,-y,-z
1/2+x,y,1/2-z
1/2-x,1/2+y,z
x,1/2-y,1/2+z
loop_
_atom_site_type_symbol
_atom_site_label
_atom_site_fract_x
_atom_site_fract_y
_atom_site_fract_z
Si Si1 0.482039 0.632968 0.588949
Si Si2 0.828831 0.295387 0.558053
Si Si3 0.213459 0.060711 0.580314
Si Si4 0.187408 0.903775 0.384691
Si Si5 0.457402 0.268130 0.687134
O O1 0.395328 0.570792 0.612036
O O2 0.576813 0.581268 0.621536
O O3 0.474043 0.712844 0.707064
O O4 0.483813 0.667767 0.417781
O O5 0.745955 0.363229 0.534295
O O6 0.788935 0.196857 0.577731
O O7 0.896264 0.297504 0.414437
O O8 0.886713 0.322156 0.706041
O O9 0.270500 0.065882 0.730141
O O10 0.231312 0.965470 0.511331
#
# Coordination Sequence:
#
# PCOD8248891 Si02
#       5
#     8   8   8   8   8
#     4  10  21  40  62  94 128 162 208 262 312 378
#     4  10  19  41  63  85 128 167 200 259 317 362
#     4  12  24  40  69  89 129 171 214 252 316 386
#     4  10  25  42  59  98 129 164 210 265 314 360
#     4   8  18  37  62  88 125 155 205 258 311 354
#
# _framework density 20.163817000000002
#
# number of rings (size 3 to 8) (size 9 to 14) (size 15 to 20)
#    0.000    2.400    4.000    0.600    8.400    0.000 
#    0.000    1.000    0.000    0.000    0.000    0.000 
#    0.000    0.000    0.000    0.000    0.000    0.000 
#
# Total GULP energy -495843.197789 kJ/mol
# GULP energy per Si atom -12396.079945 kJ/mol
# Density = 2.011792 g / cm^3
# Si number density = 20.163817 Si / 1000 Ang^3
#
#
#
# Elastic Constant Matrix: (Units=GPa)
#
#
# Indices 1 2 3 4 5 6 
#
# 1 57.5636 23.5281 29.0088 0.0000 0.0000 0.0000
# 2 23.5281 66.3960 44.6828 0.0000 0.0000 0.0000
# 3 29.0088 44.6828 136.2769 0.0000 0.0000 0.0000
# 4 0.0000 0.0000 0.0000 23.7872 0.0000 0.0000
# 5 0.0000 0.0000 0.0000 0.0000 20.2687 0.0000
# 6 0.0000 0.0000 0.0000 0.0000 0.0000 16.3417
#
#
#
# Elastic Compliance Matrix: (Units=1/GPa)
#
#
# Indices 1 2 3 4 5 6 
#
# 1 0.021012 -0.005692 -0.002607 0.000000 0.000000 0.000000
# 2 -0.005692 0.020867 -0.005630 0.000000 0.000000 0.000000
# 3 -0.002607 -0.005630 0.009739 0.000000 0.000000 0.000000
# 4 0.000000 0.000000 0.000000 0.042039 0.000000 0.000000
# 5 0.000000 0.000000 0.000000 0.000000 0.049337 0.000000
# 6 0.000000 0.000000 0.000000 0.000000 0.000000 0.061193
#
#
# Mechanical properties :
#
#
# Convention : Reuss Voigt Hill
#
# Bulk Modulus (GPa) = 42.08601 50.51954 46.30278
# Shear Modulus (GPa) = 20.83633 22.94731 21.89182
#
# Velocity S-wave (km/s) = 3.21807 3.37715 3.29857
# Velocity P-wave (km/s) = 5.89282 6.34947 6.12540
#
# Compressibility (1/GPa) = 0.02376086
#
# Stress axis : x y z
#
# Youngs Moduli (GPa) = 47.59188 47.92218 102.68029
#
# Poissons Ratio (x) = 0.27276 0.26764
# Poissons Ratio (y) = 0.27088 0.57813
# Poissons Ratio (z) = 0.12405 0.26982
#
# Static dielectric constant tensor:
#      x y z
#    x 3.447030 0.000000 0.000000 
#    y 0.000000 3.517720 0.000000 
#    z 0.000000 0.000000 3.970280 
# 
# 
# High freq. dielectric constant tensor:
#      x y z
#    x 1.767990 0.000000 0.000000 
#    y 0.000000 1.768220 0.000000 
#    z 0.000000 0.000000 1.806600 
# 
# From -- ./inp_files/2645.got.cif
#   From: 2010.03.12/outbox.cif.g09.slc.cpg/sg61_2_cif.got.tgz:2645.got - 2010.04.10 19:05:03.
