data_PCOD8248969
_publ_section_title
;
Structure prediction by ZEFSAII (Michael W. Deem and Ramdas Pophale) SiO2 
 PCOD8248969
Probable space group: P B C A
;
_chemical_formula_sum "Si O2"
_cell_formula_units_Z 48
_cell_length_a 22.911074
_cell_length_b 9.603964
_cell_length_c 8.918451
_cell_angle_alpha 90.000000
_cell_angle_beta 90.000000
_cell_angle_gamma 90.000000
_cell_volume 1962.390361
_symmetry_space_group_name_H-M "P B C A"
_symmetry_group_IT_number 61
_symmetry_cell_setting 'orthorhombic'
loop_
_space_group_symop_operation_xyz
x,y,z
1/2-x,-y,1/2+z
1/2+x,1/2-y,-z
-x,1/2+y,1/2-z
-x,-y,-z
1/2+x,y,1/2-z
1/2-x,1/2+y,z
x,1/2-y,1/2+z
loop_
_atom_site_type_symbol
_atom_site_label
_atom_site_fract_x
_atom_site_fract_y
_atom_site_fract_z
Si Si1 0.296534 0.638103 0.182064
Si Si2 0.092597 0.026134 0.071253
Si Si3 0.623598 0.732630 0.092892
Si Si4 0.447382 0.126514 0.141772
Si Si5 0.744460 0.880584 0.142186
Si Si6 0.479717 0.624329 0.806876
O O1 0.367167 0.616549 0.184803
O O2 0.262011 0.534940 0.292266
O O3 0.280938 0.792499 0.235992
O O4 0.279659 0.612919 0.010667
O O5 0.071090 0.117343 0.930856
O O6 0.036830 0.961464 0.149270
O O7 0.133445 0.897288 0.017970
O O8 0.606666 0.672432 0.254289
O O9 0.681133 0.820863 0.108768
O O10 0.570646 0.831889 0.027814
O O11 0.503693 0.212915 0.208364
O O12 0.458239 0.959147 0.156345
#
# Coordination Sequence:
#
# PCOD8248969 Si02
#       6
#     8   8   8   8   8   8
#     4  12  25  43  67  95 129 170 217 270 329 389
#     4   9  19  38  60  86 124 165 204 257 320 379
#     4  10  20  39  63  85 119 169 213 247 313 400
#     4  10  20  36  61  88 118 162 208 256 310 374
#     4  12  25  44  67  95 129 169 220 272 325 390
#     4   9  19  36  58  87 123 158 202 257 313 378
#
# _framework density 24.459966999999999
#
# number of rings (size 3 to 8) (size 9 to 14) (size 15 to 20)
#    0.000    1.667    0.000    7.000    0.000    3.333 
#    0.000    3.333    0.000    0.000    0.000    0.000 
#    0.000    0.000    0.000    0.000    0.000    0.000 
#
# Total GULP energy -595036.089820 kJ/mol
# GULP energy per Si atom -12396.585205 kJ/mol
# Density = 2.440430 g / cm^3
# Si number density = 24.459967 Si / 1000 Ang^3
#
#
#
# Elastic Constant Matrix: (Units=GPa)
#
#
# Indices 1 2 3 4 5 6 
#
# 1 62.2333 9.2051 14.6562 0.0000 0.0000 0.0000
# 2 9.2051 59.5942 5.9124 0.0000 0.0000 0.0000
# 3 14.6562 5.9124 50.6826 0.0000 0.0000 0.0000
# 4 0.0000 0.0000 0.0000 30.9453 0.0000 0.0000
# 5 0.0000 0.0000 0.0000 0.0000 26.1309 0.0000
# 6 0.0000 0.0000 0.0000 0.0000 0.0000 14.2995
#
#
#
# Elastic Compliance Matrix: (Units=1/GPa)
#
#
# Indices 1 2 3 4 5 6 
#
# 1 0.017531 -0.002231 -0.004809 0.000000 0.000000 0.000000
# 2 -0.002231 0.017260 -0.001368 0.000000 0.000000 0.000000
# 3 -0.004809 -0.001368 0.021281 0.000000 0.000000 0.000000
# 4 0.000000 0.000000 0.000000 0.032315 0.000000 0.000000
# 5 0.000000 0.000000 0.000000 0.000000 0.038269 0.000000
# 6 0.000000 0.000000 0.000000 0.000000 0.000000 0.069933
#
#
# Mechanical properties :
#
#
# Convention : Reuss Voigt Hill
#
# Bulk Modulus (GPa) = 25.47412 25.78416 25.62914
# Shear Modulus (GPa) = 22.07587 23.79088 22.93337
#
# Velocity S-wave (km/s) = 3.00747 3.12211 3.06533
# Velocity P-wave (km/s) = 4.74311 4.85397 4.79886
#
# Compressibility (1/GPa) = 0.03925552
#
# Stress axis : x y z
#
# Youngs Moduli (GPa) = 57.04131 57.93579 46.99019
#
# Poissons Ratio (x) = 0.12924 0.22599
# Poissons Ratio (y) = 0.12725 0.06430
# Poissons Ratio (z) = 0.27433 0.07928
#
# Static dielectric constant tensor:
#      x y z
#    x 4.423110 0.000000 0.000000 
#    y 0.000000 4.673990 0.000000 
#    z 0.000000 0.000000 4.451830 
# 
# 
# High freq. dielectric constant tensor:
#      x y z
#    x 1.971600 0.000000 0.000000 
#    y 0.000000 1.968160 0.000000 
#    z 0.000000 0.000000 1.965970 
# 
# From -- ./inp_files/4232.got.cif
#   From: 2010.03.12/outbox.cif.g09.slc.cpg/sg61_3_cif.got.tgz:4232.got - 2010.04.10 19:05:03.
