data_PCOD8248678
_publ_section_title
;
Structure prediction by ZEFSAII (Michael W. Deem and Ramdas Pophale) SiO2 
 PCOD8248678
Probable space group: P B C N
;
_chemical_formula_sum "Si O2"
_cell_formula_units_Z 28
_cell_length_a 16.488526
_cell_length_b 8.911386
_cell_length_c 7.400962
_cell_angle_alpha 90.000000
_cell_angle_beta 90.000000
_cell_angle_gamma 90.000000
_cell_volume 1087.464938
_symmetry_space_group_name_H-M "P B C N"
_symmetry_group_IT_number 60
_symmetry_cell_setting 'orthorhombic'
loop_
_space_group_symop_operation_xyz
x,y,z
1/2-x,1/2-y,1/2+z
1/2+x,1/2-y,-z
-x,y,1/2-z
-x,-y,-z
1/2+x,1/2+y,1/2-z
1/2-x,1/2+y,z
x,-y,1/2+z
loop_
_atom_site_type_symbol
_atom_site_label
_atom_site_fract_x
_atom_site_fract_y
_atom_site_fract_z
Si Si1 0.697495 0.729184 0.711153
Si Si2 0.000000 0.860597 0.750000
Si Si3 0.833908 0.080055 0.092353
Si Si4 0.957406 0.349248 0.569940
O O1 0.705774 0.584827 0.578062
O O2 0.784251 0.810903 0.728607
O O3 0.637561 0.857047 0.626272
O O4 0.665759 0.664876 0.901443
O O5 0.074866 0.953522 0.834133
O O6 0.038014 0.765228 0.591448
O O7 0.000000 0.288142 0.750000
O O8 0.000000 0.500000 0.500000
#
# Coordination Sequence:
#
# PCOD8248678 Si02
#       4
#     8   4   8   8
#     4  12  28  50  78 117 157 214 267 335 401 484
#     4  12  26  48  78 118 156 208 260 338 398 482
#     4  12  28  50  82 114 163 209 275 333 409 477
#     4  12  26  46  77 112 157 203 264 323 396 470
#
# _framework density 25.747955999999999
#
# number of rings (size 3 to 8) (size 9 to 14) (size 15 to 20)
#    0.000    0.000    4.286    5.143    6.000    4.571 
#    0.000    0.000    0.000    0.000    0.000    0.000 
#    0.000    0.000    0.000    0.000    0.000    0.000 
#
# Total GULP energy -346983.698345 kJ/mol
# GULP energy per Si atom -12392.274941 kJ/mol
# Density = 2.568935 g / cm^3
# Si number density = 25.747956 Si / 1000 Ang^3
#
#
#
# Elastic Constant Matrix: (Units=GPa)
#
#
# Indices 1 2 3 4 5 6 
#
# 1 157.6843 55.6206 33.7519 0.0000 0.0000 0.0000
# 2 55.6206 99.4627 10.0606 0.0000 0.0000 0.0000
# 3 33.7519 10.0606 134.8441 0.0000 0.0000 0.0000
# 4 0.0000 0.0000 0.0000 28.3619 0.0000 0.0000
# 5 0.0000 0.0000 0.0000 0.0000 47.1616 0.0000
# 6 0.0000 0.0000 0.0000 0.0000 0.0000 42.7697
#
#
#
# Elastic Compliance Matrix: (Units=1/GPa)
#
#
# Indices 1 2 3 4 5 6 
#
# 1 0.008287 -0.004458 -0.001742 0.000000 0.000000 0.000000
# 2 -0.004458 0.012529 0.000181 0.000000 0.000000 0.000000
# 3 -0.001742 0.000181 0.007838 0.000000 0.000000 0.000000
# 4 0.000000 0.000000 0.000000 0.035259 0.000000 0.000000
# 5 0.000000 0.000000 0.000000 0.000000 0.021204 0.000000
# 6 0.000000 0.000000 0.000000 0.000000 0.000000 0.023381
#
#
# Mechanical properties :
#
#
# Convention : Reuss Voigt Hill
#
# Bulk Modulus (GPa) = 60.17950 65.65080 62.91515
# Shear Modulus (GPa) = 39.65931 43.16249 41.41090
#
# Velocity S-wave (km/s) = 3.92891 4.09876 4.01473
# Velocity P-wave (km/s) = 6.63363 6.92478 6.78077
#
# Compressibility (1/GPa) = 0.01661696
#
# Stress axis : x y z
#
# Youngs Moduli (GPa) = 120.66957 79.81674 127.57692
#
# Poissons Ratio (x) = 0.35583 0.22220
# Poissons Ratio (y) = 0.53795 -0.02311
# Poissons Ratio (z) = 0.21017 -0.01446
#
# Static dielectric constant tensor:
#      x y z
#    x 4.898300 0.000000 0.000000 
#    y 0.000000 4.827630 0.000000 
#    z 0.000000 0.000000 5.015900 
# 
# 
# High freq. dielectric constant tensor:
#      x y z
#    x 2.037340 0.000000 0.000000 
#    y 0.000000 2.017110 0.000000 
#    z 0.000000 0.000000 2.056150 
# 
# From -- ./inp_files/5432.got.cif
#   From: 2010.03.12/outbox.cif.g09.slc.cpg/sg60_3_cif.got.tgz:5432.got - 2010.04.10 18:46:24.
