data_PCOD8248417
_publ_section_title
;
Structure prediction by ZEFSAII (Michael W. Deem and Ramdas Pophale) SiO2 
 PCOD8248417
Probable space group: P B C N
;
_chemical_formula_sum "Si O2"
_cell_formula_units_Z 36
_cell_length_a 5.633785
_cell_length_b 19.996794
_cell_length_c 12.393530
_cell_angle_alpha 90.000000
_cell_angle_beta 90.000000
_cell_angle_gamma 90.000000
_cell_volume 1396.225817
_symmetry_space_group_name_H-M "P B C N"
_symmetry_group_IT_number 60
_symmetry_cell_setting 'orthorhombic'
loop_
_space_group_symop_operation_xyz
x,y,z
1/2-x,1/2-y,1/2+z
1/2+x,1/2-y,-z
-x,y,1/2-z
-x,-y,-z
1/2+x,1/2+y,1/2-z
1/2-x,1/2+y,z
x,-y,1/2+z
loop_
_atom_site_type_symbol
_atom_site_label
_atom_site_fract_x
_atom_site_fract_y
_atom_site_fract_z
Si Si1 0.332364 0.938824 0.353455
Si Si2 0.143840 0.239772 0.144361
Si Si3 0.008333 0.342567 0.523846
Si Si4 0.500000 0.339590 0.250000
Si Si5 0.246560 0.915012 0.812298
O O1 0.500000 0.934957 0.250000
O O2 0.462789 0.912866 0.461173
O O3 0.123729 0.885893 0.338079
O O4 0.226210 0.012582 0.369971
O O5 0.269018 0.171751 0.103650
O O6 0.332065 0.294981 0.178032
O O7 0.000000 0.218177 0.250000
O O8 0.993953 0.276695 0.051217
O O9 0.772327 0.355366 0.597885
O O10 0.500000 0.915252 0.750000
O O11 0.000000 0.902988 0.750000
#
# Coordination Sequence:
#
# PCOD8248417 Si02
#       5
#     8   8   8   4   8
#     4  11  22  49  78 113 155 203 262 329 394 472
#     4  12  28  49  74 113 160 203 262 329 392 473
#     4  12  26  49  78 114 151 215 267 318 404 483
#     4  12  20  46  80 102 154 200 252 322 394 462
#     4  11  28  50  78 117 162 206 264 339 397 464
#
# _framework density 25.783797
#
# number of rings (size 3 to 8) (size 9 to 14) (size 15 to 20)
#    0.000    0.444    5.556    2.000    1.556    4.444 
#    0.000    4.444    0.000    0.000    0.000    0.000 
#    0.000    0.000    0.000    0.000    0.000    0.000 
#
# Total GULP energy -446287.638263 kJ/mol
# GULP energy per Si atom -12396.878841 kJ/mol
# Density = 2.572511 g / cm^3
# Si number density = 25.783797 Si / 1000 Ang^3
#
#
#
# Elastic Constant Matrix: (Units=GPa)
#
#
# Indices 1 2 3 4 5 6 
#
# 1 128.5730 31.9013 72.6774 0.0000 0.0000 0.0000
# 2 31.9013 133.4127 66.1222 0.0000 0.0000 0.0000
# 3 72.6774 66.1222 151.9239 0.0000 0.0000 0.0000
# 4 0.0000 0.0000 0.0000 20.6762 0.0000 0.0000
# 5 0.0000 0.0000 0.0000 0.0000 52.5247 0.0000
# 6 0.0000 0.0000 0.0000 0.0000 0.0000 26.7847
#
#
#
# Elastic Compliance Matrix: (Units=1/GPa)
#
#
# Indices 1 2 3 4 5 6 
#
# 1 0.010660 -0.000027 -0.005088 0.000000 0.000000 0.000000
# 2 -0.000027 0.009557 -0.004146 0.000000 0.000000 0.000000
# 3 -0.005088 -0.004146 0.010821 0.000000 0.000000 0.000000
# 4 0.000000 0.000000 0.000000 0.048365 0.000000 0.000000
# 5 0.000000 0.000000 0.000000 0.000000 0.019039 0.000000
# 6 0.000000 0.000000 0.000000 0.000000 0.000000 0.037335
#
#
# Mechanical properties :
#
#
# Convention : Reuss Voigt Hill
#
# Bulk Modulus (GPa) = 79.90414 83.92348 81.91381
# Shear Modulus (GPa) = 31.55138 36.21104 33.88121
#
# Velocity S-wave (km/s) = 3.50192 3.75161 3.62892
# Velocity P-wave (km/s) = 6.88539 7.16838 7.02831
#
# Compressibility (1/GPa) = 0.01251500
#
# Stress axis : x y z
#
# Youngs Moduli (GPa) = 93.80494 104.63342 92.41469
#
# Poissons Ratio (x) = 0.00288 0.47018
# Poissons Ratio (y) = 0.00258 0.38319
# Poissons Ratio (z) = 0.47726 0.43386
#
# Static dielectric constant tensor:
#      x y z
#    x 4.726480 0.000000 0.000000 
#    y 0.000000 4.961840 0.000000 
#    z 0.000000 0.000000 4.881980 
# 
# 
# High freq. dielectric constant tensor:
#      x y z
#    x 2.030160 0.000000 0.000000 
#    y 0.000000 2.053670 0.000000 
#    z 0.000000 0.000000 2.036870 
# 
# From -- ./inp_files/8992.got.cif
#   From: 2010.03.12/outbox.cif.g09.slc.cpg/sg60_5_cif.got.tgz:8992.got - 2010.04.10 18:46:24.
