data_PCOD8248949
_publ_section_title
;
Structure prediction by ZEFSAII (Michael W. Deem and Ramdas Pophale) SiO2 
 PCOD8248949
Probable space group: P B C A
;
_chemical_formula_sum "Si O2"
_cell_formula_units_Z 40
_cell_length_a 12.066944
_cell_length_b 11.839306
_cell_length_c 13.051445
_cell_angle_alpha 90.000000
_cell_angle_beta 90.000000
_cell_angle_gamma 90.000000
_cell_volume 1864.584803
_symmetry_space_group_name_H-M "P B C A"
_symmetry_group_IT_number 61
_symmetry_cell_setting 'orthorhombic'
loop_
_space_group_symop_operation_xyz
x,y,z
1/2-x,-y,1/2+z
1/2+x,1/2-y,-z
-x,1/2+y,1/2-z
-x,-y,-z
1/2+x,y,1/2-z
1/2-x,1/2+y,z
x,1/2-y,1/2+z
loop_
_atom_site_type_symbol
_atom_site_label
_atom_site_fract_x
_atom_site_fract_y
_atom_site_fract_z
Si Si1 0.672484 0.594218 0.942234
Si Si2 0.743994 0.463170 0.759107
Si Si3 0.179211 0.403553 0.419620
Si Si4 0.877019 0.848311 0.573073
Si Si5 0.375762 0.347533 0.564064
O O1 0.665187 0.538685 0.830450
O O2 0.610356 0.712414 0.942276
O O3 0.615523 0.503524 0.018968
O O4 0.801100 0.611576 0.978313
O O5 0.815796 0.555023 0.697168
O O6 0.672797 0.386670 0.681968
O O7 0.820457 0.381337 0.827780
O O8 0.113829 0.287443 0.426409
O O9 0.303593 0.391369 0.468102
O O10 0.000248 0.897754 0.557235
#
# Coordination Sequence:
#
# PCOD8248949 Si02
#       5
#     8   8   8   8   8
#     4   9  20  38  57  82 117 147 186 237 280 331
#     4  10  20  36  56  84 116 146 186 236 280 334
#     4   9  20  38  57  82 117 147 186 237 280 331
#     4  10  21  38  60  84 113 152 192 231 282 339
#     4  10  21  38  60  84 113 152 192 231 282 339
#
# _framework density 21.452497999999999
#
# number of rings (size 3 to 8) (size 9 to 14) (size 15 to 20)
#    0.000    2.400    0.000    1.200    0.000    9.600 
#    0.000   28.000    0.000    0.000    0.000    0.000 
#    0.000    0.000    0.000    0.000    0.000    0.000 
#
# Total GULP energy -495776.904409 kJ/mol
# GULP energy per Si atom -12394.422610 kJ/mol
# Density = 2.140367 g / cm^3
# Si number density = 21.452498 Si / 1000 Ang^3
#
#
#
# Elastic Constant Matrix: (Units=GPa)
#
#
# Indices 1 2 3 4 5 6 
#
# 1 86.9479 -18.6880 -1.2739 0.0000 0.0000 0.0000
# 2 -18.6880 107.1578 11.1937 0.0000 0.0000 0.0000
# 3 -1.2739 11.1937 100.7203 0.0000 0.0000 0.0000
# 4 0.0000 0.0000 0.0000 39.8297 0.0000 0.0000
# 5 0.0000 0.0000 0.0000 0.0000 11.5096 0.0000
# 6 0.0000 0.0000 0.0000 0.0000 0.0000 -2.4759
#
#
#
# Elastic Compliance Matrix: (Units=1/GPa)
#
#
# Indices 1 2 3 4 5 6 
#
# 1 0.011950 0.002092 -0.000081 0.000000 0.000000 0.000000
# 2 0.002092 0.009808 -0.001064 0.000000 0.000000 0.000000
# 3 -0.000081 -0.001064 0.010046 0.000000 0.000000 0.000000
# 4 0.000000 0.000000 0.000000 0.025107 0.000000 0.000000
# 5 0.000000 0.000000 0.000000 0.000000 0.086884 0.000000
# 6 0.000000 0.000000 0.000000 0.000000 0.000000 -0.403889
#
#
# Mechanical properties :
#
#
# Convention : Reuss Voigt Hill
#
# Bulk Modulus (GPa) = 29.67496 30.80995 30.24246
# Shear Modulus (GPa) = -19.93962 30.01229 5.03633
#
# Velocity S-wave (km/s) = -3.05204 3.74439 1.53387
# Velocity P-wave (km/s) = 1.20123 5.75214 4.15512
#
# Compressibility (1/GPa) = 0.03369844
#
# Stress axis : x y z
#
# Youngs Moduli (GPa) = 83.68411 101.95699 99.54556
#
# Poissons Ratio (x) = -0.21334 0.00810
# Poissons Ratio (y) = -0.17511 0.10587
# Poissons Ratio (z) = 0.00681 0.10844
#
# Static dielectric constant tensor:
#      x y z
#    x 3.381170 0.000000 0.000000 
#    y 0.000000 4.241020 0.000000 
#    z 0.000000 0.000000 3.803980 
# 
# 
# High freq. dielectric constant tensor:
#      x y z
#    x 1.810770 0.000000 0.000000 
#    y 0.000000 1.872390 0.000000 
#    z 0.000000 0.000000 1.838360 
# 
# From -- ./inp_files/5111.got.cif
#   From: 2010.03.12/outbox.cif.g09.slc.cpg/sg61_3_cif.got.tgz:5111.got - 2010.04.10 19:05:03.
