data_PCOD8248793
_publ_section_title
;
Structure prediction by ZEFSAII (Michael W. Deem and Ramdas Pophale) SiO2 
 PCOD8248793
Probable space group: P B C A
;
_chemical_formula_sum "Si O2"
_cell_formula_units_Z 56
_cell_length_a 5.113099
_cell_length_b 31.967924
_cell_length_c 16.518861
_cell_angle_alpha 90.000000
_cell_angle_beta 90.000000
_cell_angle_gamma 90.000000
_cell_volume 2700.093072
_symmetry_space_group_name_H-M "P B C A"
_symmetry_group_IT_number 61
_symmetry_cell_setting 'orthorhombic'
loop_
_space_group_symop_operation_xyz
x,y,z
1/2-x,-y,1/2+z
1/2+x,1/2-y,-z
-x,1/2+y,1/2-z
-x,-y,-z
1/2+x,y,1/2-z
1/2-x,1/2+y,z
x,1/2-y,1/2+z
loop_
_atom_site_type_symbol
_atom_site_label
_atom_site_fract_x
_atom_site_fract_y
_atom_site_fract_z
Si Si1 0.283259 0.842728 0.949084
Si Si2 0.211222 0.103820 0.041537
Si Si3 0.812310 0.023745 0.721859
Si Si4 0.250385 0.479261 0.461569
Si Si5 0.385585 0.933065 0.709114
Si Si6 0.161093 0.778846 0.808087
Si Si7 0.470292 0.231935 0.962149
O O1 0.518209 0.874685 0.931319
O O2 0.192277 0.818814 0.867430
O O3 0.021785 0.864720 0.983428
O O4 0.396596 0.812721 0.019840
O O5 0.112130 0.074822 0.114316
O O6 0.258770 0.071248 0.968789
O O7 0.581288 0.049917 0.766509
O O8 0.752425 0.009911 0.632057
O O9 0.895356 0.982665 0.774615
O O10 0.500000 0.500000 0.500000
O O11 0.000000 0.500000 0.500000
O O12 0.639557 0.911198 0.747655
O O13 0.420204 0.778462 0.753724
O O14 0.117144 0.738913 0.868332
O O15 0.203619 0.235093 0.015822
#
# Coordination Sequence:
#
# PCOD8248793 Si02
#       7
#     8   8   8   8   8   8   8
#     4  11  24  40  59  90 130 163 194 247 318 379
#     4  12  24  37  59  88 121 162 204 256 318 379
#     4  10  20  36  57  79 107 146 196 258 312 354
#     4  12  23  40  62  86 117 162 224 270 302 377
#     4  10  19  33  50  76 110 147 187 234 306 368
#     4  11  22  38  64  98 127 162 208 252 298 365
#     4  10  20  40  65  87 124 172 209 241 293 372
#
# _framework density 20.740023999999998
#
# number of rings (size 3 to 8) (size 9 to 14) (size 15 to 20)
#    0.000    1.143    0.000   10.286    0.000    3.429 
#    0.000    0.000    0.000    5.143    0.000    0.000 
#    0.000    0.000    0.000    0.000    0.000    0.000 
#
# Total GULP energy -693838.381789 kJ/mol
# GULP energy per Si atom -12389.971103 kJ/mol
# Density = 2.069282 g / cm^3
# Si number density = 20.740024 Si / 1000 Ang^3
#
#
#
# Elastic Constant Matrix: (Units=GPa)
#
#
# Indices 1 2 3 4 5 6 
#
# 1 167.6031 25.8220 61.2086 0.0000 0.0000 0.0000
# 2 25.8220 74.6524 33.3196 0.0000 0.0000 0.0000
# 3 61.2086 33.3196 96.7770 0.0000 0.0000 0.0000
# 4 0.0000 0.0000 0.0000 25.1515 0.0000 0.0000
# 5 0.0000 0.0000 0.0000 0.0000 40.7451 0.0000
# 6 0.0000 0.0000 0.0000 0.0000 0.0000 27.4411
#
#
#
# Elastic Compliance Matrix: (Units=1/GPa)
#
#
# Indices 1 2 3 4 5 6 
#
# 1 0.007780 -0.000585 -0.004719 0.000000 0.000000 0.000000
# 2 -0.000585 0.015872 -0.005095 0.000000 0.000000 0.000000
# 3 -0.004719 -0.005095 0.015072 0.000000 0.000000 0.000000
# 4 0.000000 0.000000 0.000000 0.039759 0.000000 0.000000
# 5 0.000000 0.000000 0.000000 0.000000 0.024543 0.000000
# 6 0.000000 0.000000 0.000000 0.000000 0.000000 0.036442
#
#
# Mechanical properties :
#
#
# Convention : Reuss Voigt Hill
#
# Bulk Modulus (GPa) = 55.78444 64.41476 60.09960
# Shear Modulus (GPa) = 30.07702 33.24636 31.66169
#
# Velocity S-wave (km/s) = 3.81227 4.00810 3.91141
# Velocity P-wave (km/s) = 6.80685 7.24882 7.03131
#
# Compressibility (1/GPa) = 0.01792614
#
# Stress axis : x y z
#
# Youngs Moduli (GPa) = 128.53367 63.00581 66.34851
#
# Poissons Ratio (x) = 0.03684 0.31312
# Poissons Ratio (y) = 0.07516 0.33802
# Poissons Ratio (z) = 0.60659 0.32099
#
# Static dielectric constant tensor:
#      x y z
#    x 4.853870 0.000000 0.000000 
#    y 0.000000 3.602460 0.000000 
#    z 0.000000 0.000000 3.619880 
# 
# 
# High freq. dielectric constant tensor:
#      x y z
#    x 1.857930 0.000000 0.000000 
#    y 0.000000 1.770480 0.000000 
#    z 0.000000 0.000000 1.801860 
# 
# From -- ./inp_files/6881.got.cif
#   From: 2010.03.12/outbox.cif.g09.slc.cpg/sg61_4_cif.got.tgz:6881.got - 2010.04.10 19:05:03.
