data_PCOD8248612
_publ_section_title
;
Structure prediction by ZEFSAII (Michael W. Deem and Ramdas Pophale) SiO2 
 PCOD8248612
Probable space group: P B C N
;
_chemical_formula_sum "Si O2"
_cell_formula_units_Z 32
_cell_length_a 4.898778
_cell_length_b 21.874142
_cell_length_c 13.135685
_cell_angle_alpha 90.000000
_cell_angle_beta 90.000000
_cell_angle_gamma 90.000000
_cell_volume 1407.574891
_symmetry_space_group_name_H-M "P B C N"
_symmetry_group_IT_number 60
_symmetry_cell_setting 'orthorhombic'
loop_
_space_group_symop_operation_xyz
x,y,z
1/2-x,1/2-y,1/2+z
1/2+x,1/2-y,-z
-x,y,1/2-z
-x,-y,-z
1/2+x,1/2+y,1/2-z
1/2-x,1/2+y,z
x,-y,1/2+z
loop_
_atom_site_type_symbol
_atom_site_label
_atom_site_fract_x
_atom_site_fract_y
_atom_site_fract_z
Si Si1 0.144630 0.258302 0.433649
Si Si2 0.745340 0.640589 0.179901
Si Si3 0.618759 0.565669 0.976850
Si Si4 0.099848 0.391298 0.362854
O O1 0.385020 0.273946 0.513189
O O2 0.263614 0.212448 0.348391
O O3 0.032827 0.320533 0.385027
O O4 0.500000 0.624148 0.250000
O O5 0.687743 0.602782 0.078459
O O6 0.000000 0.621173 0.250000
O O7 0.500000 0.500000 0.000000
O O8 0.916133 0.561681 0.926963
O O9 0.415093 0.597860 0.894638
O O10 0.000000 0.405683 0.250000
#
# Coordination Sequence:
#
# PCOD8248612 Si02
#       4
#     8   8   8   8
#     4  12  22  43  72 102 146 183 224 296 368 429
#     4  12  25  43  71 104 143 188 238 293 364 434
#     4  12  27  48  70 101 145 189 242 299 349 421
#     4  12  25  46  74 105 138 188 237 295 364 431
#
# _framework density 22.734134000000001
#
# number of rings (size 3 to 8) (size 9 to 14) (size 15 to 20)
#    0.000    0.000    5.000    5.250    0.000    5.000 
#    0.000    0.000    0.000    0.000    0.000    0.000 
#    0.000    0.000    0.000    0.000    0.000    0.000 
#
# Total GULP energy -396617.683297 kJ/mol
# GULP energy per Si atom -12394.302603 kJ/mol
# Density = 2.268239 g / cm^3
# Si number density = 22.734134 Si / 1000 Ang^3
#
#
#
# Elastic Constant Matrix: (Units=GPa)
#
#
# Indices 1 2 3 4 5 6 
#
# 1 129.4445 11.1627 45.3850 0.0000 0.0000 0.0000
# 2 11.1627 95.8919 20.7328 0.0000 0.0000 0.0000
# 3 45.3850 20.7328 135.7321 0.0000 0.0000 0.0000
# 4 0.0000 0.0000 0.0000 14.4800 0.0000 0.0000
# 5 0.0000 0.0000 0.0000 0.0000 -4.7299 0.0000
# 6 0.0000 0.0000 0.0000 0.0000 0.0000 30.9591
#
#
#
# Elastic Compliance Matrix: (Units=1/GPa)
#
#
# Indices 1 2 3 4 5 6 
#
# 1 0.008766 -0.000400 -0.002870 0.000000 0.000000 0.000000
# 2 -0.000400 0.010803 -0.001516 0.000000 0.000000 0.000000
# 3 -0.002870 -0.001516 0.008559 0.000000 0.000000 0.000000
# 4 0.000000 0.000000 0.000000 0.069061 0.000000 0.000000
# 5 0.000000 0.000000 0.000000 0.000000 -0.211422 0.000000
# 6 0.000000 0.000000 0.000000 0.000000 0.000000 0.032301
#
#
# Mechanical properties :
#
#
# Convention : Reuss Voigt Hill
#
# Bulk Modulus (GPa) = 53.89399 57.29216 55.59308
# Shear Modulus (GPa) = -75.55774 27.06103 -24.24835
#
# Velocity S-wave (km/s) = -5.77127 3.45385 -3.26944
# Velocity P-wave (km/s) = 4.54449 6.41569 3.20225
#
# Compressibility (1/GPa) = 0.01855494
#
# Stress axis : x y z
#
# Youngs Moduli (GPa) = 114.07604 92.56845 116.83964
#
# Poissons Ratio (x) = 0.03702 0.33533
# Poissons Ratio (y) = 0.04562 0.17717
# Poissons Ratio (z) = 0.32740 0.14037
#
# Static dielectric constant tensor:
#      x y z
#    x 4.041260 0.000000 0.000000 
#    y 0.000000 3.420370 0.000000 
#    z 0.000000 0.000000 4.331240 
# 
# 
# High freq. dielectric constant tensor:
#      x y z
#    x 1.917040 0.000000 0.000000 
#    y 0.000000 1.888440 0.000000 
#    z 0.000000 0.000000 1.908370 
# 
# From -- ./inp_files/8906.got.cif
#   From: 2010.03.12/outbox.cif.g09.slc.cpg/sg60_5_cif.got.tgz:8906.got - 2010.04.10 18:46:24.
