data_PCOD8248173
_publ_section_title
;
Structure prediction by ZEFSAII (Michael W. Deem and Ramdas Pophale) SiO2 
 PCOD8248173
Probable space group: P B C N
;
_chemical_formula_sum "Si O2"
_cell_formula_units_Z 48
_cell_length_a 25.243200
_cell_length_b 8.676528
_cell_length_c 9.823107
_cell_angle_alpha 90.000000
_cell_angle_beta 90.000000
_cell_angle_gamma 90.000000
_cell_volume 2151.489622
_symmetry_space_group_name_H-M "P B C N"
_symmetry_group_IT_number 60
_symmetry_cell_setting 'orthorhombic'
loop_
_space_group_symop_operation_xyz
x,y,z
1/2-x,1/2-y,1/2+z
1/2+x,1/2-y,-z
-x,y,1/2-z
-x,-y,-z
1/2+x,1/2+y,1/2-z
1/2-x,1/2+y,z
x,-y,1/2+z
loop_
_atom_site_type_symbol
_atom_site_label
_atom_site_fract_x
_atom_site_fract_y
_atom_site_fract_z
Si Si1 0.705567 0.349614 0.398999
Si Si2 0.463572 0.529378 0.626072
Si Si3 0.207351 0.315672 0.332124
Si Si4 0.355327 0.652154 0.114485
Si Si5 0.900734 0.330904 0.848808
Si Si6 0.370085 0.061186 0.429197
O O1 0.729342 0.282197 0.539833
O O2 0.748583 0.348348 0.280253
O O3 0.688156 0.524739 0.427060
O O4 0.656493 0.248586 0.349919
O O5 0.500000 0.482857 0.750000
O O6 0.500000 0.500000 0.500000
O O7 0.413236 0.418838 0.625366
O O8 0.446981 0.708035 0.629305
O O9 0.158996 0.222276 0.262029
O O10 0.184372 0.477377 0.385701
O O11 0.353353 0.778628 0.996827
O O12 0.907409 0.409599 0.701339
O O13 0.904407 0.459112 0.966119
#
# Coordination Sequence:
#
# PCOD8248173 Si02
#       6
#     8   8   8   8   8   8
#     4  10  27  43  70 101 145 191 249 287 354 432
#     4  11  26  48  78 106 138 189 252 302 366 439
#     4  11  26  45  67 105 145 194 238 296 364 429
#     4  11  26  45  76 104 145 191 244 302 359 436
#     4  10  24  45  71 104 147 186 236 306 361 431
#     4  11  23  46  70 101 147 186 232 294 374 424
#
# _framework density 22.310123000000001
#
# number of rings (size 3 to 8) (size 9 to 14) (size 15 to 20)
#    0.000    1.333    1.667    1.000   16.333    0.000 
#    0.000    7.500    0.000    0.000    0.000    0.000 
#    0.000    0.000    0.000    0.000    0.000    0.000 
#
# Total GULP energy -595450.190729 kJ/mol
# GULP energy per Si atom -12405.212307 kJ/mol
# Density = 2.225934 g / cm^3
# Si number density = 22.310123 Si / 1000 Ang^3
#
#
#
# Elastic Constant Matrix: (Units=GPa)
#
#
# Indices 1 2 3 4 5 6 
#
# 1 116.9939 64.4851 70.3330 0.0000 0.0000 0.0000
# 2 64.4851 167.2385 90.4336 0.0000 0.0000 0.0000
# 3 70.3330 90.4336 198.9204 0.0000 0.0000 0.0000
# 4 0.0000 0.0000 0.0000 40.9484 0.0000 0.0000
# 5 0.0000 0.0000 0.0000 0.0000 31.7378 0.0000
# 6 0.0000 0.0000 0.0000 0.0000 0.0000 25.4144
#
#
#
# Elastic Compliance Matrix: (Units=1/GPa)
#
#
# Indices 1 2 3 4 5 6 
#
# 1 0.011941 -0.003078 -0.002823 0.000000 0.000000 0.000000
# 2 -0.003078 0.008722 -0.002877 0.000000 0.000000 0.000000
# 3 -0.002823 -0.002877 0.007333 0.000000 0.000000 0.000000
# 4 0.000000 0.000000 0.000000 0.024421 0.000000 0.000000
# 5 0.000000 0.000000 0.000000 0.000000 0.031508 0.000000
# 6 0.000000 0.000000 0.000000 0.000000 0.000000 0.039348
#
#
# Mechanical properties :
#
#
# Convention : Reuss Voigt Hill
#
# Bulk Modulus (GPa) = 95.77747 103.73957 99.75852
# Shear Modulus (GPa) = 34.64807 36.81352 35.73079
#
# Velocity S-wave (km/s) = 3.94511 4.06653 4.00628
# Velocity P-wave (km/s) = 7.98593 8.28545 8.13707
#
# Compressibility (1/GPa) = 0.01044087
#
# Stress axis : x y z
#
# Youngs Moduli (GPa) = 83.74618 114.65294 136.36810
#
# Poissons Ratio (x) = 0.35289 0.38493
# Poissons Ratio (y) = 0.25776 0.39232
# Poissons Ratio (z) = 0.23639 0.32985
#
# Static dielectric constant tensor:
#      x y z
#    x 3.812880 0.000000 0.000000 
#    y 0.000000 4.355680 0.000000 
#    z 0.000000 0.000000 4.306180 
# 
# 
# High freq. dielectric constant tensor:
#      x y z
#    x 1.859880 0.000000 0.000000 
#    y 0.000000 1.895910 0.000000 
#    z 0.000000 0.000000 1.899210 
# 
# From -- ./inp_files/8418.got.cif
#   From: 2010.03.12/outbox.cif.g09.slc.cpg/sg60_5_cif.got.tgz:8418.got - 2010.04.10 18:46:24.
