data_PCOD8248700
_publ_section_title
;
Structure prediction by ZEFSAII (Michael W. Deem and Ramdas Pophale) SiO2 
 PCOD8248700
Probable space group: P B C A
;
_chemical_formula_sum "Si O2"
_cell_formula_units_Z 48
_cell_length_a 18.169332
_cell_length_b 26.480656
_cell_length_c 5.205356
_cell_angle_alpha 90.000000
_cell_angle_beta 90.000000
_cell_angle_gamma 90.000000
_cell_volume 2504.483282
_symmetry_space_group_name_H-M "P B C A"
_symmetry_group_IT_number 61
_symmetry_cell_setting 'orthorhombic'
loop_
_space_group_symop_operation_xyz
x,y,z
1/2-x,-y,1/2+z
1/2+x,1/2-y,-z
-x,1/2+y,1/2-z
-x,-y,-z
1/2+x,y,1/2-z
1/2-x,1/2+y,z
x,1/2-y,1/2+z
loop_
_atom_site_type_symbol
_atom_site_label
_atom_site_fract_x
_atom_site_fract_y
_atom_site_fract_z
Si Si1 0.042580 0.982751 0.751910
Si Si2 0.426266 0.219517 0.379072
Si Si3 0.245704 0.719393 0.376529
Si Si4 0.862987 0.930745 0.154798
Si Si5 0.513659 0.380872 0.872372
Si Si6 0.335361 0.881302 0.842590
O O1 0.122759 0.009996 0.773941
O O2 0.000000 0.000000 0.500000
O O3 0.045016 0.921663 0.757532
O O4 0.000000 0.000000 0.000000
O O5 0.448321 0.259135 0.600666
O O6 0.340260 0.206976 0.378147
O O7 0.469490 0.168801 0.444934
O O8 0.268228 0.740848 0.654791
O O9 0.287998 0.668554 0.310326
O O10 0.816301 0.906766 0.386115
O O11 0.943513 0.903420 0.122842
O O12 0.817455 0.921107 0.890295
O O13 0.577332 0.368073 0.662975
#
# Coordination Sequence:
#
# PCOD8248700 Si02
#       6
#     8   8   8   8   8   8
#     4  10  16  30  50  75 106 131 160 195 251 310
#     4  10  23  37  52  71 103 136 170 209 253 303
#     4  10  21  38  52  69  97 141 175 202 253 311
#     4   9  18  31  49  80 103 127 161 209 251 294
#     4   9  21  31  55  78 102 132 167 209 253 290
#     4  10  19  31  52  75 101 127 167 212 248 292
#
# _framework density 19.165631000000001
#
# number of rings (size 3 to 8) (size 9 to 14) (size 15 to 20)
#    1.000    1.333    1.667    1.000    2.333    1.333 
#    0.000    0.000    0.000    2.000    0.000    0.000 
#    0.000    0.000    0.000    0.000    0.000    0.000 
#
# Total GULP energy -594630.078623 kJ/mol
# GULP energy per Si atom -12388.126638 kJ/mol
# Density = 1.912201 g / cm^3
# Si number density = 19.165631 Si / 1000 Ang^3
#
#
#
# Elastic Constant Matrix: (Units=GPa)
#
#
# Indices 1 2 3 4 5 6 
#
# 1 18.1517 19.0693 8.3320 0.0000 0.0000 0.0000
# 2 19.0693 71.6081 9.3853 0.0000 0.0000 0.0000
# 3 8.3320 9.3853 122.1932 0.0000 0.0000 0.0000
# 4 0.0000 0.0000 0.0000 25.6513 0.0000 0.0000
# 5 0.0000 0.0000 0.0000 0.0000 12.8202 0.0000
# 6 0.0000 0.0000 0.0000 0.0000 0.0000 -13.9819
#
#
#
# Elastic Compliance Matrix: (Units=1/GPa)
#
#
# Indices 1 2 3 4 5 6 
#
# 1 0.078172 -0.020323 -0.003769 0.000000 0.000000 0.000000
# 2 -0.020323 0.019391 -0.000104 0.000000 0.000000 0.000000
# 3 -0.003769 -0.000104 0.008449 0.000000 0.000000 0.000000
# 4 0.000000 0.000000 0.000000 0.038984 0.000000 0.000000
# 5 0.000000 0.000000 0.000000 0.000000 0.078002 0.000000
# 6 0.000000 0.000000 0.000000 0.000000 0.000000 -0.071521
#
#
# Mechanical properties :
#
#
# Convention : Reuss Voigt Hill
#
# Bulk Modulus (GPa) = 17.35535 31.72514 24.54024
# Shear Modulus (GPa) = 22.82317 16.57567 19.69942
#
# Velocity S-wave (km/s) = 3.45460 2.94405 3.20949
# Velocity P-wave (km/s) = 4.99874 5.30525 5.15427
#
# Compressibility (1/GPa) = 0.05761914
#
# Stress axis : x y z
#
# Youngs Moduli (GPa) = 12.79226 51.57141 118.36088
#
# Poissons Ratio (x) = 1.04810 0.44614
# Poissons Ratio (y) = 0.25998 0.01226
# Poissons Ratio (z) = 0.04822 0.00534
#
# Static dielectric constant tensor:
#      x y z
#    x 3.070710 0.000000 0.000000 
#    y 0.000000 3.592070 0.000000 
#    z 0.000000 0.000000 3.588570 
# 
# 
# High freq. dielectric constant tensor:
#      x y z
#    x 1.698050 0.000000 0.000000 
#    y 0.000000 1.741550 0.000000 
#    z 0.000000 0.000000 1.759880 
# 
# From -- ./inp_files/743.got.cif
#   From: 2010.03.12/outbox.cif.g09.slc.cpg/sg61_1_cif.got.tgz:743.got - 2010.04.10 19:05:03.
