data_PCOD8248570
_publ_section_title
;
Structure prediction by ZEFSAII (Michael W. Deem and Ramdas Pophale) SiO2 
 PCOD8248570
Probable space group: P B C N
;
_chemical_formula_sum "Si O2"
_cell_formula_units_Z 40
_cell_length_a 8.514891
_cell_length_b 16.535282
_cell_length_c 12.059189
_cell_angle_alpha 90.000000
_cell_angle_beta 90.000000
_cell_angle_gamma 90.000000
_cell_volume 1697.887068
_symmetry_space_group_name_H-M "P B C N"
_symmetry_group_IT_number 60
_symmetry_cell_setting 'orthorhombic'
loop_
_space_group_symop_operation_xyz
x,y,z
1/2-x,1/2-y,1/2+z
1/2+x,1/2-y,-z
-x,y,1/2-z
-x,-y,-z
1/2+x,1/2+y,1/2-z
1/2-x,1/2+y,z
x,-y,1/2+z
loop_
_atom_site_type_symbol
_atom_site_label
_atom_site_fract_x
_atom_site_fract_y
_atom_site_fract_z
Si Si1 0.716380 0.822108 0.152971
Si Si2 0.196777 0.143369 0.408588
Si Si3 0.870704 0.379463 0.369778
Si Si4 0.334120 0.054642 0.211972
Si Si5 0.895646 0.918729 0.984497
O O1 0.761953 0.732429 0.113695
O O2 0.545006 0.847667 0.108984
O O3 0.722515 0.818182 0.287570
O O4 0.841222 0.886086 0.104119
O O5 0.286258 0.106091 0.514263
O O6 0.214609 0.079521 0.308673
O O7 0.010961 0.148154 0.431452
O O8 0.867367 0.459877 0.294822
O O9 0.500000 0.096888 0.250000
O O10 0.259401 0.078267 0.093128
O O11 0.000000 0.000000 0.000000
#
# Coordination Sequence:
#
# PCOD8248570 Si02
#       5
#     8   8   8   8   8
#     4  11  26  46  74 106 153 195 245 309 387 444
#     4  12  27  46  74 110 150 190 252 318 376 443
#     4  11  25  48  73 102 150 201 247 299 380 461
#     4  12  26  47  75 106 145 202 254 303 377 457
#     4  12  26  46  78 111 148 194 255 316 371 452
#
# _framework density 23.558693999999999
#
# number of rings (size 3 to 8) (size 9 to 14) (size 15 to 20)
#    0.000    0.400    4.000    4.200    8.400    2.400 
#    0.000    0.000    0.000    0.000    0.000    0.000 
#    0.000    0.000    0.000    0.000    0.000    0.000 
#
# Total GULP energy -495785.218330 kJ/mol
# GULP energy per Si atom -12394.630458 kJ/mol
# Density = 2.350507 g / cm^3
# Si number density = 23.558694 Si / 1000 Ang^3
#
#
#
# Elastic Constant Matrix: (Units=GPa)
#
#
# Indices 1 2 3 4 5 6 
#
# 1 68.9374 28.8714 25.5562 0.0000 0.0000 0.0000
# 2 28.8714 115.7620 38.6599 0.0000 0.0000 0.0000
# 3 25.5562 38.6599 117.2711 0.0000 0.0000 0.0000
# 4 0.0000 0.0000 0.0000 33.7983 0.0000 0.0000
# 5 0.0000 0.0000 0.0000 0.0000 48.2650 0.0000
# 6 0.0000 0.0000 0.0000 0.0000 0.0000 34.5278
#
#
#
# Elastic Compliance Matrix: (Units=1/GPa)
#
#
# Indices 1 2 3 4 5 6 
#
# 1 0.016861 -0.003346 -0.002571 0.000000 0.000000 0.000000
# 2 -0.003346 0.010371 -0.002690 0.000000 0.000000 0.000000
# 3 -0.002571 -0.002690 0.009974 0.000000 0.000000 0.000000
# 4 0.000000 0.000000 0.000000 0.029587 0.000000 0.000000
# 5 0.000000 0.000000 0.000000 0.000000 0.020719 0.000000
# 6 0.000000 0.000000 0.000000 0.000000 0.000000 0.028962
#
#
# Mechanical properties :
#
#
# Convention : Reuss Voigt Hill
#
# Bulk Modulus (GPa) = 50.02126 54.23841 52.12984
# Shear Modulus (GPa) = 35.62445 37.24375 36.43410
#
# Velocity S-wave (km/s) = 3.89287 3.98036 3.93685
# Velocity P-wave (km/s) = 6.44085 6.64808 6.54529
#
# Compressibility (1/GPa) = 0.01999150
#
# Stress axis : x y z
#
# Youngs Moduli (GPa) = 59.31000 96.41996 100.25790
#
# Poissons Ratio (x) = 0.32266 0.25778
# Poissons Ratio (y) = 0.19848 0.26967
# Poissons Ratio (z) = 0.15249 0.25935
#
# Static dielectric constant tensor:
#      x y z
#    x 4.372100 0.000000 0.000000 
#    y 0.000000 4.113490 0.000000 
#    z 0.000000 0.000000 4.211750 
# 
# 
# High freq. dielectric constant tensor:
#      x y z
#    x 1.935880 0.000000 0.000000 
#    y 0.000000 1.926620 0.000000 
#    z 0.000000 0.000000 1.941310 
# 
# From -- ./inp_files/9787.got.cif
#   From: 2010.03.12/outbox.cif.g09.slc.cpg/sg60_5_cif.got.tgz:9787.got - 2010.04.10 18:46:24.
