data_PCOD8248027
_publ_section_title
;
Structure prediction by ZEFSAII (Michael W. Deem and Ramdas Pophale) SiO2 
 PCOD8248027
Probable space group: P B C N
;
_chemical_formula_sum "Si O2"
_cell_formula_units_Z 52
_cell_length_a 6.613698
_cell_length_b 20.023180
_cell_length_c 18.300125
_cell_angle_alpha 90.000000
_cell_angle_beta 90.000000
_cell_angle_gamma 90.000000
_cell_volume 2423.435512
_symmetry_space_group_name_H-M "P B C N"
_symmetry_group_IT_number 60
_symmetry_cell_setting 'orthorhombic'
loop_
_space_group_symop_operation_xyz
x,y,z
1/2-x,1/2-y,1/2+z
1/2+x,1/2-y,-z
-x,y,1/2-z
-x,-y,-z
1/2+x,1/2+y,1/2-z
1/2-x,1/2+y,z
x,-y,1/2+z
loop_
_atom_site_type_symbol
_atom_site_label
_atom_site_fract_x
_atom_site_fract_y
_atom_site_fract_z
Si Si1 0.500000 0.913010 0.250000
Si Si2 0.884021 0.856685 0.676862
Si Si3 0.120059 0.949899 0.451258
Si Si4 0.604416 0.627220 0.823428
Si Si5 0.765218 0.613689 0.411378
Si Si6 0.521643 0.222471 0.165579
Si Si7 0.605225 0.026011 0.147890
O O1 0.654595 0.871132 0.302543
O O2 0.624382 0.961291 0.198036
O O3 0.758299 0.792292 0.646886
O O4 0.000000 0.835969 0.750000
O O5 0.037747 0.883459 0.617285
O O6 0.719940 0.914843 0.690973
O O7 0.236800 0.894209 0.500874
O O8 0.287523 0.001297 0.424130
O O9 0.966504 0.919055 0.390693
O O10 0.000000 0.000000 0.500000
O O11 0.500000 0.600984 0.750000
O O12 0.531269 0.700779 0.844865
O O13 0.880788 0.681778 0.390725
O O14 0.880706 0.550799 0.374306
O O15 0.500000 0.199424 0.250000
#
# Coordination Sequence:
#
# PCOD8248027 Si02
#       7
#     4   8   8   8   8   8   8
#     4  12  24  42  74 100 132 182 226 292 346 406
#     4  11  21  38  69  98 136 178 228 292 335 409
#     4  12  24  46  68 100 147 182 223 292 366 430
#     4  11  26  48  68 101 137 187 242 292 347 426
#     4  11  23  42  66 100 136 189 223 289 357 410
#     4  10  23  44  67  97 137 178 247 288 343 414
#     4  11  24  39  68 103 139 173 232 279 352 425
#
# _framework density 21.457141
#
# number of rings (size 3 to 8) (size 9 to 14) (size 15 to 20)
#    0.000    0.923    4.615    2.308    4.308    2.462 
#    2.769    0.000    0.000    0.000    0.000    0.000 
#    0.000    0.000    0.000    0.000    0.000    0.000 
#
# Total GULP energy -644304.292951 kJ/mol
# GULP energy per Si atom -12390.467172 kJ/mol
# Density = 2.140830 g / cm^3
# Si number density = 21.457141 Si / 1000 Ang^3
#
#
#
# Elastic Constant Matrix: (Units=GPa)
#
#
# Indices 1 2 3 4 5 6 
#
# 1 145.3229 64.9105 44.0603 0.0000 0.0000 0.0000
# 2 64.9105 120.5618 52.6531 0.0000 0.0000 0.0000
# 3 44.0603 52.6531 111.4082 0.0000 0.0000 0.0000
# 4 0.0000 0.0000 0.0000 37.1820 0.0000 0.0000
# 5 0.0000 0.0000 0.0000 0.0000 45.6466 0.0000
# 6 0.0000 0.0000 0.0000 0.0000 0.0000 165.2704
#
#
#
# Elastic Compliance Matrix: (Units=1/GPa)
#
#
# Indices 1 2 3 4 5 6 
#
# 1 0.009295 -0.004283 -0.001652 0.000000 0.000000 0.000000
# 2 -0.004283 0.012425 -0.004179 0.000000 0.000000 0.000000
# 3 -0.001652 -0.004179 0.011604 0.000000 0.000000 0.000000
# 4 0.000000 0.000000 0.000000 0.026895 0.000000 0.000000
# 5 0.000000 0.000000 0.000000 0.000000 0.021907 0.000000
# 6 0.000000 0.000000 0.000000 0.000000 0.000000 0.006051
#
#
# Mechanical properties :
#
#
# Convention : Reuss Voigt Hill
#
# Bulk Modulus (GPa) = 76.34901 77.83784 77.09343
# Shear Modulus (GPa) = 44.33789 63.99775 54.16782
#
# Velocity S-wave (km/s) = 4.55064 5.46723 5.02986
# Velocity P-wave (km/s) = 7.95427 8.72977 8.35103
#
# Compressibility (1/GPa) = 0.01309775
#
# Stress axis : x y z
#
# Youngs Moduli (GPa) = 107.58295 80.48024 86.17637
#
# Poissons Ratio (x) = 0.34470 0.14235
# Poissons Ratio (y) = 0.46079 0.36009
# Poissons Ratio (z) = 0.17771 0.33629
#
# Static dielectric constant tensor:
#      x y z
#    x 4.287590 0.000000 0.000000 
#    y 0.000000 3.892230 0.000000 
#    z 0.000000 0.000000 3.982720 
# 
# 
# High freq. dielectric constant tensor:
#      x y z
#    x 1.858400 0.000000 0.000000 
#    y 0.000000 1.834110 0.000000 
#    z 0.000000 0.000000 1.833250 
# 
# From -- ./inp_files/21656.got.cif
#   From: 2010.03.12/outbox.cif.g09.slc.cpg/sg60_11_cif.got.tgz:21656.got - 2010.04.10 18:46:24.
