data_PCOD8248585
_publ_section_title
;
Structure prediction by ZEFSAII (Michael W. Deem and Ramdas Pophale) SiO2 
 PCOD8248585
Probable space group: P B C N
;
_chemical_formula_sum "Si O2"
_cell_formula_units_Z 24
_cell_length_a 12.034766
_cell_length_b 7.754407
_cell_length_c 11.108929
_cell_angle_alpha 90.000000
_cell_angle_beta 90.000000
_cell_angle_gamma 90.000000
_cell_volume 1036.712735
_symmetry_space_group_name_H-M "P B C N"
_symmetry_group_IT_number 60
_symmetry_cell_setting 'orthorhombic'
loop_
_space_group_symop_operation_xyz
x,y,z
1/2-x,1/2-y,1/2+z
1/2+x,1/2-y,-z
-x,y,1/2-z
-x,-y,-z
1/2+x,1/2+y,1/2-z
1/2-x,1/2+y,z
x,-y,1/2+z
loop_
_atom_site_type_symbol
_atom_site_label
_atom_site_fract_x
_atom_site_fract_y
_atom_site_fract_z
Si Si1 0.654032 0.811713 0.223363
Si Si2 0.895100 0.304044 0.684798
Si Si3 0.977136 0.186009 0.443825
O O1 0.786170 0.808466 0.209941
O O2 0.597972 0.750974 0.098611
O O3 0.609049 0.691614 0.331847
O O4 0.620254 0.009139 0.244711
O O5 0.922535 0.311635 0.543234
O O6 0.000000 0.212303 0.750000
O O7 0.000000 0.000000 0.500000
#
# Coordination Sequence:
#
# PCOD8248585 Si02
#       3
#     8   8   8
#     4  11  27  48  72 112 148 197 253 308 381 452
#     4  12  27  46  79 106 152 194 250 309 377 445
#     4  11  26  48  75 107 153 195 250 307 382 443
#
# _framework density 23.150096999999999
#
# number of rings (size 3 to 8) (size 9 to 14) (size 15 to 20)
#    0.000    0.667    3.333    3.000   14.000    0.000 
#    0.000    0.000    0.000    0.000    0.000    0.000 
#    0.000    0.000    0.000    0.000    0.000    0.000 
#
# Total GULP energy -297611.200996 kJ/mol
# GULP energy per Si atom -12400.466708 kJ/mol
# Density = 2.309741 g / cm^3
# Si number density = 23.150097 Si / 1000 Ang^3
#
#
#
# Elastic Constant Matrix: (Units=GPa)
#
#
# Indices 1 2 3 4 5 6 
#
# 1 230.6170 29.3287 73.2832 0.0000 0.0000 0.0000
# 2 29.3287 71.8458 33.1016 0.0000 0.0000 0.0000
# 3 73.2832 33.1016 131.9064 0.0000 0.0000 0.0000
# 4 0.0000 0.0000 0.0000 40.6609 0.0000 0.0000
# 5 0.0000 0.0000 0.0000 0.0000 38.5345 0.0000
# 6 0.0000 0.0000 0.0000 0.0000 0.0000 29.4362
#
#
#
# Elastic Compliance Matrix: (Units=1/GPa)
#
#
# Indices 1 2 3 4 5 6 
#
# 1 0.005319 -0.000916 -0.002725 0.000000 0.000000 0.000000
# 2 -0.000916 0.015896 -0.003480 0.000000 0.000000 0.000000
# 3 -0.002725 -0.003480 0.009968 0.000000 0.000000 0.000000
# 4 0.000000 0.000000 0.000000 0.024594 0.000000 0.000000
# 5 0.000000 0.000000 0.000000 0.000000 0.025951 0.000000
# 6 0.000000 0.000000 0.000000 0.000000 0.000000 0.033972
#
#
# Mechanical properties :
#
#
# Convention : Reuss Voigt Hill
#
# Bulk Modulus (GPa) = 59.02862 78.42180 68.72521
# Shear Modulus (GPa) = 36.87635 41.63672 39.25653
#
# Velocity S-wave (km/s) = 3.99548 4.24554 4.12240
# Velocity P-wave (km/s) = 6.84388 7.61457 7.23949
#
# Compressibility (1/GPa) = 0.01694093
#
# Stress axis : x y z
#
# Youngs Moduli (GPa) = 188.02001 62.90899 100.31605
#
# Poissons Ratio (x) = 0.05760 0.27337
# Poissons Ratio (y) = 0.17215 0.34914
# Poissons Ratio (z) = 0.51237 0.21895
#
# Static dielectric constant tensor:
#      x y z
#    x 4.763340 0.000000 0.000000 
#    y 0.000000 3.918730 0.000000 
#    z 0.000000 0.000000 4.278300 
# 
# 
# High freq. dielectric constant tensor:
#      x y z
#    x 1.929980 0.000000 0.000000 
#    y 0.000000 1.909900 0.000000 
#    z 0.000000 0.000000 1.919210 
# 
# From -- ./inp_files/10459.got.cif
#   From: 2010.03.12/outbox.cif.g09.slc.cpg/sg60_6_cif.got.tgz:10459.got - 2010.04.10 18:46:24.
