data_PCOD8248882
_publ_section_title
;
Structure prediction by ZEFSAII (Michael W. Deem and Ramdas Pophale) SiO2 
 PCOD8248882
Probable space group: P B C A
;
_chemical_formula_sum "Si O2"
_cell_formula_units_Z 56
_cell_length_a 18.583791
_cell_length_b 9.836314
_cell_length_c 15.922589
_cell_angle_alpha 90.000000
_cell_angle_beta 90.000000
_cell_angle_gamma 90.000000
_cell_volume 2910.585636
_symmetry_space_group_name_H-M "P B C A"
_symmetry_group_IT_number 61
_symmetry_cell_setting 'orthorhombic'
loop_
_space_group_symop_operation_xyz
x,y,z
1/2-x,-y,1/2+z
1/2+x,1/2-y,-z
-x,1/2+y,1/2-z
-x,-y,-z
1/2+x,y,1/2-z
1/2-x,1/2+y,z
x,1/2-y,1/2+z
loop_
_atom_site_type_symbol
_atom_site_label
_atom_site_fract_x
_atom_site_fract_y
_atom_site_fract_z
Si Si1 0.172589 0.881708 0.383060
Si Si2 0.381008 0.457014 0.045308
Si Si3 0.246279 0.129219 0.456294
Si Si4 0.426324 0.422914 0.232920
Si Si5 0.902038 0.751468 0.521471
Si Si6 0.510213 0.174179 0.171770
Si Si7 0.448721 0.181689 0.004087
O O1 0.213912 0.742134 0.400328
O O2 0.141893 0.881070 0.289508
O O3 0.105055 0.906785 0.447409
O O4 0.227456 0.005752 0.394056
O O5 0.395297 0.468527 0.143780
O O6 0.403077 0.592998 0.998208
O O7 0.427491 0.340043 0.001296
O O8 0.296653 0.424140 0.031268
O O9 0.175123 0.186806 0.501718
O O10 0.479735 0.294938 0.229424
O O11 0.470891 0.548019 0.270228
O O12 0.918801 0.771684 0.621419
O O13 0.968013 0.825870 0.470461
O O14 0.448977 0.132935 0.101996
#
# Coordination Sequence:
#
# PCOD8248882 Si02
#       7
#     8   8   8   8   8   8   8
#     4  11  22  42  63  88 129 165 210 259 314 374
#     4  10  21  39  63  90 126 162 211 255 312 376
#     4  11  22  40  64  86 121 178 211 244 302 394
#     4  11  23  40  60  97 133 151 204 277 323 363
#     4  10  19  39  65  90 119 166 223 243 302 386
#     4   9  22  37  63  95 127 159 206 258 325 364
#     4   8  20  37  65  90 117 161 214 249 303 382
#
# _framework density 19.240114999999999
#
# number of rings (size 3 to 8) (size 9 to 14) (size 15 to 20)
#    0.857    1.143    2.857    0.429    2.000    3.429 
#    2.571    0.000    0.000    0.000    0.000    0.000 
#    0.000    0.000    0.000    0.000    0.000    0.000 
#
# Total GULP energy -694051.386660 kJ/mol
# GULP energy per Si atom -12393.774762 kJ/mol
# Density = 1.919632 g / cm^3
# Si number density = 19.240115 Si / 1000 Ang^3
#
#
#
# Elastic Constant Matrix: (Units=GPa)
#
#
# Indices 1 2 3 4 5 6 
#
# 1 111.9853 33.9728 27.9121 0.0000 0.0000 0.0000
# 2 33.9728 89.2878 35.9075 0.0000 0.0000 0.0000
# 3 27.9121 35.9075 66.9194 0.0000 0.0000 0.0000
# 4 0.0000 0.0000 0.0000 28.2194 0.0000 0.0000
# 5 0.0000 0.0000 0.0000 0.0000 33.1547 0.0000
# 6 0.0000 0.0000 0.0000 0.0000 0.0000 37.2027
#
#
#
# Elastic Compliance Matrix: (Units=1/GPa)
#
#
# Indices 1 2 3 4 5 6 
#
# 1 0.010505 -0.002850 -0.002853 0.000000 0.000000 0.000000
# 2 -0.002850 0.015055 -0.006889 0.000000 0.000000 0.000000
# 3 -0.002853 -0.006889 0.019830 0.000000 0.000000 0.000000
# 4 0.000000 0.000000 0.000000 0.035437 0.000000 0.000000
# 5 0.000000 0.000000 0.000000 0.000000 0.030162 0.000000
# 6 0.000000 0.000000 0.000000 0.000000 0.000000 0.026880
#
#
# Mechanical properties :
#
#
# Convention : Reuss Voigt Hill
#
# Bulk Modulus (GPa) = 49.48981 51.53082 50.51031
# Shear Modulus (GPa) = 29.44869 31.07536 30.26202
#
# Velocity S-wave (km/s) = 3.91652 4.02323 3.97023
# Velocity P-wave (km/s) = 6.79928 6.95866 6.87943
#
# Compressibility (1/GPa) = 0.02020618
#
# Stress axis : x y z
#
# Youngs Moduli (GPa) = 95.18983 66.42456 50.42923
#
# Poissons Ratio (x) = 0.18931 0.14385
# Poissons Ratio (y) = 0.27129 0.34742
# Poissons Ratio (z) = 0.27153 0.45762
#
# Static dielectric constant tensor:
#      x y z
#    x 3.694330 0.000000 0.000000 
#    y 0.000000 3.528600 0.000000 
#    z 0.000000 0.000000 3.270970 
# 
# 
# High freq. dielectric constant tensor:
#      x y z
#    x 1.752930 0.000000 0.000000 
#    y 0.000000 1.763730 0.000000 
#    z 0.000000 0.000000 1.718910 
# 
# From -- ./inp_files/8390.got.cif
#   From: 2010.03.12/outbox.cif.g09.slc.cpg/sg61_5_cif.got.tgz:8390.got - 2010.04.10 19:05:03.
