data_PCOD8248849
_publ_section_title
;
Structure prediction by ZEFSAII (Michael W. Deem and Ramdas Pophale) SiO2 
 PCOD8248849
Probable space group: P B C A
;
_chemical_formula_sum "Si O2"
_cell_formula_units_Z 64
_cell_length_a 9.338249
_cell_length_b 19.906221
_cell_length_c 17.588814
_cell_angle_alpha 90.000000
_cell_angle_beta 90.000000
_cell_angle_gamma 90.000000
_cell_volume 3269.571414
_symmetry_space_group_name_H-M "P B C A"
_symmetry_group_IT_number 61
_symmetry_cell_setting 'orthorhombic'
loop_
_space_group_symop_operation_xyz
x,y,z
1/2-x,-y,1/2+z
1/2+x,1/2-y,-z
-x,1/2+y,1/2-z
-x,-y,-z
1/2+x,y,1/2-z
1/2-x,1/2+y,z
x,1/2-y,1/2+z
loop_
_atom_site_type_symbol
_atom_site_label
_atom_site_fract_x
_atom_site_fract_y
_atom_site_fract_z
Si Si1 0.745259 0.751382 0.591934
Si Si2 0.241393 0.456514 0.189552
Si Si3 0.474972 0.715871 0.022363
Si Si4 0.697481 0.267596 0.835228
Si Si5 0.738815 0.631752 0.204847
Si Si6 0.881295 0.150047 0.893389
Si Si7 0.132311 0.161435 0.784143
Si Si8 0.507604 0.042570 0.241165
O O1 0.603087 0.733909 0.544777
O O2 0.723398 0.823330 0.630643
O O3 0.765974 0.693098 0.652299
O O4 0.875885 0.758349 0.533728
O O5 0.269804 0.412721 0.112089
O O6 0.216909 0.403790 0.257322
O O7 0.383363 0.499529 0.207169
O O8 0.094115 0.499930 0.182836
O O9 0.397415 0.694207 0.100952
O O10 0.537661 0.651262 0.975020
O O11 0.768037 0.324804 0.782857
O O12 0.813466 0.223661 0.880842
O O13 0.604020 0.216510 0.782557
O O14 0.604337 0.581264 0.204206
O O15 0.891789 0.594403 0.195608
O O16 0.983948 0.138760 0.820876
#
# Coordination Sequence:
#
# PCOD8248849 Si02
#       8
#     8   8   8   8   8   8   8   8
#     4  10  22  36  57  87 123 145 187 225 305 348
#     4  10  19  37  57  86 109 145 202 243 277 326
#     4  11  21  36  53  90 118 155 177 225 295 367
#     4  10  21  33  59  87 116 147 184 228 303 348
#     4  10  22  37  59  87 118 148 189 245 279 345
#     4  10  20  35  55  88 118 149 181 241 288 346
#     4   9  20  33  60  86 114 144 183 250 288 333
#     4  10  21  35  58  86 108 152 197 246 279 314
#
# _framework density 19.574432000000002
#
# number of rings (size 3 to 8) (size 9 to 14) (size 15 to 20)
#    0.000    2.000    2.500    0.750   10.500    0.000 
#    0.000    0.000    0.000    7.500    3.250    0.000 
#    0.000    0.000    0.000    0.000    0.000    0.000 
#
# Total GULP energy -793024.635809 kJ/mol
# GULP energy per Si atom -12391.009935 kJ/mol
# Density = 1.952988 g / cm^3
# Si number density = 19.574432 Si / 1000 Ang^3
#
#
#
# Elastic Constant Matrix: (Units=GPa)
#
#
# Indices 1 2 3 4 5 6 
#
# 1 110.7191 33.7133 25.9398 0.0000 0.0000 0.0000
# 2 33.7133 81.3802 19.3603 0.0000 0.0000 0.0000
# 3 25.9398 19.3603 84.4666 0.0000 0.0000 0.0000
# 4 0.0000 0.0000 0.0000 10.6934 0.0000 0.0000
# 5 0.0000 0.0000 0.0000 0.0000 28.8594 0.0000
# 6 0.0000 0.0000 0.0000 0.0000 0.0000 32.6862
#
#
#
# Elastic Compliance Matrix: (Units=1/GPa)
#
#
# Indices 1 2 3 4 5 6 
#
# 1 0.010784 -0.003892 -0.002420 0.000000 0.000000 0.000000
# 2 -0.003892 0.014401 -0.002106 0.000000 0.000000 0.000000
# 3 -0.002420 -0.002106 0.013065 0.000000 0.000000 0.000000
# 4 0.000000 0.000000 0.000000 0.093516 0.000000 0.000000
# 5 0.000000 0.000000 0.000000 0.000000 0.034651 0.000000
# 6 0.000000 0.000000 0.000000 0.000000 0.000000 0.030594
#
#
# Mechanical properties :
#
#
# Convention : Reuss Voigt Hill
#
# Bulk Modulus (GPa) = 46.69532 48.28809 47.49171
# Shear Modulus (GPa) = 22.62618 27.61796 25.12207
#
# Velocity S-wave (km/s) = 3.40355 3.76030 3.58636
# Velocity P-wave (km/s) = 6.27316 6.60118 6.43926
#
# Compressibility (1/GPa) = 0.02141542
#
# Stress axis : x y z
#
# Youngs Moduli (GPa) = 92.73191 69.43880 76.54192
#
# Poissons Ratio (x) = 0.27024 0.18521
# Poissons Ratio (y) = 0.36089 0.16117
# Poissons Ratio (z) = 0.22438 0.14622
#
# Static dielectric constant tensor:
#      x y z
#    x 3.839580 0.000000 0.000000 
#    y 0.000000 3.574420 0.000000 
#    z 0.000000 0.000000 3.542710 
# 
# 
# High freq. dielectric constant tensor:
#      x y z
#    x 1.781040 0.000000 0.000000 
#    y 0.000000 1.744090 0.000000 
#    z 0.000000 0.000000 1.741530 
# 
# From -- ./inp_files/9081.got.cif
#   From: 2010.03.12/outbox.cif.g09.slc.cpg/sg61_5_cif.got.tgz:9081.got - 2010.04.10 19:05:03.
