data_PCOD8248555
_publ_section_title
;
Structure prediction by ZEFSAII (Michael W. Deem and Ramdas Pophale) SiO2 
 PCOD8248555
Probable space group: P B C N
;
_chemical_formula_sum "Si O2"
_cell_formula_units_Z 40
_cell_length_a 6.724039
_cell_length_b 23.825242
_cell_length_c 12.379825
_cell_angle_alpha 90.000000
_cell_angle_beta 90.000000
_cell_angle_gamma 90.000000
_cell_volume 1983.270947
_symmetry_space_group_name_H-M "P B C N"
_symmetry_group_IT_number 60
_symmetry_cell_setting 'orthorhombic'
loop_
_space_group_symop_operation_xyz
x,y,z
1/2-x,1/2-y,1/2+z
1/2+x,1/2-y,-z
-x,y,1/2-z
-x,-y,-z
1/2+x,1/2+y,1/2-z
1/2-x,1/2+y,z
x,-y,1/2+z
loop_
_atom_site_type_symbol
_atom_site_label
_atom_site_fract_x
_atom_site_fract_y
_atom_site_fract_z
Si Si1 0.297946 0.027815 0.963514
Si Si2 0.922733 0.774488 0.129765
Si Si3 0.735708 0.326626 0.523958
Si Si4 0.979867 0.068243 0.122908
Si Si5 0.921826 0.361460 0.131561
O O1 0.333884 0.075991 0.874689
O O2 0.167585 0.981827 0.904251
O O3 0.191816 0.054885 0.068255
O O4 0.500000 0.000000 0.000000
O O5 0.843433 0.711208 0.114557
O O6 0.748143 0.817548 0.102099
O O7 0.000000 0.782942 0.250000
O O8 0.104312 0.785307 0.049010
O O9 0.599432 0.372525 0.580761
O O10 0.898169 0.358108 0.452318
O O11 0.000000 0.072812 0.250000
O O12 0.000000 0.348341 0.250000
#
# Coordination Sequence:
#
# PCOD8248555 Si02
#       5
#     8   8   8   8   8
#     4  11  25  45  69 101 139 176 224 280 332 404
#     4  12  26  44  70 101 134 176 231 279 342 399
#     4  12  25  45  67 101 139 174 224 288 332 406
#     4  11  27  44  69 103 140 175 225 277 338 401
#     4  12  25  42  72 100 134 178 227 278 339 398
#
# _framework density 20.168700000000001
#
# number of rings (size 3 to 8) (size 9 to 14) (size 15 to 20)
#    0.000    0.400    8.000    0.000    2.800    4.800 
#    0.000    0.000    0.000    0.000    0.000    0.000 
#    0.000    0.000    0.000    0.000    0.000    0.000 
#
# Total GULP energy -496275.045440 kJ/mol
# GULP energy per Si atom -12406.876136 kJ/mol
# Density = 2.012280 g / cm^3
# Si number density = 20.168700 Si / 1000 Ang^3
#
#
#
# Elastic Constant Matrix: (Units=GPa)
#
#
# Indices 1 2 3 4 5 6 
#
# 1 113.1545 42.5350 41.6078 0.0000 0.0000 0.0000
# 2 42.5350 128.5796 35.1839 0.0000 0.0000 0.0000
# 3 41.6078 35.1839 108.9894 0.0000 0.0000 0.0000
# 4 0.0000 0.0000 0.0000 30.4100 0.0000 0.0000
# 5 0.0000 0.0000 0.0000 0.0000 26.8782 0.0000
# 6 0.0000 0.0000 0.0000 0.0000 0.0000 40.6838
#
#
#
# Elastic Compliance Matrix: (Units=1/GPa)
#
#
# Indices 1 2 3 4 5 6 
#
# 1 0.011106 -0.002757 -0.003350 0.000000 0.000000 0.000000
# 2 -0.002757 0.009215 -0.001922 0.000000 0.000000 0.000000
# 3 -0.003350 -0.001922 0.011075 0.000000 0.000000 0.000000
# 4 0.000000 0.000000 0.000000 0.032884 0.000000 0.000000
# 5 0.000000 0.000000 0.000000 0.000000 0.037205 0.000000
# 6 0.000000 0.000000 0.000000 0.000000 0.000000 0.024580
#
#
# Mechanical properties :
#
#
# Convention : Reuss Voigt Hill
#
# Bulk Modulus (GPa) = 65.20079 65.48633 65.34356
# Shear Modulus (GPa) = 33.95936 35.02085 34.49010
#
# Velocity S-wave (km/s) = 4.10782 4.17153 4.13980
# Velocity P-wave (km/s) = 7.40924 7.46606 7.43770
#
# Compressibility (1/GPa) = 0.01533724
#
# Stress axis : x y z
#
# Youngs Moduli (GPa) = 90.04466 108.51389 90.29752
#
# Poissons Ratio (x) = 0.29920 0.30246
# Poissons Ratio (y) = 0.24828 0.17358
# Poissons Ratio (z) = 0.30161 0.20860
#
# Static dielectric constant tensor:
#      x y z
#    x 3.768320 0.000000 0.000000 
#    y 0.000000 3.887460 0.000000 
#    z 0.000000 0.000000 3.259470 
# 
# 
# High freq. dielectric constant tensor:
#      x y z
#    x 1.807290 0.000000 0.000000 
#    y 0.000000 1.805270 0.000000 
#    z 0.000000 0.000000 1.784230 
# 
# From -- ./inp_files/9048.got.cif
#   From: 2010.03.12/outbox.cif.g09.slc.cpg/sg60_5_cif.got.tgz:9048.got - 2010.04.10 18:46:24.
