data_PCOD8248641
_publ_section_title
;
Structure prediction by ZEFSAII (Michael W. Deem and Ramdas Pophale) SiO2 
 PCOD8248641
Probable space group: P B C N
;
_chemical_formula_sum "Si O2"
_cell_formula_units_Z 48
_cell_length_a 7.302517
_cell_length_b 8.694437
_cell_length_c 32.439685
_cell_angle_alpha 90.000000
_cell_angle_beta 90.000000
_cell_angle_gamma 90.000000
_cell_volume 2059.636929
_symmetry_space_group_name_H-M "P B C N"
_symmetry_group_IT_number 60
_symmetry_cell_setting 'orthorhombic'
loop_
_space_group_symop_operation_xyz
x,y,z
1/2-x,1/2-y,1/2+z
1/2+x,1/2-y,-z
-x,y,1/2-z
-x,-y,-z
1/2+x,1/2+y,1/2-z
1/2-x,1/2+y,z
x,-y,1/2+z
loop_
_atom_site_type_symbol
_atom_site_label
_atom_site_fract_x
_atom_site_fract_y
_atom_site_fract_z
Si Si1 0.819501 0.027396 0.850295
Si Si2 0.484927 0.088240 0.797698
Si Si3 0.720498 0.209212 0.407361
Si Si4 0.331038 0.744499 0.921343
Si Si5 0.313307 0.377233 0.836484
Si Si6 0.952498 0.068710 0.043877
O O1 0.694221 0.093636 0.813982
O O2 0.787483 0.110081 0.895220
O O3 0.754240 0.856008 0.861374
O O4 0.036042 0.016520 0.839419
O O5 0.500000 0.049085 0.750000
O O6 0.388614 0.252835 0.803896
O O7 0.373795 0.951984 0.820382
O O8 0.521298 0.162014 0.424437
O O9 0.872646 0.161565 0.439805
O O10 0.220054 0.785135 0.879347
O O11 0.371833 0.562365 0.925392
O O12 0.207357 0.803349 0.959580
O O13 0.000000 0.000000 0.000000
#
# Coordination Sequence:
#
# PCOD8248641 Si02
#       6
#     8   8   8   8   8   8
#     4  12  24  45  74 107 138 190 249 297 351 441
#     4  12  29  45  72 109 153 190 240 311 368 430
#     4  12  24  44  74 102 141 187 244 293 357 431
#     4  12  25  48  76 102 145 194 246 301 356 446
#     4  12  26  49  75 108 141 199 253 293 366 440
#     4  12  30  46  71 113 147 189 241 306 374 432
#
# _framework density 23.305078999999999
#
# number of rings (size 3 to 8) (size 9 to 14) (size 15 to 20)
#    0.000    0.000    6.667    2.000    7.000    0.667 
#    0.000    0.000    0.000    0.000    0.000    0.000 
#    0.000    0.000    0.000    0.000    0.000    0.000 
#
# Total GULP energy -594944.831658 kJ/mol
# GULP energy per Si atom -12394.683993 kJ/mol
# Density = 2.325204 g / cm^3
# Si number density = 23.305079 Si / 1000 Ang^3
#
#
#
# Elastic Constant Matrix: (Units=GPa)
#
#
# Indices 1 2 3 4 5 6 
#
# 1 158.6157 26.9612 43.2066 0.0000 0.0000 0.0000
# 2 26.9612 66.3264 26.6073 0.0000 0.0000 0.0000
# 3 43.2066 26.6073 90.3817 0.0000 0.0000 0.0000
# 4 0.0000 0.0000 0.0000 28.4335 0.0000 0.0000
# 5 0.0000 0.0000 0.0000 0.0000 29.3573 0.0000
# 6 0.0000 0.0000 0.0000 0.0000 0.0000 41.3579
#
#
#
# Elastic Compliance Matrix: (Units=1/GPa)
#
#
# Indices 1 2 3 4 5 6 
#
# 1 0.007435 -0.001810 -0.003021 0.000000 0.000000 0.000000
# 2 -0.001810 0.017537 -0.004297 0.000000 0.000000 0.000000
# 3 -0.003021 -0.004297 0.013774 0.000000 0.000000 0.000000
# 4 0.000000 0.000000 0.000000 0.035170 0.000000 0.000000
# 5 0.000000 0.000000 0.000000 0.000000 0.034063 0.000000
# 6 0.000000 0.000000 0.000000 0.000000 0.000000 0.024179
#
#
# Mechanical properties :
#
#
# Convention : Reuss Voigt Hill
#
# Bulk Modulus (GPa) = 48.80985 56.54155 52.67570
# Shear Modulus (GPa) = 31.79754 34.39965 33.09860
#
# Velocity S-wave (km/s) = 3.69779 3.84612 3.77268
# Velocity P-wave (km/s) = 6.26266 6.63609 6.45207
#
# Compressibility (1/GPa) = 0.02048767
#
# Stress axis : x y z
#
# Youngs Moduli (GPa) = 134.49351 57.02335 72.60246
#
# Poissons Ratio (x) = 0.10323 0.21937
# Poissons Ratio (y) = 0.24347 0.31199
# Poissons Ratio (z) = 0.40637 0.24504
#
# Static dielectric constant tensor:
#      x y z
#    x 4.539850 0.000000 0.000000 
#    y 0.000000 4.275090 0.000000 
#    z 0.000000 0.000000 3.808180 
# 
# 
# High freq. dielectric constant tensor:
#      x y z
#    x 1.944470 0.000000 0.000000 
#    y 0.000000 1.933370 0.000000 
#    z 0.000000 0.000000 1.893010 
# 
# From -- ./inp_files/25955.got.cif
#   From: 2010.03.12/outbox.cif.g09.slc.cpg/sg60_13_cif.got.tgz:25955.got - 2010.04.10 18:46:24.
