data_PCOD8248939
_publ_section_title
;
Structure prediction by ZEFSAII (Michael W. Deem and Ramdas Pophale) SiO2 
 PCOD8248939
Probable space group: P B C A
;
_chemical_formula_sum "Si O2"
_cell_formula_units_Z 48
_cell_length_a 12.128012
_cell_length_b 27.671610
_cell_length_c 5.327187
_cell_angle_alpha 90.000000
_cell_angle_beta 90.000000
_cell_angle_gamma 90.000000
_cell_volume 1787.812577
_symmetry_space_group_name_H-M "P B C A"
_symmetry_group_IT_number 61
_symmetry_cell_setting 'orthorhombic'
loop_
_space_group_symop_operation_xyz
x,y,z
1/2-x,-y,1/2+z
1/2+x,1/2-y,-z
-x,1/2+y,1/2-z
-x,-y,-z
1/2+x,y,1/2-z
1/2-x,1/2+y,z
x,1/2-y,1/2+z
loop_
_atom_site_type_symbol
_atom_site_label
_atom_site_fract_x
_atom_site_fract_y
_atom_site_fract_z
Si Si1 0.442334 0.369461 0.307138
Si Si2 0.779106 0.528077 0.262634
Si Si3 0.246604 0.867589 0.636260
Si Si4 0.784217 0.231161 0.134220
Si Si5 0.530306 0.092139 0.330184
Si Si6 0.036625 0.270573 0.349326
O O1 0.314481 0.356376 0.369943
O O2 0.479302 0.395945 0.562556
O O3 0.520254 0.323809 0.261100
O O4 0.446059 0.405538 0.066439
O O5 0.733992 0.496383 0.492404
O O6 0.711848 0.578986 0.258340
O O7 0.909112 0.539851 0.311379
O O8 0.215522 0.826643 0.838808
O O9 0.378007 0.866827 0.595882
O O10 0.846174 0.257153 0.370604
O O11 0.665589 0.257551 0.101534
O O12 0.985958 0.265727 0.632812
#
# Coordination Sequence:
#
# PCOD8248939 Si02
#       6
#     8   8   8   8   8   8
#     4  12  23  43  66 104 129 187 226 275 342 412
#     4  10  23  46  71  99 136 178 226 286 352 407
#     4  10  26  42  73  97 143 180 232 282 343 410
#     4  10  20  36  59  93 128 175 219 266 333 393
#     4  10  24  42  70  94 139 174 219 289 337 399
#     4  10  20  35  58  87 135 167 224 267 320 397
#
# _framework density 26.848454
#
# number of rings (size 3 to 8) (size 9 to 14) (size 15 to 20)
#    1.000    0.667    0.000    6.000    0.000    6.667 
#    0.000    5.000    0.000    0.000    0.000    0.000 
#    0.000    0.000    0.000    0.000    0.000    0.000 
#
# Total GULP energy -594840.119059 kJ/mol
# GULP energy per Si atom -12392.502480 kJ/mol
# Density = 2.678735 g / cm^3
# Si number density = 26.848454 Si / 1000 Ang^3
#
#
#
# Elastic Constant Matrix: (Units=GPa)
#
#
# Indices 1 2 3 4 5 6 
#
# 1 61.9456 7.0524 48.1383 0.0000 0.0000 0.0000
# 2 7.0524 112.8043 38.0686 0.0000 0.0000 0.0000
# 3 48.1383 38.0686 219.2634 0.0000 0.0000 0.0000
# 4 0.0000 0.0000 0.0000 39.5460 0.0000 0.0000
# 5 0.0000 0.0000 0.0000 0.0000 41.3796 0.0000
# 6 0.0000 0.0000 0.0000 0.0000 0.0000 23.5233
#
#
#
# Elastic Compliance Matrix: (Units=1/GPa)
#
#
# Indices 1 2 3 4 5 6 
#
# 1 0.019470 0.000239 -0.004316 0.000000 0.000000 0.000000
# 2 0.000239 0.009420 -0.001688 0.000000 0.000000 0.000000
# 3 -0.004316 -0.001688 0.005801 0.000000 0.000000 0.000000
# 4 0.000000 0.000000 0.000000 0.025287 0.000000 0.000000
# 5 0.000000 0.000000 0.000000 0.000000 0.024167 0.000000
# 6 0.000000 0.000000 0.000000 0.000000 0.000000 0.042511
#
#
# Mechanical properties :
#
#
# Convention : Reuss Voigt Hill
#
# Bulk Modulus (GPa) = 43.17512 64.50354 53.83933
# Shear Modulus (GPa) = 34.26872 40.94002 37.60437
#
# Velocity S-wave (km/s) = 3.57652 3.90918 3.74654
# Velocity P-wave (km/s) = 5.75945 6.66729 6.22993
#
# Compressibility (1/GPa) = 0.02316149
#
# Stress axis : x y z
#
# Youngs Moduli (GPa) = 51.36095 106.16162 172.37287
#
# Poissons Ratio (x) = -0.02541 0.74398
# Poissons Ratio (y) = -0.01229 0.29096
# Poissons Ratio (z) = 0.22168 0.17920
#
# Static dielectric constant tensor:
#      x y z
#    x 5.551720 0.000000 0.000000 
#    y 0.000000 4.491010 0.000000 
#    z 0.000000 0.000000 5.417410 
# 
# 
# High freq. dielectric constant tensor:
#      x y z
#    x 2.112740 0.000000 0.000000 
#    y 0.000000 2.054510 0.000000 
#    z 0.000000 0.000000 2.106240 
# 
# From -- ./inp_files/517.got.cif
#   From: 2010.03.12/outbox.cif.g09.slc.cpg/sg61_1_cif.got.tgz:517.got - 2010.04.10 19:05:03.
