data_PCOD8248913
_publ_section_title
;
Structure prediction by ZEFSAII (Michael W. Deem and Ramdas Pophale) SiO2 
 PCOD8248913
Probable space group: P B C A
;
_chemical_formula_sum "Si O2"
_cell_formula_units_Z 40
_cell_length_a 10.740777
_cell_length_b 8.892897
_cell_length_c 21.275614
_cell_angle_alpha 90.000000
_cell_angle_beta 90.000000
_cell_angle_gamma 90.000000
_cell_volume 2032.174813
_symmetry_space_group_name_H-M "P B C A"
_symmetry_group_IT_number 61
_symmetry_cell_setting 'orthorhombic'
loop_
_space_group_symop_operation_xyz
x,y,z
1/2-x,-y,1/2+z
1/2+x,1/2-y,-z
-x,1/2+y,1/2-z
-x,-y,-z
1/2+x,y,1/2-z
1/2-x,1/2+y,z
x,1/2-y,1/2+z
loop_
_atom_site_type_symbol
_atom_site_label
_atom_site_fract_x
_atom_site_fract_y
_atom_site_fract_z
Si Si1 0.628902 0.169899 0.473900
Si Si2 0.344948 0.144376 0.462858
Si Si3 0.250962 0.162888 0.743382
Si Si4 0.865353 0.590009 0.334984
Si Si5 0.143798 0.592509 0.324479
O O1 0.482120 0.225515 0.472678
O O2 0.728923 0.291002 0.498128
O O3 0.679527 0.132876 0.404339
O O4 0.637393 0.028173 0.519167
O O5 0.299543 0.150672 0.390297
O O6 0.146159 0.271250 0.713736
O O7 0.354133 0.274597 0.772630
O O8 0.295559 0.060114 0.686325
O O9 0.208769 0.058611 0.800563
O O10 0.006083 0.540066 0.338194
#
# Coordination Sequence:
#
# PCOD8248913 Si02
#       5
#     8   8   8   8   8
#     4  10  21  37  56  80 110 143 180 222 268 318
#     4  10  21  37  56  80 110 143 180 222 268 318
#     4  10  20  34  54  78 104 136 176 216 266 318
#     4  10  20  35  54  77 106 138 175 219 265 315
#     4  10  20  35  54  77 106 138 175 219 265 315
#
# _framework density 19.683347000000001
#
# number of rings (size 3 to 8) (size 9 to 14) (size 15 to 20)
#    0.000    2.000    0.000    3.600    0.000    0.800 
#    0.000   10.000    0.000    0.000    0.000    0.000 
#    0.000    0.000    0.000    0.000    0.000    0.000 
#
# Total GULP energy -495640.285271 kJ/mol
# GULP energy per Si atom -12391.007132 kJ/mol
# Density = 1.963855 g / cm^3
# Si number density = 19.683347 Si / 1000 Ang^3
#
#
#
# Elastic Constant Matrix: (Units=GPa)
#
#
# Indices 1 2 3 4 5 6 
#
# 1 58.1076 15.6932 18.8797 0.0000 0.0000 0.0000
# 2 15.6932 73.5891 14.6662 0.0000 0.0000 0.0000
# 3 18.8797 14.6662 96.5824 0.0000 0.0000 0.0000
# 4 0.0000 0.0000 0.0000 35.4171 0.0000 0.0000
# 5 0.0000 0.0000 0.0000 0.0000 31.7848 0.0000
# 6 0.0000 0.0000 0.0000 0.0000 0.0000 18.7319
#
#
#
# Elastic Compliance Matrix: (Units=1/GPa)
#
#
# Indices 1 2 3 4 5 6 
#
# 1 0.019190 -0.003449 -0.003227 0.000000 0.000000 0.000000
# 2 -0.003449 0.014633 -0.001548 0.000000 0.000000 0.000000
# 3 -0.003227 -0.001548 0.011220 0.000000 0.000000 0.000000
# 4 0.000000 0.000000 0.000000 0.028235 0.000000 0.000000
# 5 0.000000 0.000000 0.000000 0.000000 0.031462 0.000000
# 6 0.000000 0.000000 0.000000 0.000000 0.000000 0.053385
#
#
# Mechanical properties :
#
#
# Convention : Reuss Voigt Hill
#
# Bulk Modulus (GPa) = 34.97264 36.30637 35.63951
# Shear Modulus (GPa) = 27.15865 29.12277 28.14071
#
# Velocity S-wave (km/s) = 3.71857 3.85068 3.78520
# Velocity P-wave (km/s) = 6.02023 6.18511 6.10323
#
# Compressibility (1/GPa) = 0.02859378
#
# Stress axis : x y z
#
# Youngs Moduli (GPa) = 52.11172 68.33880 89.12836
#
# Poissons Ratio (x) = 0.23570 0.28765
# Poissons Ratio (y) = 0.17974 0.13796
# Poissons Ratio (z) = 0.16818 0.10578
#
# Static dielectric constant tensor:
#      x y z
#    x 3.602820 0.000000 0.000000 
#    y 0.000000 3.412340 0.000000 
#    z 0.000000 0.000000 4.128070 
# 
# 
# High freq. dielectric constant tensor:
#      x y z
#    x 1.757250 0.000000 0.000000 
#    y 0.000000 1.760490 0.000000 
#    z 0.000000 0.000000 1.785960 
# 
# From -- ./inp_files/1733.got.cif
#   From: 2010.03.12/outbox.cif.g09.slc.cpg/sg61_1_cif.got.tgz:1733.got - 2010.04.10 19:05:03.
