data_PCOD8248603
_publ_section_title
;
Structure prediction by ZEFSAII (Michael W. Deem and Ramdas Pophale) SiO2 
 PCOD8248603
Probable space group: P B C N
;
_chemical_formula_sum "Si O2"
_cell_formula_units_Z 28
_cell_length_a 12.596472
_cell_length_b 7.393354
_cell_length_c 13.866007
_cell_angle_alpha 90.000000
_cell_angle_beta 90.000000
_cell_angle_gamma 90.000000
_cell_volume 1291.343681
_symmetry_space_group_name_H-M "P B C N"
_symmetry_group_IT_number 60
_symmetry_cell_setting 'orthorhombic'
loop_
_space_group_symop_operation_xyz
x,y,z
1/2-x,1/2-y,1/2+z
1/2+x,1/2-y,-z
-x,y,1/2-z
-x,-y,-z
1/2+x,1/2+y,1/2-z
1/2-x,1/2+y,z
x,-y,1/2+z
loop_
_atom_site_type_symbol
_atom_site_label
_atom_site_fract_x
_atom_site_fract_y
_atom_site_fract_z
Si Si1 0.676839 0.617449 0.001279
Si Si2 0.614468 0.018806 0.430428
Si Si3 0.375464 0.740466 0.913771
Si Si4 0.500000 0.895076 0.750000
O O1 0.748068 0.722326 0.082461
O O2 0.603363 0.463986 0.050068
O O3 0.758905 0.525114 0.924708
O O4 0.601108 0.764004 0.949623
O O5 0.561390 0.977135 0.326727
O O6 0.565357 0.890645 0.516193
O O7 0.416603 0.765887 0.805459
#
# Coordination Sequence:
#
# PCOD8248603 Si02
#       4
#     8   8   8   4
#     4   8  18  40  60  66 108 154 182 210 272 316
#     4   9  19  38  56  79 108 147 176 228 263 321
#     4   9  19  38  56  79 108 147 176 228 263 321
#     4  12  22  30  58  88 114 132 188 222 276 316
#
# _framework density 21.682842000000001
#
# number of rings (size 3 to 8) (size 9 to 14) (size 15 to 20)
#    1.714    1.143    0.000    0.857    0.000    3.429 
#    0.000    5.714    0.000    0.000    0.000    0.000 
#    0.000    0.000    0.000    0.000    0.000    0.000 
#
# Total GULP energy -346995.753039 kJ/mol
# GULP energy per Si atom -12392.705466 kJ/mol
# Density = 2.163349 g / cm^3
# Si number density = 21.682842 Si / 1000 Ang^3
#
#
#
# Elastic Constant Matrix: (Units=GPa)
#
#
# Indices 1 2 3 4 5 6 
#
# 1 40.8110 21.2481 44.3389 0.0000 0.0000 0.0000
# 2 21.2481 136.4080 40.4611 0.0000 0.0000 0.0000
# 3 44.3389 40.4611 143.7225 0.0000 0.0000 0.0000
# 4 0.0000 0.0000 0.0000 13.4060 0.0000 0.0000
# 5 0.0000 0.0000 0.0000 0.0000 41.3723 0.0000
# 6 0.0000 0.0000 0.0000 0.0000 0.0000 28.1010
#
#
#
# Elastic Compliance Matrix: (Units=1/GPa)
#
#
# Indices 1 2 3 4 5 6 
#
# 1 0.037711 -0.002644 -0.010889 0.000000 0.000000 0.000000
# 2 -0.002644 0.008184 -0.001488 0.000000 0.000000 0.000000
# 3 -0.010889 -0.001488 0.010736 0.000000 0.000000 0.000000
# 4 0.000000 0.000000 0.000000 0.074594 0.000000 0.000000
# 5 0.000000 0.000000 0.000000 0.000000 0.024171 0.000000
# 6 0.000000 0.000000 0.000000 0.000000 0.000000 0.035586
#
#
# Mechanical properties :
#
#
# Convention : Reuss Voigt Hill
#
# Bulk Modulus (GPa) = 37.61185 59.22638 48.41912
# Shear Modulus (GPa) = 21.74974 30.90210 26.32592
#
# Velocity S-wave (km/s) = 3.17059 3.77926 3.48823
# Velocity P-wave (km/s) = 5.54865 6.81307 6.21311
#
# Compressibility (1/GPa) = 0.02658736
#
# Stress axis : x y z
#
# Youngs Moduli (GPa) = 26.51769 122.18532 93.14196
#
# Poissons Ratio (x) = 0.32307 1.01427
# Poissons Ratio (y) = 0.07012 0.13863
# Poissons Ratio (z) = 0.28876 0.18185
#
# Static dielectric constant tensor:
#      x y z
#    x 3.791580 0.000000 0.000000 
#    y 0.000000 3.766540 0.000000 
#    z 0.000000 0.000000 3.384010 
# 
# 
# High freq. dielectric constant tensor:
#      x y z
#    x 1.875450 0.000000 0.000000 
#    y 0.000000 1.846080 0.000000 
#    z 0.000000 0.000000 1.803220 
# 
# From -- ./inp_files/6445.got.cif
#   From: 2010.03.12/outbox.cif.g09.slc.cpg/sg60_4_cif.got.tgz:6445.got - 2010.04.10 18:46:24.
