data_PCOD8248289
_publ_section_title
;
Structure prediction by ZEFSAII (Michael W. Deem and Ramdas Pophale) SiO2 
 PCOD8248289
Probable space group: P B C N
;
_chemical_formula_sum "Si O2"
_cell_formula_units_Z 64
_cell_length_a 17.892052
_cell_length_b 11.471042
_cell_length_c 15.200625
_cell_angle_alpha 90.000000
_cell_angle_beta 90.000000
_cell_angle_gamma 90.000000
_cell_volume 3119.783571
_symmetry_space_group_name_H-M "P B C N"
_symmetry_group_IT_number 60
_symmetry_cell_setting 'orthorhombic'
loop_
_space_group_symop_operation_xyz
x,y,z
1/2-x,1/2-y,1/2+z
1/2+x,1/2-y,-z
-x,y,1/2-z
-x,-y,-z
1/2+x,1/2+y,1/2-z
1/2-x,1/2+y,z
x,-y,1/2+z
loop_
_atom_site_type_symbol
_atom_site_label
_atom_site_fract_x
_atom_site_fract_y
_atom_site_fract_z
Si Si1 0.245210 0.000000 0.500000
Si Si2 0.500000 0.518739 0.850756
Si Si3 0.376961 0.329629 0.440559
Si Si4 0.846860 0.596756 0.151035
Si Si5 0.653140 0.903244 0.848965
Si Si6 1.000000 0.514449 0.895402
Si Si7 1.000000 0.769406 0.925522
Si Si8 0.876961 0.829629 0.440560
O O1 0.195918 0.885996 0.483332
O O2 0.295108 0.976185 0.585371
O O3 0.295108 0.023815 0.414629
O O4 0.195918 0.114003 0.516667
O O5 0.500000 0.554933 0.750000
O O6 0.425804 0.569127 0.895495
O O7 0.500000 0.379772 0.860968
O O8 0.574196 0.569127 0.895494
O O9 0.349638 0.233648 0.371504
O O10 0.425695 0.266853 0.515137
O O11 0.814952 0.584059 0.250000
O O12 0.929632 0.546306 0.148206
O O13 0.650363 0.766352 0.871505
O O14 0.570368 0.953692 0.851794
O O15 1.000000 0.651164 0.869254
O O16 0.000000 0.500000 0.000000
O O17 0.074305 0.766853 0.984863
#
# Coordination Sequence:
#
# PCOD8248289 Si02
#       8
#     8   8   8   8   8   8   8   8
#     4  12  24  44  66  94 140 180 210 264 334 392
#     4  11  22  37  64  98 125 163 216 270 321 380
#     4  11  21  43  67  90 129 173 215 266 326 390
#     4  12  26  42  67  99 127 171 226 273 326 387
#     4  12  26  42  67  99 127 171 226 273 326 387
#     4  12  21  43  70  91 126 167 218 276 330 379
#     4  11  20  40  67  94 122 169 214 263 328 386
#     4  11  21  43  67  90 129 173 215 266 326 390
#
# _framework density 20.514243
#
# number of rings (size 3 to 8) (size 9 to 14) (size 15 to 20)
#    0.000    0.500    6.250    3.375    0.000    3.000 
#    0.000    0.000    0.000    0.000    0.000    0.000 
#    0.000    0.000    0.000    0.000    0.000    0.000 
#
# Total GULP energy -794029.401620 kJ/mol
# GULP energy per Si atom -12406.709400 kJ/mol
# Density = 2.046755 g / cm^3
# Si number density = 20.514243 Si / 1000 Ang^3
#
#
#
# Elastic Constant Matrix: (Units=GPa)
#
#
# Indices 1 2 3 4 5 6 
#
# 1 116.9764 30.5709 45.3101 0.0000 0.0000 0.0000
# 2 30.5709 120.8573 23.9309 0.0000 0.0000 0.0000
# 3 45.3101 23.9309 116.1712 0.0000 0.0000 0.0000
# 4 0.0000 0.0000 0.0000 33.5632 0.0000 0.0000
# 5 0.0000 0.0000 0.0000 0.0000 -8.3775 0.0000
# 6 0.0000 0.0000 0.0000 0.0000 0.0000 -11.3891
#
#
#
# Elastic Compliance Matrix: (Units=1/GPa)
#
#
# Indices 1 2 3 4 5 6 
#
# 1 0.010481 -0.001920 -0.003692 0.000000 0.000000 0.000000
# 2 -0.001920 0.008978 -0.001101 0.000000 0.000000 0.000000
# 3 -0.003692 -0.001101 0.010275 0.000000 0.000000 0.000000
# 4 0.000000 0.000000 0.000000 0.029795 0.000000 0.000000
# 5 0.000000 0.000000 0.000000 0.000000 -0.119368 0.000000
# 6 0.000000 0.000000 0.000000 0.000000 0.000000 -0.087803
#
#
# Mechanical properties :
#
#
# Convention : Reuss Voigt Hill
#
# Bulk Modulus (GPa) = 61.32079 61.51429 61.41754
# Shear Modulus (GPa) = -38.82530 19.70553 -9.55988
#
# Velocity S-wave (km/s) = -4.35512 3.10268 -2.16107
# Velocity P-wave (km/s) = 2.16038 6.54880 4.87617
#
# Compressibility (1/GPa) = 0.01630768
#
# Stress axis : x y z
#
# Youngs Moduli (GPa) = 95.41364 111.38579 97.32569
#
# Poissons Ratio (x) = 0.21386 0.35935
# Poissons Ratio (y) = 0.18319 0.10711
# Poissons Ratio (z) = 0.35229 0.12258
#
# Static dielectric constant tensor:
#      x y z
#    x 3.748100 0.000000 0.000000 
#    y 0.000000 3.823140 0.000000 
#    z 0.000000 0.000000 3.683800 
# 
# 
# High freq. dielectric constant tensor:
#      x y z
#    x 1.803630 0.000000 0.000000 
#    y 0.000000 1.818660 0.000000 
#    z 0.000000 0.000000 1.792920 
# 
# From -- ./inp_files/17494.got.cif
#   From: 2010.03.12/outbox.cif.g09.slc.cpg/sg60_9_cif.got.tgz:17494.got - 2010.04.10 18:46:24.
