data_PCOD8248800
_publ_section_title
;
Structure prediction by ZEFSAII (Michael W. Deem and Ramdas Pophale) SiO2 
 PCOD8248800
Probable space group: P B C A
;
_chemical_formula_sum "Si O2"
_cell_formula_units_Z 64
_cell_length_a 20.335729
_cell_length_b 9.277556
_cell_length_c 15.470576
_cell_angle_alpha 90.000000
_cell_angle_beta 90.000000
_cell_angle_gamma 90.000000
_cell_volume 2918.769597
_symmetry_space_group_name_H-M "P B C A"
_symmetry_group_IT_number 61
_symmetry_cell_setting 'orthorhombic'
loop_
_space_group_symop_operation_xyz
x,y,z
1/2-x,-y,1/2+z
1/2+x,1/2-y,-z
-x,1/2+y,1/2-z
-x,-y,-z
1/2+x,y,1/2-z
1/2-x,1/2+y,z
x,1/2-y,1/2+z
loop_
_atom_site_type_symbol
_atom_site_label
_atom_site_fract_x
_atom_site_fract_y
_atom_site_fract_z
Si Si1 0.687025 0.683641 0.015623
Si Si2 0.812047 0.641953 0.503267
Si Si3 0.428480 0.673732 0.525138
Si Si4 0.174083 0.810700 0.188114
Si Si5 0.959567 0.092927 0.749952
Si Si6 0.575148 0.276761 0.784098
Si Si7 0.209803 0.377636 0.701223
Si Si8 0.930140 0.376488 0.053773
O O1 0.690961 0.517185 0.043850
O O2 0.754275 0.761285 0.044520
O O3 0.674193 0.698221 0.914447
O O4 0.626276 0.757906 0.064597
O O5 0.883099 0.711759 0.526355
O O6 0.802752 0.639585 0.400521
O O7 0.417579 0.695302 0.626001
O O8 0.506258 0.691196 0.503768
O O9 0.403733 0.513179 0.500217
O O10 0.099035 0.801681 0.218696
O O11 0.218869 0.683118 0.228135
O O12 0.208285 0.954920 0.224594
O O13 0.953388 0.069009 0.647463
O O14 0.027530 0.176498 0.774557
O O15 0.956806 0.937071 0.796498
O O16 0.649568 0.297059 0.747550
#
# Coordination Sequence:
#
# PCOD8248800 Si02
#       8
#     8   8   8   8   8   8   8   8
#     4  10  19  33  56  83 110 144 186 228 272 330
#     4   9  17  32  55  79 105 143 191 229 260 322
#     4   9  19  37  57  79 109 149 191 230 273 333
#     4   9  18  32  53  76 103 139 181 222 263 319
#     4  10  21  37  56  83 114 143 181 233 284 331
#     4   9  19  36  57  79 108 147 191 227 269 333
#     4   8  16  31  51  78 101 131 184 229 256 309
#     4  10  21  36  55  82 118 149 179 231 293 333
#
# _framework density 21.927047999999999
#
# number of rings (size 3 to 8) (size 9 to 14) (size 15 to 20)
#    0.000    2.750    0.000    1.500    0.000    7.500 
#    0.000    7.500    0.000    0.000    0.000    0.000 
#    0.000    0.000    0.000    0.000    0.000    0.000 
#
# Total GULP energy -793214.440278 kJ/mol
# GULP energy per Si atom -12393.975629 kJ/mol
# Density = 2.187714 g / cm^3
# Si number density = 21.927048 Si / 1000 Ang^3
#
#
#
# Elastic Constant Matrix: (Units=GPa)
#
#
# Indices 1 2 3 4 5 6 
#
# 1 70.9234 29.3270 4.9267 0.0000 0.0000 0.0000
# 2 29.3270 95.9577 10.9117 0.0000 0.0000 0.0000
# 3 4.9267 10.9117 23.7205 0.0000 0.0000 0.0000
# 4 0.0000 0.0000 0.0000 14.6838 0.0000 0.0000
# 5 0.0000 0.0000 0.0000 0.0000 24.4109 0.0000
# 6 0.0000 0.0000 0.0000 0.0000 0.0000 49.2305
#
#
#
# Elastic Compliance Matrix: (Units=1/GPa)
#
#
# Indices 1 2 3 4 5 6 
#
# 1 0.016169 -0.004811 -0.001145 0.000000 0.000000 0.000000
# 2 -0.004811 0.012428 -0.004718 0.000000 0.000000 0.000000
# 3 -0.001145 -0.004718 0.044566 0.000000 0.000000 0.000000
# 4 0.000000 0.000000 0.000000 0.068102 0.000000 0.000000
# 5 0.000000 0.000000 0.000000 0.000000 0.040965 0.000000
# 6 0.000000 0.000000 0.000000 0.000000 0.000000 0.020313
#
#
# Mechanical properties :
#
#
# Convention : Reuss Voigt Hill
#
# Bulk Modulus (GPa) = 19.29966 31.21471 25.25718
# Shear Modulus (GPa) = 20.73293 27.36080 24.04687
#
# Velocity S-wave (km/s) = 3.07830 3.53627 3.31520
# Velocity P-wave (km/s) = 4.63200 5.56239 5.11838
#
# Compressibility (1/GPa) = 0.05181438
#
# Stress axis : x y z
#
# Youngs Moduli (GPa) = 61.84766 80.46220 22.43883
#
# Poissons Ratio (x) = 0.38713 0.02569
# Poissons Ratio (y) = 0.29757 0.10586
# Poissons Ratio (z) = 0.07081 0.37960
#
# Static dielectric constant tensor:
#      x y z
#    x 4.345060 0.000000 0.000000 
#    y 0.000000 4.032580 0.000000 
#    z 0.000000 0.000000 3.393470 
# 
# 
# High freq. dielectric constant tensor:
#      x y z
#    x 1.875090 0.000000 0.000000 
#    y 0.000000 1.859710 0.000000 
#    z 0.000000 0.000000 1.815040 
# 
# From -- ./inp_files/9772.got.cif
#   From: 2010.03.12/outbox.cif.g09.slc.cpg/sg61_5_cif.got.tgz:9772.got - 2010.04.10 19:05:03.
