data_PCOD8248991
_publ_section_title
;
Structure prediction by ZEFSAII (Michael W. Deem and Ramdas Pophale) SiO2 
 PCOD8248991
Probable space group: P B C A
;
_chemical_formula_sum "Si O2"
_cell_formula_units_Z 40
_cell_length_a 9.548887
_cell_length_b 17.008714
_cell_length_c 13.171712
_cell_angle_alpha 90.000000
_cell_angle_beta 90.000000
_cell_angle_gamma 90.000000
_cell_volume 2139.274226
_symmetry_space_group_name_H-M "P B C A"
_symmetry_group_IT_number 61
_symmetry_cell_setting 'orthorhombic'
loop_
_space_group_symop_operation_xyz
x,y,z
1/2-x,-y,1/2+z
1/2+x,1/2-y,-z
-x,1/2+y,1/2-z
-x,-y,-z
1/2+x,y,1/2-z
1/2-x,1/2+y,z
x,1/2-y,1/2+z
loop_
_atom_site_type_symbol
_atom_site_label
_atom_site_fract_x
_atom_site_fract_y
_atom_site_fract_z
Si Si1 0.041770 0.437999 0.856393
Si Si2 0.194189 0.854677 0.768661
Si Si3 0.025208 0.393965 0.089422
Si Si4 0.733729 0.272866 0.384040
Si Si5 0.445757 0.232550 0.445878
O O1 0.175810 0.410539 0.793449
O O2 0.029994 0.532505 0.846336
O O3 0.902422 0.399488 0.811361
O O4 0.057771 0.415387 0.973068
O O5 0.246370 0.772791 0.720998
O O6 0.112111 0.833944 0.871071
O O7 0.911896 0.322199 0.092742
O O8 0.171453 0.360403 0.137608
O O9 0.615918 0.226182 0.452472
O O10 0.880139 0.279727 0.443196
#
# Coordination Sequence:
#
# PCOD8248991 Si02
#       5
#     8   8   8   8   8
#     4  11  21  36  60  82 119 155 189 241 298 348
#     4  12  20  36  62  86 112 156 200 236 290 354
#     4   9  21  38  56  81 119 155 185 240 298 336
#     4  10  20  37  60  86 111 154 197 243 282 352
#     4  10  20  37  60  86 111 154 197 243 282 352
#
# _framework density 18.697928999999998
#
# number of rings (size 3 to 8) (size 9 to 14) (size 15 to 20)
#    1.200    0.400    6.000    0.000    0.000    1.600 
#    0.000    0.000    4.400    4.800    0.000    0.000 
#    0.000    0.000    0.000    0.000    0.000    0.000 
#
# Total GULP energy -495611.033765 kJ/mol
# GULP energy per Si atom -12390.275844 kJ/mol
# Density = 1.865537 g / cm^3
# Si number density = 18.697929 Si / 1000 Ang^3
#
#
#
# Elastic Constant Matrix: (Units=GPa)
#
#
# Indices 1 2 3 4 5 6 
#
# 1 54.1447 -8.5134 -1.1274 0.0000 0.0000 0.0000
# 2 -8.5134 83.8135 6.6735 0.0000 0.0000 0.0000
# 3 -1.1274 6.6735 35.0858 0.0000 0.0000 0.0000
# 4 0.0000 0.0000 0.0000 21.3799 0.0000 0.0000
# 5 0.0000 0.0000 0.0000 0.0000 9.8266 0.0000
# 6 0.0000 0.0000 0.0000 0.0000 0.0000 29.5452
#
#
#
# Elastic Compliance Matrix: (Units=1/GPa)
#
#
# Indices 1 2 3 4 5 6 
#
# 1 0.018771 0.001887 0.000244 0.000000 0.000000 0.000000
# 2 0.001887 0.012304 -0.002280 0.000000 0.000000 0.000000
# 3 0.000244 -0.002280 0.028943 0.000000 0.000000 0.000000
# 4 0.000000 0.000000 0.000000 0.046773 0.000000 0.000000
# 5 0.000000 0.000000 0.000000 0.000000 0.101765 0.000000
# 6 0.000000 0.000000 0.000000 0.000000 0.000000 0.033846
#
#
# Mechanical properties :
#
#
# Convention : Reuss Voigt Hill
#
# Bulk Modulus (GPa) = 16.74434 18.56771 17.65602
# Shear Modulus (GPa) = 19.03988 23.88441 21.46214
#
# Velocity S-wave (km/s) = 3.19452 3.57793 3.39165
# Velocity P-wave (km/s) = 4.75198 5.19814 4.98006
#
# Compressibility (1/GPa) = 0.05972169
#
# Stress axis : x y z
#
# Youngs Moduli (GPa) = 53.27414 81.27126 34.55061
#
# Poissons Ratio (x) = -0.15338 -0.00844
# Poissons Ratio (y) = -0.10054 0.07877
# Poissons Ratio (z) = -0.01301 0.18528
#
# Static dielectric constant tensor:
#      x y z
#    x 3.326110 0.000000 0.000000 
#    y 0.000000 3.507080 0.000000 
#    z 0.000000 0.000000 3.136090 
# 
# 
# High freq. dielectric constant tensor:
#      x y z
#    x 1.719970 0.000000 0.000000 
#    y 0.000000 1.719580 0.000000 
#    z 0.000000 0.000000 1.709610 
# 
# From -- ./inp_files/3353.got.cif
#   From: 2010.03.12/outbox.cif.g09.slc.cpg/sg61_2_cif.got.tgz:3353.got - 2010.04.10 19:05:03.
