data_PCOD8248330
_publ_section_title
;
Structure prediction by ZEFSAII (Michael W. Deem and Ramdas Pophale) SiO2 
 PCOD8248330
Probable space group: P B C N
;
_chemical_formula_sum "Si O2"
_cell_formula_units_Z 32
_cell_length_a 9.807086
_cell_length_b 19.773360
_cell_length_c 7.971469
_cell_angle_alpha 90.000000
_cell_angle_beta 90.000000
_cell_angle_gamma 90.000000
_cell_volume 1545.819632
_symmetry_space_group_name_H-M "P B C N"
_symmetry_group_IT_number 60
_symmetry_cell_setting 'orthorhombic'
loop_
_space_group_symop_operation_xyz
x,y,z
1/2-x,1/2-y,1/2+z
1/2+x,1/2-y,-z
-x,y,1/2-z
-x,-y,-z
1/2+x,1/2+y,1/2-z
1/2-x,1/2+y,z
x,-y,1/2+z
loop_
_atom_site_type_symbol
_atom_site_label
_atom_site_fract_x
_atom_site_fract_y
_atom_site_fract_z
Si Si1 0.820797 0.551161 0.111948
Si Si2 0.628087 0.781271 0.870268
Si Si3 0.896303 0.419184 0.987952
Si Si4 0.634797 0.328313 0.641178
O O1 0.869009 0.567365 0.295098
O O2 0.688813 0.597910 0.080030
O O3 0.942148 0.567943 0.977012
O O4 0.797504 0.469609 0.094692
O O5 0.500000 0.794275 0.750000
O O6 0.636881 0.839988 0.014772
O O7 0.761552 0.784399 0.753998
O O8 0.609450 0.711108 0.967485
O O9 0.500000 0.339675 0.750000
#
# Coordination Sequence:
#
# PCOD8248330 Si02
#       4
#     8   8   8   8
#     4   9  18  35  56  85 114 151 202 246 295 352
#     4  11  21  41  59  90 125 162 206 246 300 370
#     4   9  17  35  59  80 116 153 197 253 287 355
#     4  11  23  37  61  91 125 162 198 256 308 357
#
# _framework density 20.700993
#
# number of rings (size 3 to 8) (size 9 to 14) (size 15 to 20)
#    0.000    2.000    5.000    1.500    0.000    2.000 
#    4.500    5.000    0.000    3.000    0.000    0.000 
#    0.000    0.000    0.000    0.000    0.000    0.000 
#
# Total GULP energy -396423.082389 kJ/mol
# GULP energy per Si atom -12388.221325 kJ/mol
# Density = 2.065388 g / cm^3
# Si number density = 20.700993 Si / 1000 Ang^3
#
#
#
# Elastic Constant Matrix: (Units=GPa)
#
#
# Indices 1 2 3 4 5 6 
#
# 1 101.7027 58.9238 28.7346 0.0000 0.0000 0.0000
# 2 58.9238 134.9445 37.6830 0.0000 0.0000 0.0000
# 3 28.7346 37.6830 22.9549 0.0000 0.0000 0.0000
# 4 0.0000 0.0000 0.0000 27.6740 0.0000 0.0000
# 5 0.0000 0.0000 0.0000 0.0000 21.3036 0.0000
# 6 0.0000 0.0000 0.0000 0.0000 0.0000 24.4798
#
#
#
# Elastic Compliance Matrix: (Units=1/GPa)
#
#
# Indices 1 2 3 4 5 6 
#
# 1 0.015663 -0.002519 -0.015472 0.000000 0.000000 0.000000
# 2 -0.002519 0.014088 -0.019974 0.000000 0.000000 0.000000
# 3 -0.015472 -0.019974 0.095721 0.000000 0.000000 0.000000
# 4 0.000000 0.000000 0.000000 0.036135 0.000000 0.000000
# 5 0.000000 0.000000 0.000000 0.000000 0.046940 0.000000
# 6 0.000000 0.000000 0.000000 0.000000 0.000000 0.040850
#
#
# Mechanical properties :
#
#
# Convention : Reuss Voigt Hill
#
# Bulk Modulus (GPa) = 20.18481 56.69833 38.44157
# Shear Modulus (GPa) = 14.62667 23.64219 19.13443
#
# Velocity S-wave (km/s) = 2.66102 3.38313 3.04357
# Velocity P-wave (km/s) = 4.38328 6.53525 5.56429
#
# Compressibility (1/GPa) = 0.04954222
#
# Stress axis : x y z
#
# Youngs Moduli (GPa) = 63.84317 70.98245 10.44707
#
# Poissons Ratio (x) = 0.17880 0.16164
# Poissons Ratio (y) = 0.16081 0.20867
# Poissons Ratio (z) = 0.98779 1.41779
#
# Static dielectric constant tensor:
#      x y z
#    x 3.933080 0.000000 0.000000 
#    y 0.000000 4.801240 0.000000 
#    z 0.000000 0.000000 3.448100 
# 
# 
# High freq. dielectric constant tensor:
#      x y z
#    x 1.784540 0.000000 0.000000 
#    y 0.000000 1.821620 0.000000 
#    z 0.000000 0.000000 1.787020 
# 
# From -- ./inp_files/3556.got.cif
#   From: 2010.03.12/outbox.cif.g09.slc.cpg/sg60_2_cif.got.tgz:3556.got - 2010.04.10 18:46:24.
