data_PCOD8248796
_publ_section_title
;
Structure prediction by ZEFSAII (Michael W. Deem and Ramdas Pophale) SiO2 
 PCOD8248796
Probable space group: P B C A
;
_chemical_formula_sum "Si O2"
_cell_formula_units_Z 64
_cell_length_a 32.165792
_cell_length_b 19.801408
_cell_length_c 5.008755
_cell_angle_alpha 90.000000
_cell_angle_beta 90.000000
_cell_angle_gamma 90.000000
_cell_volume 3190.216160
_symmetry_space_group_name_H-M "P B C A"
_symmetry_group_IT_number 61
_symmetry_cell_setting 'orthorhombic'
loop_
_space_group_symop_operation_xyz
x,y,z
1/2-x,-y,1/2+z
1/2+x,1/2-y,-z
-x,1/2+y,1/2-z
-x,-y,-z
1/2+x,y,1/2-z
1/2-x,1/2+y,z
x,1/2-y,1/2+z
loop_
_atom_site_type_symbol
_atom_site_label
_atom_site_fract_x
_atom_site_fract_y
_atom_site_fract_z
Si Si1 0.758869 0.914680 0.323302
Si Si2 0.310015 0.703208 0.649788
Si Si3 0.300000 0.525648 0.172037
Si Si4 0.444877 0.509800 0.743038
Si Si5 0.870847 0.907138 0.119843
Si Si6 0.967595 0.432148 0.244536
Si Si7 0.976926 0.209194 0.963822
Si Si8 0.074483 0.291159 0.483360
O O1 0.763994 0.832932 0.352826
O O2 0.791645 0.951248 0.524871
O O3 0.712379 0.945635 0.369508
O O4 0.769901 0.931199 0.018072
O O5 0.316460 0.737850 0.364762
O O6 0.340968 0.640052 0.700086
O O7 0.346925 0.542355 0.082899
O O8 0.400976 0.547295 0.696633
O O9 0.482959 0.561344 0.687440
O O10 0.445604 0.446437 0.539288
O O11 0.450107 0.486310 0.047225
O O12 0.901179 0.859485 0.944775
O O13 0.955487 0.358678 0.357695
O O14 0.963647 0.269388 0.761560
O O15 0.025800 0.195270 0.980836
O O16 0.088586 0.234574 0.693246
#
# Coordination Sequence:
#
# PCOD8248796 Si02
#       8
#     8   8   8   8   8   8   8   8
#     4   9  18  36  51  77 104 142 182 217 249 311
#     4  11  22  34  53  80 115 149 173 207 260 329
#     4   9  19  32  56  74 105 139 181 223 259 299
#     4  10  22  33  54  70 110 142 179 229 271 321
#     4  11  21  36  51  82 109 146 178 221 273 325
#     4  10  20  38  49  76  99 145 187 224 274 322
#     4  10  19  33  54  74  96 132 180 225 265 320
#     4  10  21  32  46  71 108 143 170 208 259 323
#
# _framework density 20.061337000000002
#
# number of rings (size 3 to 8) (size 9 to 14) (size 15 to 20)
#    0.000    2.000    1.250    3.000    0.000    6.000 
#    0.000    0.000    0.000    0.000    0.000    5.250 
#    0.000    0.000    0.000    0.000    0.000    0.000 
#
# Total GULP energy -792997.430691 kJ/mol
# GULP energy per Si atom -12390.584855 kJ/mol
# Density = 2.001568 g / cm^3
# Si number density = 20.061337 Si / 1000 Ang^3
#
#
#
# Elastic Constant Matrix: (Units=GPa)
#
#
# Indices 1 2 3 4 5 6 
#
# 1 36.1673 36.6505 7.8538 0.0000 0.0000 0.0000
# 2 36.6505 78.9854 3.7760 0.0000 0.0000 0.0000
# 3 7.8538 3.7760 65.8749 0.0000 0.0000 0.0000
# 4 0.0000 0.0000 0.0000 25.6025 0.0000 0.0000
# 5 0.0000 0.0000 0.0000 0.0000 13.5500 0.0000
# 6 0.0000 0.0000 0.0000 0.0000 0.0000 39.2676
#
#
#
# Elastic Compliance Matrix: (Units=1/GPa)
#
#
# Indices 1 2 3 4 5 6 
#
# 1 0.053780 -0.024716 -0.004995 0.000000 0.000000 0.000000
# 2 -0.024716 0.024054 0.001568 0.000000 0.000000 0.000000
# 3 -0.004995 0.001568 0.015686 0.000000 0.000000 0.000000
# 4 0.000000 0.000000 0.000000 0.039059 0.000000 0.000000
# 5 0.000000 0.000000 0.000000 0.000000 0.073801 0.000000
# 6 0.000000 0.000000 0.000000 0.000000 0.000000 0.025466
#
#
# Mechanical properties :
#
#
# Convention : Reuss Voigt Hill
#
# Bulk Modulus (GPa) = 26.85722 30.84314 28.85018
# Shear Modulus (GPa) = 16.63647 24.53382 20.58515
#
# Velocity S-wave (km/s) = 2.88285 3.50085 3.20677
# Velocity P-wave (km/s) = 4.94951 5.63463 5.30315
#
# Compressibility (1/GPa) = 0.03723394
#
# Stress axis : x y z
#
# Youngs Moduli (GPa) = 18.59416 41.57262 63.75133
#
# Poissons Ratio (x) = 1.02751 0.31844
# Poissons Ratio (y) = 0.45958 -0.09996
# Poissons Ratio (z) = 0.09288 -0.06518
#
# Static dielectric constant tensor:
#      x y z
#    x 3.495440 0.000000 0.000000 
#    y 0.000000 3.808960 0.000000 
#    z 0.000000 0.000000 3.691830 
# 
# 
# High freq. dielectric constant tensor:
#      x y z
#    x 1.732650 0.000000 0.000000 
#    y 0.000000 1.774430 0.000000 
#    z 0.000000 0.000000 1.796420 
# 
# From -- ./inp_files/1513.got.cif
#   From: 2010.03.12/outbox.cif.g09.slc.cpg/sg61_1_cif.got.tgz:1513.got - 2010.04.10 19:05:03.
