data_PCOD8248461
_publ_section_title
;
Structure prediction by ZEFSAII (Michael W. Deem and Ramdas Pophale) SiO2 
 PCOD8248461
Probable space group: P B C N
;
_chemical_formula_sum "Si O2"
_cell_formula_units_Z 48
_cell_length_a 18.848654
_cell_length_b 13.404173
_cell_length_c 8.996218
_cell_angle_alpha 90.000000
_cell_angle_beta 90.000000
_cell_angle_gamma 90.000000
_cell_volume 2272.900047
_symmetry_space_group_name_H-M "P B C N"
_symmetry_group_IT_number 60
_symmetry_cell_setting 'orthorhombic'
loop_
_space_group_symop_operation_xyz
x,y,z
1/2-x,1/2-y,1/2+z
1/2+x,1/2-y,-z
-x,y,1/2-z
-x,-y,-z
1/2+x,1/2+y,1/2-z
1/2-x,1/2+y,z
x,-y,1/2+z
loop_
_atom_site_type_symbol
_atom_site_label
_atom_site_fract_x
_atom_site_fract_y
_atom_site_fract_z
Si Si1 0.686439 0.700176 0.862969
Si Si2 0.069639 0.894516 0.346140
Si Si3 0.307153 0.083876 0.262832
Si Si4 0.934067 0.785996 0.857365
Si Si5 0.151811 0.911795 0.849591
Si Si6 0.161668 0.607866 0.594866
O O1 0.633621 0.657038 0.740950
O O2 0.693622 0.818365 0.840809
O O3 0.764335 0.653625 0.848813
O O4 0.655741 0.674261 0.025407
O O5 0.044919 0.821730 0.478106
O O6 0.000000 0.915682 0.250000
O O7 0.099998 0.000009 0.406271
O O8 0.228744 0.045390 0.306784
O O9 0.346972 0.103426 0.417193
O O10 0.347653 0.000552 0.167548
O O11 0.875785 0.864198 0.802000
O O12 0.903467 0.674881 0.851550
O O13 0.000000 0.789995 0.750000
#
# Coordination Sequence:
#
# PCOD8248461 Si02
#       6
#     8   8   8   8   8   8
#     4  11  23  43  69 104 142 177 224 288 347 418
#     4  12  25  46  69 104 143 183 231 281 357 417
#     4  11  24  42  71 106 137 179 230 292 344 409
#     4  12  26  45  66 101 138 185 232 283 344 413
#     4  11  24  40  73 104 139 180 224 289 350 413
#     4  11  25  43  71 102 137 179 233 286 346 413
#
# _framework density 21.118395
#
# number of rings (size 3 to 8) (size 9 to 14) (size 15 to 20)
#    0.000    0.667    5.000    2.500    4.667    2.000 
#    0.000    1.667    0.000    0.000    0.000    0.000 
#    0.000    0.000    0.000    0.000    0.000    0.000 
#
# Total GULP energy -595364.983738 kJ/mol
# GULP energy per Si atom -12403.437161 kJ/mol
# Density = 2.107033 g / cm^3
# Si number density = 21.118395 Si / 1000 Ang^3
#
#
#
# Elastic Constant Matrix: (Units=GPa)
#
#
# Indices 1 2 3 4 5 6 
#
# 1 53.7900 25.0420 35.1891 0.0000 0.0000 0.0000
# 2 25.0420 138.0946 42.9048 0.0000 0.0000 0.0000
# 3 35.1891 42.9048 103.7689 0.0000 0.0000 0.0000
# 4 0.0000 0.0000 0.0000 39.7627 0.0000 0.0000
# 5 0.0000 0.0000 0.0000 0.0000 30.9891 0.0000
# 6 0.0000 0.0000 0.0000 0.0000 0.0000 27.3627
#
#
#
# Elastic Compliance Matrix: (Units=1/GPa)
#
#
# Indices 1 2 3 4 5 6 
#
# 1 0.024425 -0.002129 -0.007402 0.000000 0.000000 0.000000
# 2 -0.002129 0.008494 -0.002790 0.000000 0.000000 0.000000
# 3 -0.007402 -0.002790 0.013301 0.000000 0.000000 0.000000
# 4 0.000000 0.000000 0.000000 0.025149 0.000000 0.000000
# 5 0.000000 0.000000 0.000000 0.000000 0.032269 0.000000
# 6 0.000000 0.000000 0.000000 0.000000 0.000000 0.036546
#
#
# Mechanical properties :
#
#
# Convention : Reuss Voigt Hill
#
# Bulk Modulus (GPa) = 46.34709 55.76948 51.05828
# Shear Modulus (GPa) = 29.06643 32.45739 30.76191
#
# Velocity S-wave (km/s) = 3.71395 3.92462 3.82074
# Velocity P-wave (km/s) = 6.35494 6.85581 6.61012
#
# Compressibility (1/GPa) = 0.02157633
#
# Stress axis : x y z
#
# Youngs Moduli (GPa) = 40.94226 117.72472 75.18479
#
# Poissons Ratio (x) = 0.25068 0.55654
# Poissons Ratio (y) = 0.08718 0.20977
# Poissons Ratio (z) = 0.30306 0.32846
#
# Static dielectric constant tensor:
#      x y z
#    x 3.731860 0.000000 0.000000 
#    y 0.000000 3.908370 0.000000 
#    z 0.000000 0.000000 3.961480 
# 
# 
# High freq. dielectric constant tensor:
#      x y z
#    x 1.817790 0.000000 0.000000 
#    y 0.000000 1.830850 0.000000 
#    z 0.000000 0.000000 1.838130 
# 
# From -- ./inp_files/6712.got.cif
#   From: 2010.03.12/outbox.cif.g09.slc.cpg/sg60_4_cif.got.tgz:6712.got - 2010.04.10 18:46:24.
