data_PCOD8248443
_publ_section_title
;
Structure prediction by ZEFSAII (Michael W. Deem and Ramdas Pophale) SiO2 
 PCOD8248443
Probable space group: P B C N
;
_chemical_formula_sum "Si O2"
_cell_formula_units_Z 32
_cell_length_a 10.427724
_cell_length_b 8.725373
_cell_length_c 16.407333
_cell_angle_alpha 90.000000
_cell_angle_beta 90.000000
_cell_angle_gamma 90.000000
_cell_volume 1492.834014
_symmetry_space_group_name_H-M "P B C N"
_symmetry_group_IT_number 60
_symmetry_cell_setting 'orthorhombic'
loop_
_space_group_symop_operation_xyz
x,y,z
1/2-x,1/2-y,1/2+z
1/2+x,1/2-y,-z
-x,y,1/2-z
-x,-y,-z
1/2+x,1/2+y,1/2-z
1/2-x,1/2+y,z
x,-y,1/2+z
loop_
_atom_site_type_symbol
_atom_site_label
_atom_site_fract_x
_atom_site_fract_y
_atom_site_fract_z
Si Si1 0.132527 0.988532 0.224412
Si Si2 0.377830 0.897628 0.478678
Si Si3 0.622634 0.826968 0.207646
Si Si4 0.630917 0.435609 0.463419
O O1 0.247937 0.904651 0.266434
O O2 0.148824 0.995560 0.127834
O O3 0.000000 0.903428 0.250000
O O4 0.128789 0.155064 0.262417
O O5 0.394460 0.831882 0.388632
O O6 0.369462 0.749460 0.537372
O O7 0.500000 0.000000 0.500000
O O8 0.250393 0.000592 0.484622
O O9 0.500000 0.909353 0.250000
O O10 0.500000 0.500000 0.500000
#
# Coordination Sequence:
#
# PCOD8248443 Si02
#       4
#     8   8   8   8
#     4  11  24  42  64  93 128 170 215 267 324 388
#     4  12  25  43  68  99 133 176 222 275 333 395
#     4  11  23  42  63  93 130 168 215 268 322 387
#     4  12  24  43  67  97 134 176 223 274 330 396
#
# _framework density 21.435739000000002
#
# number of rings (size 3 to 8) (size 9 to 14) (size 15 to 20)
#    0.000    0.500    0.000   10.500    0.000    3.000 
#    0.000    0.000    0.000    0.000    0.000    0.000 
#    0.000    0.000    0.000    0.000    0.000    0.000 
#
# Total GULP energy -396935.434904 kJ/mol
# GULP energy per Si atom -12404.232341 kJ/mol
# Density = 2.138695 g / cm^3
# Si number density = 21.435739 Si / 1000 Ang^3
#
#
#
# Elastic Constant Matrix: (Units=GPa)
#
#
# Indices 1 2 3 4 5 6 
#
# 1 204.7228 67.0916 34.3898 0.0000 0.0000 0.0000
# 2 67.0916 135.5599 44.3265 0.0000 0.0000 0.0000
# 3 34.3898 44.3265 157.7284 0.0000 0.0000 0.0000
# 4 0.0000 0.0000 0.0000 22.6125 0.0000 0.0000
# 5 0.0000 0.0000 0.0000 0.0000 42.6320 0.0000
# 6 0.0000 0.0000 0.0000 0.0000 0.0000 37.7175
#
#
#
# Elastic Compliance Matrix: (Units=1/GPa)
#
#
# Indices 1 2 3 4 5 6 
#
# 1 0.005867 -0.002737 -0.000510 0.000000 0.000000 0.000000
# 2 -0.002737 0.009400 -0.002045 0.000000 0.000000 0.000000
# 3 -0.000510 -0.002045 0.007026 0.000000 0.000000 0.000000
# 4 0.000000 0.000000 0.000000 0.044223 0.000000 0.000000
# 5 0.000000 0.000000 0.000000 0.000000 0.023457 0.000000
# 6 0.000000 0.000000 0.000000 0.000000 0.000000 0.026513
#
#
# Mechanical properties :
#
#
# Convention : Reuss Voigt Hill
#
# Bulk Modulus (GPa) = 85.40307 87.73632 86.56970
# Shear Modulus (GPa) = 38.17568 44.07262 41.12415
#
# Velocity S-wave (km/s) = 4.22469 4.53927 4.38480
# Velocity P-wave (km/s) = 7.98281 8.27599 8.13073
#
# Compressibility (1/GPa) = 0.01170918
#
# Stress axis : x y z
#
# Youngs Moduli (GPa) = 170.43521 106.38142 142.33027
#
# Poissons Ratio (x) = 0.29118 0.07260
# Poissons Ratio (y) = 0.46650 0.29106
# Poissons Ratio (z) = 0.08693 0.21754
#
# Static dielectric constant tensor:
#      x y z
#    x 4.908200 0.000000 0.000000 
#    y 0.000000 4.079730 0.000000 
#    z 0.000000 0.000000 2.194420 
# 
# 
# High freq. dielectric constant tensor:
#      x y z
#    x 1.872320 0.000000 0.000000 
#    y 0.000000 1.841670 0.000000 
#    z 0.000000 0.000000 1.856050 
# 
# From -- ./inp_files/15618.got.cif
#   From: 2010.03.12/outbox.cif.g09.slc.cpg/sg60_8_cif.got.tgz:15618.got - 2010.04.10 18:46:24.
