data_PCOD8248748
_publ_section_title
;
Structure prediction by ZEFSAII (Michael W. Deem and Ramdas Pophale) SiO2 
 PCOD8248748
Probable space group: P B C A
;
_chemical_formula_sum "Si O2"
_cell_formula_units_Z 64
_cell_length_a 20.939157
_cell_length_b 16.718307
_cell_length_c 8.809565
_cell_angle_alpha 90.000000
_cell_angle_beta 90.000000
_cell_angle_gamma 90.000000
_cell_volume 3083.940238
_symmetry_space_group_name_H-M "P B C A"
_symmetry_group_IT_number 61
_symmetry_cell_setting 'orthorhombic'
loop_
_space_group_symop_operation_xyz
x,y,z
1/2-x,-y,1/2+z
1/2+x,1/2-y,-z
-x,1/2+y,1/2-z
-x,-y,-z
1/2+x,y,1/2-z
1/2-x,1/2+y,z
x,1/2-y,1/2+z
loop_
_atom_site_type_symbol
_atom_site_label
_atom_site_fract_x
_atom_site_fract_y
_atom_site_fract_z
Si Si1 0.973386 0.918606 0.561130
Si Si2 0.342441 0.569396 0.602500
Si Si3 0.802025 0.385078 0.888965
Si Si4 0.395116 0.347426 0.138187
Si Si5 0.580921 0.703179 0.531965
Si Si6 0.322927 0.572685 0.944095
Si Si7 0.943597 0.977333 0.886067
Si Si8 0.218954 0.608805 0.450184
O O1 0.908037 0.903319 0.472732
O O2 0.967066 0.926067 0.742846
O O3 0.020541 0.847056 0.522373
O O4 0.000000 0.000000 0.500000
O O5 0.331589 0.474025 0.597935
O O6 0.337232 0.602777 0.773824
O O7 0.291756 0.615811 0.499484
O O8 0.789791 0.355524 0.717399
O O9 0.853651 0.324564 0.953640
O O10 0.734629 0.377153 0.979191
O O11 0.405709 0.298789 0.290861
O O12 0.417002 0.437519 0.168726
O O13 0.433767 0.296042 0.011679
O O14 0.322164 0.347452 0.079924
O O15 0.301565 0.482193 0.939182
O O16 0.389186 0.577409 0.036979
O O17 0.000000 0.000000 0.000000
#
# Coordination Sequence:
#
# PCOD8248748 Si02
#       8
#     8   8   8   8   8   8   8   8
#     4  12  22  38  61  93 125 167 211 259 316 375
#     4  10  18  34  58  88 124 152 203 253 304 364
#     4  10  18  34  57  90 118 154 199 255 306 363
#     4  11  24  41  59  90 121 165 209 261 317 376
#     4  12  25  39  64  87 128 166 209 257 322 384
#     4   9  19  32  58  92 119 154 195 260 308 353
#     4  11  23  38  64  91 126 160 217 264 312 376
#     4   9  19  34  60  85 119 153 200 250 307 359
#
# _framework density 20.752673000000001
#
# number of rings (size 3 to 8) (size 9 to 14) (size 15 to 20)
#    0.000    1.500    2.500    3.000    5.250    4.000 
#    0.000    0.000    2.750    0.000    0.000    0.000 
#    0.000    0.000    0.000    0.000    0.000    0.000 
#
# Total GULP energy -793372.820267 kJ/mol
# GULP energy per Si atom -12396.450317 kJ/mol
# Density = 2.070544 g / cm^3
# Si number density = 20.752673 Si / 1000 Ang^3
#
#
#
# Elastic Constant Matrix: (Units=GPa)
#
#
# Indices 1 2 3 4 5 6 
#
# 1 147.4888 11.1015 55.3459 0.0000 0.0000 0.0000
# 2 11.1015 33.7609 3.0668 0.0000 0.0000 0.0000
# 3 55.3459 3.0668 153.1586 0.0000 0.0000 0.0000
# 4 0.0000 0.0000 0.0000 25.2924 0.0000 0.0000
# 5 0.0000 0.0000 0.0000 0.0000 41.4395 0.0000
# 6 0.0000 0.0000 0.0000 0.0000 0.0000 14.4197
#
#
#
# Elastic Compliance Matrix: (Units=1/GPa)
#
#
# Indices 1 2 3 4 5 6 
#
# 1 0.008030 -0.002381 -0.002854 0.000000 0.000000 0.000000
# 2 -0.002381 0.030380 0.000252 0.000000 0.000000 0.000000
# 3 -0.002854 0.000252 0.007556 0.000000 0.000000 0.000000
# 4 0.000000 0.000000 0.000000 0.039538 0.000000 0.000000
# 5 0.000000 0.000000 0.000000 0.000000 0.024132 0.000000
# 6 0.000000 0.000000 0.000000 0.000000 0.000000 0.069350
#
#
# Mechanical properties :
#
#
# Convention : Reuss Voigt Hill
#
# Bulk Modulus (GPa) = 27.77819 52.60408 40.19113
# Shear Modulus (GPa) = 24.88159 33.88991 29.38575
#
# Velocity S-wave (km/s) = 3.46635 4.04547 3.76706
# Velocity P-wave (km/s) = 5.42542 6.87199 6.19110
#
# Compressibility (1/GPa) = 0.03599947
#
# Stress axis : x y z
#
# Youngs Moduli (GPa) = 124.52535 32.91615 132.35308
#
# Poissons Ratio (x) = 0.07839 0.37777
# Poissons Ratio (y) = 0.29654 -0.03338
# Poissons Ratio (z) = 0.35543 -0.00830
#
# Static dielectric constant tensor:
#      x y z
#    x 3.525120 0.000000 0.000000 
#    y 0.000000 3.479400 0.000000 
#    z 0.000000 0.000000 4.043640 
# 
# 
# High freq. dielectric constant tensor:
#      x y z
#    x 1.818760 0.000000 0.000000 
#    y 0.000000 1.776400 0.000000 
#    z 0.000000 0.000000 1.832700 
# 
# From -- ./inp_files/4057.got.cif
#   From: 2010.03.12/outbox.cif.g09.slc.cpg/sg61_3_cif.got.tgz:4057.got - 2010.04.10 19:05:03.
