data_PCOD8248354
_publ_section_title
;
Structure prediction by ZEFSAII (Michael W. Deem and Ramdas Pophale) SiO2 
 PCOD8248354
Probable space group: P B C N
;
_chemical_formula_sum "Si O2"
_cell_formula_units_Z 48
_cell_length_a 9.619397
_cell_length_b 14.639435
_cell_length_c 17.553355
_cell_angle_alpha 90.000000
_cell_angle_beta 90.000000
_cell_angle_gamma 90.000000
_cell_volume 2471.907986
_symmetry_space_group_name_H-M "P B C N"
_symmetry_group_IT_number 60
_symmetry_cell_setting 'orthorhombic'
loop_
_space_group_symop_operation_xyz
x,y,z
1/2-x,1/2-y,1/2+z
1/2+x,1/2-y,-z
-x,y,1/2-z
-x,-y,-z
1/2+x,1/2+y,1/2-z
1/2-x,1/2+y,z
x,-y,1/2+z
loop_
_atom_site_type_symbol
_atom_site_label
_atom_site_fract_x
_atom_site_fract_y
_atom_site_fract_z
Si Si1 0.881625 0.711813 0.545631
Si Si2 0.459765 0.020272 0.914231
Si Si3 0.783253 0.901499 0.572586
Si Si4 0.823103 0.774652 0.914781
Si Si5 0.246480 0.419846 0.107822
Si Si6 0.954900 0.057870 0.335848
O O1 0.880754 0.618197 0.593480
O O2 0.796560 0.792762 0.588290
O O3 0.804970 0.690645 0.466157
O O4 0.042071 0.745123 0.533796
O O5 0.605251 0.025297 0.869068
O O6 0.355769 0.940449 0.885960
O O7 0.500000 0.000000 0.000000
O O8 0.779619 0.923405 0.482629
O O9 0.914472 0.952742 0.608424
O O10 0.772047 0.685836 0.867587
O O11 0.860400 0.855306 0.857367
O O12 0.369728 0.464202 0.155787
O O13 0.000000 0.071902 0.250000
#
# Coordination Sequence:
#
# PCOD8248354 Si02
#       6
#     8   8   8   8   8   8
#     4   9  17  29  51  82 103 127 169 217 269 308
#     4   9  16  29  51  78 102 128 168 220 264 306
#     4   9  18  33  54  80 105 134 177 224 264 309
#     4   9  18  33  54  78 106 136 172 222 269 315
#     4   9  18  34  57  79 101 137 182 222 261 308
#     4  11  22  36  52  77 112 146 175 213 271 328
#
# _framework density 19.418199999999999
#
# number of rings (size 3 to 8) (size 9 to 14) (size 15 to 20)
#    0.000    2.667    0.000    3.500    0.000    2.667 
#    0.000    5.833    0.000    0.000    0.000    0.000 
#    0.000    0.000    0.000    0.000    0.000    0.000 
#
# Total GULP energy -594774.441631 kJ/mol
# GULP energy per Si atom -12391.134201 kJ/mol
# Density = 1.937400 g / cm^3
# Si number density = 19.418200 Si / 1000 Ang^3
#
#
#
# Elastic Constant Matrix: (Units=GPa)
#
#
# Indices 1 2 3 4 5 6 
#
# 1 95.6647 58.2325 25.7784 0.0000 0.0000 0.0000
# 2 58.2325 91.8520 22.8366 0.0000 0.0000 0.0000
# 3 25.7784 22.8366 43.0717 0.0000 0.0000 0.0000
# 4 0.0000 0.0000 0.0000 7.9583 0.0000 0.0000
# 5 0.0000 0.0000 0.0000 0.0000 15.4336 0.0000
# 6 0.0000 0.0000 0.0000 0.0000 0.0000 44.7099
#
#
#
# Elastic Compliance Matrix: (Units=1/GPa)
#
#
# Indices 1 2 3 4 5 6 
#
# 1 0.018073 -0.010100 -0.005462 0.000000 0.000000 0.000000
# 2 -0.010100 0.018184 -0.003597 0.000000 0.000000 0.000000
# 3 -0.005462 -0.003597 0.028393 0.000000 0.000000 0.000000
# 4 0.000000 0.000000 0.000000 0.125655 0.000000 0.000000
# 5 0.000000 0.000000 0.000000 0.000000 0.064794 0.000000
# 6 0.000000 0.000000 0.000000 0.000000 0.000000 0.022366
#
#
# Mechanical properties :
#
#
# Convention : Reuss Voigt Hill
#
# Bulk Modulus (GPa) = 37.97397 49.36482 43.66939
# Shear Modulus (GPa) = 15.40551 21.86976 18.63764
#
# Velocity S-wave (km/s) = 2.81971 3.35961 3.10143
# Velocity P-wave (km/s) = 5.49539 6.36603 5.94667
#
# Compressibility (1/GPa) = 0.02633383
#
# Stress axis : x y z
#
# Youngs Moduli (GPa) = 55.33134 54.99190 35.22022
#
# Poissons Ratio (x) = 0.55542 0.19236
# Poissons Ratio (y) = 0.55885 0.12667
# Poissons Ratio (z) = 0.30220 0.19778
#
# Static dielectric constant tensor:
#      x y z
#    x 4.005950 0.000000 0.000000 
#    y 0.000000 3.932250 0.000000 
#    z 0.000000 0.000000 2.855340 
# 
# 
# High freq. dielectric constant tensor:
#      x y z
#    x 1.774470 0.000000 0.000000 
#    y 0.000000 1.772360 0.000000 
#    z 0.000000 0.000000 1.675550 
# 
# From -- ./inp_files/22078.got.cif
#   From: 2010.03.12/outbox.cif.g09.slc.cpg/sg60_12_cif.got.tgz:22078.got - 2010.04.10 18:46:24.
