data_PCOD8248104
_publ_section_title
;
Structure prediction by ZEFSAII (Michael W. Deem and Ramdas Pophale) SiO2 
 PCOD8248104
Probable space group: P B C N
;
_chemical_formula_sum "Si O2"
_cell_formula_units_Z 64
_cell_length_a 17.776535
_cell_length_b 15.053242
_cell_length_c 11.452891
_cell_angle_alpha 90.000000
_cell_angle_beta 90.000000
_cell_angle_gamma 90.000000
_cell_volume 3064.730449
_symmetry_space_group_name_H-M "P B C N"
_symmetry_group_IT_number 60
_symmetry_cell_setting 'orthorhombic'
loop_
_space_group_symop_operation_xyz
x,y,z
1/2-x,1/2-y,1/2+z
1/2+x,1/2-y,-z
-x,y,1/2-z
-x,-y,-z
1/2+x,1/2+y,1/2-z
1/2-x,1/2+y,z
x,-y,1/2+z
loop_
_atom_site_type_symbol
_atom_site_label
_atom_site_fract_x
_atom_site_fract_y
_atom_site_fract_z
Si Si1 0.307793 0.597938 0.658482
Si Si2 0.860678 0.753558 0.689665
Si Si3 0.576357 0.191125 0.102004
Si Si4 0.137693 0.607115 0.625671
Si Si5 0.210627 0.821361 0.396092
Si Si6 0.197107 0.900999 0.650752
Si Si7 0.635793 0.091218 0.313436
Si Si8 0.585200 0.252615 0.446671
O O1 0.227037 0.615002 0.594828
O O2 0.291468 0.602942 0.797082
O O3 0.338682 0.498757 0.634590
O O4 0.369746 0.667416 0.614913
O O5 0.882594 0.666077 0.761641
O O6 0.781568 0.742539 0.623264
O O7 0.858848 0.838150 0.776293
O O8 0.920819 0.769354 0.586238
O O9 0.637161 0.264990 0.125865
O O10 0.582988 0.119083 0.205485
O O11 0.497958 0.244144 0.106045
O O12 0.587854 0.141243 0.980663
O O13 0.111556 0.506867 0.648223
O O14 0.212083 0.861938 0.523665
O O15 0.275937 0.908848 0.720349
O O16 0.626273 0.158914 0.421740
#
# Coordination Sequence:
#
# PCOD8248104 Si02
#       8
#     8   8   8   8   8   8   8   8
#     4  10  24  40  68  99 129 168 224 280 331 394
#     4  11  22  41  66  94 130 168 220 281 330 395
#     4  12  24  42  66  89 137 181 214 267 339 412
#     4  10  24  41  65  98 128 169 221 280 334 395
#     4  11  21  42  68  92 127 171 219 272 331 391
#     4  11  22  40  72 101 126 167 226 287 330 386
#     4  11  23  40  66  98 127 168 224 274 337 400
#     4  12  25  42  62  94 133 177 217 267 335 407
#
# _framework density 20.882750000000001
#
# number of rings (size 3 to 8) (size 9 to 14) (size 15 to 20)
#    0.000    1.000    5.000    1.875    3.500    3.000 
#    2.250    0.625    2.750    0.000    0.000    0.000 
#    0.000    0.000    0.000    0.000    0.000    0.000 
#
# Total GULP energy -793657.422844 kJ/mol
# GULP energy per Si atom -12400.897232 kJ/mol
# Density = 2.083522 g / cm^3
# Si number density = 20.882750 Si / 1000 Ang^3
#
#
#
# Elastic Constant Matrix: (Units=GPa)
#
#
# Indices 1 2 3 4 5 6 
#
# 1 68.5533 24.8737 15.1172 0.0000 0.0000 0.0000
# 2 24.8737 113.0025 37.2567 0.0000 0.0000 0.0000
# 3 15.1172 37.2567 116.9931 0.0000 0.0000 0.0000
# 4 0.0000 0.0000 0.0000 28.1162 0.0000 0.0000
# 5 0.0000 0.0000 0.0000 0.0000 31.9531 0.0000
# 6 0.0000 0.0000 0.0000 0.0000 0.0000 16.9927
#
#
#
# Elastic Compliance Matrix: (Units=1/GPa)
#
#
# Indices 1 2 3 4 5 6 
#
# 1 0.015969 -0.003167 -0.001055 0.000000 0.000000 0.000000
# 2 -0.003167 0.010516 -0.002939 0.000000 0.000000 0.000000
# 3 -0.001055 -0.002939 0.009620 0.000000 0.000000 0.000000
# 4 0.000000 0.000000 0.000000 0.035567 0.000000 0.000000
# 5 0.000000 0.000000 0.000000 0.000000 0.031296 0.000000
# 6 0.000000 0.000000 0.000000 0.000000 0.000000 0.058849
#
#
# Mechanical properties :
#
#
# Convention : Reuss Voigt Hill
#
# Bulk Modulus (GPa) = 45.91062 50.33823 48.12443
# Shear Modulus (GPa) = 27.26286 30.16581 28.71434
#
# Velocity S-wave (km/s) = 3.61712 3.80482 3.71216
# Velocity P-wave (km/s) = 6.28310 6.59240 6.43961
#
# Compressibility (1/GPa) = 0.02178145
#
# Stress axis : x y z
#
# Youngs Moduli (GPa) = 62.62134 95.09610 103.95123
#
# Poissons Ratio (x) = 0.30120 0.10965
# Poissons Ratio (y) = 0.19834 0.30556
# Poissons Ratio (z) = 0.06605 0.27953
#
# Static dielectric constant tensor:
#      x y z
#    x 3.611790 0.000000 0.000000 
#    y 0.000000 3.943630 0.000000 
#    z 0.000000 0.000000 3.948070 
# 
# 
# High freq. dielectric constant tensor:
#      x y z
#    x 1.794450 0.000000 0.000000 
#    y 0.000000 1.818770 0.000000 
#    z 0.000000 0.000000 1.829210 
# 
# From -- ./inp_files/12527.got.cif
#   From: 2010.03.12/outbox.cif.g09.slc.cpg/sg60_7_cif.got.tgz:12527.got - 2010.04.10 18:46:24.
