data_PCOD8248681
_publ_section_title
;
Structure prediction by ZEFSAII (Michael W. Deem and Ramdas Pophale) SiO2 
 PCOD8248681
Probable space group: P B C N
;
_chemical_formula_sum "Si O2"
_cell_formula_units_Z 40
_cell_length_a 13.803471
_cell_length_b 8.960326
_cell_length_c 13.257878
_cell_angle_alpha 90.000000
_cell_angle_beta 90.000000
_cell_angle_gamma 90.000000
_cell_volume 1639.782081
_symmetry_space_group_name_H-M "P B C N"
_symmetry_group_IT_number 60
_symmetry_cell_setting 'orthorhombic'
loop_
_space_group_symop_operation_xyz
x,y,z
1/2-x,1/2-y,1/2+z
1/2+x,1/2-y,-z
-x,y,1/2-z
-x,-y,-z
1/2+x,1/2+y,1/2-z
1/2-x,1/2+y,z
x,-y,1/2+z
loop_
_atom_site_type_symbol
_atom_site_label
_atom_site_fract_x
_atom_site_fract_y
_atom_site_fract_z
Si Si1 0.829684 0.618541 0.401956
Si Si2 0.510630 0.324550 0.479125
Si Si3 0.445231 0.152801 0.656758
Si Si4 0.809850 0.115155 0.587738
Si Si5 0.201599 0.165239 0.279586
O O1 0.893054 0.469249 0.412934
O O2 0.740208 0.603553 0.478505
O O3 0.791180 0.609331 0.287897
O O4 0.895384 0.769786 0.415330
O O5 0.500000 0.500000 0.500000
O O6 0.521627 0.234547 0.583709
O O7 0.408644 0.287282 0.422959
O O8 0.500000 0.073200 0.750000
O O9 0.380531 0.286769 0.700963
O O10 0.734243 0.189102 0.661776
O O11 0.833967 0.954170 0.637004
#
# Coordination Sequence:
#
# PCOD8248681 Si02
#       5
#     8   8   8   8   8
#     4  12  28  50  77 113 156 205 256 318 390 463
#     4  12  28  46  78 111 155 197 254 324 383 459
#     4  12  26  49  73 112 151 202 259 312 385 461
#     4  12  26  49  76 111 153 199 256 320 390 449
#     4  12  27  47  78 109 151 204 254 319 380 464
#
# _framework density 24.393485999999999
#
# number of rings (size 3 to 8) (size 9 to 14) (size 15 to 20)
#    0.000    0.000    4.000    5.400    8.400    0.000 
#    0.000    0.000    0.000    0.000    0.000    0.000 
#    0.000    0.000    0.000    0.000    0.000    0.000 
#
# Total GULP energy -495989.266845 kJ/mol
# GULP energy per Si atom -12399.731671 kJ/mol
# Density = 2.433797 g / cm^3
# Si number density = 24.393486 Si / 1000 Ang^3
#
#
#
# Elastic Constant Matrix: (Units=GPa)
#
#
# Indices 1 2 3 4 5 6 
#
# 1 88.5311 7.5049 22.9313 0.0000 0.0000 0.0000
# 2 7.5049 88.8201 19.3888 0.0000 0.0000 0.0000
# 3 22.9313 19.3888 96.4430 0.0000 0.0000 0.0000
# 4 0.0000 0.0000 0.0000 39.6739 0.0000 0.0000
# 5 0.0000 0.0000 0.0000 0.0000 34.5865 0.0000
# 6 0.0000 0.0000 0.0000 0.0000 0.0000 47.0155
#
#
#
# Elastic Compliance Matrix: (Units=1/GPa)
#
#
# Indices 1 2 3 4 5 6 
#
# 1 0.012051 -0.000411 -0.002783 0.000000 0.000000 0.000000
# 2 -0.000411 0.011789 -0.002272 0.000000 0.000000 0.000000
# 3 -0.002783 -0.002272 0.011487 0.000000 0.000000 0.000000
# 4 0.000000 0.000000 0.000000 0.025205 0.000000 0.000000
# 5 0.000000 0.000000 0.000000 0.000000 0.028913 0.000000
# 6 0.000000 0.000000 0.000000 0.000000 0.000000 0.021270
#
#
# Mechanical properties :
#
#
# Convention : Reuss Voigt Hill
#
# Bulk Modulus (GPa) = 40.99070 41.49379 41.24224
# Shear Modulus (GPa) = 38.52671 39.18645 38.85658
#
# Velocity S-wave (km/s) = 3.97846 4.01238 3.99545
# Velocity P-wave (km/s) = 6.15992 6.20586 6.18293
#
# Compressibility (1/GPa) = 0.02439578
#
# Stress axis : x y z
#
# Youngs Moduli (GPa) = 82.98003 84.82135 87.05237
#
# Poissons Ratio (x) = 0.03484 0.24225
# Poissons Ratio (y) = 0.03409 0.19782
# Poissons Ratio (z) = 0.23092 0.19275
#
# Static dielectric constant tensor:
#      x y z
#    x 4.727920 0.000000 0.000000 
#    y 0.000000 4.174600 0.000000 
#    z 0.000000 0.000000 4.540100 
# 
# 
# High freq. dielectric constant tensor:
#      x y z
#    x 1.981870 0.000000 0.000000 
#    y 0.000000 1.963720 0.000000 
#    z 0.000000 0.000000 1.981300 
# 
# From -- ./inp_files/16583.got.cif
#   From: 2010.03.12/outbox.cif.g09.slc.cpg/sg60_9_cif.got.tgz:16583.got - 2010.04.10 18:46:24.
