data_PCOD8248385
_publ_section_title
;
Structure prediction by ZEFSAII (Michael W. Deem and Ramdas Pophale) SiO2 
 PCOD8248385
Probable space group: P B C N
;
_chemical_formula_sum "Si O2"
_cell_formula_units_Z 60
_cell_length_a 10.959727
_cell_length_b 9.399905
_cell_length_c 28.247945
_cell_angle_alpha 90.000000
_cell_angle_beta 90.000000
_cell_angle_gamma 90.000000
_cell_volume 2910.114385
_symmetry_space_group_name_H-M "P B C N"
_symmetry_group_IT_number 60
_symmetry_cell_setting 'orthorhombic'
loop_
_space_group_symop_operation_xyz
x,y,z
1/2-x,1/2-y,1/2+z
1/2+x,1/2-y,-z
-x,y,1/2-z
-x,-y,-z
1/2+x,1/2+y,1/2-z
1/2-x,1/2+y,z
x,-y,1/2+z
loop_
_atom_site_type_symbol
_atom_site_label
_atom_site_fract_x
_atom_site_fract_y
_atom_site_fract_z
Si Si1 0.971393 0.770882 0.878635
Si Si2 0.102225 0.859937 0.790827
Si Si3 0.984454 0.655862 0.978198
Si Si4 0.833333 0.554742 0.819085
Si Si5 0.214140 0.983768 0.589095
Si Si6 0.801467 0.148487 0.735215
Si Si7 0.215035 0.247514 0.528035
Si Si8 0.500000 0.128201 0.250000
O O1 0.077278 0.835133 0.846489
O O2 0.999188 0.655686 0.920422
O O3 0.887184 0.700743 0.838612
O O4 0.914152 0.904990 0.905737
O O5 0.172104 0.717660 0.776370
O O6 0.000000 0.883608 0.750000
O O7 0.178738 0.005839 0.794823
O O8 0.849468 0.713444 0.994611
O O9 0.000000 0.500000 0.000000
O O10 0.096187 0.761538 0.994255
O O11 0.788404 0.460165 0.862654
O O12 0.711798 0.595777 0.789554
O O13 0.933884 0.468423 0.789032
O O14 0.288193 0.909532 0.546569
O O15 0.196574 0.147147 0.574162
O O16 0.903755 0.266384 0.725286
#
# Coordination Sequence:
#
# PCOD8248385 Si02
#       8
#     8   8   8   8   8   8   8   4
#     4  11  24  40  69  97 136 178 232 286 347 418
#     4  12  24  45  63  95 136 178 230 286 341 411
#     4  11  23  48  70 105 143 179 230 296 361 424
#     4  12  21  42  64  95 134 176 231 281 337 404
#     4  11  22  41  70 102 124 179 237 279 333 427
#     4  12  25  40  65  92 135 181 223 282 345 405
#     4  11  23  43  74 102 136 176 230 286 358 422
#     4  12  26  36  66 100 130 186 228 282 348 400
#
# _framework density 20.617747999999999
#
# number of rings (size 3 to 8) (size 9 to 14) (size 15 to 20)
#    0.000    0.533    7.333    2.400    0.000    2.133 
#    2.400    1.333    0.000    0.000    0.000    0.000 
#    0.000    0.000    0.000    0.000    0.000    0.000 
#
# Total GULP energy -743291.710595 kJ/mol
# GULP energy per Si atom -12388.195177 kJ/mol
# Density = 2.057082 g / cm^3
# Si number density = 20.617748 Si / 1000 Ang^3
#
#
#
# Elastic Constant Matrix: (Units=GPa)
#
#
# Indices 1 2 3 4 5 6 
#
# 1 106.4287 40.1539 45.1546 0.0000 0.0000 0.0000
# 2 40.1539 91.5254 29.1448 0.0000 0.0000 0.0000
# 3 45.1546 29.1448 98.1285 0.0000 0.0000 0.0000
# 4 0.0000 0.0000 0.0000 35.6726 0.0000 0.0000
# 5 0.0000 0.0000 0.0000 0.0000 39.5734 0.0000
# 6 0.0000 0.0000 0.0000 0.0000 0.0000 37.2287
#
#
#
# Elastic Compliance Matrix: (Units=1/GPa)
#
#
# Indices 1 2 3 4 5 6 
#
# 1 0.012984 -0.004190 -0.004730 0.000000 0.000000 0.000000
# 2 -0.004190 0.013419 -0.002058 0.000000 0.000000 0.000000
# 3 -0.004730 -0.002058 0.012978 0.000000 0.000000 0.000000
# 4 0.000000 0.000000 0.000000 0.028033 0.000000 0.000000
# 5 0.000000 0.000000 0.000000 0.000000 0.025269 0.000000
# 6 0.000000 0.000000 0.000000 0.000000 0.000000 0.026861
#
#
# Mechanical properties :
#
#
# Convention : Reuss Voigt Hill
#
# Bulk Modulus (GPa) = 57.38504 58.33217 57.85861
# Shear Modulus (GPa) = 33.94238 34.60356 34.27297
#
# Velocity S-wave (km/s) = 4.06183 4.10120 4.08156
# Velocity P-wave (km/s) = 7.06337 7.12601 7.09476
#
# Compressibility (1/GPa) = 0.01742614
#
# Stress axis : x y z
#
# Youngs Moduli (GPa) = 77.02031 74.51931 77.05101
#
# Poissons Ratio (x) = 0.31223 0.36446
# Poissons Ratio (y) = 0.32271 0.15854
# Poissons Ratio (z) = 0.36431 0.15333
#
# Static dielectric constant tensor:
#      x y z
#    x 3.958100 0.000000 0.000000 
#    y 0.000000 3.866370 0.000000 
#    z 0.000000 0.000000 3.861220 
# 
# 
# High freq. dielectric constant tensor:
#      x y z
#    x 1.801980 0.000000 0.000000 
#    y 0.000000 1.823750 0.000000 
#    z 0.000000 0.000000 1.792520 
# 
# From -- ./inp_files/25321.got.cif
#   From: 2010.03.12/outbox.cif.g09.slc.cpg/sg60_13_cif.got.tgz:25321.got - 2010.04.10 18:46:24.
