data_PCOD8248073
_publ_section_title
;
Structure prediction by ZEFSAII (Michael W. Deem and Ramdas Pophale) SiO2 
 PCOD8248073
Probable space group: P B C N
;
_chemical_formula_sum "Si O2"
_cell_formula_units_Z 32
_cell_length_a 5.653817
_cell_length_b 18.857398
_cell_length_c 10.770374
_cell_angle_alpha 90.000000
_cell_angle_beta 90.000000
_cell_angle_gamma 90.000000
_cell_volume 1148.297182
_symmetry_space_group_name_H-M "P B C N"
_symmetry_group_IT_number 60
_symmetry_cell_setting 'orthorhombic'
loop_
_space_group_symop_operation_xyz
x,y,z
1/2-x,1/2-y,1/2+z
1/2+x,1/2-y,-z
-x,y,1/2-z
-x,-y,-z
1/2+x,1/2+y,1/2-z
1/2-x,1/2+y,z
x,-y,1/2+z
loop_
_atom_site_type_symbol
_atom_site_label
_atom_site_fract_x
_atom_site_fract_y
_atom_site_fract_z
Si Si1 0.069607 0.906334 0.405362
Si Si2 0.953885 0.662129 0.424194
Si Si3 0.211747 0.293501 0.152860
Si Si4 0.317551 0.554847 0.350790
O O1 0.274151 0.863220 0.471149
O O2 0.901782 0.855711 0.320197
O O3 0.901083 0.939320 0.508803
O O4 0.194397 0.969831 0.324274
O O5 0.830813 0.716017 0.326728
O O6 0.147982 0.704426 0.505808
O O7 0.065963 0.596207 0.345982
O O8 0.000000 0.302988 0.250000
O O9 0.500000 0.589404 0.250000
#
# Coordination Sequence:
#
# PCOD8248073 Si02
#       4
#     8   8   8   8
#     4  10  23  47  70 110 153 199 267 318 389 484
#     4  11  23  48  72 112 158 201 262 328 387 486
#     4  11  25  45  76 111 158 206 256 327 403 478
#     4  10  24  45  74 107 151 205 258 322 393 467
#
# _framework density 27.867346999999999
#
# number of rings (size 3 to 8) (size 9 to 14) (size 15 to 20)
#    0.000    1.500    2.500    0.750    3.500    2.000 
#    4.500    0.000    0.000    0.000    0.000    0.000 
#    0.000    0.000    0.000    0.000    0.000    0.000 
#
# Total GULP energy -396627.314424 kJ/mol
# GULP energy per Si atom -12394.603576 kJ/mol
# Density = 2.780392 g / cm^3
# Si number density = 27.867347 Si / 1000 Ang^3
#
#
#
# Elastic Constant Matrix: (Units=GPa)
#
#
# Indices 1 2 3 4 5 6 
#
# 1 164.4952 108.4551 53.1031 0.0000 0.0000 0.0000
# 2 108.4551 237.1683 48.8593 0.0000 0.0000 0.0000
# 3 53.1031 48.8593 113.0782 0.0000 0.0000 0.0000
# 4 0.0000 0.0000 0.0000 11.2732 0.0000 0.0000
# 5 0.0000 0.0000 0.0000 0.0000 80.0138 0.0000
# 6 0.0000 0.0000 0.0000 0.0000 0.0000 170.3795
#
#
#
# Elastic Compliance Matrix: (Units=1/GPa)
#
#
# Indices 1 2 3 4 5 6 
#
# 1 0.009459 -0.003744 -0.002825 0.000000 0.000000 0.000000
# 2 -0.003744 0.006110 -0.000882 0.000000 0.000000 0.000000
# 3 -0.002825 -0.000882 0.010551 0.000000 0.000000 0.000000
# 4 0.000000 0.000000 0.000000 0.088706 0.000000 0.000000
# 5 0.000000 0.000000 0.000000 0.000000 0.012498 0.000000
# 6 0.000000 0.000000 0.000000 0.000000 0.000000 0.005869
#
#
# Mechanical properties :
#
#
# Convention : Reuss Voigt Hill
#
# Bulk Modulus (GPa) = 89.12839 103.95297 96.54068
# Shear Modulus (GPa) = 32.93059 72.62159 52.77609
#
# Velocity S-wave (km/s) = 3.44130 5.11041 4.35654
# Velocity P-wave (km/s) = 6.91683 8.49738 7.74752
#
# Compressibility (1/GPa) = 0.01121977
#
# Stress axis : x y z
#
# Youngs Moduli (GPa) = 105.71446 163.66279 94.77778
#
# Poissons Ratio (x) = 0.61272 0.26771
# Poissons Ratio (y) = 0.39578 0.08359
# Poissons Ratio (z) = 0.29860 0.14434
#
# Static dielectric constant tensor:
#      x y z
#    x 5.151560 0.000000 0.000000 
#    y 0.000000 5.392490 0.000000 
#    z 0.000000 0.000000 5.511880 
# 
# 
# High freq. dielectric constant tensor:
#      x y z
#    x 2.119140 0.000000 0.000000 
#    y 0.000000 2.132210 0.000000 
#    z 0.000000 0.000000 2.152240 
# 
# From -- ./inp_files/8844.got.cif
#   From: 2010.03.12/outbox.cif.g09.slc.cpg/sg60_5_cif.got.tgz:8844.got - 2010.04.10 18:46:24.
