data_PCOD8248848
_publ_section_title
;
Structure prediction by ZEFSAII (Michael W. Deem and Ramdas Pophale) SiO2 
 PCOD8248848
Probable space group: P B C A
;
_chemical_formula_sum "Si O2"
_cell_formula_units_Z 64
_cell_length_a 15.931356
_cell_length_b 13.567456
_cell_length_c 14.948340
_cell_angle_alpha 90.000000
_cell_angle_beta 90.000000
_cell_angle_gamma 90.000000
_cell_volume 3231.053369
_symmetry_space_group_name_H-M "P B C A"
_symmetry_group_IT_number 61
_symmetry_cell_setting 'orthorhombic'
loop_
_space_group_symop_operation_xyz
x,y,z
1/2-x,-y,1/2+z
1/2+x,1/2-y,-z
-x,1/2+y,1/2-z
-x,-y,-z
1/2+x,y,1/2-z
1/2-x,1/2+y,z
x,1/2-y,1/2+z
loop_
_atom_site_type_symbol
_atom_site_label
_atom_site_fract_x
_atom_site_fract_y
_atom_site_fract_z
Si Si1 0.712900 0.065783 0.236023
Si Si2 0.243031 0.260525 0.196440
Si Si3 0.617031 0.591431 0.834671
Si Si4 0.563939 0.254313 0.871826
Si Si5 0.970096 0.838492 0.057599
Si Si6 0.483325 0.557813 0.690749
Si Si7 0.665969 0.088681 0.676634
Si Si8 0.954230 0.847949 0.681530
O O1 0.772788 0.150366 0.277383
O O2 0.642757 0.119857 0.176356
O O3 0.673167 0.007292 0.322277
O O4 0.765231 0.997408 0.168138
O O5 0.321587 0.315444 0.152056
O O6 0.165230 0.251237 0.127414
O O7 0.212278 0.314111 0.287297
O O8 0.550791 0.592423 0.917489
O O9 0.564901 0.596517 0.743147
O O10 0.530110 0.141805 0.884841
O O11 0.528616 0.304914 0.781115
O O12 0.529693 0.320969 0.952254
O O13 0.881884 0.891046 0.083490
O O14 0.977450 0.735605 0.110750
O O15 0.401908 0.555891 0.751657
O O16 0.492813 0.445943 0.656218
#
# Coordination Sequence:
#
# PCOD8248848 Si02
#       8
#     8   8   8   8   8   8   8   8
#     4   9  17  31  59  77 108 153 193 230 282 337
#     4   9  17  35  56  79 107 152 193 228 290 335
#     4   9  18  33  55  84 111 145 192 240 275 345
#     4  10  20  37  60  83 117 154 183 240 294 342
#     4  11  20  36  60  83 121 149 189 241 297 339
#     4   9  18  34  58  83 108 147 190 227 285 338
#     4   9  17  33  55  80 108 149 186 231 283 340
#     4  10  19  37  57  81 114 150 193 235 284 342
#
# _framework density 19.807782
#
# number of rings (size 3 to 8) (size 9 to 14) (size 15 to 20)
#    0.000    2.500    5.000    0.000    1.750    0.500 
#    0.000   13.750   22.000    0.000    0.000    0.000 
#    0.000    0.000    0.000    0.000    0.000    0.000 
#
# Total GULP energy -792941.422211 kJ/mol
# GULP energy per Si atom -12389.709722 kJ/mol
# Density = 1.976270 g / cm^3
# Si number density = 19.807782 Si / 1000 Ang^3
#
#
#
# Elastic Constant Matrix: (Units=GPa)
#
#
# Indices 1 2 3 4 5 6 
#
# 1 54.0416 32.7944 8.4741 0.0000 0.0000 0.0000
# 2 32.7944 104.5423 5.9355 0.0000 0.0000 0.0000
# 3 8.4741 5.9355 44.7847 0.0000 0.0000 0.0000
# 4 0.0000 0.0000 0.0000 9.3285 0.0000 0.0000
# 5 0.0000 0.0000 0.0000 0.0000 12.0180 0.0000
# 6 0.0000 0.0000 0.0000 0.0000 0.0000 34.2773
#
#
#
# Elastic Compliance Matrix: (Units=1/GPa)
#
#
# Indices 1 2 3 4 5 6 
#
# 1 0.023381 -0.007137 -0.003478 0.000000 0.000000 0.000000
# 2 -0.007137 0.011817 -0.000216 0.000000 0.000000 0.000000
# 3 -0.003478 -0.000216 0.023016 0.000000 0.000000 0.000000
# 4 0.000000 0.000000 0.000000 0.107198 0.000000 0.000000
# 5 0.000000 0.000000 0.000000 0.000000 0.083209 0.000000
# 6 0.000000 0.000000 0.000000 0.000000 0.000000 0.029174
#
#
# Mechanical properties :
#
#
# Convention : Reuss Voigt Hill
#
# Bulk Modulus (GPa) = 27.35866 33.08627 30.22246
# Shear Modulus (GPa) = 16.04423 21.53574 18.78998
#
# Velocity S-wave (km/s) = 2.84913 3.30090 3.08330
# Velocity P-wave (km/s) = 4.96643 5.59177 5.28835
#
# Compressibility (1/GPa) = 0.03655150
#
# Stress axis : x y z
#
# Youngs Moduli (GPa) = 42.77050 84.62702 43.44849
#
# Poissons Ratio (x) = 0.60397 0.15112
# Poissons Ratio (y) = 0.30525 0.00937
# Poissons Ratio (z) = 0.14876 0.01825
#
# Static dielectric constant tensor:
#      x y z
#    x 3.932420 0.000000 0.000000 
#    y 0.000000 4.023900 0.000000 
#    z 0.000000 0.000000 3.012410 
# 
# 
# High freq. dielectric constant tensor:
#      x y z
#    x 1.772050 0.000000 0.000000 
#    y 0.000000 1.795820 0.000000 
#    z 0.000000 0.000000 1.705250 
# 
# From -- ./inp_files/8272.got.cif
#   From: 2010.03.12/outbox.cif.g09.slc.cpg/sg61_5_cif.got.tgz:8272.got - 2010.04.10 19:05:03.
