data_PCOD8248615
_publ_section_title
;
Structure prediction by ZEFSAII (Michael W. Deem and Ramdas Pophale) SiO2 
 PCOD8248615
Probable space group: P B C N
;
_chemical_formula_sum "Si O2"
_cell_formula_units_Z 40
_cell_length_a 4.876879
_cell_length_b 16.767886
_cell_length_c 20.986715
_cell_angle_alpha 90.000000
_cell_angle_beta 90.000000
_cell_angle_gamma 90.000000
_cell_volume 1716.187593
_symmetry_space_group_name_H-M "P B C N"
_symmetry_group_IT_number 60
_symmetry_cell_setting 'orthorhombic'
loop_
_space_group_symop_operation_xyz
x,y,z
1/2-x,1/2-y,1/2+z
1/2+x,1/2-y,-z
-x,y,1/2-z
-x,-y,-z
1/2+x,1/2+y,1/2-z
1/2-x,1/2+y,z
x,-y,1/2+z
loop_
_atom_site_type_symbol
_atom_site_label
_atom_site_fract_x
_atom_site_fract_y
_atom_site_fract_z
Si Si1 0.204645 0.603266 0.922954
Si Si2 0.870986 0.264294 0.621576
Si Si3 0.500000 0.152389 0.250000
Si Si4 0.662510 0.657705 0.436007
Si Si5 0.500000 0.461922 0.750000
Si Si6 0.181629 0.990708 0.118664
O O1 0.266779 0.673433 0.872080
O O2 0.395572 0.526133 0.916152
O O3 0.898088 0.572707 0.909469
O O4 0.283650 0.639318 0.990730
O O5 0.641757 0.320461 0.587857
O O6 0.000118 0.290483 0.688996
O O7 0.137424 0.267638 0.576259
O O8 0.754803 0.096710 0.232535
O O9 0.768696 0.581488 0.395112
O O10 0.386597 0.518864 0.693677
#
# Coordination Sequence:
#
# PCOD8248615 Si02
#       6
#     8   8   4   8   4   8
#     4  12  26  42  67 107 146 172 232 298 366 407
#     4  12  24  43  71 100 137 185 234 287 352 419
#     4  12  22  45  68  97 128 180 244 282 328 429
#     4  12  23  45  70 100 139 192 229 281 349 446
#     4  12  24  45  72  93 134 180 244 280 338 425
#     4  12  24  44  68 101 135 187 230 293 348 422
#
# _framework density 23.307476999999999
#
# number of rings (size 3 to 8) (size 9 to 14) (size 15 to 20)
#    0.000    0.000    4.000    7.200    0.000    0.800 
#    0.000    2.000    0.000    0.000    0.000    0.000 
#    0.000    0.000    0.000    0.000    0.000    0.000 
#
# Total GULP energy -495636.378280 kJ/mol
# GULP energy per Si atom -12390.909457 kJ/mol
# Density = 2.325443 g / cm^3
# Si number density = 23.307477 Si / 1000 Ang^3
#
#
#
# Elastic Constant Matrix: (Units=GPa)
#
#
# Indices 1 2 3 4 5 6 
#
# 1 99.6025 17.0271 31.8024 0.0000 0.0000 0.0000
# 2 17.0271 77.2658 12.5970 0.0000 0.0000 0.0000
# 3 31.8024 12.5970 108.0691 0.0000 0.0000 0.0000
# 4 0.0000 0.0000 0.0000 27.6738 0.0000 0.0000
# 5 0.0000 0.0000 0.0000 0.0000 38.2562 0.0000
# 6 0.0000 0.0000 0.0000 0.0000 0.0000 25.7172
#
#
#
# Elastic Compliance Matrix: (Units=1/GPa)
#
#
# Indices 1 2 3 4 5 6 
#
# 1 0.011376 -0.001999 -0.003115 0.000000 0.000000 0.000000
# 2 -0.001999 0.013544 -0.000990 0.000000 0.000000 0.000000
# 3 -0.003115 -0.000990 0.010285 0.000000 0.000000 0.000000
# 4 0.000000 0.000000 0.000000 0.036135 0.000000 0.000000
# 5 0.000000 0.000000 0.000000 0.000000 0.026140 0.000000
# 6 0.000000 0.000000 0.000000 0.000000 0.000000 0.038884
#
#
# Mechanical properties :
#
#
# Convention : Reuss Voigt Hill
#
# Bulk Modulus (GPa) = 43.48357 45.31005 44.39681
# Shear Modulus (GPa) = 32.00210 33.23016 32.61613
#
# Velocity S-wave (km/s) = 3.70948 3.77998 3.74489
# Velocity P-wave (km/s) = 6.08637 6.20752 6.14725
#
# Compressibility (1/GPa) = 0.02299719
#
# Stress axis : x y z
#
# Youngs Moduli (GPa) = 87.90295 73.83138 97.22529
#
# Poissons Ratio (x) = 0.14760 0.30283
# Poissons Ratio (y) = 0.17573 0.09630
# Poissons Ratio (z) = 0.27379 0.07313
#
# Static dielectric constant tensor:
#      x y z
#    x 4.260000 0.000000 0.000000 
#    y 0.000000 4.356000 0.000000 
#    z 0.000000 0.000000 4.349130 
# 
# 
# High freq. dielectric constant tensor:
#      x y z
#    x 1.937870 0.000000 0.000000 
#    y 0.000000 1.921550 0.000000 
#    z 0.000000 0.000000 1.927880 
# 
# From -- ./inp_files/21540.got.cif
#   From: 2010.03.12/outbox.cif.g09.slc.cpg/sg60_11_cif.got.tgz:21540.got - 2010.04.10 18:46:24.
