data_PCOD8248562
_publ_section_title
;
Structure prediction by ZEFSAII (Michael W. Deem and Ramdas Pophale) SiO2 
 PCOD8248562
Probable space group: P B C N
;
_chemical_formula_sum "Si O2"
_cell_formula_units_Z 48
_cell_length_a 12.649912
_cell_length_b 9.355039
_cell_length_c 17.235164
_cell_angle_alpha 90.000000
_cell_angle_beta 90.000000
_cell_angle_gamma 90.000000
_cell_volume 2039.616548
_symmetry_space_group_name_H-M "P B C N"
_symmetry_group_IT_number 60
_symmetry_cell_setting 'orthorhombic'
loop_
_space_group_symop_operation_xyz
x,y,z
1/2-x,1/2-y,1/2+z
1/2+x,1/2-y,-z
-x,y,1/2-z
-x,-y,-z
1/2+x,1/2+y,1/2-z
1/2-x,1/2+y,z
x,-y,1/2+z
loop_
_atom_site_type_symbol
_atom_site_label
_atom_site_fract_x
_atom_site_fract_y
_atom_site_fract_z
Si Si1 0.307006 0.801132 0.924781
Si Si2 0.021884 0.929436 0.420373
Si Si3 0.403754 0.684020 0.326271
Si Si4 0.909481 0.504576 0.195463
Si Si5 0.727280 0.595629 0.305982
Si Si6 0.199683 0.841266 0.091018
O O1 0.364493 0.647785 0.918494
O O2 0.204244 0.797146 0.872962
O O3 0.388915 0.917053 0.887745
O O4 0.270837 0.826783 0.013610
O O5 0.926699 0.814337 0.413860
O O6 0.020106 0.063011 0.361202
O O7 0.000000 0.000000 0.500000
O O8 0.451367 0.844183 0.324086
O O9 0.381695 0.630488 0.238723
O O10 0.803220 0.512349 0.246134
O O11 0.000000 0.577949 0.250000
O O12 0.768105 0.746249 0.336437
O O13 0.711084 0.505281 0.383583
#
# Coordination Sequence:
#
# PCOD8248562 Si02
#       6
#     8   8   8   8   8   8
#     4  11  25  48  74 103 156 194 243 316 381 441
#     4  12  26  45  76 111 140 200 255 306 377 459
#     4  11  25  47  74 101 150 195 248 308 373 444
#     4  11  25  46  71 108 143 201 251 303 379 448
#     4  11  25  47  69 107 150 197 243 312 374 443
#     4  12  26  45  76 109 152 193 255 314 380 455
#
# _framework density 23.533833999999999
#
# number of rings (size 3 to 8) (size 9 to 14) (size 15 to 20)
#    0.000    0.667    3.333    4.000    7.000    1.333 
#    0.000    2.500    0.000    0.000    0.000    0.000 
#    0.000    0.000    0.000    0.000    0.000    0.000 
#
# Total GULP energy -594780.813991 kJ/mol
# GULP energy per Si atom -12391.266958 kJ/mol
# Density = 2.348027 g / cm^3
# Si number density = 23.533834 Si / 1000 Ang^3
#
#
#
# Elastic Constant Matrix: (Units=GPa)
#
#
# Indices 1 2 3 4 5 6 
#
# 1 51.9169 20.3078 37.7181 0.0000 0.0000 0.0000
# 2 20.3078 106.2645 54.9835 0.0000 0.0000 0.0000
# 3 37.7181 54.9835 145.8747 0.0000 0.0000 0.0000
# 4 0.0000 0.0000 0.0000 41.6350 0.0000 0.0000
# 5 0.0000 0.0000 0.0000 0.0000 51.2740 0.0000
# 6 0.0000 0.0000 0.0000 0.0000 0.0000 27.3220
#
#
#
# Elastic Compliance Matrix: (Units=1/GPa)
#
#
# Indices 1 2 3 4 5 6 
#
# 1 0.023963 -0.001706 -0.005553 0.000000 0.000000 0.000000
# 2 -0.001706 0.011812 -0.004011 0.000000 0.000000 0.000000
# 3 -0.005553 -0.004011 0.009803 0.000000 0.000000 0.000000
# 4 0.000000 0.000000 0.000000 0.024018 0.000000 0.000000
# 5 0.000000 0.000000 0.000000 0.000000 0.019503 0.000000
# 6 0.000000 0.000000 0.000000 0.000000 0.000000 0.036601
#
#
# Mechanical properties :
#
#
# Convention : Reuss Voigt Hill
#
# Bulk Modulus (GPa) = 43.40744 58.89723 51.15233
# Shear Modulus (GPa) = 32.06782 36.78263 34.42522
#
# Velocity S-wave (km/s) = 3.69538 3.95773 3.82880
# Velocity P-wave (km/s) = 6.05744 6.77981 6.42877
#
# Compressibility (1/GPa) = 0.02303753
#
# Stress axis : x y z
#
# Youngs Moduli (GPa) = 41.73063 84.66004 102.01144
#
# Poissons Ratio (x) = 0.14446 0.56646
# Poissons Ratio (y) = 0.07121 0.40917
# Poissons Ratio (z) = 0.23173 0.33957
#
# Static dielectric constant tensor:
#      x y z
#    x 3.925300 0.000000 0.000000 
#    y 0.000000 4.132470 0.000000 
#    z 0.000000 0.000000 4.012580 
# 
# 
# High freq. dielectric constant tensor:
#      x y z
#    x 1.937910 0.000000 0.000000 
#    y 0.000000 1.932060 0.000000 
#    z 0.000000 0.000000 1.945300 
# 
# From -- ./inp_files/20502.got.cif
#   From: 2010.03.12/outbox.cif.g09.slc.cpg/sg60_11_cif.got.tgz:20502.got - 2010.04.10 18:46:24.
