data_PCOD8248171
_publ_section_title
;
Structure prediction by ZEFSAII (Michael W. Deem and Ramdas Pophale) SiO2 
 PCOD8248171
Probable space group: P B C N
;
_chemical_formula_sum "Si O2"
_cell_formula_units_Z 48
_cell_length_a 11.231938
_cell_length_b 9.280484
_cell_length_c 21.807796
_cell_angle_alpha 90.000000
_cell_angle_beta 90.000000
_cell_angle_gamma 90.000000
_cell_volume 2273.197134
_symmetry_space_group_name_H-M "P B C N"
_symmetry_group_IT_number 60
_symmetry_cell_setting 'orthorhombic'
loop_
_space_group_symop_operation_xyz
x,y,z
1/2-x,1/2-y,1/2+z
1/2+x,1/2-y,-z
-x,y,1/2-z
-x,-y,-z
1/2+x,1/2+y,1/2-z
1/2-x,1/2+y,z
x,-y,1/2+z
loop_
_atom_site_type_symbol
_atom_site_label
_atom_site_fract_x
_atom_site_fract_y
_atom_site_fract_z
Si Si1 0.536220 0.918165 0.319084
Si Si2 0.179257 0.906995 0.404091
Si Si3 0.896763 0.783594 0.603319
Si Si4 0.725686 0.371786 0.385968
Si Si5 0.128780 0.145182 0.041791
Si Si6 0.000009 0.267186 0.676323
O O1 0.500000 0.929523 0.250000
O O2 0.475494 0.769706 0.339869
O O3 0.676555 0.911724 0.334352
O O4 0.486570 0.067993 0.347149
O O5 0.312708 0.850436 0.412302
O O6 0.123509 0.892802 0.470803
O O7 0.109846 0.819245 0.352149
O O8 0.179464 0.073401 0.382198
O O9 0.990503 0.813898 0.549661
O O10 0.785206 0.279121 0.441130
O O11 0.667721 0.512314 0.416042
O O12 0.624510 0.288267 0.349805
O O13 0.000000 0.250491 0.750000
#
# Coordination Sequence:
#
# PCOD8248171 Si02
#       6
#     8   8   8   8   8   8
#     4  10  24  45  69  97 137 179 228 280 334 407
#     4  12  25  43  69  98 140 177 226 284 344 408
#     4  11  25  43  64 101 132 176 224 281 340 402
#     4  11  22  44  69 100 132 180 226 283 341 406
#     4  11  24  43  71  97 137 175 229 282 346 409
#     4  11  25  44  67  99 135 181 226 276 338 404
#
# _framework density 21.115634
#
# number of rings (size 3 to 8) (size 9 to 14) (size 15 to 20)
#    0.000    1.000    3.333    2.500    4.667    0.667 
#    0.000    4.167    0.000    0.000    0.000    0.000 
#    0.000    0.000    0.000    0.000    0.000    0.000 
#
# Total GULP energy -594964.444347 kJ/mol
# GULP energy per Si atom -12395.092591 kJ/mol
# Density = 2.106757 g / cm^3
# Si number density = 21.115634 Si / 1000 Ang^3
#
#
#
# Elastic Constant Matrix: (Units=GPa)
#
#
# Indices 1 2 3 4 5 6 
#
# 1 120.9902 56.0546 38.2022 0.0000 0.0000 0.0000
# 2 56.0546 102.7715 38.2432 0.0000 0.0000 0.0000
# 3 38.2022 38.2432 87.0016 0.0000 0.0000 0.0000
# 4 0.0000 0.0000 0.0000 1401.9315 0.0000 0.0000
# 5 0.0000 0.0000 0.0000 0.0000 21.3078 0.0000
# 6 0.0000 0.0000 0.0000 0.0000 0.0000 49.4833
#
#
#
# Elastic Compliance Matrix: (Units=1/GPa)
#
#
# Indices 1 2 3 4 5 6 
#
# 1 0.011590 -0.005294 -0.002762 0.000000 0.000000 0.000000
# 2 -0.005294 0.014051 -0.003852 0.000000 0.000000 0.000000
# 3 -0.002762 -0.003852 0.014400 0.000000 0.000000 0.000000
# 4 0.000000 0.000000 0.000000 0.000713 0.000000 0.000000
# 5 0.000000 0.000000 0.000000 0.000000 0.046931 0.000000
# 6 0.000000 0.000000 0.000000 0.000000 0.000000 0.020209
#
#
# Mechanical properties :
#
#
# Convention : Reuss Voigt Hill
#
# Bulk Modulus (GPa) = 61.63152 63.97370 62.80261
# Shear Modulus (GPa) = 36.46493 306.42875 171.44684
#
# Velocity S-wave (km/s) = 4.16013 12.05962 9.02056
# Velocity P-wave (km/s) = 7.23371 14.97582 11.76014
#
# Compressibility (1/GPa) = 0.01622546
#
# Stress axis : x y z
#
# Youngs Moduli (GPa) = 86.28300 71.16943 69.44384
#
# Poissons Ratio (x) = 0.37674 0.19182
# Poissons Ratio (y) = 0.45674 0.26750
# Poissons Ratio (z) = 0.23833 0.27414
#
# Static dielectric constant tensor:
#      x y z
#    x 3.276660 0.000000 0.000000 
#    y 0.000000 4.647970 0.000000 
#    z 0.000000 0.000000 3.741150 
# 
# 
# High freq. dielectric constant tensor:
#      x y z
#    x 1.841980 0.000000 0.000000 
#    y 0.000000 1.849410 0.000000 
#    z 0.000000 0.000000 1.815840 
# 
# From -- ./inp_files/24232.got.cif
#   From: 2010.03.12/outbox.cif.g09.slc.cpg/sg60_13_cif.got.tgz:24232.got - 2010.04.10 18:46:24.
