data_PCOD8248955
_publ_section_title
;
Structure prediction by ZEFSAII (Michael W. Deem and Ramdas Pophale) SiO2 
 PCOD8248955
Probable space group: P B C A
;
_chemical_formula_sum "Si O2"
_cell_formula_units_Z 48
_cell_length_a 17.814365
_cell_length_b 8.255097
_cell_length_c 16.089675
_cell_angle_alpha 90.000000
_cell_angle_beta 90.000000
_cell_angle_gamma 90.000000
_cell_volume 2366.136521
_symmetry_space_group_name_H-M "P B C A"
_symmetry_group_IT_number 61
_symmetry_cell_setting 'orthorhombic'
loop_
_space_group_symop_operation_xyz
x,y,z
1/2-x,-y,1/2+z
1/2+x,1/2-y,-z
-x,1/2+y,1/2-z
-x,-y,-z
1/2+x,y,1/2-z
1/2-x,1/2+y,z
x,1/2-y,1/2+z
loop_
_atom_site_type_symbol
_atom_site_label
_atom_site_fract_x
_atom_site_fract_y
_atom_site_fract_z
Si Si1 0.412523 0.438329 0.925502
Si Si2 0.037763 0.240280 0.514149
Si Si3 0.173287 0.261521 0.626711
Si Si4 0.413404 0.598753 0.761077
Si Si5 0.334024 0.371625 0.087686
Si Si6 0.525686 0.831912 0.853244
O O1 0.452361 0.600011 0.957443
O O2 0.382108 0.477084 0.832709
O O3 0.473250 0.291312 0.919614
O O4 0.345947 0.388675 0.988290
O O5 0.113655 0.186438 0.560269
O O6 0.009784 0.113373 0.443199
O O7 0.165411 0.454147 0.631491
O O8 0.157201 0.187786 0.717730
O O9 0.255863 0.218156 0.597933
O O10 0.469145 0.732565 0.796129
O O11 0.457473 0.499546 0.691225
O O12 0.398558 0.269121 0.131656
#
# Coordination Sequence:
#
# PCOD8248955 Si02
#       6
#     8   8   8   8   8   8
#     4   8  16  34  56  77 105 145 184 222 270 327
#     4   8  16  33  56  77 106 146 183 219 270 333
#     4  11  21  36  57  81 111 145 185 232 280 330
#     4  11  20  34  58  86 112 142 187 236 277 321
#     4  10  21  39  57  77 111 151 185 222 280 341
#     4  10  20  36  58  84 113 147 186 229 277 331
#
# _framework density 20.286234
#
# number of rings (size 3 to 8) (size 9 to 14) (size 15 to 20)
#    0.000    2.333    0.000    6.000    0.000    0.667 
#    0.000   13.333    0.000    0.000    0.000    0.000 
#    0.000    0.000    0.000    0.000    0.000    0.000 
#
# Total GULP energy -595024.892538 kJ/mol
# GULP energy per Si atom -12396.351928 kJ/mol
# Density = 2.024006 g / cm^3
# Si number density = 20.286234 Si / 1000 Ang^3
#
#
#
# Elastic Constant Matrix: (Units=GPa)
#
#
# Indices 1 2 3 4 5 6 
#
# 1 97.2255 1.1361 21.6509 0.0000 0.0000 0.0000
# 2 1.1361 27.7103 11.7618 0.0000 0.0000 0.0000
# 3 21.6509 11.7618 65.3520 0.0000 0.0000 0.0000
# 4 0.0000 0.0000 0.0000 34.6562 0.0000 0.0000
# 5 0.0000 0.0000 0.0000 0.0000 26.7832 0.0000
# 6 0.0000 0.0000 0.0000 0.0000 0.0000 23.2306
#
#
#
# Elastic Compliance Matrix: (Units=1/GPa)
#
#
# Indices 1 2 3 4 5 6 
#
# 1 0.011141 0.001202 -0.003907 0.000000 0.000000 0.000000
# 2 0.001202 0.039202 -0.007454 0.000000 0.000000 0.000000
# 3 -0.003907 -0.007454 0.017938 0.000000 0.000000 0.000000
# 4 0.000000 0.000000 0.000000 0.028855 0.000000 0.000000
# 5 0.000000 0.000000 0.000000 0.000000 0.037337 0.000000
# 6 0.000000 0.000000 0.000000 0.000000 0.000000 0.043047
#
#
# Mechanical properties :
#
#
# Convention : Reuss Voigt Hill
#
# Bulk Modulus (GPa) = 20.84949 28.82059 24.83504
# Shear Modulus (GPa) = 23.38351 27.31659 25.35005
#
# Velocity S-wave (km/s) = 3.39880 3.67353 3.53883
# Velocity P-wave (km/s) = 5.06975 5.67723 5.38207
#
# Compressibility (1/GPa) = 0.04796281
#
# Stress axis : x y z
#
# Youngs Moduli (GPa) = 89.75484 25.50881 55.74838
#
# Poissons Ratio (x) = -0.03065 0.21783
# Poissons Ratio (y) = -0.10786 0.41552
# Poissons Ratio (z) = 0.35071 0.19013
#
# Static dielectric constant tensor:
#      x y z
#    x 3.507820 0.000000 0.000000 
#    y 0.000000 3.673600 0.000000 
#    z 0.000000 0.000000 4.025150 
# 
# 
# High freq. dielectric constant tensor:
#      x y z
#    x 1.771350 0.000000 0.000000 
#    y 0.000000 1.793660 0.000000 
#    z 0.000000 0.000000 1.799520 
# 
# From -- ./inp_files/2931.got.cif
#   From: 2010.03.12/outbox.cif.g09.slc.cpg/sg61_2_cif.got.tgz:2931.got - 2010.04.10 19:05:03.
