data_PCOD8248626
_publ_section_title
;
Structure prediction by ZEFSAII (Michael W. Deem and Ramdas Pophale) SiO2 
 PCOD8248626
Probable space group: P B C N
;
_chemical_formula_sum "Si O2"
_cell_formula_units_Z 48
_cell_length_a 17.635904
_cell_length_b 9.665500
_cell_length_c 12.948142
_cell_angle_alpha 90.000000
_cell_angle_beta 90.000000
_cell_angle_gamma 90.000000
_cell_volume 2207.138086
_symmetry_space_group_name_H-M "P B C N"
_symmetry_group_IT_number 60
_symmetry_cell_setting 'orthorhombic'
loop_
_space_group_symop_operation_xyz
x,y,z
1/2-x,1/2-y,1/2+z
1/2+x,1/2-y,-z
-x,y,1/2-z
-x,-y,-z
1/2+x,1/2+y,1/2-z
1/2-x,1/2+y,z
x,-y,1/2+z
loop_
_atom_site_type_symbol
_atom_site_label
_atom_site_fract_x
_atom_site_fract_y
_atom_site_fract_z
Si Si1 0.671499 0.618513 0.690687
Si Si2 0.912560 0.861877 0.773738
Si Si3 0.181037 0.329191 0.630370
Si Si4 0.654539 0.281315 0.967444
Si Si5 0.160872 0.425774 0.283890
Si Si6 0.911066 0.503263 0.511849
O O1 0.637944 0.466000 0.706384
O O2 0.652608 0.709319 0.792168
O O3 0.637269 0.678033 0.585090
O O4 0.760515 0.621942 0.665726
O O5 0.886786 0.705829 0.751782
O O6 0.000000 0.886566 0.750000
O O7 0.896993 0.882480 0.896074
O O8 0.259752 0.290537 0.575376
O O9 0.186357 0.471575 0.693386
O O10 0.119165 0.353808 0.539986
O O11 0.627911 0.123787 0.952735
O O12 0.110058 0.504685 0.367788
O O13 0.000000 0.500000 0.500000
#
# Coordination Sequence:
#
# PCOD8248626 Si02
#       6
#     8   8   8   8   8   8
#     4  12  25  44  75 108 139 190 250 300 360 439
#     4  12  28  47  71 106 153 189 231 308 379 428
#     4  12  24  45  77 103 143 190 249 299 351 436
#     4  12  25  45  74 106 144 191 250 296 364 434
#     4  12  23  45  74 104 137 195 249 290 355 447
#     4  12  27  45  75 110 146 191 245 309 370 439
#
# _framework density 21.747620000000001
#
# number of rings (size 3 to 8) (size 9 to 14) (size 15 to 20)
#    0.000    0.000    8.333    1.000    0.000    3.333 
#    0.000    0.000    0.000    0.000    0.000    0.000 
#    0.000    0.000    0.000    0.000    0.000    0.000 
#
# Total GULP energy -595130.019735 kJ/mol
# GULP energy per Si atom -12398.542078 kJ/mol
# Density = 2.169812 g / cm^3
# Si number density = 21.747620 Si / 1000 Ang^3
#
#
#
# Elastic Constant Matrix: (Units=GPa)
#
#
# Indices 1 2 3 4 5 6 
#
# 1 123.9080 33.1872 55.8988 0.0000 0.0000 0.0000
# 2 33.1872 89.1088 48.9576 0.0000 0.0000 0.0000
# 3 55.8988 48.9576 112.5787 0.0000 0.0000 0.0000
# 4 0.0000 0.0000 0.0000 34.1632 0.0000 0.0000
# 5 0.0000 0.0000 0.0000 0.0000 19.1142 0.0000
# 6 0.0000 0.0000 0.0000 0.0000 0.0000 34.3829
#
#
#
# Elastic Compliance Matrix: (Units=1/GPa)
#
#
# Indices 1 2 3 4 5 6 
#
# 1 0.010527 -0.001378 -0.004628 0.000000 0.000000 0.000000
# 2 -0.001378 0.014926 -0.005807 0.000000 0.000000 0.000000
# 3 -0.004628 -0.005807 0.013706 0.000000 0.000000 0.000000
# 4 0.000000 0.000000 0.000000 0.029271 0.000000 0.000000
# 5 0.000000 0.000000 0.000000 0.000000 0.052317 0.000000
# 6 0.000000 0.000000 0.000000 0.000000 0.000000 0.029084
#
#
# Mechanical properties :
#
#
# Convention : Reuss Voigt Hill
#
# Bulk Modulus (GPa) = 64.37618 66.85365 65.61492
# Shear Modulus (GPa) = 27.99016 30.03552 29.01284
#
# Velocity S-wave (km/s) = 3.59143 3.72034 3.65645
# Velocity P-wave (km/s) = 6.84570 7.01869 6.93273
#
# Compressibility (1/GPa) = 0.01553370
#
# Stress axis : x y z
#
# Youngs Moduli (GPa) = 94.99019 66.99861 72.96256
#
# Poissons Ratio (x) = 0.09233 0.33766
# Poissons Ratio (y) = 0.13091 0.42366
# Poissons Ratio (z) = 0.43960 0.38903
#
# Static dielectric constant tensor:
#      x y z
#    x 3.830260 0.000000 0.000000 
#    y 0.000000 3.971330 0.000000 
#    z 0.000000 0.000000 4.256020 
# 
# 
# High freq. dielectric constant tensor:
#      x y z
#    x 1.842980 0.000000 0.000000 
#    y 0.000000 1.855000 0.000000 
#    z 0.000000 0.000000 1.877370 
# 
# From -- ./inp_files/17359.got.cif
#   From: 2010.03.12/outbox.cif.g09.slc.cpg/sg60_9_cif.got.tgz:17359.got - 2010.04.10 18:46:24.
