data_PCOD8248380
_publ_section_title
;
Structure prediction by ZEFSAII (Michael W. Deem and Ramdas Pophale) SiO2 
 PCOD8248380
Probable space group: P B C N
;
_chemical_formula_sum "Si O2"
_cell_formula_units_Z 40
_cell_length_a 9.369001
_cell_length_b 20.565818
_cell_length_c 9.188503
_cell_angle_alpha 90.000000
_cell_angle_beta 90.000000
_cell_angle_gamma 90.000000
_cell_volume 1770.451503
_symmetry_space_group_name_H-M "P B C N"
_symmetry_group_IT_number 60
_symmetry_cell_setting 'orthorhombic'
loop_
_space_group_symop_operation_xyz
x,y,z
1/2-x,1/2-y,1/2+z
1/2+x,1/2-y,-z
-x,y,1/2-z
-x,-y,-z
1/2+x,1/2+y,1/2-z
1/2-x,1/2+y,z
x,-y,1/2+z
loop_
_atom_site_type_symbol
_atom_site_label
_atom_site_fract_x
_atom_site_fract_y
_atom_site_fract_z
Si Si1 0.708497 0.024807 0.427533
Si Si2 0.512822 0.900633 0.411374
Si Si3 0.584501 0.216309 0.103912
Si Si4 0.091767 0.200131 0.389572
Si Si5 0.871710 0.050776 0.152514
O O1 0.641603 0.084158 0.519241
O O2 0.740218 0.052478 0.266752
O O3 0.600546 0.966427 0.405225
O O4 0.845012 0.998541 0.518617
O O5 0.500000 0.871398 0.250000
O O6 0.593889 0.848096 0.506849
O O7 0.500000 0.199629 0.250000
O O8 0.751973 0.234168 0.127428
O O9 0.495158 0.273845 0.028489
O O10 0.099944 0.122559 0.408529
O O11 0.000000 0.219686 0.250000
O O12 0.000000 0.023236 0.250000
#
# Coordination Sequence:
#
# PCOD8248380 Si02
#       5
#     8   8   8   8   8
#     4  11  22  41  67 103 141 185 238 286 360 424
#     4  11  23  39  69 101 141 186 233 300 345 427
#     4  12  25  45  73 104 140 193 248 306 366 436
#     4  11  25  47  71 103 145 186 243 302 365 437
#     4  11  23  43  68 100 146 187 230 296 366 438
#
# _framework density 22.593107
#
# number of rings (size 3 to 8) (size 9 to 14) (size 15 to 20)
#    0.000    0.800    4.000    3.600    0.000    1.600 
#    0.000    5.000    0.000    0.000    0.000    0.000 
#    0.000    0.000    0.000    0.000    0.000    0.000 
#
# Total GULP energy -496068.424297 kJ/mol
# GULP energy per Si atom -12401.710607 kJ/mol
# Density = 2.254168 g / cm^3
# Si number density = 22.593107 Si / 1000 Ang^3
#
#
#
# Elastic Constant Matrix: (Units=GPa)
#
#
# Indices 1 2 3 4 5 6 
#
# 1 123.4033 28.6571 24.0916 0.0000 0.0000 0.0000
# 2 28.6571 73.7485 30.4192 0.0000 0.0000 0.0000
# 3 24.0916 30.4192 118.0106 0.0000 0.0000 0.0000
# 4 0.0000 0.0000 0.0000 34.5770 0.0000 0.0000
# 5 0.0000 0.0000 0.0000 0.0000 46.7035 0.0000
# 6 0.0000 0.0000 0.0000 0.0000 0.0000 28.2984
#
#
#
# Elastic Compliance Matrix: (Units=1/GPa)
#
#
# Indices 1 2 3 4 5 6 
#
# 1 0.009022 -0.003073 -0.001050 0.000000 0.000000 0.000000
# 2 -0.003073 0.016219 -0.003554 0.000000 0.000000 0.000000
# 3 -0.001050 -0.003554 0.009604 0.000000 0.000000 0.000000
# 4 0.000000 0.000000 0.000000 0.028921 0.000000 0.000000
# 5 0.000000 0.000000 0.000000 0.000000 0.021412 0.000000
# 6 0.000000 0.000000 0.000000 0.000000 0.000000 0.035338
#
#
# Mechanical properties :
#
#
# Convention : Reuss Voigt Hill
#
# Bulk Modulus (GPa) = 51.29950 53.49980 52.39965
# Shear Modulus (GPa) = 35.12085 37.38210 36.25147
#
# Velocity S-wave (km/s) = 3.94698 4.07207 4.01001
# Velocity P-wave (km/s) = 6.59748 6.77053 6.68456
#
# Compressibility (1/GPa) = 0.01949337
#
# Stress axis : x y z
#
# Youngs Moduli (GPa) = 110.83994 61.65486 104.12223
#
# Poissons Ratio (x) = 0.18945 0.10930
# Poissons Ratio (y) = 0.34058 0.37000
# Poissons Ratio (z) = 0.11636 0.21909
#
# Static dielectric constant tensor:
#      x y z
#    x 4.337100 0.000000 0.000000 
#    y 0.000000 3.790590 0.000000 
#    z 0.000000 0.000000 4.329900 
# 
# 
# High freq. dielectric constant tensor:
#      x y z
#    x 1.902280 0.000000 0.000000 
#    y 0.000000 1.877510 0.000000 
#    z 0.000000 0.000000 1.903550 
# 
# From -- ./inp_files/3860.got.cif
#   From: 2010.03.12/outbox.cif.g09.slc.cpg/sg60_2_cif.got.tgz:3860.got - 2010.04.10 18:46:24.
