data_PCOD8248742
_publ_section_title
;
Structure prediction by ZEFSAII (Michael W. Deem and Ramdas Pophale) SiO2 
 PCOD8248742
Probable space group: P B C A
;
_chemical_formula_sum "Si O2"
_cell_formula_units_Z 64
_cell_length_a 18.283062
_cell_length_b 19.697989
_cell_length_c 8.966635
_cell_angle_alpha 90.000000
_cell_angle_beta 90.000000
_cell_angle_gamma 90.000000
_cell_volume 3229.239931
_symmetry_space_group_name_H-M "P B C A"
_symmetry_group_IT_number 61
_symmetry_cell_setting 'orthorhombic'
loop_
_space_group_symop_operation_xyz
x,y,z
1/2-x,-y,1/2+z
1/2+x,1/2-y,-z
-x,1/2+y,1/2-z
-x,-y,-z
1/2+x,y,1/2-z
1/2-x,1/2+y,z
x,1/2-y,1/2+z
loop_
_atom_site_type_symbol
_atom_site_label
_atom_site_fract_x
_atom_site_fract_y
_atom_site_fract_z
Si Si1 0.490722 0.323901 0.432369
Si Si2 0.190558 0.017830 0.663826
Si Si3 0.301379 0.926337 0.491930
Si Si4 0.995767 0.691736 0.597220
Si Si5 0.531999 0.064245 0.419825
Si Si6 0.675957 0.286665 0.124968
Si Si7 0.461075 0.050521 0.109095
Si Si8 0.164076 0.162842 0.559336
O O1 0.467773 0.319430 0.259089
O O2 0.467431 0.254945 0.514270
O O3 0.443949 0.381815 0.514754
O O4 0.576555 0.340556 0.444822
O O5 0.192752 0.085174 0.557815
O O6 0.246939 0.961680 0.607116
O O7 0.111711 0.983613 0.670147
O O8 0.208857 0.038802 0.831670
O O9 0.381598 0.935139 0.558701
O O10 0.284989 0.845430 0.474626
O O11 0.009905 0.626831 0.495319
O O12 0.910243 0.704022 0.610314
O O13 0.515573 0.066542 0.244774
O O14 0.500000 0.000000 0.500000
O O15 0.695367 0.297231 0.297075
O O16 0.695735 0.209309 0.075916
O O17 0.500000 0.000000 0.000000
#
# Coordination Sequence:
#
# PCOD8248742 Si02
#       8
#     8   8   8   8   8   8   8   8
#     4  10  18  33  56  87 121 153 201 251 296 355
#     4  11  23  40  58  90 123 157 200 249 311 372
#     4  10  23  40  60  87 121 158 200 254 306 366
#     4   9  18  33  56  87 117 154 200 250 297 355
#     4  11  21  39  62  86 120 158 203 257 303 353
#     4   8  17  32  56  81 111 146 196 242 283 344
#     4  12  23  36  60  90 123 160 202 251 307 369
#     4   9  17  33  55  83 113 146 195 245 286 346
#
# _framework density 19.818905999999998
#
# number of rings (size 3 to 8) (size 9 to 14) (size 15 to 20)
#    0.000    2.000    2.500    2.250    1.750    4.000 
#    0.000    0.000    2.750    1.500    0.000    0.000 
#    0.000    0.000    0.000    0.000    0.000    0.000 
#
# Total GULP energy -793386.353023 kJ/mol
# GULP energy per Si atom -12396.661766 kJ/mol
# Density = 1.977380 g / cm^3
# Si number density = 19.818906 Si / 1000 Ang^3
#
#
#
# Elastic Constant Matrix: (Units=GPa)
#
#
# Indices 1 2 3 4 5 6 
#
# 1 32.3761 3.4206 3.3699 0.0000 0.0000 0.0000
# 2 3.4206 107.2471 27.6342 0.0000 0.0000 0.0000
# 3 3.3699 27.6342 100.4339 0.0000 0.0000 0.0000
# 4 0.0000 0.0000 0.0000 42.9131 0.0000 0.0000
# 5 0.0000 0.0000 0.0000 0.0000 25.2154 0.0000
# 6 0.0000 0.0000 0.0000 0.0000 0.0000 22.6931
#
#
#
# Elastic Compliance Matrix: (Units=1/GPa)
#
#
# Indices 1 2 3 4 5 6 
#
# 1 0.031055 -0.000777 -0.000828 0.000000 0.000000 0.000000
# 2 -0.000777 0.010055 -0.002741 0.000000 0.000000 0.000000
# 3 -0.000828 -0.002741 0.010739 0.000000 0.000000 0.000000
# 4 0.000000 0.000000 0.000000 0.023303 0.000000 0.000000
# 5 0.000000 0.000000 0.000000 0.000000 0.039658 0.000000
# 6 0.000000 0.000000 0.000000 0.000000 0.000000 0.044066
#
#
# Mechanical properties :
#
#
# Convention : Reuss Voigt Hill
#
# Bulk Modulus (GPa) = 23.17101 34.32295 28.74698
# Shear Modulus (GPa) = 27.47944 31.87315 29.67630
#
# Velocity S-wave (km/s) = 3.72765 4.01461 3.87379
# Velocity P-wave (km/s) = 5.49945 6.23260 5.87747
#
# Compressibility (1/GPa) = 0.04315737
#
# Stress axis : x y z
#
# Youngs Moduli (GPa) = 32.20065 99.45093 93.12153
#
# Poissons Ratio (x) = 0.07728 0.07712
# Poissons Ratio (y) = 0.02502 0.25521
# Poissons Ratio (z) = 0.02667 0.27256
#
# Static dielectric constant tensor:
#      x y z
#    x 3.087780 0.000000 0.000000 
#    y 0.000000 4.140920 0.000000 
#    z 0.000000 0.000000 4.215340 
# 
# 
# High freq. dielectric constant tensor:
#      x y z
#    x 1.716050 0.000000 0.000000 
#    y 0.000000 1.793920 0.000000 
#    z 0.000000 0.000000 1.784260 
# 
# From -- ./inp_files/3706.got.cif
#   From: 2010.03.12/outbox.cif.g09.slc.cpg/sg61_2_cif.got.tgz:3706.got - 2010.04.10 19:05:03.
