data_PCOD8248297
_publ_section_title
;
Structure prediction by ZEFSAII (Michael W. Deem and Ramdas Pophale) SiO2 
 PCOD8248297
Probable space group: P B C N
;
_chemical_formula_sum "Si O2"
_cell_formula_units_Z 48
_cell_length_a 8.892147
_cell_length_b 8.716082
_cell_length_c 30.831901
_cell_angle_alpha 90.000000
_cell_angle_beta 90.000000
_cell_angle_gamma 90.000000
_cell_volume 2389.616695
_symmetry_space_group_name_H-M "P B C N"
_symmetry_group_IT_number 60
_symmetry_cell_setting 'orthorhombic'
loop_
_space_group_symop_operation_xyz
x,y,z
1/2-x,1/2-y,1/2+z
1/2+x,1/2-y,-z
-x,y,1/2-z
-x,-y,-z
1/2+x,1/2+y,1/2-z
1/2-x,1/2+y,z
x,-y,1/2+z
loop_
_atom_site_type_symbol
_atom_site_label
_atom_site_fract_x
_atom_site_fract_y
_atom_site_fract_z
Si Si1 0.822127 0.156743 0.670067
Si Si2 0.556604 0.034115 0.547451
Si Si3 0.647360 0.895950 0.371953
Si Si4 0.289123 0.697194 0.418939
Si Si5 0.551047 0.969207 0.701448
Si Si6 0.547264 0.443225 0.870736
O O1 0.752990 0.210541 0.624431
O O2 0.894010 0.295988 0.695950
O O3 0.683703 0.090587 0.696534
O O4 0.944636 0.019890 0.666560
O O5 0.426278 0.070735 0.581597
O O6 0.666398 0.180349 0.544270
O O7 0.500000 0.000000 0.500000
O O8 0.642839 0.886861 0.564758
O O9 0.623602 0.718710 0.357685
O O10 0.580853 0.000880 0.333551
O O11 0.822407 0.933259 0.380449
O O12 0.431833 0.584047 0.410901
O O13 0.500000 0.992704 0.750000
#
# Coordination Sequence:
#
# PCOD8248297 Si02
#       6
#     8   8   8   8   8   8
#     4  12  20  46  70  92 134 189 229 272 350 415
#     4  11  24  41  68 101 135 176 236 279 339 413
#     4  11  23  42  63 103 135 177 232 289 340 401
#     4  11  20  44  70  92 130 193 220 274 348 408
#     4  12  25  42  69 101 135 179 237 285 340 412
#     4  11  22  39  73  91 131 186 223 280 347 405
#
# _framework density 20.086901999999998
#
# number of rings (size 3 to 8) (size 9 to 14) (size 15 to 20)
#    0.000    0.667    8.333    1.000    0.000    5.333 
#    0.000    3.333    0.000    0.000    0.000    0.000 
#    0.000    0.000    0.000    0.000    0.000    0.000 
#
# Total GULP energy -595089.529420 kJ/mol
# GULP energy per Si atom -12397.698530 kJ/mol
# Density = 2.004118 g / cm^3
# Si number density = 20.086902 Si / 1000 Ang^3
#
#
#
# Elastic Constant Matrix: (Units=GPa)
#
#
# Indices 1 2 3 4 5 6 
#
# 1 117.0272 53.3050 46.0291 0.0000 0.0000 0.0000
# 2 53.3050 112.7551 43.0652 0.0000 0.0000 0.0000
# 3 46.0291 43.0652 110.8370 0.0000 0.0000 0.0000
# 4 0.0000 0.0000 0.0000 28.1262 0.0000 0.0000
# 5 0.0000 0.0000 0.0000 0.0000 32.9789 0.0000
# 6 0.0000 0.0000 0.0000 0.0000 0.0000 33.8260
#
#
#
# Elastic Compliance Matrix: (Units=1/GPa)
#
#
# Indices 1 2 3 4 5 6 
#
# 1 0.011786 -0.004348 -0.003205 0.000000 0.000000 0.000000
# 2 -0.004348 0.012018 -0.002864 0.000000 0.000000 0.000000
# 3 -0.003205 -0.002864 0.011466 0.000000 0.000000 0.000000
# 4 0.000000 0.000000 0.000000 0.035554 0.000000 0.000000
# 5 0.000000 0.000000 0.000000 0.000000 0.030322 0.000000
# 6 0.000000 0.000000 0.000000 0.000000 0.000000 0.029563
#
#
# Mechanical properties :
#
#
# Convention : Reuss Voigt Hill
#
# Bulk Modulus (GPa) = 69.27000 69.49088 69.38044
# Shear Modulus (GPa) = 31.97835 32.20089 32.08962
#
# Velocity S-wave (km/s) = 3.99432 4.00819 4.00126
# Velocity P-wave (km/s) = 7.47213 7.48939 7.48077
#
# Compressibility (1/GPa) = 0.01443626
#
# Stress axis : x y z
#
# Youngs Moduli (GPa) = 84.84603 83.20854 87.21290
#
# Poissons Ratio (x) = 0.36176 0.27955
# Poissons Ratio (y) = 0.36888 0.24978
# Poissons Ratio (z) = 0.27196 0.23831
#
# Static dielectric constant tensor:
#      x y z
#    x 3.903980 0.000000 0.000000 
#    y 0.000000 4.201350 0.000000 
#    z 0.000000 0.000000 3.235920 
# 
# 
# High freq. dielectric constant tensor:
#      x y z
#    x 1.800010 0.000000 0.000000 
#    y 0.000000 1.806610 0.000000 
#    z 0.000000 0.000000 1.749620 
# 
# From -- ./inp_files/25934.got.cif
#   From: 2010.03.12/outbox.cif.g09.slc.cpg/sg60_13_cif.got.tgz:25934.got - 2010.04.10 18:46:24.
