data_PCOD8248656
_publ_section_title
;
Structure prediction by ZEFSAII (Michael W. Deem and Ramdas Pophale) SiO2 
 PCOD8248656
Probable space group: P B C N
;
_chemical_formula_sum "Si O2"
_cell_formula_units_Z 40
_cell_length_a 18.046008
_cell_length_b 8.409752
_cell_length_c 11.789168
_cell_angle_alpha 90.000000
_cell_angle_beta 90.000000
_cell_angle_gamma 90.000000
_cell_volume 1789.153041
_symmetry_space_group_name_H-M "P B C N"
_symmetry_group_IT_number 60
_symmetry_cell_setting 'orthorhombic'
loop_
_space_group_symop_operation_xyz
x,y,z
1/2-x,1/2-y,1/2+z
1/2+x,1/2-y,-z
-x,y,1/2-z
-x,-y,-z
1/2+x,1/2+y,1/2-z
1/2-x,1/2+y,z
x,-y,1/2+z
loop_
_atom_site_type_symbol
_atom_site_label
_atom_site_fract_x
_atom_site_fract_y
_atom_site_fract_z
Si Si1 0.077547 0.118809 0.200255
Si Si2 0.155587 0.358768 0.817917
Si Si3 0.687655 0.222467 0.632047
Si Si4 0.468443 0.822778 0.997475
Si Si5 0.384553 0.699921 0.592775
O O1 0.129316 0.168796 0.303201
O O2 0.000000 0.053175 0.250000
O O3 0.122702 0.980238 0.136315
O O4 0.062613 0.270781 0.119876
O O5 0.229100 0.255189 0.830925
O O6 0.171064 0.541722 0.838730
O O7 0.096224 0.297479 0.907696
O O8 0.123137 0.329385 0.692723
O O9 0.679294 0.259993 0.498456
O O10 0.535270 0.707980 0.964690
O O11 0.500000 0.000000 0.000000
#
# Coordination Sequence:
#
# PCOD8248656 Si02
#       5
#     8   8   8   8   8
#     4  12  25  46  76 108 149 190 248 308 368 443
#     4  12  28  47  75 105 151 195 246 308 380 442
#     4  12  29  48  71 111 146 193 246 307 374 447
#     4  12  24  48  78 106 148 199 253 306 367 443
#     4  12  27  47  77 107 147 195 248 304 373 443
#
# _framework density 22.356947000000002
#
# number of rings (size 3 to 8) (size 9 to 14) (size 15 to 20)
#    0.000    0.000    4.000    4.800    8.400    0.000 
#    0.000    0.000    0.000    0.000    0.000    0.000 
#    0.000    0.000    0.000    0.000    0.000    0.000 
#
# Total GULP energy -496328.324116 kJ/mol
# GULP energy per Si atom -12408.208103 kJ/mol
# Density = 2.230606 g / cm^3
# Si number density = 22.356947 Si / 1000 Ang^3
#
#
#
# Elastic Constant Matrix: (Units=GPa)
#
#
# Indices 1 2 3 4 5 6 
#
# 1 82.0954 -18.5090 21.7233 0.0000 0.0000 0.0000
# 2 -18.5090 103.5490 31.7362 0.0000 0.0000 0.0000
# 3 21.7233 31.7362 133.0479 0.0000 0.0000 0.0000
# 4 0.0000 0.0000 0.0000 39.4618 0.0000 0.0000
# 5 0.0000 0.0000 0.0000 0.0000 -38.4489 0.0000
# 6 0.0000 0.0000 0.0000 0.0000 0.0000 -282.6477
#
#
#
# Elastic Compliance Matrix: (Units=1/GPa)
#
#
# Indices 1 2 3 4 5 6 
#
# 1 0.013755 0.003395 -0.003056 0.000000 0.000000 0.000000
# 2 0.003395 0.011257 -0.003239 0.000000 0.000000 0.000000
# 3 -0.003056 -0.003239 0.008788 0.000000 0.000000 0.000000
# 4 0.000000 0.000000 0.000000 0.025341 0.000000 0.000000
# 5 0.000000 0.000000 0.000000 0.000000 -0.026009 0.000000
# 6 0.000000 0.000000 0.000000 0.000000 0.000000 -0.003538
#
#
# Mechanical properties :
#
#
# Convention : Reuss Voigt Hill
#
# Bulk Modulus (GPa) = 35.71471 43.17704 39.44588
# Shear Modulus (GPa) = 111.78827 -37.41084 37.18872
#
# Velocity S-wave (km/s) = 7.07885 -4.09509 4.08291
# Velocity P-wave (km/s) = 9.10071 1.73354 6.31735
#
# Compressibility (1/GPa) = 0.02799967
#
# Stress axis : x y z
#
# Youngs Moduli (GPa) = 72.70097 88.83365 113.79507
#
# Poissons Ratio (x) = -0.30161 0.34772
# Poissons Ratio (y) = -0.24683 0.36864
# Poissons Ratio (z) = 0.22215 0.28778
#
# Static dielectric constant tensor:
#      x y z
#    x 4.335430 0.000000 0.000000 
#    y 0.000000 3.972530 0.000000 
#    z 0.000000 0.000000 4.495930 
# 
# 
# High freq. dielectric constant tensor:
#      x y z
#    x 1.889290 0.000000 0.000000 
#    y 0.000000 1.888890 0.000000 
#    z 0.000000 0.000000 1.897730 
# 
# From -- ./inp_files/12280.got.cif
#   From: 2010.03.12/outbox.cif.g09.slc.cpg/sg60_7_cif.got.tgz:12280.got - 2010.04.10 18:46:24.
