data_PCOD8248967
_publ_section_title
;
Structure prediction by ZEFSAII (Michael W. Deem and Ramdas Pophale) SiO2 
 PCOD8248967
Probable space group: P B C A
;
_chemical_formula_sum "Si O2"
_cell_formula_units_Z 56
_cell_length_a 12.874060
_cell_length_b 10.958252
_cell_length_c 18.500192
_cell_angle_alpha 90.000000
_cell_angle_beta 90.000000
_cell_angle_gamma 90.000000
_cell_volume 2609.955171
_symmetry_space_group_name_H-M "P B C A"
_symmetry_group_IT_number 61
_symmetry_cell_setting 'orthorhombic'
loop_
_space_group_symop_operation_xyz
x,y,z
1/2-x,-y,1/2+z
1/2+x,1/2-y,-z
-x,1/2+y,1/2-z
-x,-y,-z
1/2+x,y,1/2-z
1/2-x,1/2+y,z
x,1/2-y,1/2+z
loop_
_atom_site_type_symbol
_atom_site_label
_atom_site_fract_x
_atom_site_fract_y
_atom_site_fract_z
Si Si1 0.205507 0.374828 0.744560
Si Si2 0.179008 0.192164 0.088102
Si Si3 0.369542 0.980816 0.311899
Si Si4 0.206655 0.802356 0.346170
Si Si5 0.558030 0.839881 0.568104
Si Si6 0.822609 0.087918 0.933132
Si Si7 0.420848 0.098691 0.721148
O O1 0.197922 0.290100 0.673805
O O2 0.312067 0.456403 0.743553
O O3 0.210542 0.299887 0.819775
O O4 0.104891 0.461255 0.747324
O O5 0.236646 0.306953 0.049703
O O6 0.059170 0.208028 0.064968
O O7 0.218560 0.053659 0.067098
O O8 0.276970 0.920792 0.360270
O O9 0.453932 0.885934 0.279914
O O10 0.433129 0.069870 0.363979
O O11 0.141120 0.769840 0.417610
O O12 0.126035 0.808299 0.278923
O O13 0.587233 0.904926 0.493318
O O14 0.873908 0.122894 0.857420
#
# Coordination Sequence:
#
# PCOD8248967 Si02
#       7
#     8   8   8   8   8   8   8
#     4   9  19  36  55  89 118 163 206 261 319 381
#     4  11  23  44  68  91 129 173 219 264 326 394
#     4  10  21  36  61  89 127 160 214 267 325 381
#     4  10  22  35  59  93 127 156 215 272 323 378
#     4  11  24  40  66  92 128 176 213 271 329 394
#     4  11  24  41  68  93 128 173 226 261 325 389
#     4  10  20  36  60  90 121 170 210 264 323 391
#
# _framework density 21.456308
#
# number of rings (size 3 to 8) (size 9 to 14) (size 15 to 20)
#    0.000    1.714    4.286    0.429    4.000    0.000 
#    0.000    0.714    6.286    0.000    0.000    0.000 
#    0.000    0.000    0.000    0.000    0.000    0.000 
#
# Total GULP energy -693871.322164 kJ/mol
# GULP energy per Si atom -12390.559324 kJ/mol
# Density = 2.140747 g / cm^3
# Si number density = 21.456308 Si / 1000 Ang^3
#
#
#
# Elastic Constant Matrix: (Units=GPa)
#
#
# Indices 1 2 3 4 5 6 
#
# 1 100.2671 37.3342 -0.0920 0.0000 0.0000 0.0000
# 2 37.3342 81.2190 1.0774 0.0000 0.0000 0.0000
# 3 -0.0920 1.0774 37.2765 0.0000 0.0000 0.0000
# 4 0.0000 0.0000 0.0000 17.1139 0.0000 0.0000
# 5 0.0000 0.0000 0.0000 0.0000 23.9300 0.0000
# 6 0.0000 0.0000 0.0000 0.0000 0.0000 31.2173
#
#
#
# Elastic Compliance Matrix: (Units=1/GPa)
#
#
# Indices 1 2 3 4 5 6 
#
# 1 0.012034 -0.005534 0.000190 0.000000 0.000000 0.000000
# 2 -0.005534 0.014862 -0.000443 0.000000 0.000000 0.000000
# 3 0.000190 -0.000443 0.026840 0.000000 0.000000 0.000000
# 4 0.000000 0.000000 0.000000 0.058432 0.000000 0.000000
# 5 0.000000 0.000000 0.000000 0.000000 0.041789 0.000000
# 6 0.000000 0.000000 0.000000 0.000000 0.000000 0.032033
#
#
# Mechanical properties :
#
#
# Convention : Reuss Voigt Hill
#
# Bulk Modulus (GPa) = 23.71886 32.82242 28.27064
# Shear Modulus (GPa) = 23.62727 26.48176 25.05451
#
# Velocity S-wave (km/s) = 3.32200 3.51696 3.42087
# Velocity P-wave (km/s) = 5.07866 5.64114 5.36727
#
# Compressibility (1/GPa) = 0.04216055
#
# Stress axis : x y z
#
# Youngs Moduli (GPa) = 83.09624 67.28452 37.25803
#
# Poissons Ratio (x) = 0.37238 -0.00707
# Poissons Ratio (y) = 0.45988 0.01651
# Poissons Ratio (z) = -0.01576 0.02982
#
# Static dielectric constant tensor:
#      x y z
#    x 3.923080 0.000000 0.000000 
#    y 0.000000 3.948780 0.000000 
#    z 0.000000 0.000000 3.635450 
# 
# 
# High freq. dielectric constant tensor:
#      x y z
#    x 1.840960 0.000000 0.000000 
#    y 0.000000 1.839700 0.000000 
#    z 0.000000 0.000000 1.818850 
# 
# From -- ./inp_files/5330.got.cif
#   From: 2010.03.12/outbox.cif.g09.slc.cpg/sg61_3_cif.got.tgz:5330.got - 2010.04.10 19:05:03.
