data_PCOD8248285
_publ_section_title
;
Structure prediction by ZEFSAII (Michael W. Deem and Ramdas Pophale) SiO2 
 PCOD8248285
Probable space group: P B C N
;
_chemical_formula_sum "Si O2"
_cell_formula_units_Z 36
_cell_length_a 6.194996
_cell_length_b 18.563283
_cell_length_c 15.218637
_cell_angle_alpha 90.000000
_cell_angle_beta 90.000000
_cell_angle_gamma 90.000000
_cell_volume 1750.135097
_symmetry_space_group_name_H-M "P B C N"
_symmetry_group_IT_number 60
_symmetry_cell_setting 'orthorhombic'
loop_
_space_group_symop_operation_xyz
x,y,z
1/2-x,1/2-y,1/2+z
1/2+x,1/2-y,-z
-x,y,1/2-z
-x,-y,-z
1/2+x,1/2+y,1/2-z
1/2-x,1/2+y,z
x,-y,1/2+z
loop_
_atom_site_type_symbol
_atom_site_label
_atom_site_fract_x
_atom_site_fract_y
_atom_site_fract_z
Si Si1 0.586909 0.922315 0.475885
Si Si2 0.703669 0.320507 0.034731
Si Si3 0.139062 0.140186 0.669262
Si Si4 0.144759 0.824906 0.912462
Si Si5 0.500000 0.756505 0.250000
O O1 0.390125 0.875609 0.439427
O O2 0.761624 0.921869 0.395436
O O3 0.686662 0.889080 0.566652
O O4 0.500000 0.000000 0.500000
O O5 0.534641 0.314661 0.114520
O O6 0.797041 0.240684 0.021302
O O7 0.594505 0.348525 0.944266
O O8 0.329011 0.193860 0.699535
O O9 0.000000 0.105543 0.750000
O O10 0.136448 0.797116 0.812949
#
# Coordination Sequence:
#
# PCOD8248285 Si02
#       5
#     8   8   8   8   4
#     4  11  25  43  66  95 138 179 221 276 343 416
#     4  11  20  39  68  95 120 170 224 271 329 403
#     4  11  21  37  69  98 129 170 224 273 336 398
#     4  11  21  36  68  98 127 168 223 275 329 403
#     4  12  22  38  66 104 132 162 224 292 330 388
#
# _framework density 20.569839999999999
#
# number of rings (size 3 to 8) (size 9 to 14) (size 15 to 20)
#    0.000    0.889    6.667    1.333    0.000    3.556 
#    0.000    0.000   24.444    0.000    0.000    0.000 
#    0.000    0.000    0.000    0.000    0.000    0.000 
#
# Total GULP energy -446077.633646 kJ/mol
# GULP energy per Si atom -12391.045379 kJ/mol
# Density = 2.052302 g / cm^3
# Si number density = 20.569840 Si / 1000 Ang^3
#
#
#
# Elastic Constant Matrix: (Units=GPa)
#
#
# Indices 1 2 3 4 5 6 
#
# 1 103.0381 42.8470 43.6811 0.0000 0.0000 0.0000
# 2 42.8470 112.2676 42.4313 0.0000 0.0000 0.0000
# 3 43.6811 42.4313 114.7447 0.0000 0.0000 0.0000
# 4 0.0000 0.0000 0.0000 19.7875 0.0000 0.0000
# 5 0.0000 0.0000 0.0000 0.0000 43.6227 0.0000
# 6 0.0000 0.0000 0.0000 0.0000 0.0000 31.3557
#
#
#
# Elastic Compliance Matrix: (Units=1/GPa)
#
#
# Indices 1 2 3 4 5 6 
#
# 1 0.012653 -0.003497 -0.003524 0.000000 0.000000 0.000000
# 2 -0.003497 0.011321 -0.002855 0.000000 0.000000 0.000000
# 3 -0.003524 -0.002855 0.011112 0.000000 0.000000 0.000000
# 4 0.000000 0.000000 0.000000 0.050537 0.000000 0.000000
# 5 0.000000 0.000000 0.000000 0.000000 0.022924 0.000000
# 6 0.000000 0.000000 0.000000 0.000000 0.000000 0.031892
#
#
# Mechanical properties :
#
#
# Convention : Reuss Voigt Hill
#
# Bulk Modulus (GPa) = 65.21237 65.32991 65.27114
# Shear Modulus (GPa) = 30.24750 32.35925 31.30338
#
# Velocity S-wave (km/s) = 3.83884 3.97059 3.90527
# Velocity P-wave (km/s) = 7.17082 7.26978 7.22047
#
# Compressibility (1/GPa) = 0.01533451
#
# Stress axis : x y z
#
# Youngs Moduli (GPa) = 79.03111 88.33046 89.99196
#
# Poissons Ratio (x) = 0.30893 0.31709
# Poissons Ratio (y) = 0.27640 0.25693
# Poissons Ratio (z) = 0.27847 0.25219
#
# Static dielectric constant tensor:
#      x y z
#    x 4.242190 0.000000 0.000000 
#    y 0.000000 3.292710 0.000000 
#    z 0.000000 0.000000 3.889590 
# 
# 
# High freq. dielectric constant tensor:
#      x y z
#    x 1.835420 0.000000 0.000000 
#    y 0.000000 1.753000 0.000000 
#    z 0.000000 0.000000 1.802530 
# 
# From -- ./inp_files/13717.got.cif
#   From: 2010.03.12/outbox.cif.g09.slc.cpg/sg60_7_cif.got.tgz:13717.got - 2010.04.10 18:46:24.
