data_PCOD8248444
_publ_section_title
;
Structure prediction by ZEFSAII (Michael W. Deem and Ramdas Pophale) SiO2 
 PCOD8248444
Probable space group: P B C N
;
_chemical_formula_sum "Si O2"
_cell_formula_units_Z 32
_cell_length_a 4.788709
_cell_length_b 16.359324
_cell_length_c 17.588360
_cell_angle_alpha 90.000000
_cell_angle_beta 90.000000
_cell_angle_gamma 90.000000
_cell_volume 1377.872862
_symmetry_space_group_name_H-M "P B C N"
_symmetry_group_IT_number 60
_symmetry_cell_setting 'orthorhombic'
loop_
_space_group_symop_operation_xyz
x,y,z
1/2-x,1/2-y,1/2+z
1/2+x,1/2-y,-z
-x,y,1/2-z
-x,-y,-z
1/2+x,1/2+y,1/2-z
1/2-x,1/2+y,z
x,-y,1/2+z
loop_
_atom_site_type_symbol
_atom_site_label
_atom_site_fract_x
_atom_site_fract_y
_atom_site_fract_z
Si Si1 0.227930 0.320021 0.197809
Si Si2 0.527305 0.996225 0.167104
Si Si3 0.535679 0.548977 0.423512
Si Si4 0.145199 0.771472 0.546907
O O1 0.500000 0.335686 0.250000
O O2 0.284038 0.267053 0.122741
O O3 0.000000 0.272911 0.250000
O O4 0.082454 0.403821 0.171052
O O5 0.500000 0.037759 0.250000
O O6 0.353267 0.045510 0.104789
O O7 0.846894 0.005302 0.140671
O O8 0.500000 0.500000 0.500000
O O9 0.479359 0.644403 0.437173
O O10 0.402872 0.786102 0.488796
#
# Coordination Sequence:
#
# PCOD8248444 Si02
#       4
#     8   8   8   8
#     4  11  23  42  67  96 132 177 220 272 337 404
#     4  11  23  42  65  94 128 169 217 270 328 392
#     4  12  24  41  66  95 129 172 220 274 325 388
#     4  12  25  43  65  95 133 174 220 274 332 398
#
# _framework density 23.224202999999999
#
# number of rings (size 3 to 8) (size 9 to 14) (size 15 to 20)
#    0.000    0.500    0.000   10.500    0.000    3.000 
#    0.000    0.000    0.000    0.000    0.000    0.000 
#    0.000    0.000    0.000    0.000    0.000    0.000 
#
# Total GULP energy -396804.944777 kJ/mol
# GULP energy per Si atom -12400.154524 kJ/mol
# Density = 2.317134 g / cm^3
# Si number density = 23.224203 Si / 1000 Ang^3
#
#
#
# Elastic Constant Matrix: (Units=GPa)
#
#
# Indices 1 2 3 4 5 6 
#
# 1 93.8743 21.4156 33.8042 0.0000 0.0000 0.0000
# 2 21.4156 104.8603 45.8443 0.0000 0.0000 0.0000
# 3 33.8042 45.8443 146.8632 0.0000 0.0000 0.0000
# 4 0.0000 0.0000 0.0000 32.9636 0.0000 0.0000
# 5 0.0000 0.0000 0.0000 0.0000 58.2852 0.0000
# 6 0.0000 0.0000 0.0000 0.0000 0.0000 29.9446
#
#
#
# Elastic Compliance Matrix: (Units=1/GPa)
#
#
# Indices 1 2 3 4 5 6 
#
# 1 0.011794 -0.001415 -0.002273 0.000000 0.000000 0.000000
# 2 -0.001415 0.011213 -0.003175 0.000000 0.000000 0.000000
# 3 -0.002273 -0.003175 0.008323 0.000000 0.000000 0.000000
# 4 0.000000 0.000000 0.000000 0.030336 0.000000 0.000000
# 5 0.000000 0.000000 0.000000 0.000000 0.017157 0.000000
# 6 0.000000 0.000000 0.000000 0.000000 0.000000 0.033395
#
#
# Mechanical properties :
#
#
# Convention : Reuss Voigt Hill
#
# Bulk Modulus (GPa) = 56.80084 60.85843 58.82964
# Shear Modulus (GPa) = 37.93266 40.54093 39.23679
#
# Velocity S-wave (km/s) = 4.04583 4.18261 4.11479
# Velocity P-wave (km/s) = 6.80703 7.04182 6.92542
#
# Compressibility (1/GPa) = 0.01760537
#
# Stress axis : x y z
#
# Youngs Moduli (GPa) = 84.79013 89.17899 120.14576
#
# Poissons Ratio (x) = 0.12618 0.27309
# Poissons Ratio (y) = 0.11997 0.38142
# Poissons Ratio (z) = 0.19273 0.28311
#
# Static dielectric constant tensor:
#      x y z
#    x 4.347670 0.000000 0.000000 
#    y 0.000000 3.851100 0.000000 
#    z 0.000000 0.000000 4.662700 
# 
# 
# High freq. dielectric constant tensor:
#      x y z
#    x 1.933440 0.000000 0.000000 
#    y 0.000000 1.897370 0.000000 
#    z 0.000000 0.000000 1.939700 
# 
# From -- ./inp_files/18447.got.cif
#   From: 2010.03.12/outbox.cif.g09.slc.cpg/sg60_10_cif.got.tgz:18447.got - 2010.04.10 18:46:24.
