data_PCOD8248874
_publ_section_title
;
Structure prediction by ZEFSAII (Michael W. Deem and Ramdas Pophale) SiO2 
 PCOD8248874
Probable space group: P B C A
;
_chemical_formula_sum "Si O2"
_cell_formula_units_Z 64
_cell_length_a 14.345640
_cell_length_b 8.624691
_cell_length_c 23.745320
_cell_angle_alpha 90.000000
_cell_angle_beta 90.000000
_cell_angle_gamma 90.000000
_cell_volume 2937.930374
_symmetry_space_group_name_H-M "P B C A"
_symmetry_group_IT_number 61
_symmetry_cell_setting 'orthorhombic'
loop_
_space_group_symop_operation_xyz
x,y,z
1/2-x,-y,1/2+z
1/2+x,1/2-y,-z
-x,1/2+y,1/2-z
-x,-y,-z
1/2+x,y,1/2-z
1/2-x,1/2+y,z
x,1/2-y,1/2+z
loop_
_atom_site_type_symbol
_atom_site_label
_atom_site_fract_x
_atom_site_fract_y
_atom_site_fract_z
Si Si1 0.803073 0.550462 0.433939
Si Si2 0.663267 0.318446 0.772303
Si Si3 0.822490 0.006962 0.330222
Si Si4 0.849913 0.252954 0.988480
Si Si5 0.166639 0.418098 0.852977
Si Si6 0.533453 0.445793 0.857651
Si Si7 0.851308 0.257909 0.616653
Si Si8 0.022259 0.802929 0.611161
O O1 0.738815 0.467207 0.385982
O O2 0.748490 0.679865 0.467920
O O3 0.840576 0.430515 0.480123
O O4 0.893369 0.625526 0.403288
O O5 0.764659 0.379374 0.789890
O O6 0.655183 0.327120 0.705429
O O7 0.579366 0.423502 0.796401
O O8 0.651075 0.144458 0.794963
O O9 0.917797 0.094069 0.345651
O O10 0.934723 0.317758 0.951142
O O11 0.871134 0.294338 0.052691
O O12 0.165665 0.604558 0.845680
O O13 0.261949 0.368844 0.882825
O O14 0.081714 0.368285 0.893077
O O15 0.437501 0.353590 0.859254
O O16 0.519508 0.626784 0.867981
#
# Coordination Sequence:
#
# PCOD8248874 Si02
#       8
#     8   8   8   8   8   8   8   8
#     4   9  18  36  63  95 121 156 209 253 307 376
#     4  11  22  39  64  90 123 165 198 257 319 362
#     4  10  19  38  65  94 124 157 208 256 307 375
#     4  10  21  38  64  90 125 166 201 261 317 360
#     4  12  27  42  59  88 123 163 212 259 313 381
#     4  10  22  40  63  91 123 162 212 260 310 373
#     4  12  26  43  61  89 127 167 212 258 313 377
#     4  10  23  41  63  95 124 159 214 260 308 379
#
# _framework density 21.784043
#
# number of rings (size 3 to 8) (size 9 to 14) (size 15 to 20)
#    0.000    1.500    0.000    6.750    0.000    7.500 
#    0.000    0.000    0.000    0.000    0.000    0.000 
#    0.000    0.000    0.000    0.000    0.000    0.000 
#
# Total GULP energy -793839.662368 kJ/mol
# GULP energy per Si atom -12403.744724 kJ/mol
# Density = 2.173446 g / cm^3
# Si number density = 21.784043 Si / 1000 Ang^3
#
#
#
# Elastic Constant Matrix: (Units=GPa)
#
#
# Indices 1 2 3 4 5 6 
#
# 1 140.0995 33.4183 21.3543 0.0000 0.0000 0.0000
# 2 33.4183 103.3574 22.1730 0.0000 0.0000 0.0000
# 3 21.3543 22.1730 91.2777 0.0000 0.0000 0.0000
# 4 0.0000 0.0000 0.0000 26.1119 0.0000 0.0000
# 5 0.0000 0.0000 0.0000 0.0000 18.2700 0.0000
# 6 0.0000 0.0000 0.0000 0.0000 0.0000 39.0295
#
#
#
# Elastic Compliance Matrix: (Units=1/GPa)
#
#
# Indices 1 2 3 4 5 6 
#
# 1 0.007876 -0.002269 -0.001291 0.000000 0.000000 0.000000
# 2 -0.002269 0.010861 -0.002107 0.000000 0.000000 0.000000
# 3 -0.001291 -0.002107 0.011770 0.000000 0.000000 0.000000
# 4 0.000000 0.000000 0.000000 0.038297 0.000000 0.000000
# 5 0.000000 0.000000 0.000000 0.000000 0.054735 0.000000
# 6 0.000000 0.000000 0.000000 0.000000 0.000000 0.025622
#
#
# Mechanical properties :
#
#
# Convention : Reuss Voigt Hill
#
# Bulk Modulus (GPa) = 52.16411 54.29175 53.22793
# Shear Modulus (GPa) = 29.96060 33.86822 31.91441
#
# Velocity S-wave (km/s) = 3.71259 3.94728 3.83173
# Velocity P-wave (km/s) = 6.50967 6.76399 6.63804
#
# Compressibility (1/GPa) = 0.01917027
#
# Stress axis : x y z
#
# Youngs Moduli (GPa) = 126.96879 92.07214 84.96470
#
# Poissons Ratio (x) = 0.20896 0.10971
# Poissons Ratio (y) = 0.28816 0.17905
# Poissons Ratio (z) = 0.16395 0.19403
#
# Static dielectric constant tensor:
#      x y z
#    x 4.040450 0.000000 0.000000 
#    y 0.000000 3.897810 0.000000 
#    z 0.000000 0.000000 3.776580 
# 
# 
# High freq. dielectric constant tensor:
#      x y z
#    x 1.863340 0.000000 0.000000 
#    y 0.000000 1.859030 0.000000 
#    z 0.000000 0.000000 1.844860 
# 
# From -- ./inp_files/11097.got.cif
#   From: 2010.03.12/outbox.cif.g09.slc.cpg/sg61_6_cif.got.tgz:11097.got - 2010.04.10 19:05:03.
