data_PCOD8248231
_publ_section_title
;
Structure prediction by ZEFSAII (Michael W. Deem and Ramdas Pophale) SiO2 
 PCOD8248231
Probable space group: P B C N
;
_chemical_formula_sum "Si O2"
_cell_formula_units_Z 28
_cell_length_a 15.686189
_cell_length_b 8.874510
_cell_length_c 7.450862
_cell_angle_alpha 90.000000
_cell_angle_beta 90.000000
_cell_angle_gamma 90.000000
_cell_volume 1037.213943
_symmetry_space_group_name_H-M "P B C N"
_symmetry_group_IT_number 60
_symmetry_cell_setting 'orthorhombic'
loop_
_space_group_symop_operation_xyz
x,y,z
1/2-x,1/2-y,1/2+z
1/2+x,1/2-y,-z
-x,y,1/2-z
-x,-y,-z
1/2+x,1/2+y,1/2-z
1/2-x,1/2+y,z
x,-y,1/2+z
loop_
_atom_site_type_symbol
_atom_site_label
_atom_site_fract_x
_atom_site_fract_y
_atom_site_fract_z
Si Si1 0.532317 0.838526 0.554465
Si Si2 0.723901 0.202116 0.984623
Si Si3 0.185452 0.975588 0.723582
Si Si4 0.000000 0.896105 0.750000
O O1 0.500000 0.793815 0.750000
O O2 0.633429 0.861795 0.543708
O O3 0.496962 0.709201 0.424340
O O4 0.500000 0.000000 0.500000
O O5 0.711517 0.383213 0.961715
O O6 0.760464 0.130807 0.792620
O O7 0.794434 0.146627 0.123827
O O8 0.083652 0.003360 0.740099
#
# Coordination Sequence:
#
# PCOD8248231 Si02
#       4
#     8   8   8   4
#     4  11  22  39  71 102 137 183 243 294 348 420
#     4  11  25  42  71 102 138 183 233 298 355 423
#     4  11  25  46  70 101 142 184 237 291 363 423
#     4  10  26  44  66 102 144 190 234 288 362 434
#
# _framework density 26.995391999999999
#
# number of rings (size 3 to 8) (size 9 to 14) (size 15 to 20)
#    0.000    1.143    1.429    3.429   12.000    1.143 
#    0.000    0.000    0.000    0.000    0.000    0.000 
#    0.000    0.000    0.000    0.000    0.000    0.000 
#
# Total GULP energy -347157.874531 kJ/mol
# GULP energy per Si atom -12398.495519 kJ/mol
# Density = 2.693395 g / cm^3
# Si number density = 26.995392 Si / 1000 Ang^3
#
#
#
# Elastic Constant Matrix: (Units=GPa)
#
#
# Indices 1 2 3 4 5 6 
#
# 1 197.1753 59.7677 28.7026 0.0000 0.0000 0.0000
# 2 59.7677 92.0122 -18.8683 0.0000 0.0000 0.0000
# 3 28.7026 -18.8683 96.9101 0.0000 0.0000 0.0000
# 4 0.0000 0.0000 0.0000 12.8499 0.0000 0.0000
# 5 0.0000 0.0000 0.0000 0.0000 43.8578 0.0000
# 6 0.0000 0.0000 0.0000 0.0000 0.0000 37.2484
#
#
#
# Elastic Compliance Matrix: (Units=1/GPa)
#
#
# Indices 1 2 3 4 5 6 
#
# 1 0.007126 -0.005272 -0.003137 0.000000 0.000000 0.000000
# 2 -0.005272 0.015221 0.004525 0.000000 0.000000 0.000000
# 3 -0.003137 0.004525 0.012129 0.000000 0.000000 0.000000
# 4 0.000000 0.000000 0.000000 0.077822 0.000000 0.000000
# 5 0.000000 0.000000 0.000000 0.000000 0.022801 0.000000
# 6 0.000000 0.000000 0.000000 0.000000 0.000000 0.026847
#
#
# Mechanical properties :
#
#
# Convention : Reuss Voigt Hill
#
# Bulk Modulus (GPa) = 37.44321 58.36684 47.90502
# Shear Modulus (GPa) = 27.99275 39.89090 33.94183
#
# Velocity S-wave (km/s) = 3.22366 3.84825 3.54972
# Velocity P-wave (km/s) = 5.26842 6.43532 5.88088
#
# Compressibility (1/GPa) = 0.02670712
#
# Stress axis : x y z
#
# Youngs Moduli (GPa) = 140.32142 65.69941 82.44673
#
# Poissons Ratio (x) = 0.34640 0.25866
# Poissons Ratio (y) = 0.73984 -0.37308
# Poissons Ratio (z) = 0.44022 -0.29729
#
# Static dielectric constant tensor:
#      x y z
#    x 4.941520 0.000000 0.000000 
#    y 0.000000 4.886410 0.000000 
#    z 0.000000 0.000000 5.723310 
# 
# 
# High freq. dielectric constant tensor:
#      x y z
#    x 2.085710 0.000000 0.000000 
#    y 0.000000 2.100300 0.000000 
#    z 0.000000 0.000000 2.120710 
# 
# From -- ./inp_files/5413.got.cif
#   From: 2010.03.12/outbox.cif.g09.slc.cpg/sg60_3_cif.got.tgz:5413.got - 2010.04.10 18:46:24.
