data_PCOD8248282
_publ_section_title
;
Structure prediction by ZEFSAII (Michael W. Deem and Ramdas Pophale) SiO2 
 PCOD8248282
Probable space group: P B C N
;
_chemical_formula_sum "Si O2"
_cell_formula_units_Z 64
_cell_length_a 20.757201
_cell_length_b 9.251468
_cell_length_c 16.691195
_cell_angle_alpha 90.000000
_cell_angle_beta 90.000000
_cell_angle_gamma 90.000000
_cell_volume 3205.286635
_symmetry_space_group_name_H-M "P B C N"
_symmetry_group_IT_number 60
_symmetry_cell_setting 'orthorhombic'
loop_
_space_group_symop_operation_xyz
x,y,z
1/2-x,1/2-y,1/2+z
1/2+x,1/2-y,-z
-x,y,1/2-z
-x,-y,-z
1/2+x,1/2+y,1/2-z
1/2-x,1/2+y,z
x,-y,1/2+z
loop_
_atom_site_type_symbol
_atom_site_label
_atom_site_fract_x
_atom_site_fract_y
_atom_site_fract_z
Si Si1 0.009708 0.478982 0.164968
Si Si2 0.881984 0.344517 0.117939
Si Si3 0.932822 0.815600 0.763197
Si Si4 0.188546 0.024962 0.224980
Si Si5 0.264097 0.578418 0.889437
Si Si6 0.116313 0.422985 0.551064
Si Si7 0.792475 0.657097 0.010414
Si Si8 0.723477 0.765094 0.859027
O O1 0.048881 0.329642 0.186598
O O2 0.048297 0.562139 0.095949
O O3 0.000000 0.563723 0.250000
O O4 0.937813 0.463458 0.130833
O O5 0.899243 0.213753 0.176760
O O6 0.809989 0.397867 0.139862
O O7 0.886446 0.307038 0.022439
O O8 0.881691 0.919902 0.805162
O O9 0.000000 0.901259 0.750000
O O10 0.239032 0.154429 0.211957
O O11 0.192405 0.980497 0.317508
O O12 0.201756 0.890966 0.168443
O O13 0.299768 0.724108 0.919169
O O14 0.261122 0.459610 0.960624
O O15 0.140998 0.574757 0.511770
O O16 0.164223 0.367348 0.618887
O O17 0.769237 0.746765 0.934630
#
# Coordination Sequence:
#
# PCOD8248282 Si02
#       8
#     8   8   8   8   8   8   8   8
#     4   9  20  36  61  88 115 165 206 251 296 371
#     4   9  18  35  60  86 114 155 201 249 299 359
#     4   9  20  39  63  83 119 166 207 242 304 374
#     4  12  24  38  62  91 126 159 208 250 316 367
#     4  11  22  36  61  90 123 157 200 256 307 364
#     4  11  21  35  61  86 126 151 212 249 313 356
#     4  11  20  39  56  87 123 159 194 252 306 372
#     4  12  23  36  59  92 123 162 198 257 313 367
#
# _framework density 19.967013999999999
#
# number of rings (size 3 to 8) (size 9 to 14) (size 15 to 20)
#    0.000    1.750    3.750    3.375    3.500    0.000 
#    0.000    0.625    2.750    1.500    0.000    0.000 
#    0.000    0.000    0.000    0.000    0.000    0.000 
#
# Total GULP energy -792980.503465 kJ/mol
# GULP energy per Si atom -12390.320367 kJ/mol
# Density = 1.992157 g / cm^3
# Si number density = 19.967014 Si / 1000 Ang^3
#
#
#
# Elastic Constant Matrix: (Units=GPa)
#
#
# Indices 1 2 3 4 5 6 
#
# 1 80.5399 22.6518 16.1700 0.0000 0.0000 0.0000
# 2 22.6518 73.6571 15.9728 0.0000 0.0000 0.0000
# 3 16.1700 15.9728 60.9766 0.0000 0.0000 0.0000
# 4 0.0000 0.0000 0.0000 31.5365 0.0000 0.0000
# 5 0.0000 0.0000 0.0000 0.0000 28.8043 0.0000
# 6 0.0000 0.0000 0.0000 0.0000 0.0000 14.6499
#
#
#
# Elastic Compliance Matrix: (Units=1/GPa)
#
#
# Indices 1 2 3 4 5 6 
#
# 1 0.014011 -0.003714 -0.002743 0.000000 0.000000 0.000000
# 2 -0.003714 0.015379 -0.003043 0.000000 0.000000 0.000000
# 3 -0.002743 -0.003043 0.017924 0.000000 0.000000 0.000000
# 4 0.000000 0.000000 0.000000 0.031709 0.000000 0.000000
# 5 0.000000 0.000000 0.000000 0.000000 0.034717 0.000000
# 6 0.000000 0.000000 0.000000 0.000000 0.000000 0.068260
#
#
# Mechanical properties :
#
#
# Convention : Reuss Voigt Hill
#
# Bulk Modulus (GPa) = 35.31863 36.08476 35.70169
# Shear Modulus (GPa) = 23.75984 25.69009 24.72497
#
# Velocity S-wave (km/s) = 3.45331 3.59085 3.52275
# Velocity P-wave (km/s) = 5.79891 5.94169 5.87074
#
# Compressibility (1/GPa) = 0.02831367
#
# Stress axis : x y z
#
# Youngs Moduli (GPa) = 71.37017 65.02524 55.79019
#
# Poissons Ratio (x) = 0.24152 0.15301
# Poissons Ratio (y) = 0.26508 0.16980
# Poissons Ratio (z) = 0.19575 0.19790
#
# Static dielectric constant tensor:
#      x y z
#    x 3.705610 0.000000 0.000000 
#    y 0.000000 3.482410 0.000000 
#    z 0.000000 0.000000 3.834010 
# 
# 
# High freq. dielectric constant tensor:
#      x y z
#    x 1.772640 0.000000 0.000000 
#    y 0.000000 1.749370 0.000000 
#    z 0.000000 0.000000 1.791170 
# 
# From -- ./inp_files/21048.got.cif
#   From: 2010.03.12/outbox.cif.g09.slc.cpg/sg60_11_cif.got.tgz:21048.got - 2010.04.10 18:46:24.
