data_PCOD8248000
_publ_section_title
;
Structure prediction by ZEFSAII (Michael W. Deem and Ramdas Pophale) SiO2 
 PCOD8248000
Probable space group: P B C N
;
_chemical_formula_sum "Si O2"
_cell_formula_units_Z 56
_cell_length_a 9.233023
_cell_length_b 14.296681
_cell_length_c 21.415724
_cell_angle_alpha 90.000000
_cell_angle_beta 90.000000
_cell_angle_gamma 90.000000
_cell_volume 2826.909501
_symmetry_space_group_name_H-M "P B C N"
_symmetry_group_IT_number 60
_symmetry_cell_setting 'orthorhombic'
loop_
_space_group_symop_operation_xyz
x,y,z
1/2-x,1/2-y,1/2+z
1/2+x,1/2-y,-z
-x,y,1/2-z
-x,-y,-z
1/2+x,1/2+y,1/2-z
1/2-x,1/2+y,z
x,-y,1/2+z
loop_
_atom_site_type_symbol
_atom_site_label
_atom_site_fract_x
_atom_site_fract_y
_atom_site_fract_z
Si Si1 0.325816 0.152550 0.249912
Si Si2 0.728912 0.003741 0.348412
Si Si3 0.763146 0.375904 0.124206
Si Si4 0.766994 0.159776 0.109731
Si Si5 0.980918 0.993690 0.574059
Si Si6 0.667769 0.163083 0.761701
Si Si7 0.534268 0.025679 0.069484
O O1 0.500000 0.149702 0.250000
O O2 0.267860 0.136547 0.319019
O O3 0.264588 0.247703 0.220639
O O4 0.252250 0.070745 0.210498
O O5 0.679656 0.904042 0.321157
O O6 0.609672 0.050483 0.392898
O O7 0.870504 0.993044 0.389719
O O8 0.779144 0.270271 0.098373
O O9 0.617847 0.420775 0.097067
O O10 0.762254 0.380876 0.199278
O O11 0.898547 0.434596 0.101202
O O12 0.915550 0.108046 0.090910
O O13 0.638050 0.116092 0.068422
O O14 0.000000 0.000000 0.500000
O O15 0.500000 0.190590 0.750000
O O16 0.500000 0.000000 0.000000
#
# Coordination Sequence:
#
# PCOD8248000 Si02
#       7
#     8   8   8   8   8   8   8
#     4  11  24  41  66 100 129 161 211 261 321 386
#     4  12  23  38  68  93 127 166 211 257 322 371
#     4  10  23  43  65  89 131 164 204 268 319 365
#     4  10  23  43  65  89 131 164 204 268 319 365
#     4  11  26  44  62  95 129 167 221 259 302 378
#     4  11  24  41  66 100 129 161 211 261 321 386
#     4  11  22  41  64  90 122 173 214 254 308 373
#
# _framework density 19.809619999999999
#
# number of rings (size 3 to 8) (size 9 to 14) (size 15 to 20)
#    0.000    1.143    2.857    3.857    8.000    2.286 
#    0.000    2.857    0.000    0.000    0.000    0.000 
#    0.000    0.000    0.000    0.000    0.000    0.000 
#
# Total GULP energy -694498.524114 kJ/mol
# GULP energy per Si atom -12401.759359 kJ/mol
# Density = 1.976453 g / cm^3
# Si number density = 19.809620 Si / 1000 Ang^3
#
#
#
# Elastic Constant Matrix: (Units=GPa)
#
#
# Indices 1 2 3 4 5 6 
#
# 1 102.1953 31.6496 38.4736 0.0000 0.0000 0.0000
# 2 31.6496 95.4091 15.8763 0.0000 0.0000 0.0000
# 3 38.4736 15.8763 65.7373 0.0000 0.0000 0.0000
# 4 0.0000 0.0000 0.0000 14.6220 0.0000 0.0000
# 5 0.0000 0.0000 0.0000 0.0000 17.4654 0.0000
# 6 0.0000 0.0000 0.0000 0.0000 0.0000 -217.0671
#
#
#
# Elastic Compliance Matrix: (Units=1/GPa)
#
#
# Indices 1 2 3 4 5 6 
#
# 1 0.013474 -0.003290 -0.007091 0.000000 0.000000 0.000000
# 2 -0.003290 0.011723 -0.000906 0.000000 0.000000 0.000000
# 3 -0.007091 -0.000906 0.019581 0.000000 0.000000 0.000000
# 4 0.000000 0.000000 0.000000 0.068390 0.000000 0.000000
# 5 0.000000 0.000000 0.000000 0.000000 0.057256 0.000000
# 6 0.000000 0.000000 0.000000 0.000000 0.000000 -0.004607
#
#
# Mechanical properties :
#
#
# Convention : Reuss Voigt Hill
#
# Bulk Modulus (GPa) = 45.03613 48.37121 46.70367
# Shear Modulus (GPa) = 25.53732 -25.17314 0.18209
#
# Velocity S-wave (km/s) = 3.59435 -3.56863 0.30351
# Velocity P-wave (km/s) = 6.32532 2.73695 4.87342
#
# Compressibility (1/GPa) = 0.02220439
#
# Stress axis : x y z
#
# Youngs Moduli (GPa) = 74.21947 85.30113 51.06983
#
# Poissons Ratio (x) = 0.28060 0.36214
# Poissons Ratio (y) = 0.24415 0.04627
# Poissons Ratio (z) = 0.52630 0.07729
#
# Static dielectric constant tensor:
#      x y z
#    x 3.766630 0.000000 0.000000 
#    y 0.000000 7.025910 0.000000 
#    z 0.000000 0.000000 3.659000 
# 
# 
# High freq. dielectric constant tensor:
#      x y z
#    x 1.781670 0.000000 0.000000 
#    y 0.000000 1.777250 0.000000 
#    z 0.000000 0.000000 1.777560 
# 
# From -- ./inp_files/22214.got.cif
#   From: 2010.03.12/outbox.cif.g09.slc.cpg/sg60_12_cif.got.tgz:22214.got - 2010.04.10 18:46:24.
