data_PCOD8248707
_publ_section_title
;
Structure prediction by ZEFSAII (Michael W. Deem and Ramdas Pophale) SiO2 
 PCOD8248707
Probable space group: P B C A
;
_chemical_formula_sum "Si O2"
_cell_formula_units_Z 48
_cell_length_a 21.652332
_cell_length_b 13.621676
_cell_length_c 8.592633
_cell_angle_alpha 90.000000
_cell_angle_beta 90.000000
_cell_angle_gamma 90.000000
_cell_volume 2534.320209
_symmetry_space_group_name_H-M "P B C A"
_symmetry_group_IT_number 61
_symmetry_cell_setting 'orthorhombic'
loop_
_space_group_symop_operation_xyz
x,y,z
1/2-x,-y,1/2+z
1/2+x,1/2-y,-z
-x,1/2+y,1/2-z
-x,-y,-z
1/2+x,y,1/2-z
1/2-x,1/2+y,z
x,1/2-y,1/2+z
loop_
_atom_site_type_symbol
_atom_site_label
_atom_site_fract_x
_atom_site_fract_y
_atom_site_fract_z
Si Si1 0.000459 0.863668 0.967698
Si Si2 0.599029 0.012769 0.572081
Si Si3 0.849807 0.180997 0.472611
Si Si4 0.936409 0.219408 0.742128
Si Si5 0.701852 0.990169 0.794652
Si Si6 0.792512 0.390745 0.487293
O O1 0.029961 0.852676 0.139599
O O2 0.927334 0.889310 0.985818
O O3 0.009622 0.766956 0.864386
O O4 0.037623 0.951493 0.882491
O O5 0.638314 0.038801 0.727709
O O6 0.641926 0.946542 0.457378
O O7 0.887261 0.163457 0.632177
O O8 0.897610 0.196178 0.330750
O O9 0.810588 0.083199 0.439069
O O10 0.803736 0.274287 0.486094
O O11 0.733368 0.925524 0.656298
O O12 0.745380 0.078567 0.851151
#
# Coordination Sequence:
#
# PCOD8248707 Si02
#       6
#     8   8   8   8   8   8
#     4  10  18  34  60  78 113 139 187 238 290 330
#     4   9  19  36  53  83 113 144 177 240 290 330
#     4  11  18  36  55  86 109 141 203 230 270 348
#     4  10  17  31  60  84 100 147 189 228 278 343
#     4  10  21  36  57  83 114 151 190 234 284 337
#     4  10  21  35  58  82 111 154 188 237 283 330
#
# _framework density 18.939990000000002
#
# number of rings (size 3 to 8) (size 9 to 14) (size 15 to 20)
#    1.000    1.000    6.667    0.000    2.333    0.000 
#    0.000    2.500    7.333    0.000    0.000    0.000 
#    0.000    0.000    0.000    0.000    0.000    0.000 
#
# Total GULP energy -594686.073625 kJ/mol
# GULP energy per Si atom -12389.293201 kJ/mol
# Density = 1.889688 g / cm^3
# Si number density = 18.939990 Si / 1000 Ang^3
#
#
#
# Elastic Constant Matrix: (Units=GPa)
#
#
# Indices 1 2 3 4 5 6 
#
# 1 58.1506 13.6379 10.1418 0.0000 0.0000 0.0000
# 2 13.6379 37.2301 -0.2434 0.0000 0.0000 0.0000
# 3 10.1418 -0.2434 66.0560 0.0000 0.0000 0.0000
# 4 0.0000 0.0000 0.0000 23.4601 0.0000 0.0000
# 5 0.0000 0.0000 0.0000 0.0000 20.5754 0.0000
# 6 0.0000 0.0000 0.0000 0.0000 0.0000 32.2185
#
#
#
# Elastic Compliance Matrix: (Units=1/GPa)
#
#
# Indices 1 2 3 4 5 6 
#
# 1 0.019391 -0.007123 -0.003003 0.000000 0.000000 0.000000
# 2 -0.007123 0.029477 0.001202 0.000000 0.000000 0.000000
# 3 -0.003003 0.001202 0.015604 0.000000 0.000000 0.000000
# 4 0.000000 0.000000 0.000000 0.042626 0.000000 0.000000
# 5 0.000000 0.000000 0.000000 0.000000 0.048602 0.000000
# 6 0.000000 0.000000 0.000000 0.000000 0.000000 0.031038
#
#
# Mechanical properties :
#
#
# Convention : Reuss Voigt Hill
#
# Bulk Modulus (GPa) = 21.44807 23.16768 22.30787
# Shear Modulus (GPa) = 22.71414 24.44415 23.57915
#
# Velocity S-wave (km/s) = 3.46680 3.59640 3.53220
# Velocity P-wave (km/s) = 5.23199 5.43178 5.33282
#
# Compressibility (1/GPa) = 0.04662425
#
# Stress axis : x y z
#
# Youngs Moduli (GPa) = 51.57023 33.92468 64.08522
#
# Poissons Ratio (x) = 0.24164 0.19247
# Poissons Ratio (y) = 0.36733 -0.07704
# Poissons Ratio (z) = 0.15489 -0.04078
#
# Static dielectric constant tensor:
#      x y z
#    x 3.322290 0.000000 0.000000 
#    y 0.000000 3.157110 0.000000 
#    z 0.000000 0.000000 3.460680 
# 
# 
# High freq. dielectric constant tensor:
#      x y z
#    x 1.713710 0.000000 0.000000 
#    y 0.000000 1.708160 0.000000 
#    z 0.000000 0.000000 1.733950 
# 
# From -- ./inp_files/4261.got.cif
#   From: 2010.03.12/outbox.cif.g09.slc.cpg/sg61_3_cif.got.tgz:4261.got - 2010.04.10 19:05:03.
