data_PCOD8248276
_publ_section_title
;
Structure prediction by ZEFSAII (Michael W. Deem and Ramdas Pophale) SiO2 
 PCOD8248276
Probable space group: P B C N
;
_chemical_formula_sum "Si O2"
_cell_formula_units_Z 40
_cell_length_a 11.812632
_cell_length_b 20.216433
_cell_length_c 8.053606
_cell_angle_alpha 90.000000
_cell_angle_beta 90.000000
_cell_angle_gamma 90.000000
_cell_volume 1923.275877
_symmetry_space_group_name_H-M "P B C N"
_symmetry_group_IT_number 60
_symmetry_cell_setting 'orthorhombic'
loop_
_space_group_symop_operation_xyz
x,y,z
1/2-x,1/2-y,1/2+z
1/2+x,1/2-y,-z
-x,y,1/2-z
-x,-y,-z
1/2+x,1/2+y,1/2-z
1/2-x,1/2+y,z
x,-y,1/2+z
loop_
_atom_site_type_symbol
_atom_site_label
_atom_site_fract_x
_atom_site_fract_y
_atom_site_fract_z
Si Si1 0.786023 0.293074 0.562350
Si Si2 0.958533 0.929947 0.934400
Si Si3 0.060881 0.806793 0.085219
Si Si4 0.484433 0.824110 0.435807
Si Si5 0.252213 0.656365 0.073705
O O1 0.697917 0.310366 0.412455
O O2 0.898869 0.336542 0.533861
O O3 0.738615 0.314528 0.740761
O O4 0.806378 0.212807 0.549226
O O5 0.824114 0.912160 0.942125
O O6 0.000000 0.919046 0.750000
O O7 0.018019 0.879748 0.057433
O O8 0.000000 0.000000 0.000000
O O9 0.000000 0.776733 0.250000
O O10 0.036847 0.755191 0.935599
O O11 0.500000 0.850484 0.250000
O O12 0.377692 0.860059 0.524054
#
# Coordination Sequence:
#
# PCOD8248276 Si02
#       5
#     8   8   8   8   8
#     4  11  20  37  61  94 139 171 210 281 358 412
#     4  12  25  46  65  94 131 183 234 278 324 404
#     4  11  22  36  63  94 133 172 222 277 343 403
#     4  11  22  35  59  99 135 170 211 273 357 414
#     4  11  23  37  64  97 136 177 218 282 347 411
#
# _framework density 20.797847000000001
#
# number of rings (size 3 to 8) (size 9 to 14) (size 15 to 20)
#    0.000    0.800    4.000    6.600    2.800    0.000 
#    0.000    0.000    0.000    1.200    0.000    0.000 
#    0.000    0.000    0.000    0.000    0.000    0.000 
#
# Total GULP energy -495619.554919 kJ/mol
# GULP energy per Si atom -12390.488873 kJ/mol
# Density = 2.075051 g / cm^3
# Si number density = 20.797847 Si / 1000 Ang^3
#
#
#
# Elastic Constant Matrix: (Units=GPa)
#
#
# Indices 1 2 3 4 5 6 
#
# 1 178.9515 43.9199 45.8038 0.0000 0.0000 0.0000
# 2 43.9199 81.9423 26.3487 0.0000 0.0000 0.0000
# 3 45.8038 26.3487 93.2296 0.0000 0.0000 0.0000
# 4 0.0000 0.0000 0.0000 10.7970 0.0000 0.0000
# 5 0.0000 0.0000 0.0000 0.0000 39.8306 0.0000
# 6 0.0000 0.0000 0.0000 0.0000 0.0000 31.0394
#
#
#
# Elastic Compliance Matrix: (Units=1/GPa)
#
#
# Indices 1 2 3 4 5 6 
#
# 1 0.006965 -0.002896 -0.002604 0.000000 0.000000 0.000000
# 2 -0.002896 0.014628 -0.002711 0.000000 0.000000 0.000000
# 3 -0.002604 -0.002711 0.012772 0.000000 0.000000 0.000000
# 4 0.000000 0.000000 0.000000 0.092618 0.000000 0.000000
# 5 0.000000 0.000000 0.000000 0.000000 0.025106 0.000000
# 6 0.000000 0.000000 0.000000 0.000000 0.000000 0.032217
#
#
# Mechanical properties :
#
#
# Convention : Reuss Voigt Hill
#
# Bulk Modulus (GPa) = 55.73259 65.14091 60.43675
# Shear Modulus (GPa) = 24.18859 32.20348 28.19604
#
# Velocity S-wave (km/s) = 3.41403 3.93925 3.68600
# Velocity P-wave (km/s) = 6.51124 7.21659 6.87297
#
# Compressibility (1/GPa) = 0.01794282
#
# Stress axis : x y z
#
# Youngs Moduli (GPa) = 143.56891 68.36300 78.29873
#
# Poissons Ratio (x) = 0.19799 0.20386
# Poissons Ratio (y) = 0.41579 0.21229
# Poissons Ratio (z) = 0.37379 0.18535
#
# Static dielectric constant tensor:
#      x y z
#    x 4.362970 0.000000 0.000000 
#    y 0.000000 2.956880 0.000000 
#    z 0.000000 0.000000 3.939790 
# 
# 
# High freq. dielectric constant tensor:
#      x y z
#    x 1.844420 0.000000 0.000000 
#    y 0.000000 1.737930 0.000000 
#    z 0.000000 0.000000 1.827720 
# 
# From -- ./inp_files/4916.got.cif
#   From: 2010.03.12/outbox.cif.g09.slc.cpg/sg60_3_cif.got.tgz:4916.got - 2010.04.10 18:46:24.
