data_PCOD8248810
_publ_section_title
;
Structure prediction by ZEFSAII (Michael W. Deem and Ramdas Pophale) SiO2 
 PCOD8248810
Probable space group: P B C A
;
_chemical_formula_sum "Si O2"
_cell_formula_units_Z 64
_cell_length_a 5.200182
_cell_length_b 15.310142
_cell_length_c 35.125663
_cell_angle_alpha 90.000000
_cell_angle_beta 90.000000
_cell_angle_gamma 90.000000
_cell_volume 2796.548095
_symmetry_space_group_name_H-M "P B C A"
_symmetry_group_IT_number 61
_symmetry_cell_setting 'orthorhombic'
loop_
_space_group_symop_operation_xyz
x,y,z
1/2-x,-y,1/2+z
1/2+x,1/2-y,-z
-x,1/2+y,1/2-z
-x,-y,-z
1/2+x,y,1/2-z
1/2-x,1/2+y,z
x,1/2-y,1/2+z
loop_
_atom_site_type_symbol
_atom_site_label
_atom_site_fract_x
_atom_site_fract_y
_atom_site_fract_z
Si Si1 0.586145 0.013329 0.764558
Si Si2 0.852733 0.227140 0.021104
Si Si3 0.753009 0.471130 0.522283
Si Si4 0.853354 0.026448 0.348990
Si Si5 0.644898 0.973564 0.606239
Si Si6 0.363960 0.234014 0.150117
Si Si7 0.131512 0.732741 0.394590
Si Si8 0.491215 0.206543 0.732637
O O1 0.314205 0.962599 0.758508
O O2 0.508178 0.105339 0.744791
O O3 0.664009 0.021551 0.808516
O O4 0.730650 0.132256 0.025571
O O5 0.891610 0.270893 0.062631
O O6 0.633168 0.280827 0.998543
O O7 0.500000 0.500000 0.500000
O O8 0.786537 0.511977 0.564564
O O9 0.000000 0.500000 0.500000
O O10 0.621700 0.990853 0.375708
O O11 0.847044 0.130556 0.342576
O O12 0.121705 0.997540 0.367130
O O13 0.607831 0.870720 0.603372
O O14 0.594689 0.260538 0.122103
O O15 0.414303 0.285003 0.188937
O O16 0.100161 0.269628 0.131465
O O17 0.763577 0.251988 0.742310
#
# Coordination Sequence:
#
# PCOD8248810 Si02
#       8
#     8   8   8   8   8   8   8   8
#     4  10  21  36  55  75 110 149 191 232 305 362
#     4  11  22  39  66  92 131 169 211 261 317 386
#     4  11  22  39  66  92 131 169 211 261 317 386
#     4  10  19  34  58  84 111 143 201 254 293 355
#     4   9  19  35  58  88 114 154 195 245 310 356
#     4  10  19  34  58  84 111 143 201 254 292 354
#     4   9  19  35  58  88 114 154 195 245 310 355
#     4  10  21  36  55  75 110 149 191 230 305 361
#
# _framework density 22.885356999999999
#
# number of rings (size 3 to 8) (size 9 to 14) (size 15 to 20)
#    0.000    2.000    0.000    3.750    0.000    5.000 
#    0.000    0.000   55.000    0.000    0.000    0.000 
#    0.000    0.000    0.000    0.000    0.000    0.000 
#
# Total GULP energy -793290.939847 kJ/mol
# GULP energy per Si atom -12395.170935 kJ/mol
# Density = 2.283327 g / cm^3
# Si number density = 22.885357 Si / 1000 Ang^3
#
#
#
# Elastic Constant Matrix: (Units=GPa)
#
#
# Indices 1 2 3 4 5 6 
#
# 1 210.6059 7.6901 81.4050 0.0000 0.0000 0.0000
# 2 7.6901 22.9437 16.3348 0.0000 0.0000 0.0000
# 3 81.4050 16.3348 200.6547 0.0000 0.0000 0.0000
# 4 0.0000 0.0000 0.0000 29.4415 0.0000 0.0000
# 5 0.0000 0.0000 0.0000 0.0000 52.7218 0.0000
# 6 0.0000 0.0000 0.0000 0.0000 0.0000 18.1322
#
#
#
# Elastic Compliance Matrix: (Units=1/GPa)
#
#
# Indices 1 2 3 4 5 6 
#
# 1 0.005633 -0.000277 -0.002263 0.000000 0.000000 0.000000
# 2 -0.000277 0.046280 -0.003655 0.000000 0.000000 0.000000
# 3 -0.002263 -0.003655 0.006199 0.000000 0.000000 0.000000
# 4 0.000000 0.000000 0.000000 0.033966 0.000000 0.000000
# 5 0.000000 0.000000 0.000000 0.000000 0.018967 0.000000
# 6 0.000000 0.000000 0.000000 0.000000 0.000000 0.055150
#
#
# Mechanical properties :
#
#
# Convention : Reuss Voigt Hill
#
# Bulk Modulus (GPa) = 21.87112 71.67379 46.77246
# Shear Modulus (GPa) = 25.79629 41.97741 33.88685
#
# Velocity S-wave (km/s) = 3.36102 4.28746 3.85219
# Velocity P-wave (km/s) = 4.96382 7.47639 6.34570
#
# Compressibility (1/GPa) = 0.04572239
#
# Stress axis : x y z
#
# Youngs Moduli (GPa) = 177.52784 21.60758 161.31080
#
# Poissons Ratio (x) = 0.00599 0.36500
# Poissons Ratio (y) = 0.04919 0.58961
# Poissons Ratio (z) = 0.40169 0.07898
#
# Static dielectric constant tensor:
#      x y z
#    x 5.355840 0.000000 0.000000 
#    y 0.000000 3.703200 0.000000 
#    z 0.000000 0.000000 4.280050 
# 
# 
# High freq. dielectric constant tensor:
#      x y z
#    x 1.933600 0.000000 0.000000 
#    y 0.000000 1.861600 0.000000 
#    z 0.000000 0.000000 1.914790 
# 
# From -- ./inp_files/11641.got.cif
#   From: 2010.03.12/outbox.cif.g09.slc.cpg/sg61_6_cif.got.tgz:11641.got - 2010.04.10 19:05:03.
