data_PCOD8248225
_publ_section_title
;
Structure prediction by ZEFSAII (Michael W. Deem and Ramdas Pophale) SiO2 
 PCOD8248225
Probable space group: P B C N
;
_chemical_formula_sum "Si O2"
_cell_formula_units_Z 40
_cell_length_a 17.110485
_cell_length_b 11.634958
_cell_length_c 8.566343
_cell_angle_alpha 90.000000
_cell_angle_beta 90.000000
_cell_angle_gamma 90.000000
_cell_volume 1705.385631
_symmetry_space_group_name_H-M "P B C N"
_symmetry_group_IT_number 60
_symmetry_cell_setting 'orthorhombic'
loop_
_space_group_symop_operation_xyz
x,y,z
1/2-x,1/2-y,1/2+z
1/2+x,1/2-y,-z
-x,y,1/2-z
-x,-y,-z
1/2+x,1/2+y,1/2-z
1/2-x,1/2+y,z
x,-y,1/2+z
loop_
_atom_site_type_symbol
_atom_site_label
_atom_site_fract_x
_atom_site_fract_y
_atom_site_fract_z
Si Si1 0.332701 0.127376 0.411662
Si Si2 0.030967 0.734766 0.920925
Si Si3 0.658320 0.593663 0.154283
Si Si4 0.382314 0.365499 0.495691
Si Si5 0.429129 0.027221 0.140970
O O1 0.244258 0.083441 0.419046
O O2 0.330112 0.265122 0.419705
O O3 0.366149 0.092586 0.244510
O O4 0.384509 0.078536 0.556031
O O5 0.115287 0.795554 0.919501
O O6 0.000000 0.706317 0.750000
O O7 0.971436 0.822420 0.001556
O O8 0.035492 0.613787 0.012030
O O9 0.656899 0.603853 0.339929
O O10 0.614366 0.476029 0.114112
O O11 0.500000 0.982802 0.250000
#
# Coordination Sequence:
#
# PCOD8248225 Si02
#       5
#     8   8   8   8   8
#     4  12  29  45  76 111 150 198 249 310 379 433
#     4  10  25  49  78 106 146 199 251 308 365 449
#     4  11  27  45  77 104 154 186 253 305 373 439
#     4  11  26  49  72 110 144 198 246 301 372 443
#     4  12  27  47  74 107 151 196 252 308 367 447
#
# _framework density 23.455106000000001
#
# number of rings (size 3 to 8) (size 9 to 14) (size 15 to 20)
#    0.000    0.800    2.000    2.400   14.000    0.000 
#    0.000    0.000    0.000    0.000    0.000    0.000 
#    0.000    0.000    0.000    0.000    0.000    0.000 
#
# Total GULP energy -496179.016772 kJ/mol
# GULP energy per Si atom -12404.475419 kJ/mol
# Density = 2.340172 g / cm^3
# Si number density = 23.455106 Si / 1000 Ang^3
#
#
#
# Elastic Constant Matrix: (Units=GPa)
#
#
# Indices 1 2 3 4 5 6 
#
# 1 141.0121 31.5510 32.8893 0.0000 0.0000 0.0000
# 2 31.5510 128.7516 40.9666 0.0000 0.0000 0.0000
# 3 32.8893 40.9666 75.8588 0.0000 0.0000 0.0000
# 4 0.0000 0.0000 0.0000 41.0638 0.0000 0.0000
# 5 0.0000 0.0000 0.0000 0.0000 30.2259 0.0000
# 6 0.0000 0.0000 0.0000 0.0000 0.0000 25.5150
#
#
#
# Elastic Compliance Matrix: (Units=1/GPa)
#
#
# Indices 1 2 3 4 5 6 
#
# 1 0.008002 -0.001035 -0.002910 0.000000 0.000000 0.000000
# 2 -0.001035 0.009512 -0.004688 0.000000 0.000000 0.000000
# 3 -0.002910 -0.004688 0.016976 0.000000 0.000000 0.000000
# 4 0.000000 0.000000 0.000000 0.024352 0.000000 0.000000
# 5 0.000000 0.000000 0.000000 0.000000 0.033084 0.000000
# 6 0.000000 0.000000 0.000000 0.000000 0.000000 0.039193
#
#
# Mechanical properties :
#
#
# Convention : Reuss Voigt Hill
#
# Bulk Modulus (GPa) = 58.06162 61.82624 59.94393
# Shear Modulus (GPa) = 32.44062 35.37531 33.90796
#
# Velocity S-wave (km/s) = 3.72303 3.88779 3.80630
# Velocity P-wave (km/s) = 6.57947 6.82421 6.70295
#
# Compressibility (1/GPa) = 0.01722308
#
# Stress axis : x y z
#
# Youngs Moduli (GPa) = 124.96929 105.12791 58.90631
#
# Poissons Ratio (x) = 0.10879 0.17145
# Poissons Ratio (y) = 0.12932 0.27617
# Poissons Ratio (z) = 0.36372 0.49287
#
# Static dielectric constant tensor:
#      x y z
#    x 4.289070 0.000000 0.000000 
#    y 0.000000 4.349130 0.000000 
#    z 0.000000 0.000000 4.397410 
# 
# 
# High freq. dielectric constant tensor:
#      x y z
#    x 1.934190 0.000000 0.000000 
#    y 0.000000 1.947890 0.000000 
#    z 0.000000 0.000000 1.935350 
# 
# From -- ./inp_files/5658.got.cif
#   From: 2010.03.12/outbox.cif.g09.slc.cpg/sg60_3_cif.got.tgz:5658.got - 2010.04.10 18:46:24.
