data_PCOD8248579
_publ_section_title
;
Structure prediction by ZEFSAII (Michael W. Deem and Ramdas Pophale) SiO2 
 PCOD8248579
Probable space group: P B C N
;
_chemical_formula_sum "Si O2"
_cell_formula_units_Z 44
_cell_length_a 25.016997
_cell_length_b 8.625400
_cell_length_c 7.565865
_cell_angle_alpha 90.000000
_cell_angle_beta 90.000000
_cell_angle_gamma 90.000000
_cell_volume 1632.574500
_symmetry_space_group_name_H-M "P B C N"
_symmetry_group_IT_number 60
_symmetry_cell_setting 'orthorhombic'
loop_
_space_group_symop_operation_xyz
x,y,z
1/2-x,1/2-y,1/2+z
1/2+x,1/2-y,-z
-x,y,1/2-z
-x,-y,-z
1/2+x,1/2+y,1/2-z
1/2-x,1/2+y,z
x,-y,1/2+z
loop_
_atom_site_type_symbol
_atom_site_label
_atom_site_fract_x
_atom_site_fract_y
_atom_site_fract_z
Si Si1 0.406031 0.891272 0.725423
Si Si2 0.268161 0.748444 0.003410
Si Si3 0.419553 0.677686 0.413668
Si Si4 0.500000 0.123838 0.750000
Si Si5 0.611901 0.338403 0.983225
Si Si6 0.209894 0.525169 0.212787
O O1 0.390840 0.777016 0.564938
O O2 0.352367 0.988515 0.758674
O O3 0.452927 0.011899 0.679247
O O4 0.418723 0.793075 0.902379
O O5 0.325237 0.663153 0.967729
O O6 0.221557 0.620061 0.025875
O O7 0.268684 0.850436 0.187690
O O8 0.256125 0.876783 0.854133
O O9 0.478960 0.756463 0.401937
O O10 0.417752 0.499333 0.471349
O O11 0.393134 0.699789 0.222583
#
# Coordination Sequence:
#
# PCOD8248579 Si02
#       6
#     8   8   8   4   8   8
#     4  11  28  51  76 116 158 208 265 323 396 471
#     4  11  26  45  75 112 158 205 258 317 390 469
#     4  12  27  49  79 111 157 203 260 328 386 471
#     4  12  30  50  84 114 154 210 268 330 398 462
#     4  11  27  49  77 115 159 205 259 323 398 468
#     4  11  26  46  74 114 153 204 254 321 384 468
#
# _framework density 26.951295999999999
#
# number of rings (size 3 to 8) (size 9 to 14) (size 15 to 20)
#    0.000    0.727    1.818    2.727   17.818    1.455 
#    0.000    0.000    0.000    0.000    0.000    0.000 
#    0.000    0.000    0.000    0.000    0.000    0.000 
#
# Total GULP energy -545322.968141 kJ/mol
# GULP energy per Si atom -12393.703821 kJ/mol
# Density = 2.688995 g / cm^3
# Si number density = 26.951296 Si / 1000 Ang^3
#
#
#
# Elastic Constant Matrix: (Units=GPa)
#
#
# Indices 1 2 3 4 5 6 
#
# 1 92.8455 72.2760 0.0322 0.0000 0.0000 0.0000
# 2 72.2760 186.0771 31.9295 0.0000 0.0000 0.0000
# 3 0.0322 31.9295 102.6148 0.0000 0.0000 0.0000
# 4 0.0000 0.0000 0.0000 43.8651 0.0000 0.0000
# 5 0.0000 0.0000 0.0000 0.0000 22.0340 0.0000
# 6 0.0000 0.0000 0.0000 0.0000 0.0000 51.9531
#
#
#
# Elastic Compliance Matrix: (Units=1/GPa)
#
#
# Indices 1 2 3 4 5 6 
#
# 1 0.015824 -0.006492 0.002015 0.000000 0.000000 0.000000
# 2 -0.006492 0.008341 -0.002593 0.000000 0.000000 0.000000
# 3 0.002015 -0.002593 0.010551 0.000000 0.000000 0.000000
# 4 0.000000 0.000000 0.000000 0.022797 0.000000 0.000000
# 5 0.000000 0.000000 0.000000 0.000000 0.045384 0.000000
# 6 0.000000 0.000000 0.000000 0.000000 0.000000 0.019248
#
#
# Mechanical properties :
#
#
# Convention : Reuss Voigt Hill
#
# Bulk Modulus (GPa) = 48.60161 65.55698 57.07930
# Shear Modulus (GPa) = 34.92982 42.05708 38.49345
#
# Velocity S-wave (km/s) = 3.60395 3.95458 3.78333
# Velocity P-wave (km/s) = 5.94897 6.72523 6.34897
#
# Compressibility (1/GPa) = 0.02057545
#
# Stress axis : x y z
#
# Youngs Moduli (GPa) = 63.19686 119.89395 94.77359
#
# Poissons Ratio (x) = 0.77835 -0.19097
# Poissons Ratio (y) = 0.41027 0.24577
# Poissons Ratio (z) = -0.12735 0.31091
#
# Static dielectric constant tensor:
#      x y z
#    x 4.512010 0.000000 0.000000 
#    y 0.000000 5.225220 0.000000 
#    z 0.000000 0.000000 5.316840 
# 
# 
# High freq. dielectric constant tensor:
#      x y z
#    x 2.056000 0.000000 0.000000 
#    y 0.000000 2.112070 0.000000 
#    z 0.000000 0.000000 2.108480 
# 
# From -- ./inp_files/8340.got.cif
#   From: 2010.03.12/outbox.cif.g09.slc.cpg/sg60_5_cif.got.tgz:8340.got - 2010.04.10 18:46:24.
