data_PCOD8248975
_publ_section_title
;
Structure prediction by ZEFSAII (Michael W. Deem and Ramdas Pophale) SiO2 
 PCOD8248975
Probable space group: P B C A
;
_chemical_formula_sum "Si O2"
_cell_formula_units_Z 64
_cell_length_a 18.794653
_cell_length_b 19.613554
_cell_length_c 8.404221
_cell_angle_alpha 90.000000
_cell_angle_beta 90.000000
_cell_angle_gamma 90.000000
_cell_volume 3098.047496
_symmetry_space_group_name_H-M "P B C A"
_symmetry_group_IT_number 61
_symmetry_cell_setting 'orthorhombic'
loop_
_space_group_symop_operation_xyz
x,y,z
1/2-x,-y,1/2+z
1/2+x,1/2-y,-z
-x,1/2+y,1/2-z
-x,-y,-z
1/2+x,y,1/2-z
1/2-x,1/2+y,z
x,1/2-y,1/2+z
loop_
_atom_site_type_symbol
_atom_site_label
_atom_site_fract_x
_atom_site_fract_y
_atom_site_fract_z
Si Si1 0.797751 0.171258 0.115452
Si Si2 0.239065 0.198405 0.048103
Si Si3 0.231422 0.054596 0.564546
Si Si4 0.941037 0.209060 0.220512
Si Si5 0.555807 0.848080 0.069395
Si Si6 0.694285 0.577214 0.616394
Si Si7 0.896708 0.848345 0.431893
Si Si8 0.600539 0.209674 0.281311
O O1 0.787243 0.187251 0.299063
O O2 0.883728 0.175840 0.098420
O O3 0.752770 0.223848 0.006760
O O4 0.772020 0.095501 0.074327
O O5 0.157460 0.180381 0.092606
O O6 0.263827 0.147864 0.909522
O O7 0.284977 0.049676 0.711612
O O8 0.156842 0.090668 0.607016
O O9 0.215925 0.977753 0.514666
O O10 0.926637 0.187915 0.401697
O O11 0.935342 0.291063 0.206588
O O12 0.021072 0.186520 0.167862
O O13 0.609740 0.909703 0.105833
O O14 0.476396 0.879084 0.066818
O O15 0.879729 0.813590 0.603364
O O16 0.891225 0.791862 0.292376
#
# Coordination Sequence:
#
# PCOD8248975 Si02
#       8
#     8   8   8   8   8   8   8   8
#     4  12  21  37  64  94 126 163 207 260 314 374
#     4  12  21  37  64  94 126 163 207 260 314 374
#     4  12  27  43  63  89 124 170 216 265 320 378
#     4  10  20  36  62  96 128 160 203 255 310 372
#     4  10  22  40  65  95 128 163 205 259 319 377
#     4  12  27  43  63  89 124 170 216 265 320 378
#     4  10  22  40  65  95 128 163 205 259 319 377
#     4  10  20  36  62  96 128 160 203 255 310 372
#
# _framework density 20.658172
#
# number of rings (size 3 to 8) (size 9 to 14) (size 15 to 20)
#    0.000    1.000    5.000    1.500    3.500    0.500 
#    0.000    0.000    0.000    1.500    0.000    0.000 
#    0.000    0.000    0.000    0.000    0.000    0.000 
#
# Total GULP energy -793547.295919 kJ/mol
# GULP energy per Si atom -12399.176499 kJ/mol
# Density = 2.061115 g / cm^3
# Si number density = 20.658172 Si / 1000 Ang^3
#
#
#
# Elastic Constant Matrix: (Units=GPa)
#
#
# Indices 1 2 3 4 5 6 
#
# 1 131.3267 20.4306 16.4498 0.0000 0.0000 0.0000
# 2 20.4306 50.7675 7.5812 0.0000 0.0000 0.0000
# 3 16.4498 7.5812 49.5966 0.0000 0.0000 0.0000
# 4 0.0000 0.0000 0.0000 29.9437 0.0000 0.0000
# 5 0.0000 0.0000 0.0000 0.0000 30.5271 0.0000
# 6 0.0000 0.0000 0.0000 0.0000 0.0000 23.8345
#
#
#
# Elastic Compliance Matrix: (Units=1/GPa)
#
#
# Indices 1 2 3 4 5 6 
#
# 1 0.008375 -0.003025 -0.002315 0.000000 0.000000 0.000000
# 2 -0.003025 0.021250 -0.002245 0.000000 0.000000 0.000000
# 3 -0.002315 -0.002245 0.021274 0.000000 0.000000 0.000000
# 4 0.000000 0.000000 0.000000 0.033396 0.000000 0.000000
# 5 0.000000 0.000000 0.000000 0.000000 0.032758 0.000000
# 6 0.000000 0.000000 0.000000 0.000000 0.000000 0.041956
#
#
# Mechanical properties :
#
#
# Convention : Reuss Voigt Hill
#
# Bulk Modulus (GPa) = 27.98863 35.62375 31.80619
# Shear Modulus (GPa) = 26.86888 29.34301 28.10595
#
# Velocity S-wave (km/s) = 3.61035 3.77292 3.69253
# Velocity P-wave (km/s) = 5.56394 6.02177 5.79737
#
# Compressibility (1/GPa) = 0.03572879
#
# Stress axis : x y z
#
# Youngs Moduli (GPa) = 119.40038 47.05853 47.00615
#
# Poissons Ratio (x) = 0.14234 0.10884
# Poissons Ratio (y) = 0.36115 0.10553
# Poissons Ratio (z) = 0.27647 0.10565
#
# Static dielectric constant tensor:
#      x y z
#    x 4.144330 0.000000 0.000000 
#    y 0.000000 3.460160 0.000000 
#    z 0.000000 0.000000 3.635190 
# 
# 
# High freq. dielectric constant tensor:
#      x y z
#    x 1.836070 0.000000 0.000000 
#    y 0.000000 1.767020 0.000000 
#    z 0.000000 0.000000 1.805010 
# 
# From -- ./inp_files/4123.got.cif
#   From: 2010.03.12/outbox.cif.g09.slc.cpg/sg61_3_cif.got.tgz:4123.got - 2010.04.10 19:05:03.
