data_PCOD8248347
_publ_section_title
;
Structure prediction by ZEFSAII (Michael W. Deem and Ramdas Pophale) SiO2 
 PCOD8248347
Probable space group: P B C N
;
_chemical_formula_sum "Si O2"
_cell_formula_units_Z 60
_cell_length_a 11.886968
_cell_length_b 19.656079
_cell_length_c 12.081403
_cell_angle_alpha 90.000000
_cell_angle_beta 90.000000
_cell_angle_gamma 90.000000
_cell_volume 2822.834092
_symmetry_space_group_name_H-M "P B C N"
_symmetry_group_IT_number 60
_symmetry_cell_setting 'orthorhombic'
loop_
_space_group_symop_operation_xyz
x,y,z
1/2-x,1/2-y,1/2+z
1/2+x,1/2-y,-z
-x,y,1/2-z
-x,-y,-z
1/2+x,1/2+y,1/2-z
1/2-x,1/2+y,z
x,-y,1/2+z
loop_
_atom_site_type_symbol
_atom_site_label
_atom_site_fract_x
_atom_site_fract_y
_atom_site_fract_z
Si Si1 0.611583 0.964097 0.797111
Si Si2 0.472959 0.149294 0.035393
Si Si3 0.392217 0.608990 0.555919
Si Si4 0.657719 0.894065 0.360104
Si Si5 0.452680 0.711502 0.872269
Si Si6 0.295996 0.481797 0.862600
Si Si7 0.719768 0.135253 0.623450
Si Si8 0.000000 0.971150 0.250000
O O1 0.500000 0.000816 0.750000
O O2 0.567369 0.902844 0.870866
O O3 0.690667 0.941132 0.692807
O O4 0.675783 0.023630 0.863814
O O5 0.537502 0.209414 0.097614
O O6 0.558033 0.120442 0.944174
O O7 0.357928 0.167169 0.972072
O O8 0.276553 0.637975 0.605142
O O9 0.471165 0.674530 0.531713
O O10 0.358863 0.560949 0.455667
O O11 0.476081 0.572417 0.641366
O O12 0.643117 0.866169 0.235156
O O13 0.500000 0.697565 0.750000
O O14 0.324525 0.686322 0.871784
O O15 0.259234 0.557482 0.903015
O O16 0.388573 0.484858 0.766480
#
# Coordination Sequence:
#
# PCOD8248347 Si02
#       8
#     8   8   8   8   8   8   8   4
#     4  11  22  43  63 102 135 166 217 282 344 392
#     4  12  27  40  67  99 134 180 221 281 336 403
#     4  12  21  41  67  96 129 179 221 273 339 407
#     4  11  21  43  72  96 131 169 228 273 343 405
#     4  12  25  45  64  91 132 182 225 267 331 418
#     4  11  23  37  71 100 132 165 227 285 343 399
#     4  11  23  43  69  95 131 175 226 278 336 402
#     4  12  20  40  64 104 128 170 218 286 342 394
#
# _framework density 21.255234000000002
#
# number of rings (size 3 to 8) (size 9 to 14) (size 15 to 20)
#    0.000    0.533    6.000    4.800    1.867    0.000 
#    0.000    0.000    2.933    0.000    0.000    0.000 
#    0.000    0.000    0.000    0.000    0.000    0.000 
#
# Total GULP energy -743343.970004 kJ/mol
# GULP energy per Si atom -12389.066167 kJ/mol
# Density = 2.120686 g / cm^3
# Si number density = 21.255234 Si / 1000 Ang^3
#
#
#
# Elastic Constant Matrix: (Units=GPa)
#
#
# Indices 1 2 3 4 5 6 
#
# 1 121.9006 42.3424 50.3811 0.0000 0.0000 0.0000
# 2 42.3424 98.9594 51.7815 0.0000 0.0000 0.0000
# 3 50.3811 51.7815 79.2099 0.0000 0.0000 0.0000
# 4 0.0000 0.0000 0.0000 14.9816 0.0000 0.0000
# 5 0.0000 0.0000 0.0000 0.0000 45.2617 0.0000
# 6 0.0000 0.0000 0.0000 0.0000 0.0000 22.4392
#
#
#
# Elastic Compliance Matrix: (Units=1/GPa)
#
#
# Indices 1 2 3 4 5 6 
#
# 1 0.011300 -0.001633 -0.006120 0.000000 0.000000 0.000000
# 2 -0.001633 0.015595 -0.009156 0.000000 0.000000 0.000000
# 3 -0.006120 -0.009156 0.022503 0.000000 0.000000 0.000000
# 4 0.000000 0.000000 0.000000 0.066748 0.000000 0.000000
# 5 0.000000 0.000000 0.000000 0.000000 0.022094 0.000000
# 6 0.000000 0.000000 0.000000 0.000000 0.000000 0.044565
#
#
# Mechanical properties :
#
#
# Convention : Reuss Voigt Hill
#
# Bulk Modulus (GPa) = 64.18526 65.45332 64.81929
# Shear Modulus (GPa) = 22.54124 26.90751 24.72438
#
# Velocity S-wave (km/s) = 3.26007 3.56184 3.41429
# Velocity P-wave (km/s) = 6.66586 6.91205 6.79007
#
# Compressibility (1/GPa) = 0.01557990
#
# Stress axis : x y z
#
# Youngs Moduli (GPa) = 88.49676 64.12369 44.43856
#
# Poissons Ratio (x) = 0.10469 0.27196
# Poissons Ratio (y) = 0.14448 0.40689
# Poissons Ratio (z) = 0.54159 0.58714
#
# Static dielectric constant tensor:
#      x y z
#    x 4.220860 0.000000 0.000000 
#    y 0.000000 3.630890 0.000000 
#    z 0.000000 0.000000 4.044580 
# 
# 
# High freq. dielectric constant tensor:
#      x y z
#    x 1.862870 0.000000 0.000000 
#    y 0.000000 1.802920 0.000000 
#    z 0.000000 0.000000 1.830760 
# 
# From -- ./inp_files/11276.got.cif
#   From: 2010.03.12/outbox.cif.g09.slc.cpg/sg60_6_cif.got.tgz:11276.got - 2010.04.10 18:46:24.
