data_PCOD8248671
_publ_section_title
;
Structure prediction by ZEFSAII (Michael W. Deem and Ramdas Pophale) SiO2 
 PCOD8248671
Probable space group: P B C N
;
_chemical_formula_sum "Si O2"
_cell_formula_units_Z 32
_cell_length_a 8.934281
_cell_length_b 13.122850
_cell_length_c 11.142418
_cell_angle_alpha 90.000000
_cell_angle_beta 90.000000
_cell_angle_gamma 90.000000
_cell_volume 1306.373070
_symmetry_space_group_name_H-M "P B C N"
_symmetry_group_IT_number 60
_symmetry_cell_setting 'orthorhombic'
loop_
_space_group_symop_operation_xyz
x,y,z
1/2-x,1/2-y,1/2+z
1/2+x,1/2-y,-z
-x,y,1/2-z
-x,-y,-z
1/2+x,1/2+y,1/2-z
1/2-x,1/2+y,z
x,-y,1/2+z
loop_
_atom_site_type_symbol
_atom_site_label
_atom_site_fract_x
_atom_site_fract_y
_atom_site_fract_z
Si Si1 0.082217 0.662144 0.511012
Si Si2 0.678788 0.237764 0.349834
Si Si3 0.500000 0.577788 0.750000
Si Si4 0.500000 0.931316 0.250000
Si Si5 0.253967 0.562222 0.322352
O O1 0.194679 0.753684 0.547085
O O2 0.184291 0.571098 0.456191
O O3 0.971246 0.689241 0.402935
O O4 0.988255 0.634572 0.629018
O O5 0.628059 0.351592 0.309764
O O6 0.754778 0.174684 0.240414
O O7 0.587954 0.497021 0.663653
O O8 0.648232 0.997384 0.265001
#
# Coordination Sequence:
#
# PCOD8248671 Si02
#       5
#     8   8   4   4   8
#     4  12  28  46  80 107 161 201 259 324 394 463
#     4  12  28  50  73 117 155 203 259 324 385 471
#     4  12  27  51  80 116 156 200 265 317 396 462
#     4  12  25  47  74 108 142 212 253 311 398 460
#     4  12  27  51  77 111 154 202 259 325 386 467
#
# _framework density 24.4953
#
# number of rings (size 3 to 8) (size 9 to 14) (size 15 to 20)
#    0.000    0.000    7.500    0.750   10.500    1.000 
#    0.000    0.000    0.000    0.000    0.000    0.000 
#    0.000    0.000    0.000    0.000    0.000    0.000 
#
# Total GULP energy -396505.225685 kJ/mol
# GULP energy per Si atom -12390.788303 kJ/mol
# Density = 2.443955 g / cm^3
# Si number density = 24.495300 Si / 1000 Ang^3
#
#
#
# Elastic Constant Matrix: (Units=GPa)
#
#
# Indices 1 2 3 4 5 6 
#
# 1 51.7001 56.2015 10.9859 0.0000 0.0000 0.0000
# 2 56.2015 112.4531 42.6253 0.0000 0.0000 0.0000
# 3 10.9859 42.6253 102.6534 0.0000 0.0000 0.0000
# 4 0.0000 0.0000 0.0000 31.4784 0.0000 0.0000
# 5 0.0000 0.0000 0.0000 0.0000 41.1742 0.0000
# 6 0.0000 0.0000 0.0000 0.0000 0.0000 42.3573
#
#
#
# Elastic Compliance Matrix: (Units=1/GPa)
#
#
# Indices 1 2 3 4 5 6 
#
# 1 0.044680 -0.024350 0.005329 0.000000 0.000000 0.000000
# 2 -0.024350 0.023824 -0.007287 0.000000 0.000000 0.000000
# 3 0.005329 -0.007287 0.012197 0.000000 0.000000 0.000000
# 4 0.000000 0.000000 0.000000 0.031768 0.000000 0.000000
# 5 0.000000 0.000000 0.000000 0.000000 0.024287 0.000000
# 6 0.000000 0.000000 0.000000 0.000000 0.000000 0.023609
#
#
# Mechanical properties :
#
#
# Convention : Reuss Voigt Hill
#
# Bulk Modulus (GPa) = 35.60457 54.04800 44.82628
# Shear Modulus (GPa) = 22.48786 33.46824 27.97805
#
# Velocity S-wave (km/s) = 3.03322 3.70038 3.38328
# Velocity P-wave (km/s) = 5.18016 6.35371 5.79671
#
# Compressibility (1/GPa) = 0.02808628
#
# Stress axis : x y z
#
# Youngs Moduli (GPa) = 22.38127 41.97389 81.98820
#
# Poissons Ratio (x) = 1.02208 -0.43695
# Poissons Ratio (y) = 0.54499 0.59743
# Poissons Ratio (z) = -0.11928 0.30585
#
# Static dielectric constant tensor:
#      x y z
#    x 4.445600 0.000000 0.000000 
#    y 0.000000 4.453860 0.000000 
#    z 0.000000 0.000000 4.092430 
# 
# 
# High freq. dielectric constant tensor:
#      x y z
#    x 1.984150 0.000000 0.000000 
#    y 0.000000 1.970010 0.000000 
#    z 0.000000 0.000000 1.963310 
# 
# From -- ./inp_files/9535.got.cif
#   From: 2010.03.12/outbox.cif.g09.slc.cpg/sg60_5_cif.got.tgz:9535.got - 2010.04.10 18:46:24.
