data_PCOD8248668
_publ_section_title
;
Structure prediction by ZEFSAII (Michael W. Deem and Ramdas Pophale) SiO2 
 PCOD8248668
Probable space group: P B C N
;
_chemical_formula_sum "Si O2"
_cell_formula_units_Z 40
_cell_length_a 14.265333
_cell_length_b 9.007351
_cell_length_c 13.659031
_cell_angle_alpha 90.000000
_cell_angle_beta 90.000000
_cell_angle_gamma 90.000000
_cell_volume 1755.087978
_symmetry_space_group_name_H-M "P B C N"
_symmetry_group_IT_number 60
_symmetry_cell_setting 'orthorhombic'
loop_
_space_group_symop_operation_xyz
x,y,z
1/2-x,1/2-y,1/2+z
1/2+x,1/2-y,-z
-x,y,1/2-z
-x,-y,-z
1/2+x,1/2+y,1/2-z
1/2-x,1/2+y,z
x,-y,1/2+z
loop_
_atom_site_type_symbol
_atom_site_label
_atom_site_fract_x
_atom_site_fract_y
_atom_site_fract_z
Si Si1 0.143956 0.113622 0.056689
Si Si2 0.729283 0.275529 0.750276
Si Si3 0.957556 0.642757 0.050939
Si Si4 0.778221 0.478391 0.119509
Si Si5 0.922065 0.839663 0.320367
O O1 0.190082 0.215403 0.140577
O O2 0.107228 0.957773 0.097442
O O3 0.057999 0.212606 0.017512
O O4 0.220685 0.080241 0.973353
O O5 0.675721 0.157946 0.679986
O O6 0.713563 0.434333 0.698198
O O7 0.836829 0.221404 0.755615
O O8 0.856231 0.596799 0.090238
O O9 0.031422 0.692682 0.132487
O O10 0.000000 0.500000 0.000000
O O11 0.000000 0.915221 0.250000
#
# Coordination Sequence:
#
# PCOD8248668 Si02
#       5
#     8   8   8   8   8
#     4  12  27  48  75 104 145 196 238 294 365 435
#     4  12  26  46  77 104 141 195 244 290 356 442
#     4  12  28  44  71 106 147 184 238 305 360 421
#     4  12  25  49  74 106 142 191 245 292 353 441
#     4  12  25  46  69 105 148 183 238 304 361 420
#
# _framework density 22.790880000000001
#
# number of rings (size 3 to 8) (size 9 to 14) (size 15 to 20)
#    0.000    0.000    6.000    3.000    5.600    1.600 
#    0.000    0.000    0.000    0.000    0.000    0.000 
#    0.000    0.000    0.000    0.000    0.000    0.000 
#
# Total GULP energy -496029.300073 kJ/mol
# GULP energy per Si atom -12400.732502 kJ/mol
# Density = 2.273901 g / cm^3
# Si number density = 22.790880 Si / 1000 Ang^3
#
#
#
# Elastic Constant Matrix: (Units=GPa)
#
#
# Indices 1 2 3 4 5 6 
#
# 1 63.6689 16.4895 22.9490 0.0000 0.0000 0.0000
# 2 16.4895 125.3225 51.0337 0.0000 0.0000 0.0000
# 3 22.9490 51.0337 129.3114 0.0000 0.0000 0.0000
# 4 0.0000 0.0000 0.0000 63.5395 0.0000 0.0000
# 5 0.0000 0.0000 0.0000 0.0000 22.9176 0.0000
# 6 0.0000 0.0000 0.0000 0.0000 0.0000 44.8446
#
#
#
# Elastic Compliance Matrix: (Units=1/GPa)
#
#
# Indices 1 2 3 4 5 6 
#
# 1 0.016929 -0.001196 -0.002532 0.000000 0.000000 0.000000
# 2 -0.001196 0.009592 -0.003573 0.000000 0.000000 0.000000
# 3 -0.002532 -0.003573 0.009593 0.000000 0.000000 0.000000
# 4 0.000000 0.000000 0.000000 0.015738 0.000000 0.000000
# 5 0.000000 0.000000 0.000000 0.000000 0.043635 0.000000
# 6 0.000000 0.000000 0.000000 0.000000 0.000000 0.022299
#
#
# Mechanical properties :
#
#
# Convention : Reuss Voigt Hill
#
# Bulk Modulus (GPa) = 46.48974 55.47191 50.98083
# Shear Modulus (GPa) = 35.82714 41.44906 38.63810
#
# Velocity S-wave (km/s) = 3.96914 4.26921 4.12191
# Velocity P-wave (km/s) = 6.43802 6.97810 6.71349
#
# Compressibility (1/GPa) = 0.02151012
#
# Stress axis : x y z
#
# Youngs Moduli (GPa) = 59.07094 104.25475 104.24413
#
# Poissons Ratio (x) = 0.12471 0.26397
# Poissons Ratio (y) = 0.07066 0.37249
# Poissons Ratio (z) = 0.14958 0.37252
#
# Static dielectric constant tensor:
#      x y z
#    x 4.128090 0.000000 0.000000 
#    y 0.000000 4.260460 0.000000 
#    z 0.000000 0.000000 4.306130 
# 
# 
# High freq. dielectric constant tensor:
#      x y z
#    x 1.882350 0.000000 0.000000 
#    y 0.000000 1.919970 0.000000 
#    z 0.000000 0.000000 1.918720 
# 
# From -- ./inp_files/12329.got.cif
#   From: 2010.03.12/outbox.cif.g09.slc.cpg/sg60_7_cif.got.tgz:12329.got - 2010.04.10 18:46:24.
