data_PCOD8248152
_publ_section_title
;
Structure prediction by ZEFSAII (Michael W. Deem and Ramdas Pophale) SiO2 
 PCOD8248152
Probable space group: P B C N
;
_chemical_formula_sum "Si O2"
_cell_formula_units_Z 40
_cell_length_a 19.359603
_cell_length_b 8.344607
_cell_length_c 11.008038
_cell_angle_alpha 90.000000
_cell_angle_beta 90.000000
_cell_angle_gamma 90.000000
_cell_volume 1778.329591
_symmetry_space_group_name_H-M "P B C N"
_symmetry_group_IT_number 60
_symmetry_cell_setting 'orthorhombic'
loop_
_space_group_symop_operation_xyz
x,y,z
1/2-x,1/2-y,1/2+z
1/2+x,1/2-y,-z
-x,y,1/2-z
-x,-y,-z
1/2+x,1/2+y,1/2-z
1/2-x,1/2+y,z
x,-y,1/2+z
loop_
_atom_site_type_symbol
_atom_site_label
_atom_site_fract_x
_atom_site_fract_y
_atom_site_fract_z
Si Si1 0.962757 0.448559 0.624013
Si Si2 0.332746 0.694261 0.604062
Si Si3 0.989313 0.890389 0.381699
Si Si4 0.268702 0.592345 0.230121
Si Si5 0.679806 0.867870 0.136216
O O1 0.955427 0.255007 0.618565
O O2 0.888608 0.529875 0.623653
O O3 0.000000 0.501738 0.750000
O O4 0.000000 0.500000 0.500000
O O5 0.414967 0.692355 0.611751
O O6 0.304905 0.829287 0.695385
O O7 0.302490 0.517008 0.626016
O O8 0.305299 0.753150 0.475836
O O9 0.000000 0.981455 0.250000
O O10 0.000000 0.000000 0.500000
O O11 0.323815 0.734518 0.255597
O O12 0.247028 0.480279 0.344157
#
# Coordination Sequence:
#
# PCOD8248152 Si02
#       5
#     8   8   8   8   8
#     4  11  24  45  72 101 137 184 234 286 348 422
#     4  11  23  45  66 101 136 179 235 289 346 424
#     4  11  26  46  70 101 143 183 234 291 353 422
#     4  10  24  43  70  97 137 181 233 288 352 409
#     4  11  23  44  70 100 136 182 235 286 353 419
#
# _framework density 22.493017999999999
#
# number of rings (size 3 to 8) (size 9 to 14) (size 15 to 20)
#    0.000    1.200    2.000    3.600    2.800    2.400 
#    7.200    0.000    0.000    0.000    0.000    0.000 
#    0.000    0.000    0.000    0.000    0.000    0.000 
#
# Total GULP energy -495594.770728 kJ/mol
# GULP energy per Si atom -12389.869268 kJ/mol
# Density = 2.244182 g / cm^3
# Si number density = 22.493018 Si / 1000 Ang^3
#
#
#
# Elastic Constant Matrix: (Units=GPa)
#
#
# Indices 1 2 3 4 5 6 
#
# 1 96.9995 67.2756 35.8018 0.0000 0.0000 0.0000
# 2 67.2756 148.0268 57.6627 0.0000 0.0000 0.0000
# 3 35.8018 57.6627 150.9142 0.0000 0.0000 0.0000
# 4 0.0000 0.0000 0.0000 42.9511 0.0000 0.0000
# 5 0.0000 0.0000 0.0000 0.0000 31.3584 0.0000
# 6 0.0000 0.0000 0.0000 0.0000 0.0000 -22.7438
#
#
#
# Elastic Compliance Matrix: (Units=1/GPa)
#
#
# Indices 1 2 3 4 5 6 
#
# 1 0.015219 -0.006474 -0.001137 0.000000 0.000000 0.000000
# 2 -0.006474 0.010691 -0.002549 0.000000 0.000000 0.000000
# 3 -0.001137 -0.002549 0.007870 0.000000 0.000000 0.000000
# 4 0.000000 0.000000 0.000000 0.023282 0.000000 0.000000
# 5 0.000000 0.000000 0.000000 0.000000 0.031889 0.000000
# 6 0.000000 0.000000 0.000000 0.000000 0.000000 -0.043968
#
#
# Mechanical properties :
#
#
# Convention : Reuss Voigt Hill
#
# Bulk Modulus (GPa) = 74.29320 79.71341 77.00331
# Shear Modulus (GPa) = 71.64395 25.99317 48.81856
#
# Velocity S-wave (km/s) = 5.64985 3.40312 4.66380
# Velocity P-wave (km/s) = 8.69840 7.13847 7.95676
#
# Compressibility (1/GPa) = 0.01346018
#
# Stress axis : x y z
#
# Youngs Moduli (GPa) = 65.70725 93.53874 127.06612
#
# Poissons Ratio (x) = 0.60556 0.14445
# Poissons Ratio (y) = 0.42538 0.32389
# Poissons Ratio (z) = 0.07470 0.23843
#
# Static dielectric constant tensor:
#      x y z
#    x 3.836710 0.000000 0.000000 
#    y 0.000000 4.321450 0.000000 
#    z 0.000000 0.000000 4.449400 
# 
# 
# High freq. dielectric constant tensor:
#      x y z
#    x 1.872760 0.000000 0.000000 
#    y 0.000000 1.899580 0.000000 
#    z 0.000000 0.000000 1.896490 
# 
# From -- ./inp_files/12289.got.cif
#   From: 2010.03.12/outbox.cif.g09.slc.cpg/sg60_7_cif.got.tgz:12289.got - 2010.04.10 18:46:24.
