data_PCOD8248475
_publ_section_title
;
Structure prediction by ZEFSAII (Michael W. Deem and Ramdas Pophale) SiO2 
 PCOD8248475
Probable space group: P B C N
;
_chemical_formula_sum "Si O2"
_cell_formula_units_Z 64
_cell_length_a 11.637284
_cell_length_b 8.676299
_cell_length_c 28.265920
_cell_angle_alpha 90.000000
_cell_angle_beta 90.000000
_cell_angle_gamma 90.000000
_cell_volume 2853.969113
_symmetry_space_group_name_H-M "P B C N"
_symmetry_group_IT_number 60
_symmetry_cell_setting 'orthorhombic'
loop_
_space_group_symop_operation_xyz
x,y,z
1/2-x,1/2-y,1/2+z
1/2+x,1/2-y,-z
-x,y,1/2-z
-x,-y,-z
1/2+x,1/2+y,1/2-z
1/2-x,1/2+y,z
x,-y,1/2+z
loop_
_atom_site_type_symbol
_atom_site_label
_atom_site_fract_x
_atom_site_fract_y
_atom_site_fract_z
Si Si1 0.236335 0.363467 0.200259
Si Si2 0.739990 0.185127 0.953096
Si Si3 0.586666 0.427335 0.377301
Si Si4 0.629885 0.128280 0.243276
Si Si5 0.365374 0.456732 0.493407
Si Si6 0.072873 0.722940 0.621704
Si Si7 0.144822 0.792784 0.393656
Si Si8 0.148961 0.525198 0.857653
O O1 0.341870 0.434123 0.170832
O O2 0.283644 0.268289 0.245136
O O3 0.152956 0.496310 0.218403
O O4 0.159666 0.259324 0.165660
O O5 0.851463 0.169246 0.919306
O O6 0.694592 0.355891 0.964958
O O7 0.632150 0.123540 0.921285
O O8 0.779909 0.104871 0.002468
O O9 0.548966 0.599868 0.393859
O O10 0.472087 0.332141 0.366197
O O11 0.500000 0.185087 0.250000
O O12 0.653242 0.066260 0.191268
O O13 0.500000 0.500000 0.500000
O O14 0.351302 0.368515 0.444947
O O15 0.960585 0.633328 0.636880
O O16 0.154736 0.607277 0.398052
O O17 0.244842 0.860416 0.361222
#
# Coordination Sequence:
#
# PCOD8248475 Si02
#       8
#     8   8   8   8   8   8   8   8
#     4  11  24  42  72 105 141 180 239 297 354 437
#     4  11  24  42  75 103 144 187 240 305 360 439
#     4  11  23  44  74 103 145 186 244 299 371 429
#     4  12  24  46  69 106 143 187 245 297 359 443
#     4  12  25  47  71 109 149 189 250 304 362 440
#     4  11  23  44  72 108 139 190 241 302 373 426
#     4  12  26  47  69 103 146 193 237 301 371 444
#     4  12  27  46  71 102 148 192 240 299 375 437
#
# _framework density 22.424910000000001
#
# number of rings (size 3 to 8) (size 9 to 14) (size 15 to 20)
#    0.000    0.500    5.000    3.000    1.750    1.000 
#    0.000    2.500    0.000    0.000    0.000    0.000 
#    0.000    0.000    0.000    0.000    0.000    0.000 
#
# Total GULP energy -793123.540652 kJ/mol
# GULP energy per Si atom -12392.555323 kJ/mol
# Density = 2.237387 g / cm^3
# Si number density = 22.424910 Si / 1000 Ang^3
#
#
#
# Elastic Constant Matrix: (Units=GPa)
#
#
# Indices 1 2 3 4 5 6 
#
# 1 137.7360 58.4244 34.2741 0.0000 0.0000 0.0000
# 2 58.4244 108.1865 16.3032 0.0000 0.0000 0.0000
# 3 34.2741 16.3032 72.2098 0.0000 0.0000 0.0000
# 4 0.0000 0.0000 0.0000 30.4953 0.0000 0.0000
# 5 0.0000 0.0000 0.0000 0.0000 33.6579 0.0000
# 6 0.0000 0.0000 0.0000 0.0000 0.0000 38.8816
#
#
#
# Elastic Compliance Matrix: (Units=1/GPa)
#
#
# Indices 1 2 3 4 5 6 
#
# 1 0.010322 -0.005006 -0.003769 0.000000 0.000000 0.000000
# 2 -0.005006 0.011997 -0.000332 0.000000 0.000000 0.000000
# 3 -0.003769 -0.000332 0.015712 0.000000 0.000000 0.000000
# 4 0.000000 0.000000 0.000000 0.032792 0.000000 0.000000
# 5 0.000000 0.000000 0.000000 0.000000 0.029711 0.000000
# 6 0.000000 0.000000 0.000000 0.000000 0.000000 0.025719
#
#
# Mechanical properties :
#
#
# Convention : Reuss Voigt Hill
#
# Bulk Modulus (GPa) = 50.46403 59.57066 55.01734
# Shear Modulus (GPa) = 33.09665 34.54901 33.82283
#
# Velocity S-wave (km/s) = 3.84590 3.92937 3.88786
# Velocity P-wave (km/s) = 6.50182 6.87087 6.68889
#
# Compressibility (1/GPa) = 0.01981610
#
# Stress axis : x y z
#
# Youngs Moduli (GPa) = 96.88474 83.35538 63.64369
#
# Poissons Ratio (x) = 0.41728 0.23986
# Poissons Ratio (y) = 0.48501 0.02116
# Poissons Ratio (z) = 0.36514 0.02772
#
# Static dielectric constant tensor:
#      x y z
#    x 4.190080 0.000000 0.000000 
#    y 0.000000 4.176930 0.000000 
#    z 0.000000 0.000000 4.004940 
# 
# 
# High freq. dielectric constant tensor:
#      x y z
#    x 1.891030 0.000000 0.000000 
#    y 0.000000 1.882860 0.000000 
#    z 0.000000 0.000000 1.888620 
# 
# From -- ./inp_files/26097.got.cif
#   From: 2010.03.12/outbox.cif.g09.slc.cpg/sg60_14_cif.got.tgz:26097.got - 2010.04.10 18:46:24.
