data_PCOD8248627
_publ_section_title
;
Structure prediction by ZEFSAII (Michael W. Deem and Ramdas Pophale) SiO2 
 PCOD8248627
Probable space group: P B C N
;
_chemical_formula_sum "Si O2"
_cell_formula_units_Z 40
_cell_length_a 8.366762
_cell_length_b 23.923688
_cell_length_c 8.935314
_cell_angle_alpha 90.000000
_cell_angle_beta 90.000000
_cell_angle_gamma 90.000000
_cell_volume 1788.526437
_symmetry_space_group_name_H-M "P B C N"
_symmetry_group_IT_number 60
_symmetry_cell_setting 'orthorhombic'
loop_
_space_group_symop_operation_xyz
x,y,z
1/2-x,1/2-y,1/2+z
1/2+x,1/2-y,-z
-x,y,1/2-z
-x,-y,-z
1/2+x,1/2+y,1/2-z
1/2-x,1/2+y,z
x,-y,1/2+z
loop_
_atom_site_type_symbol
_atom_site_label
_atom_site_fract_x
_atom_site_fract_y
_atom_site_fract_z
Si Si1 0.675652 0.367868 0.514606
Si Si2 0.816563 0.824161 0.992427
Si Si3 0.679853 0.912473 0.804732
Si Si4 0.618914 0.479553 0.376027
Si Si5 0.179436 0.717401 0.701459
O O1 0.493441 0.348929 0.504782
O O2 0.718606 0.376316 0.687176
O O3 0.715917 0.425854 0.430973
O O4 0.787284 0.322114 0.439178
O O5 0.694504 0.875834 0.957773
O O6 0.792168 0.779795 0.858541
O O7 0.788706 0.796270 0.154619
O O8 0.500000 0.920634 0.750000
O O9 0.755652 0.973564 0.825070
O O10 0.500000 0.458502 0.250000
O O11 0.500000 0.500000 0.500000
O O12 0.000000 0.708344 0.750000
#
# Coordination Sequence:
#
# PCOD8248627 Si02
#       5
#     8   8   8   8   8
#     4  12  26  46  73 100 141 191 235 282 354 426
#     4  12  24  46  70  98 138 188 232 282 357 427
#     4  12  26  44  70 102 140 181 233 300 347 406
#     4  12  23  46  73 101 137 188 233 280 345 429
#     4  12  26  42  69 103 139 178 235 298 347 415
#
# _framework density 22.364778999999999
#
# number of rings (size 3 to 8) (size 9 to 14) (size 15 to 20)
#    0.000    0.000    4.000    7.200    0.000    3.200 
#    0.000    0.000    0.000    0.000    0.000    0.000 
#    0.000    0.000    0.000    0.000    0.000    0.000 
#
# Total GULP energy -496040.559476 kJ/mol
# GULP energy per Si atom -12401.013987 kJ/mol
# Density = 2.231388 g / cm^3
# Si number density = 22.364779 Si / 1000 Ang^3
#
#
#
# Elastic Constant Matrix: (Units=GPa)
#
#
# Indices 1 2 3 4 5 6 
#
# 1 63.9961 29.0985 -0.1659 0.0000 0.0000 0.0000
# 2 29.0985 144.8882 29.3213 0.0000 0.0000 0.0000
# 3 -0.1659 29.3213 83.7811 0.0000 0.0000 0.0000
# 4 0.0000 0.0000 0.0000 51.5646 0.0000 0.0000
# 5 0.0000 0.0000 0.0000 0.0000 73.2293 0.0000
# 6 0.0000 0.0000 0.0000 0.0000 0.0000 32.0644
#
#
#
# Elastic Compliance Matrix: (Units=1/GPa)
#
#
# Indices 1 2 3 4 5 6 
#
# 1 0.017337 -0.003755 0.001348 0.000000 0.000000 0.000000
# 2 -0.003755 0.008241 -0.002892 0.000000 0.000000 0.000000
# 3 0.001348 -0.002892 0.012951 0.000000 0.000000 0.000000
# 4 0.000000 0.000000 0.000000 0.019393 0.000000 0.000000
# 5 0.000000 0.000000 0.000000 0.000000 0.013656 0.000000
# 6 0.000000 0.000000 0.000000 0.000000 0.000000 0.031187
#
#
# Mechanical properties :
#
#
# Convention : Reuss Voigt Hill
#
# Bulk Modulus (GPa) = 35.80065 45.46371 40.63218
# Shear Modulus (GPa) = 40.75942 46.99911 43.87926
#
# Velocity S-wave (km/s) = 4.27369 4.58916 4.43423
# Velocity P-wave (km/s) = 6.35570 6.96081 6.66513
#
# Compressibility (1/GPa) = 0.02793245
#
# Stress axis : x y z
#
# Youngs Moduli (GPa) = 57.68128 121.34271 77.21694
#
# Poissons Ratio (x) = 0.45560 -0.10412
# Poissons Ratio (y) = 0.21657 0.22328
# Poissons Ratio (z) = -0.07778 0.35088
#
# Static dielectric constant tensor:
#      x y z
#    x 3.819810 0.000000 0.000000 
#    y 0.000000 3.674600 0.000000 
#    z 0.000000 0.000000 4.495610 
# 
# 
# High freq. dielectric constant tensor:
#      x y z
#    x 1.873240 0.000000 0.000000 
#    y 0.000000 1.902490 0.000000 
#    z 0.000000 0.000000 1.899200 
# 
# From -- ./inp_files/3801.got.cif
#   From: 2010.03.12/outbox.cif.g09.slc.cpg/sg60_2_cif.got.tgz:3801.got - 2010.04.10 18:46:24.
