data_PCOD8248840
_publ_section_title
;
Structure prediction by ZEFSAII (Michael W. Deem and Ramdas Pophale) SiO2 
 PCOD8248840
Probable space group: P B C A
;
_chemical_formula_sum "Si O2"
_cell_formula_units_Z 64
_cell_length_a 13.750764
_cell_length_b 22.013169
_cell_length_c 8.786357
_cell_angle_alpha 90.000000
_cell_angle_beta 90.000000
_cell_angle_gamma 90.000000
_cell_volume 2659.611741
_symmetry_space_group_name_H-M "P B C A"
_symmetry_group_IT_number 61
_symmetry_cell_setting 'orthorhombic'
loop_
_space_group_symop_operation_xyz
x,y,z
1/2-x,-y,1/2+z
1/2+x,1/2-y,-z
-x,1/2+y,1/2-z
-x,-y,-z
1/2+x,y,1/2-z
1/2-x,1/2+y,z
x,1/2-y,1/2+z
loop_
_atom_site_type_symbol
_atom_site_label
_atom_site_fract_x
_atom_site_fract_y
_atom_site_fract_z
Si Si1 0.577714 0.392519 0.322991
Si Si2 0.630905 0.608774 0.566698
Si Si3 0.241641 0.831506 0.024086
Si Si4 0.668398 0.329104 0.062805
Si Si5 0.050533 0.532486 0.197285
Si Si6 0.790580 0.773111 0.770684
Si Si7 0.665585 0.487860 0.720564
Si Si8 0.337427 0.451528 0.976432
O O1 0.469163 0.367764 0.356047
O O2 0.651415 0.357139 0.432959
O O3 0.606013 0.382374 0.142938
O O4 0.584325 0.464900 0.353852
O O5 0.713926 0.660183 0.562555
O O6 0.607974 0.582842 0.398290
O O7 0.677946 0.556459 0.667447
O O8 0.231336 0.816238 0.844333
O O9 0.163761 0.885180 0.058897
O O10 0.221400 0.771468 0.126530
O O11 0.642828 0.269125 0.162477
O O12 0.643239 0.314897 0.885461
O O13 0.065037 0.540601 0.378426
O O14 0.936232 0.540469 0.166648
O O15 0.751046 0.448510 0.648967
O O16 0.673866 0.492743 0.904897
#
# Coordination Sequence:
#
# PCOD8248840 Si02
#       8
#     8   8   8   8   8   8   8   8
#     4  10  21  37  58  85 120 158 194 238 298 362
#     4  11  21  38  61  85 121 164 196 240 303 360
#     4  10  19  36  59  82 110 149 195 242 297 352
#     4  10  20  39  61  84 115 154 200 249 304 357
#     4  11  23  38  58  91 128 160 199 245 292 362
#     4   9  20  37  60  84 110 146 197 259 300 339
#     4  11  23  38  58  90 128 159 198 244 289 363
#     4  12  22  37  62  89 121 166 201 237 301 365
#
# _framework density 24.063661
#
# number of rings (size 3 to 8) (size 9 to 14) (size 15 to 20)
#    0.000    1.500    0.000    7.875    0.000    1.000 
#    0.000    7.500    0.000    4.500    0.000    0.000 
#    0.000    0.000    0.000    0.000    0.000    0.000 
#
# Total GULP energy -793064.082940 kJ/mol
# GULP energy per Si atom -12391.626296 kJ/mol
# Density = 2.400889 g / cm^3
# Si number density = 24.063661 Si / 1000 Ang^3
#
#
#
# Elastic Constant Matrix: (Units=GPa)
#
#
# Indices 1 2 3 4 5 6 
#
# 1 54.2778 32.4597 13.5460 0.0000 0.0000 0.0000
# 2 32.4597 50.2582 13.6470 0.0000 0.0000 0.0000
# 3 13.5460 13.6470 136.4101 0.0000 0.0000 0.0000
# 4 0.0000 0.0000 0.0000 47.7289 0.0000 0.0000
# 5 0.0000 0.0000 0.0000 0.0000 32.8774 0.0000
# 6 0.0000 0.0000 0.0000 0.0000 0.0000 11.0889
#
#
#
# Elastic Compliance Matrix: (Units=1/GPa)
#
#
# Indices 1 2 3 4 5 6 
#
# 1 0.030171 -0.019194 -0.001076 0.000000 0.000000 0.000000
# 2 -0.019194 0.032664 -0.001362 0.000000 0.000000 0.000000
# 3 -0.001076 -0.001362 0.007574 0.000000 0.000000 0.000000
# 4 0.000000 0.000000 0.000000 0.020952 0.000000 0.000000
# 5 0.000000 0.000000 0.000000 0.000000 0.030416 0.000000
# 6 0.000000 0.000000 0.000000 0.000000 0.000000 0.090181
#
#
# Mechanical properties :
#
#
# Convention : Reuss Voigt Hill
#
# Bulk Modulus (GPa) = 36.83889 40.02792 38.43340
# Shear Modulus (GPa) = 18.92018 30.42527 24.67272
#
# Velocity S-wave (km/s) = 2.80707 3.55965 3.20552
# Velocity P-wave (km/s) = 5.08412 5.79354 5.45039
#
# Compressibility (1/GPa) = 0.02714523
#
# Stress axis : x y z
#
# Youngs Moduli (GPa) = 33.14462 30.61509 132.03228
#
# Poissons Ratio (x) = 0.58762 0.14204
# Poissons Ratio (y) = 0.63618 0.17980
# Poissons Ratio (z) = 0.03566 0.04169
#
# Static dielectric constant tensor:
#      x y z
#    x 3.932170 0.000000 0.000000 
#    y 0.000000 4.342650 0.000000 
#    z 0.000000 0.000000 4.842280 
# 
# 
# High freq. dielectric constant tensor:
#      x y z
#    x 1.907480 0.000000 0.000000 
#    y 0.000000 1.944190 0.000000 
#    z 0.000000 0.000000 1.983930 
# 
# From -- ./inp_files/3211.got.cif
#   From: 2010.03.12/outbox.cif.g09.slc.cpg/sg61_2_cif.got.tgz:3211.got - 2010.04.10 19:05:03.
