data_PCOD8248887
_publ_section_title
;
Structure prediction by ZEFSAII (Michael W. Deem and Ramdas Pophale) SiO2 
 PCOD8248887
Probable space group: P B C A
;
_chemical_formula_sum "Si O2"
_cell_formula_units_Z 64
_cell_length_a 22.337055
_cell_length_b 14.184813
_cell_length_c 9.124169
_cell_angle_alpha 90.000000
_cell_angle_beta 90.000000
_cell_angle_gamma 90.000000
_cell_volume 2890.965102
_symmetry_space_group_name_H-M "P B C A"
_symmetry_group_IT_number 61
_symmetry_cell_setting 'orthorhombic'
loop_
_space_group_symop_operation_xyz
x,y,z
1/2-x,-y,1/2+z
1/2+x,1/2-y,-z
-x,1/2+y,1/2-z
-x,-y,-z
1/2+x,y,1/2-z
1/2-x,1/2+y,z
x,1/2-y,1/2+z
loop_
_atom_site_type_symbol
_atom_site_label
_atom_site_fract_x
_atom_site_fract_y
_atom_site_fract_z
Si Si1 0.492076 0.509220 0.223997
Si Si2 0.372395 0.531428 0.711430
Si Si3 0.822988 0.857278 0.778845
Si Si4 0.377780 0.796174 0.412885
Si Si5 0.007439 0.841174 0.010468
Si Si6 0.685412 0.846523 0.728884
Si Si7 0.878082 0.488140 0.111646
Si Si8 0.375243 0.280190 0.485562
O O1 0.558485 0.495823 0.280604
O O2 0.488023 0.608701 0.140197
O O3 0.447410 0.514737 0.361037
O O4 0.470273 0.422901 0.120616
O O5 0.359087 0.630472 0.786350
O O6 0.332125 0.455164 0.797098
O O7 0.354989 0.533127 0.540740
O O8 0.853022 0.802942 0.642147
O O9 0.752816 0.837731 0.783332
O O10 0.837530 0.967275 0.742869
O O11 0.849282 0.827173 0.934136
O O12 0.449409 0.787689 0.426531
O O13 0.058588 0.764505 0.980740
O O14 0.674307 0.791361 0.577903
O O15 0.640484 0.801819 0.847440
O O16 0.871989 0.375258 0.110715
#
# Coordination Sequence:
#
# PCOD8248887 Si02
#       8
#     8   8   8   8   8   8   8   8
#     4  10  19  40  66  97 134 174 219 278 343 411
#     4  10  23  41  66  98 132 171 219 280 338 405
#     4  12  26  44  65  94 131 182 228 278 335 405
#     4  11  25  45  70  95 134 172 228 282 343 411
#     4  10  21  39  71 102 130 175 221 281 354 401
#     4  11  25  43  66  95 133 176 230 278 334 402
#     4  11  24  41  66  99 137 175 222 276 346 407
#     4  11  24  43  68 102 135 175 225 287 344 408
#
# _framework density 22.137936
#
# number of rings (size 3 to 8) (size 9 to 14) (size 15 to 20)
#    0.000    1.250    2.500    2.625    0.000   10.000 
#    0.000    0.000    0.000    0.000    0.000    0.000 
#    0.000    0.000    0.000    0.000    0.000    0.000 
#
# Total GULP energy -793845.540184 kJ/mol
# GULP energy per Si atom -12403.836565 kJ/mol
# Density = 2.208755 g / cm^3
# Si number density = 22.137936 Si / 1000 Ang^3
#
#
#
# Elastic Constant Matrix: (Units=GPa)
#
#
# Indices 1 2 3 4 5 6 
#
# 1 104.0351 43.1322 13.8257 0.0000 0.0000 0.0000
# 2 43.1322 100.8820 26.1918 0.0000 0.0000 0.0000
# 3 13.8257 26.1918 56.1453 0.0000 0.0000 0.0000
# 4 0.0000 0.0000 0.0000 31.9528 0.0000 0.0000
# 5 0.0000 0.0000 0.0000 0.0000 26.1490 0.0000
# 6 0.0000 0.0000 0.0000 0.0000 0.0000 15.4946
#
#
#
# Elastic Compliance Matrix: (Units=1/GPa)
#
#
# Indices 1 2 3 4 5 6 
#
# 1 0.011702 -0.004842 -0.000623 0.000000 0.000000 0.000000
# 2 -0.004842 0.013282 -0.005004 0.000000 0.000000 0.000000
# 3 -0.000623 -0.005004 0.020299 0.000000 0.000000 0.000000
# 4 0.000000 0.000000 0.000000 0.031296 0.000000 0.000000
# 5 0.000000 0.000000 0.000000 0.000000 0.038242 0.000000
# 6 0.000000 0.000000 0.000000 0.000000 0.000000 0.064539
#
#
# Mechanical properties :
#
#
# Convention : Reuss Voigt Hill
#
# Bulk Modulus (GPa) = 41.07471 47.48463 44.27967
# Shear Modulus (GPa) = 23.99099 26.58012 25.28556
#
# Velocity S-wave (km/s) = 3.29554 3.46881 3.38329
# Velocity P-wave (km/s) = 5.75109 6.12695 5.94199
#
# Compressibility (1/GPa) = 0.02434588
#
# Stress axis : x y z
#
# Youngs Moduli (GPa) = 85.45397 75.29177 49.26453
#
# Poissons Ratio (x) = 0.36453 0.03070
# Poissons Ratio (y) = 0.41373 0.24650
# Poissons Ratio (z) = 0.05325 0.37674
#
# Static dielectric constant tensor:
#      x y z
#    x 3.821960 0.000000 0.000000 
#    y 0.000000 4.111220 0.000000 
#    z 0.000000 0.000000 3.987640 
# 
# 
# High freq. dielectric constant tensor:
#      x y z
#    x 1.863710 0.000000 0.000000 
#    y 0.000000 1.878740 0.000000 
#    z 0.000000 0.000000 1.874630 
# 
# From -- ./inp_files/4339.got.cif
#   From: 2010.03.12/outbox.cif.g09.slc.cpg/sg61_3_cif.got.tgz:4339.got - 2010.04.10 19:05:03.
