data_PCOD8248167
_publ_section_title
;
Structure prediction by ZEFSAII (Michael W. Deem and Ramdas Pophale) SiO2 
 PCOD8248167
Probable space group: P B C N
;
_chemical_formula_sum "Si O2"
_cell_formula_units_Z 60
_cell_length_a 28.131194
_cell_length_b 11.273791
_cell_length_c 8.773350
_cell_angle_alpha 90.000000
_cell_angle_beta 90.000000
_cell_angle_gamma 90.000000
_cell_volume 2782.425856
_symmetry_space_group_name_H-M "P B C N"
_symmetry_group_IT_number 60
_symmetry_cell_setting 'orthorhombic'
loop_
_space_group_symop_operation_xyz
x,y,z
1/2-x,1/2-y,1/2+z
1/2+x,1/2-y,-z
-x,y,1/2-z
-x,-y,-z
1/2+x,1/2+y,1/2-z
1/2-x,1/2+y,z
x,-y,1/2+z
loop_
_atom_site_type_symbol
_atom_site_label
_atom_site_fract_x
_atom_site_fract_y
_atom_site_fract_z
Si Si1 0.882425 0.846902 0.440882
Si Si2 0.008841 0.126244 0.572655
Si Si3 0.833488 0.003383 0.690840
Si Si4 0.950358 0.652140 0.998849
Si Si5 0.215586 0.152160 0.061290
Si Si6 0.000000 0.502688 0.750000
Si Si7 0.840557 0.626651 0.019829
Si Si8 0.177581 0.375575 0.627150
O O1 0.938229 0.828611 0.458343
O O2 0.864068 0.916971 0.587041
O O3 0.860816 0.716261 0.436159
O O4 0.870368 0.918382 0.287310
O O5 0.000000 0.118204 0.750000
O O6 0.973362 0.218258 0.492921
O O7 0.000000 0.000000 0.500000
O O8 0.799879 0.090917 0.596090
O O9 0.798979 0.927943 0.796609
O O10 0.963630 0.583166 0.845003
O O11 0.967802 0.580031 0.145229
O O12 0.894379 0.672025 0.012148
O O13 0.191869 0.281134 0.073494
O O14 0.271928 0.168344 0.063998
O O15 0.821785 0.618277 0.191137
O O16 0.836420 0.501904 0.938040
#
# Coordination Sequence:
#
# PCOD8248167 Si02
#       8
#     8   8   8   8   8   4   8   8
#     4  11  25  45  69 100 136 182 227 285 341 409
#     4  12  27  44  70 100 140 179 231 281 344 409
#     4  10  24  45  72  94 139 179 230 280 345 401
#     4  11  25  46  70 101 140 181 231 284 343 405
#     4  11  26  45  70  99 137 179 228 284 340 406
#     4  10  24  44  74  96 140 184 230 282 344 404
#     4  12  28  46  71 103 140 183 230 284 342 414
#     4  12  28  44  71 100 141 177 235 275 351 405
#
# _framework density 21.563917
#
# number of rings (size 3 to 8) (size 9 to 14) (size 15 to 20)
#    0.000    0.800    2.000    3.200   15.867    1.067 
#    0.000    0.000    0.000    0.000    0.000    0.000 
#    0.000    0.000    0.000    0.000    0.000    0.000 
#
# Total GULP energy -744568.782270 kJ/mol
# GULP energy per Si atom -12409.479705 kJ/mol
# Density = 2.151484 g / cm^3
# Si number density = 21.563917 Si / 1000 Ang^3
#
#
#
# Elastic Constant Matrix: (Units=GPa)
#
#
# Indices 1 2 3 4 5 6 
#
# 1 122.2631 39.8172 13.3099 0.0000 0.0000 0.0000
# 2 39.8172 163.7877 32.8055 0.0000 0.0000 0.0000
# 3 13.3099 32.8055 78.9261 0.0000 0.0000 0.0000
# 4 0.0000 0.0000 0.0000 51.0538 0.0000 0.0000
# 5 0.0000 0.0000 0.0000 0.0000 16.1055 0.0000
# 6 0.0000 0.0000 0.0000 0.0000 0.0000 43.9154
#
#
#
# Elastic Compliance Matrix: (Units=1/GPa)
#
#
# Indices 1 2 3 4 5 6 
#
# 1 0.008913 -0.002035 -0.000657 0.000000 0.000000 0.000000
# 2 -0.002035 0.007125 -0.002618 0.000000 0.000000 0.000000
# 3 -0.000657 -0.002618 0.013869 0.000000 0.000000 0.000000
# 4 0.000000 0.000000 0.000000 0.019587 0.000000 0.000000
# 5 0.000000 0.000000 0.000000 0.000000 0.062091 0.000000
# 6 0.000000 0.000000 0.000000 0.000000 0.000000 0.022771
#
#
# Mechanical properties :
#
#
# Convention : Reuss Voigt Hill
#
# Bulk Modulus (GPa) = 51.85091 59.64912 55.75001
# Shear Modulus (GPa) = 33.02380 40.81788 36.92084
#
# Velocity S-wave (km/s) = 3.91760 4.35544 4.14231
# Velocity P-wave (km/s) = 6.67540 7.28112 6.98483
#
# Compressibility (1/GPa) = 0.01928607
#
# Stress axis : x y z
#
# Youngs Moduli (GPa) = 112.19007 140.35813 72.10261
#
# Poissons Ratio (x) = 0.28566 0.04739
# Poissons Ratio (y) = 0.22833 0.18877
# Poissons Ratio (z) = 0.07373 0.36748
#
# Static dielectric constant tensor:
#      x y z
#    x 4.059060 0.000000 0.000000 
#    y 0.000000 4.276250 0.000000 
#    z 0.000000 0.000000 4.192860 
# 
# 
# High freq. dielectric constant tensor:
#      x y z
#    x 1.857640 0.000000 0.000000 
#    y 0.000000 1.865750 0.000000 
#    z 0.000000 0.000000 1.858700 
# 
# From -- ./inp_files/8192.got.cif
#   From: 2010.03.12/outbox.cif.g09.slc.cpg/sg60_5_cif.got.tgz:8192.got - 2010.04.10 18:46:24.
