data_PCOD8248945
_publ_section_title
;
Structure prediction by ZEFSAII (Michael W. Deem and Ramdas Pophale) SiO2 
 PCOD8248945
Probable space group: P B C A
;
_chemical_formula_sum "Si O2"
_cell_formula_units_Z 64
_cell_length_a 18.916568
_cell_length_b 17.114117
_cell_length_c 9.980845
_cell_angle_alpha 90.000000
_cell_angle_beta 90.000000
_cell_angle_gamma 90.000000
_cell_volume 3231.202333
_symmetry_space_group_name_H-M "P B C A"
_symmetry_group_IT_number 61
_symmetry_cell_setting 'orthorhombic'
loop_
_space_group_symop_operation_xyz
x,y,z
1/2-x,-y,1/2+z
1/2+x,1/2-y,-z
-x,1/2+y,1/2-z
-x,-y,-z
1/2+x,y,1/2-z
1/2-x,1/2+y,z
x,1/2-y,1/2+z
loop_
_atom_site_type_symbol
_atom_site_label
_atom_site_fract_x
_atom_site_fract_y
_atom_site_fract_z
Si Si1 0.142197 0.625458 0.791251
Si Si2 0.992017 0.677554 0.776411
Si Si3 0.739046 0.377009 0.013363
Si Si4 0.866028 0.086444 0.153860
Si Si5 0.776024 0.457548 0.420559
Si Si6 0.355815 0.583857 0.750064
Si Si7 0.333124 0.218448 0.139996
Si Si8 0.456796 0.292693 0.986943
O O1 0.184720 0.600522 0.922409
O O2 0.159086 0.564748 0.674428
O O3 0.169846 0.711162 0.744435
O O4 0.058429 0.622823 0.815050
O O5 0.919904 0.633500 0.809983
O O6 0.995091 0.698636 0.618886
O O7 0.996616 0.755066 0.868191
O O8 0.679016 0.367466 0.126353
O O9 0.721507 0.448829 0.916882
O O10 0.755451 0.298073 0.927363
O O11 0.855048 0.140122 0.282713
O O12 0.928717 0.122920 0.062800
O O13 0.886512 0.999289 0.200996
O O14 0.793056 0.078216 0.067641
O O15 0.701519 0.425057 0.367647
O O16 0.389447 0.237324 0.021707
#
# Coordination Sequence:
#
# PCOD8248945 Si02
#       8
#     8   8   8   8   8   8   8   8
#     4  10  20  35  63  86 109 164 215 240 294 374
#     4  11  22  42  64  90 126 166 210 260 307 373
#     4  10  20  38  59  88 122 156 202 258 309 363
#     4  11  19  37  66  93 117 168 213 257 302 386
#     4  10  20  39  59  87 125 157 203 254 317 367
#     4  10  24  39  60  93 131 157 196 275 327 358
#     4  11  18  35  65  95 109 159 221 258 287 372
#     4  11  21  39  69  91 119 170 222 250 298 384
#
# _framework density 19.806868999999999
#
# number of rings (size 3 to 8) (size 9 to 14) (size 15 to 20)
#    0.000    1.500    7.500    0.000    0.000    0.500 
#    4.500    2.500    0.000    0.000    0.000    0.000 
#    0.000    0.000    0.000    0.000    0.000    0.000 
#
# Total GULP energy -793249.707899 kJ/mol
# GULP energy per Si atom -12394.526686 kJ/mol
# Density = 1.976179 g / cm^3
# Si number density = 19.806869 Si / 1000 Ang^3
#
#
#
# Elastic Constant Matrix: (Units=GPa)
#
#
# Indices 1 2 3 4 5 6 
#
# 1 77.6440 27.7273 8.6744 0.0000 0.0000 0.0000
# 2 27.7273 60.0341 17.8358 0.0000 0.0000 0.0000
# 3 8.6744 17.8358 63.7672 0.0000 0.0000 0.0000
# 4 0.0000 0.0000 0.0000 34.9823 0.0000 0.0000
# 5 0.0000 0.0000 0.0000 0.0000 25.5348 0.0000
# 6 0.0000 0.0000 0.0000 0.0000 0.0000 27.1140
#
#
#
# Elastic Compliance Matrix: (Units=1/GPa)
#
#
# Indices 1 2 3 4 5 6 
#
# 1 0.015424 -0.007089 -0.000115 0.000000 0.000000 0.000000
# 2 -0.007089 0.021425 -0.005028 0.000000 0.000000 0.000000
# 3 -0.000115 -0.005028 0.017104 0.000000 0.000000 0.000000
# 4 0.000000 0.000000 0.000000 0.028586 0.000000 0.000000
# 5 0.000000 0.000000 0.000000 0.000000 0.039162 0.000000
# 6 0.000000 0.000000 0.000000 0.000000 0.000000 0.036881
#
#
# Mechanical properties :
#
#
# Convention : Reuss Voigt Hill
#
# Bulk Modulus (GPa) = 33.91270 34.43558 34.17414
# Shear Modulus (GPa) = 25.92314 27.34007 26.63160
#
# Velocity S-wave (km/s) = 3.62165 3.71931 3.67081
# Velocity P-wave (km/s) = 5.88620 5.98897 5.93781
#
# Compressibility (1/GPa) = 0.02948747
#
# Stress axis : x y z
#
# Youngs Moduli (GPa) = 64.83472 46.67366 58.46532
#
# Poissons Ratio (x) = 0.33089 0.00674
# Poissons Ratio (y) = 0.45964 0.29398
# Poissons Ratio (z) = 0.00747 0.23469
#
# Static dielectric constant tensor:
#      x y z
#    x 3.361040 0.000000 0.000000 
#    y 0.000000 3.626460 0.000000 
#    z 0.000000 0.000000 3.812530 
# 
# 
# High freq. dielectric constant tensor:
#      x y z
#    x 1.740260 0.000000 0.000000 
#    y 0.000000 1.761470 0.000000 
#    z 0.000000 0.000000 1.787370 
# 
# From -- ./inp_files/6361.got.cif
#   From: 2010.03.12/outbox.cif.g09.slc.cpg/sg61_4_cif.got.tgz:6361.got - 2010.04.10 19:05:03.
