data_PCOD8248651
_publ_section_title
;
Structure prediction by ZEFSAII (Michael W. Deem and Ramdas Pophale) SiO2 
 PCOD8248651
Probable space group: P B C N
;
_chemical_formula_sum "Si O2"
_cell_formula_units_Z 36
_cell_length_a 8.522089
_cell_length_b 17.682875
_cell_length_c 9.732614
_cell_angle_alpha 90.000000
_cell_angle_beta 90.000000
_cell_angle_gamma 90.000000
_cell_volume 1466.656603
_symmetry_space_group_name_H-M "P B C N"
_symmetry_group_IT_number 60
_symmetry_cell_setting 'orthorhombic'
loop_
_space_group_symop_operation_xyz
x,y,z
1/2-x,1/2-y,1/2+z
1/2+x,1/2-y,-z
-x,y,1/2-z
-x,-y,-z
1/2+x,1/2+y,1/2-z
1/2-x,1/2+y,z
x,-y,1/2+z
loop_
_atom_site_type_symbol
_atom_site_label
_atom_site_fract_x
_atom_site_fract_y
_atom_site_fract_z
Si Si1 0.398803 0.212857 0.874014
Si Si2 0.265162 0.002108 0.081643
Si Si3 0.819223 0.655228 0.045814
Si Si4 0.340463 0.417038 0.319505
Si Si5 0.500000 0.079349 0.250000
O O1 0.500000 0.248936 0.750000
O O2 0.302298 0.276443 0.954598
O O3 0.287553 0.149295 0.805253
O O4 0.512428 0.177797 0.986058
O O5 0.443848 0.031022 0.114467
O O6 0.197160 0.994929 0.237042
O O7 0.163315 0.056912 0.981353
O O8 0.249225 0.915659 0.034598
O O9 0.853877 0.630738 0.202900
O O10 0.500000 0.384934 0.250000
#
# Coordination Sequence:
#
# PCOD8248651 Si02
#       5
#     8   8   8   8   4
#     4  12  29  49  74 110 154 204 254 314 393 465
#     4  12  24  49  79 112 149 197 264 314 389 453
#     4  12  28  47  77 108 153 198 253 312 381 461
#     4  12  27  48  77 113 158 198 255 324 388 461
#     4  12  24  46  80 112 146 200 256 324 378 462
#
# _framework density 24.54562
#
# number of rings (size 3 to 8) (size 9 to 14) (size 15 to 20)
#    0.000    0.000    6.667    2.667    7.778    0.889 
#    0.000    0.000    0.000    0.000    0.000    0.000 
#    0.000    0.000    0.000    0.000    0.000    0.000 
#
# Total GULP energy -446073.848021 kJ/mol
# GULP energy per Si atom -12390.940223 kJ/mol
# Density = 2.448975 g / cm^3
# Si number density = 24.545620 Si / 1000 Ang^3
#
#
#
# Elastic Constant Matrix: (Units=GPa)
#
#
# Indices 1 2 3 4 5 6 
#
# 1 130.2118 51.2555 39.2331 0.0000 0.0000 0.0000
# 2 51.2555 79.4824 25.1618 0.0000 0.0000 0.0000
# 3 39.2331 25.1618 106.2740 0.0000 0.0000 0.0000
# 4 0.0000 0.0000 0.0000 29.9552 0.0000 0.0000
# 5 0.0000 0.0000 0.0000 0.0000 55.4363 0.0000
# 6 0.0000 0.0000 0.0000 0.0000 0.0000 32.9616
#
#
#
# Elastic Compliance Matrix: (Units=1/GPa)
#
#
# Indices 1 2 3 4 5 6 
#
# 1 0.010896 -0.006219 -0.002550 0.000000 0.000000 0.000000
# 2 -0.006219 0.017151 -0.001765 0.000000 0.000000 0.000000
# 3 -0.002550 -0.001765 0.010769 0.000000 0.000000 0.000000
# 4 0.000000 0.000000 0.000000 0.033383 0.000000 0.000000
# 5 0.000000 0.000000 0.000000 0.000000 0.018039 0.000000
# 6 0.000000 0.000000 0.000000 0.000000 0.000000 0.030338
#
#
# Mechanical properties :
#
#
# Convention : Reuss Voigt Hill
#
# Bulk Modulus (GPa) = 56.34543 60.80766 58.57654
# Shear Modulus (GPa) = 33.88449 37.02512 35.45480
#
# Velocity S-wave (km/s) = 3.71950 3.88805 3.80471
# Velocity P-wave (km/s) = 6.43828 6.70694 6.57398
#
# Compressibility (1/GPa) = 0.01774767
#
# Stress axis : x y z
#
# Youngs Moduli (GPa) = 91.77452 58.30669 92.86042
#
# Poissons Ratio (x) = 0.36263 0.23680
# Poissons Ratio (y) = 0.57078 0.16387
# Poissons Ratio (z) = 0.23403 0.10289
#
# Static dielectric constant tensor:
#      x y z
#    x 4.333150 0.000000 0.000000 
#    y 0.000000 4.186550 0.000000 
#    z 0.000000 0.000000 4.724740 
# 
# 
# High freq. dielectric constant tensor:
#      x y z
#    x 1.968620 0.000000 0.000000 
#    y 0.000000 1.965410 0.000000 
#    z 0.000000 0.000000 2.000270 
# 
# From -- ./inp_files/9713.got.cif
#   From: 2010.03.12/outbox.cif.g09.slc.cpg/sg60_5_cif.got.tgz:9713.got - 2010.04.10 18:46:24.
