data_PCOD8248235
_publ_section_title
;
Structure prediction by ZEFSAII (Michael W. Deem and Ramdas Pophale) SiO2 
 PCOD8248235
Probable space group: P B C N
;
_chemical_formula_sum "Si O2"
_cell_formula_units_Z 28
_cell_length_a 20.741770
_cell_length_b 5.052126
_cell_length_c 9.518719
_cell_angle_alpha 90.000000
_cell_angle_beta 90.000000
_cell_angle_gamma 90.000000
_cell_volume 997.466902
_symmetry_space_group_name_H-M "P B C N"
_symmetry_group_IT_number 60
_symmetry_cell_setting 'orthorhombic'
loop_
_space_group_symop_operation_xyz
x,y,z
1/2-x,1/2-y,1/2+z
1/2+x,1/2-y,-z
-x,y,1/2-z
-x,-y,-z
1/2+x,1/2+y,1/2-z
1/2-x,1/2+y,z
x,-y,1/2+z
loop_
_atom_site_type_symbol
_atom_site_label
_atom_site_fract_x
_atom_site_fract_y
_atom_site_fract_z
Si Si1 0.616483 0.308751 0.221320
Si Si2 0.000000 0.817567 0.750000
Si Si3 0.208708 0.933970 0.498248
Si Si4 0.096449 0.588036 0.555588
O O1 0.559030 0.511371 0.193478
O O2 0.685593 0.418267 0.166028
O O3 0.622277 0.185909 0.377096
O O4 0.597177 0.061571 0.113784
O O5 0.025547 0.644201 0.618422
O O6 0.267087 0.729239 0.527896
O O7 0.146178 0.839077 0.593781
#
# Coordination Sequence:
#
# PCOD8248235 Si02
#       4
#     8   4   8   8
#     4  10  26  45  74 106 147 192 247 309 374 437
#     4  12  24  44  72 108 150 188 254 304 372 448
#     4  10  26  49  77 109 151 196 252 306 374 448
#     4  10  26  45  74 106 147 192 247 309 374 437
#
# _framework density 28.071106
#
# number of rings (size 3 to 8) (size 9 to 14) (size 15 to 20)
#    1.714    0.000    0.000    1.714    8.000    9.143 
#    0.000    0.000    0.000    0.000    0.000    0.000 
#    0.000    0.000    0.000    0.000    0.000    0.000 
#
# Total GULP energy -346970.606026 kJ/mol
# GULP energy per Si atom -12391.807358 kJ/mol
# Density = 2.800721 g / cm^3
# Si number density = 28.071106 Si / 1000 Ang^3
#
#
#
# Elastic Constant Matrix: (Units=GPa)
#
#
# Indices 1 2 3 4 5 6 
#
# 1 106.3097 22.5040 -25.4123 0.0000 0.0000 0.0000
# 2 22.5040 54.8211 11.3254 0.0000 0.0000 0.0000
# 3 -25.4123 11.3254 22.3938 0.0000 0.0000 0.0000
# 4 0.0000 0.0000 0.0000 1.3942 0.0000 0.0000
# 5 0.0000 0.0000 0.0000 0.0000 45.4190 0.0000
# 6 0.0000 0.0000 0.0000 0.0000 0.0000 45.7145
#
#
#
# Elastic Compliance Matrix: (Units=1/GPa)
#
#
# Indices 1 2 3 4 5 6 
#
# 1 0.019227 -0.013847 0.028822 0.000000 0.000000 0.000000
# 2 -0.013847 0.030342 -0.031059 0.000000 0.000000 0.000000
# 3 0.028822 -0.031059 0.093070 0.000000 0.000000 0.000000
# 4 0.000000 0.000000 0.000000 0.717267 0.000000 0.000000
# 5 0.000000 0.000000 0.000000 0.000000 0.022017 0.000000
# 6 0.000000 0.000000 0.000000 0.000000 0.000000 0.021875
#
#
# Mechanical properties :
#
#
# Convention : Reuss Voigt Hill
#
# Bulk Modulus (GPa) = 9.05207 22.26207 15.65707
# Shear Modulus (GPa) = 5.13986 30.17939 17.65962
#
# Velocity S-wave (km/s) = 1.35462 3.28244 2.51091
# Velocity P-wave (km/s) = 2.38293 4.72373 3.74112
#
# Compressibility (1/GPa) = 0.11047195
#
# Stress axis : x y z
#
# Youngs Moduli (GPa) = 52.00928 32.95792 10.74458
#
# Poissons Ratio (x) = 0.45637 -0.30968
# Poissons Ratio (y) = 0.72018 0.33371
# Poissons Ratio (z) = -1.49902 1.02363
#
# Static dielectric constant tensor:
#      x y z
#    x 5.047030 0.000000 0.000000 
#    y 0.000000 4.703770 0.000000 
#    z 0.000000 0.000000 5.013390 
# 
# 
# High freq. dielectric constant tensor:
#      x y z
#    x 2.150890 0.000000 0.000000 
#    y 0.000000 2.135200 0.000000 
#    z 0.000000 0.000000 2.122080 
# 
# From -- ./inp_files/2981.got.cif
#   From: 2010.03.12/outbox.cif.g09.slc.cpg/sg60_2_cif.got.tgz:2981.got - 2010.04.10 18:46:24.
