data_PCOD8248179
_publ_section_title
;
Structure prediction by ZEFSAII (Michael W. Deem and Ramdas Pophale) SiO2 
 PCOD8248179
Probable space group: P B C N
;
_chemical_formula_sum "Si O2"
_cell_formula_units_Z 40
_cell_length_a 9.850332
_cell_length_b 17.116433
_cell_length_c 10.183356
_cell_angle_alpha 90.000000
_cell_angle_beta 90.000000
_cell_angle_gamma 90.000000
_cell_volume 1716.939766
_symmetry_space_group_name_H-M "P B C N"
_symmetry_group_IT_number 60
_symmetry_cell_setting 'orthorhombic'
loop_
_space_group_symop_operation_xyz
x,y,z
1/2-x,1/2-y,1/2+z
1/2+x,1/2-y,-z
-x,y,1/2-z
-x,-y,-z
1/2+x,1/2+y,1/2-z
1/2-x,1/2+y,z
x,-y,1/2+z
loop_
_atom_site_type_symbol
_atom_site_label
_atom_site_fract_x
_atom_site_fract_y
_atom_site_fract_z
Si Si1 0.666443 0.853928 0.082768
Si Si2 0.411670 0.081254 0.452374
Si Si3 0.318171 0.983901 0.211809
Si Si4 0.335222 0.326503 0.873944
Si Si5 0.374867 0.604720 0.116883
O O1 0.554930 0.877259 0.973877
O O2 0.670925 0.897453 0.224306
O O3 0.637372 0.763293 0.100061
O O4 0.812404 0.876313 0.024343
O O5 0.397094 0.018428 0.571842
O O6 0.289448 0.144344 0.463394
O O7 0.397766 0.040780 0.310969
O O8 0.168171 0.018200 0.174921
O O9 0.463809 0.384646 0.899673
O O10 0.309202 0.332711 0.718016
#
# Coordination Sequence:
#
# PCOD8248179 Si02
#       5
#     8   8   8   8   8
#     4  12  24  41  75  99 137 181 245 284 350 413
#     4  11  25  44  72 100 143 180 236 289 350 418
#     4  11  24  43  70 104 136 184 233 292 342 412
#     4  10  25  45  69  97 143 187 224 294 359 412
#     4  10  24  46  64 101 141 180 238 286 349 420
#
# _framework density 23.297264999999999
#
# number of rings (size 3 to 8) (size 9 to 14) (size 15 to 20)
#    0.000    1.200    2.000    2.400   11.200    3.200 
#    7.200    0.000    0.000    0.000    0.000    0.000 
#    0.000    0.000    0.000    0.000    0.000    0.000 
#
# Total GULP energy -495650.370262 kJ/mol
# GULP energy per Si atom -12391.259257 kJ/mol
# Density = 2.324424 g / cm^3
# Si number density = 23.297265 Si / 1000 Ang^3
#
#
#
# Elastic Constant Matrix: (Units=GPa)
#
#
# Indices 1 2 3 4 5 6 
#
# 1 100.7909 50.9328 25.0242 0.0000 0.0000 0.0000
# 2 50.9328 122.4815 23.2388 0.0000 0.0000 0.0000
# 3 25.0242 23.2388 108.1177 0.0000 0.0000 0.0000
# 4 0.0000 0.0000 0.0000 27.7890 0.0000 0.0000
# 5 0.0000 0.0000 0.0000 0.0000 27.3506 0.0000
# 6 0.0000 0.0000 0.0000 0.0000 0.0000 31.1689
#
#
#
# Elastic Compliance Matrix: (Units=1/GPa)
#
#
# Indices 1 2 3 4 5 6 
#
# 1 0.012931 -0.005014 -0.001915 0.000000 0.000000 0.000000
# 2 -0.005014 0.010456 -0.001087 0.000000 0.000000 0.000000
# 3 -0.001915 -0.001087 0.009926 0.000000 0.000000 0.000000
# 4 0.000000 0.000000 0.000000 0.035986 0.000000 0.000000
# 5 0.000000 0.000000 0.000000 0.000000 0.036562 0.000000
# 6 0.000000 0.000000 0.000000 0.000000 0.000000 0.032083
#
#
# Mechanical properties :
#
#
# Convention : Reuss Voigt Hill
#
# Bulk Modulus (GPa) = 57.86791 58.86465 58.36628
# Shear Modulus (GPa) = 31.30181 32.74130 32.02155
#
# Velocity S-wave (km/s) = 3.66947 3.75289 3.71142
# Velocity P-wave (km/s) = 6.54570 6.64083 6.59343
#
# Compressibility (1/GPa) = 0.01728074
#
# Stress axis : x y z
#
# Youngs Moduli (GPa) = 77.33586 95.64227 100.74481
#
# Poissons Ratio (x) = 0.47952 0.19294
# Poissons Ratio (y) = 0.38774 0.10950
# Poissons Ratio (z) = 0.14811 0.10395
#
# Static dielectric constant tensor:
#      x y z
#    x 4.347320 0.000000 0.000000 
#    y 0.000000 4.212370 0.000000 
#    z 0.000000 0.000000 4.402180 
# 
# 
# High freq. dielectric constant tensor:
#      x y z
#    x 1.927140 0.000000 0.000000 
#    y 0.000000 1.914320 0.000000 
#    z 0.000000 0.000000 1.931670 
# 
# From -- ./inp_files/9791.got.cif
#   From: 2010.03.12/outbox.cif.g09.slc.cpg/sg60_5_cif.got.tgz:9791.got - 2010.04.10 18:46:24.
