data_PCOD8248078
_publ_section_title
;
Structure prediction by ZEFSAII (Michael W. Deem and Ramdas Pophale) SiO2 
 PCOD8248078
Probable space group: P B C N
;
_chemical_formula_sum "Si O2"
_cell_formula_units_Z 48
_cell_length_a 11.077174
_cell_length_b 16.818985
_cell_length_c 11.893020
_cell_angle_alpha 90.000000
_cell_angle_beta 90.000000
_cell_angle_gamma 90.000000
_cell_volume 2215.750776
_symmetry_space_group_name_H-M "P B C N"
_symmetry_group_IT_number 60
_symmetry_cell_setting 'orthorhombic'
loop_
_space_group_symop_operation_xyz
x,y,z
1/2-x,1/2-y,1/2+z
1/2+x,1/2-y,-z
-x,y,1/2-z
-x,-y,-z
1/2+x,1/2+y,1/2-z
1/2-x,1/2+y,z
x,-y,1/2+z
loop_
_atom_site_type_symbol
_atom_site_label
_atom_site_fract_x
_atom_site_fract_y
_atom_site_fract_z
Si Si1 0.307606 0.638026 0.559067
Si Si2 0.500000 0.199274 0.250000
Si Si3 0.570976 0.664127 0.589221
Si Si4 0.000000 0.654083 0.750000
Si Si5 0.839989 0.226351 0.364919
Si Si6 0.737863 0.064747 0.729262
Si Si7 0.735680 0.881720 0.690964
O O1 0.449507 0.618310 0.551466
O O2 0.283172 0.721490 0.625685
O O3 0.248648 0.568174 0.634896
O O4 0.242390 0.644532 0.438801
O O5 0.472490 0.252821 0.358580
O O6 0.386896 0.139424 0.243059
O O7 0.648185 0.676323 0.477857
O O8 0.651760 0.615120 0.676669
O O9 0.050852 0.710665 0.650866
O O10 0.106722 0.600385 0.804756
O O11 0.838598 0.166383 0.258895
O O12 0.754761 0.975486 0.689798
#
# Coordination Sequence:
#
# PCOD8248078 Si02
#       7
#     8   4   8   4   8   8   8
#     4  11  24  45  69 101 136 187 236 280 349 427
#     4  12  21  44  73 100 132 186 240 282 339 430
#     4  12  23  45  74  97 139 189 230 293 353 416
#     4  10  23  48  65 102 140 178 238 292 347 412
#     4  11  24  42  74 101 130 179 242 287 335 420
#     4  11  26  45  68 102 149 181 224 299 365 415
#     4  12  26  45  70 108 139 182 239 288 361 422
#
# _framework density 21.663087000000001
#
# number of rings (size 3 to 8) (size 9 to 14) (size 15 to 20)
#    0.000    0.667    5.000    2.500    4.667    0.667 
#    6.000    2.500    0.000    0.000    0.000    0.000 
#    0.000    0.000    0.000    0.000    0.000    0.000 
#
# Total GULP energy -595085.197228 kJ/mol
# GULP energy per Si atom -12397.608276 kJ/mol
# Density = 2.161378 g / cm^3
# Si number density = 21.663087 Si / 1000 Ang^3
#
#
#
# Elastic Constant Matrix: (Units=GPa)
#
#
# Indices 1 2 3 4 5 6 
#
# 1 129.6415 44.6359 21.9999 0.0000 0.0000 0.0000
# 2 44.6359 108.4131 39.3307 0.0000 0.0000 0.0000
# 3 21.9999 39.3307 124.5496 0.0000 0.0000 0.0000
# 4 0.0000 0.0000 0.0000 25.3638 0.0000 0.0000
# 5 0.0000 0.0000 0.0000 0.0000 32.3720 0.0000
# 6 0.0000 0.0000 0.0000 0.0000 0.0000 26.9728
#
#
#
# Elastic Compliance Matrix: (Units=1/GPa)
#
#
# Indices 1 2 3 4 5 6 
#
# 1 0.009012 -0.003538 -0.000475 0.000000 0.000000 0.000000
# 2 -0.003538 0.011807 -0.003103 0.000000 0.000000 0.000000
# 3 -0.000475 -0.003103 0.009093 0.000000 0.000000 0.000000
# 4 0.000000 0.000000 0.000000 0.039426 0.000000 0.000000
# 5 0.000000 0.000000 0.000000 0.000000 0.030891 0.000000
# 6 0.000000 0.000000 0.000000 0.000000 0.000000 0.037074
#
#
# Mechanical properties :
#
#
# Convention : Reuss Voigt Hill
#
# Bulk Modulus (GPa) = 63.77879 63.83746 63.80813
# Shear Modulus (GPa) = 31.89542 34.05090 32.97316
#
# Velocity S-wave (km/s) = 3.84127 3.96894 3.90563
# Velocity P-wave (km/s) = 7.01277 7.10884 7.06097
#
# Compressibility (1/GPa) = 0.01567919
#
# Stress axis : x y z
#
# Youngs Moduli (GPa) = 110.95824 84.69793 109.97796
#
# Poissons Ratio (x) = 0.29970 0.05219
# Poissons Ratio (y) = 0.39262 0.34130
# Poissons Ratio (z) = 0.05265 0.26285
#
# Static dielectric constant tensor:
#      x y z
#    x 4.067690 0.000000 0.000000 
#    y 0.000000 3.777940 0.000000 
#    z 0.000000 0.000000 3.794840 
# 
# 
# High freq. dielectric constant tensor:
#      x y z
#    x 1.862210 0.000000 0.000000 
#    y 0.000000 1.835740 0.000000 
#    z 0.000000 0.000000 1.850110 
# 
# From -- ./inp_files/11065.got.cif
#   From: 2010.03.12/outbox.cif.g09.slc.cpg/sg60_6_cif.got.tgz:11065.got - 2010.04.10 18:46:24.
