data_PCOD8248328
_publ_section_title
;
Structure prediction by ZEFSAII (Michael W. Deem and Ramdas Pophale) SiO2 
 PCOD8248328
Probable space group: P B C N
;
_chemical_formula_sum "Si O2"
_cell_formula_units_Z 48
_cell_length_a 11.313513
_cell_length_b 14.432480
_cell_length_c 14.845465
_cell_angle_alpha 90.000000
_cell_angle_beta 90.000000
_cell_angle_gamma 90.000000
_cell_volume 2423.997960
_symmetry_space_group_name_H-M "P B C N"
_symmetry_group_IT_number 60
_symmetry_cell_setting 'orthorhombic'
loop_
_space_group_symop_operation_xyz
x,y,z
1/2-x,1/2-y,1/2+z
1/2+x,1/2-y,-z
-x,y,1/2-z
-x,-y,-z
1/2+x,1/2+y,1/2-z
1/2-x,1/2+y,z
x,-y,1/2+z
loop_
_atom_site_type_symbol
_atom_site_label
_atom_site_fract_x
_atom_site_fract_y
_atom_site_fract_z
Si Si1 0.893353 0.569374 0.989810
Si Si2 0.499487 0.448707 0.594482
Si Si3 0.309972 0.785662 0.271159
Si Si4 0.230053 0.033860 0.680844
Si Si5 0.525471 0.761331 0.391443
Si Si6 0.250797 0.091875 0.332438
O O1 0.806840 0.542540 0.908733
O O2 0.939564 0.673182 0.974059
O O3 0.826073 0.564510 0.082564
O O4 0.000000 0.500000 0.000000
O O5 0.500000 0.500000 0.500000
O O6 0.399739 0.496189 0.656289
O O7 0.486236 0.340812 0.568286
O O8 0.619825 0.450372 0.651651
O O9 0.226681 0.871482 0.241348
O O10 0.409638 0.808860 0.346195
O O11 0.372490 0.749188 0.181719
O O12 0.236160 0.701422 0.314207
O O13 0.297863 0.959316 0.743141
#
# Coordination Sequence:
#
# PCOD8248328 Si02
#       6
#     8   8   8   8   8   8
#     4  11  24  42  62  94 129 176 216 259 315 390
#     4  11  21  40  65  98 126 166 211 272 326 385
#     4   9  19  37  64  87 119 174 204 263 322 381
#     4  11  22  41  66  93 129 164 218 264 322 385
#     4   9  19  39  61  88 128 164 217 257 320 384
#     4  11  22  40  66  94 130 165 214 265 330 380
#
# _framework density 19.801995000000002
#
# number of rings (size 3 to 8) (size 9 to 14) (size 15 to 20)
#    0.000    1.667    3.333    1.500    0.000    3.333 
#    9.000    0.000    0.000    0.000    0.000    0.000 
#    0.000    0.000    0.000    0.000    0.000    0.000 
#
# Total GULP energy -594866.457856 kJ/mol
# GULP energy per Si atom -12393.051205 kJ/mol
# Density = 1.975693 g / cm^3
# Si number density = 19.801995 Si / 1000 Ang^3
#
#
#
# Elastic Constant Matrix: (Units=GPa)
#
#
# Indices 1 2 3 4 5 6 
#
# 1 81.3766 61.6196 38.5926 0.0000 0.0000 0.0000
# 2 61.6196 110.4359 49.6497 0.0000 0.0000 0.0000
# 3 38.5926 49.6497 110.1386 0.0000 0.0000 0.0000
# 4 0.0000 0.0000 0.0000 44.6538 0.0000 0.0000
# 5 0.0000 0.0000 0.0000 0.0000 20.3195 0.0000
# 6 0.0000 0.0000 0.0000 0.0000 0.0000 35.1124
#
#
#
# Elastic Compliance Matrix: (Units=1/GPa)
#
#
# Indices 1 2 3 4 5 6 
#
# 1 0.021908 -0.011003 -0.002717 0.000000 0.000000 0.000000
# 2 -0.011003 0.016882 -0.003755 0.000000 0.000000 0.000000
# 3 -0.002717 -0.003755 0.011724 0.000000 0.000000 0.000000
# 4 0.000000 0.000000 0.000000 0.022395 0.000000 0.000000
# 5 0.000000 0.000000 0.000000 0.000000 0.049214 0.000000
# 6 0.000000 0.000000 0.000000 0.000000 0.000000 0.028480
#
#
# Mechanical properties :
#
#
# Convention : Reuss Voigt Hill
#
# Bulk Modulus (GPa) = 64.24345 66.85277 65.54811
# Shear Modulus (GPa) = 26.21354 30.15642 28.18498
#
# Velocity S-wave (km/s) = 3.64233 3.90667 3.77681
# Velocity P-wave (km/s) = 7.08534 7.36093 7.22445
#
# Compressibility (1/GPa) = 0.01556579
#
# Stress axis : x y z
#
# Youngs Moduli (GPa) = 45.64455 59.23310 85.29375
#
# Poissons Ratio (x) = 0.65173 0.23172
# Poissons Ratio (y) = 0.50222 0.32029
# Poissons Ratio (z) = 0.12400 0.22243
#
# Static dielectric constant tensor:
#      x y z
#    x 4.303130 0.000000 0.000000 
#    y 0.000000 3.763390 0.000000 
#    z 0.000000 0.000000 3.515300 
# 
# 
# High freq. dielectric constant tensor:
#      x y z
#    x 1.753760 0.000000 0.000000 
#    y 0.000000 1.781900 0.000000 
#    z 0.000000 0.000000 1.784070 
# 
# From -- ./inp_files/16078.got.cif
#   From: 2010.03.12/outbox.cif.g09.slc.cpg/sg60_9_cif.got.tgz:16078.got - 2010.04.10 18:46:24.
