data_PCOD8248500
_publ_section_title
;
Structure prediction by ZEFSAII (Michael W. Deem and Ramdas Pophale) SiO2 
 PCOD8248500
Probable space group: P B C N
;
_chemical_formula_sum "Si O2"
_cell_formula_units_Z 52
_cell_length_a 14.807816
_cell_length_b 17.599948
_cell_length_c 9.432849
_cell_angle_alpha 90.000000
_cell_angle_beta 90.000000
_cell_angle_gamma 90.000000
_cell_volume 2458.358842
_symmetry_space_group_name_H-M "P B C N"
_symmetry_group_IT_number 60
_symmetry_cell_setting 'orthorhombic'
loop_
_space_group_symop_operation_xyz
x,y,z
1/2-x,1/2-y,1/2+z
1/2+x,1/2-y,-z
-x,y,1/2-z
-x,-y,-z
1/2+x,1/2+y,1/2-z
1/2-x,1/2+y,z
x,-y,1/2+z
loop_
_atom_site_type_symbol
_atom_site_label
_atom_site_fract_x
_atom_site_fract_y
_atom_site_fract_z
Si Si1 0.386847 0.381667 0.995018
Si Si2 0.500000 0.165267 0.750000
Si Si3 0.160740 0.790386 0.267869
Si Si4 0.688931 0.909119 0.212904
Si Si5 0.782284 0.156792 0.272994
Si Si6 0.553931 0.708505 0.450751
Si Si7 0.262925 0.506453 0.048574
O O1 0.384989 0.333817 0.138810
O O2 0.364312 0.471783 0.017739
O O3 0.308204 0.353005 0.890684
O O4 0.487001 0.364833 0.933291
O O5 0.415415 0.111747 0.783188
O O6 0.493575 0.215397 0.606609
O O7 0.247971 0.836828 0.324824
O O8 0.191156 0.706384 0.219730
O O9 0.084984 0.782492 0.387897
O O10 0.710527 0.939548 0.370070
O O11 0.709587 0.973372 0.094945
O O12 0.860972 0.201439 0.350155
O O13 0.768570 0.077226 0.348410
#
# Coordination Sequence:
#
# PCOD8248500 Si02
#       7
#     8   4   8   8   8   8   8
#     4  11  24  43  62 102 143 173 230 283 343 411
#     4  12  26  42  74 102 140 172 238 298 336 408
#     4  11  24  41  70  97 135 179 230 284 338 419
#     4  11  24  46  67  99 137 181 232 280 349 415
#     4  12  22  42  70  96 131 184 230 274 345 413
#     4  12  23  42  70 106 131 178 228 292 344 396
#     4  11  25  43  70  99 137 193 226 277 354 430
#
# _framework density 21.152324
#
# number of rings (size 3 to 8) (size 9 to 14) (size 15 to 20)
#    0.000    0.615    6.154    1.385    4.308    1.231 
#    0.000    1.538    0.000    0.000    0.000    0.000 
#    0.000    0.000    0.000    0.000    0.000    0.000 
#
# Total GULP energy -644780.414471 kJ/mol
# GULP energy per Si atom -12399.623355 kJ/mol
# Density = 2.110418 g / cm^3
# Si number density = 21.152324 Si / 1000 Ang^3
#
#
#
# Elastic Constant Matrix: (Units=GPa)
#
#
# Indices 1 2 3 4 5 6 
#
# 1 85.7997 28.9231 16.4551 0.0000 0.0000 0.0000
# 2 28.9231 94.2240 23.7136 0.0000 0.0000 0.0000
# 3 16.4551 23.7136 114.3709 0.0000 0.0000 0.0000
# 4 0.0000 0.0000 0.0000 35.9857 0.0000 0.0000
# 5 0.0000 0.0000 0.0000 0.0000 28.9772 0.0000
# 6 0.0000 0.0000 0.0000 0.0000 0.0000 38.6688
#
#
#
# Elastic Compliance Matrix: (Units=1/GPa)
#
#
# Indices 1 2 3 4 5 6 
#
# 1 0.013133 -0.003752 -0.001112 0.000000 0.000000 0.000000
# 2 -0.003752 0.012269 -0.002004 0.000000 0.000000 0.000000
# 3 -0.001112 -0.002004 0.009319 0.000000 0.000000 0.000000
# 4 0.000000 0.000000 0.000000 0.027789 0.000000 0.000000
# 5 0.000000 0.000000 0.000000 0.000000 0.034510 0.000000
# 6 0.000000 0.000000 0.000000 0.000000 0.000000 0.025861
#
#
# Mechanical properties :
#
#
# Convention : Reuss Voigt Hill
#
# Bulk Modulus (GPa) = 47.65019 48.06424 47.85722
# Shear Modulus (GPa) = 34.81650 35.74653 35.28152
#
# Velocity S-wave (km/s) = 4.06148 4.11537 4.08851
# Velocity P-wave (km/s) = 6.67609 6.73453 6.70538
#
# Compressibility (1/GPa) = 0.02098627
#
# Stress axis : x y z
#
# Youngs Moduli (GPa) = 76.14467 81.50654 107.30828
#
# Poissons Ratio (x) = 0.30577 0.11929
# Poissons Ratio (y) = 0.28566 0.21506
# Poissons Ratio (z) = 0.08465 0.16335
#
# Static dielectric constant tensor:
#      x y z
#    x 3.786350 0.000000 0.000000 
#    y 0.000000 3.899330 0.000000 
#    z 0.000000 0.000000 3.997720 
# 
# 
# High freq. dielectric constant tensor:
#      x y z
#    x 1.816870 0.000000 0.000000 
#    y 0.000000 1.825100 0.000000 
#    z 0.000000 0.000000 1.848200 
# 
# From -- ./inp_files/6103.got.cif
#   From: 2010.03.12/outbox.cif.g09.slc.cpg/sg60_4_cif.got.tgz:6103.got - 2010.04.10 18:46:24.
