data_PCOD8248106
_publ_section_title
;
Structure prediction by ZEFSAII (Michael W. Deem and Ramdas Pophale) SiO2 
 PCOD8248106
Probable space group: P B C N
;
_chemical_formula_sum "Si O2"
_cell_formula_units_Z 40
_cell_length_a 18.951506
_cell_length_b 8.774726
_cell_length_c 10.608564
_cell_angle_alpha 90.000000
_cell_angle_beta 90.000000
_cell_angle_gamma 90.000000
_cell_volume 1764.143432
_symmetry_space_group_name_H-M "P B C N"
_symmetry_group_IT_number 60
_symmetry_cell_setting 'orthorhombic'
loop_
_space_group_symop_operation_xyz
x,y,z
1/2-x,1/2-y,1/2+z
1/2+x,1/2-y,-z
-x,y,1/2-z
-x,-y,-z
1/2+x,1/2+y,1/2-z
1/2-x,1/2+y,z
x,-y,1/2+z
loop_
_atom_site_type_symbol
_atom_site_label
_atom_site_fract_x
_atom_site_fract_y
_atom_site_fract_z
Si Si1 0.188217 0.498623 0.464067
Si Si2 0.037644 0.432745 0.379432
Si Si3 0.243667 0.758783 0.124592
Si Si4 0.688068 0.513273 0.216410
Si Si5 0.537410 0.572357 0.121576
O O1 0.116830 0.498630 0.382895
O O2 0.201845 0.664442 0.525723
O O3 0.189855 0.366247 0.568962
O O4 0.250587 0.455220 0.372204
O O5 0.035155 0.252437 0.391417
O O6 0.000000 0.486885 0.250000
O O7 0.000000 0.500000 0.500000
O O8 0.294871 0.680956 0.228219
O O9 0.188373 0.886029 0.174012
O O10 0.617657 0.515866 0.133403
O O11 0.500000 0.518371 0.250000
O O12 0.500000 0.500000 0.000000
#
# Coordination Sequence:
#
# PCOD8248106 Si02
#       5
#     8   8   8   8   8
#     4  11  24  44  72 103 140 185 244 294 363 432
#     4  11  28  48  71 105 147 191 238 297 363 429
#     4  10  24  40  77 104 140 183 244 303 362 424
#     4  11  24  45  72 104 141 185 246 296 360 432
#     4  11  28  47  72 105 148 190 238 296 363 431
#
# _framework density 22.673894000000001
#
# number of rings (size 3 to 8) (size 9 to 14) (size 15 to 20)
#    0.000    1.200    0.000    3.600   19.600    2.400 
#    0.000    0.000    0.000    0.000    0.000    0.000 
#    0.000    0.000    0.000    0.000    0.000    0.000 
#
# Total GULP energy -496026.957722 kJ/mol
# GULP energy per Si atom -12400.673943 kJ/mol
# Density = 2.262229 g / cm^3
# Si number density = 22.673894 Si / 1000 Ang^3
#
#
#
# Elastic Constant Matrix: (Units=GPa)
#
#
# Indices 1 2 3 4 5 6 
#
# 1 185.7928 31.6498 77.4869 0.0000 0.0000 0.0000
# 2 31.6498 78.9749 27.2610 0.0000 0.0000 0.0000
# 3 77.4869 27.2610 134.3032 0.0000 0.0000 0.0000
# 4 0.0000 0.0000 0.0000 39.1532 0.0000 0.0000
# 5 0.0000 0.0000 0.0000 0.0000 51.2590 0.0000
# 6 0.0000 0.0000 0.0000 0.0000 0.0000 26.8178
#
#
#
# Elastic Compliance Matrix: (Units=1/GPa)
#
#
# Indices 1 2 3 4 5 6 
#
# 1 0.007266 -0.001575 -0.003872 0.000000 0.000000 0.000000
# 2 -0.001575 0.013958 -0.001924 0.000000 0.000000 0.000000
# 3 -0.003872 -0.001924 0.010071 0.000000 0.000000 0.000000
# 4 0.000000 0.000000 0.000000 0.025541 0.000000 0.000000
# 5 0.000000 0.000000 0.000000 0.000000 0.019509 0.000000
# 6 0.000000 0.000000 0.000000 0.000000 0.000000 0.037289
#
#
# Mechanical properties :
#
#
# Convention : Reuss Voigt Hill
#
# Bulk Modulus (GPa) = 60.42121 74.65182 67.53652
# Shear Modulus (GPa) = 37.34345 40.95755 39.15050
#
# Velocity S-wave (km/s) = 4.06270 4.25476 4.15984
# Velocity P-wave (km/s) = 6.97948 7.55863 7.27482
#
# Compressibility (1/GPa) = 0.01655048
#
# Stress axis : x y z
#
# Youngs Moduli (GPa) = 137.63473 71.64475 99.29953
#
# Poissons Ratio (x) = 0.11285 0.38451
# Poissons Ratio (y) = 0.21679 0.19109
# Poissons Ratio (z) = 0.53295 0.13787
#
# Static dielectric constant tensor:
#      x y z
#    x 4.449290 0.000000 0.000000 
#    y 0.000000 4.114860 0.000000 
#    z 0.000000 0.000000 4.622840 
# 
# 
# High freq. dielectric constant tensor:
#      x y z
#    x 1.887340 0.000000 0.000000 
#    y 0.000000 1.905400 0.000000 
#    z 0.000000 0.000000 1.910060 
# 
# From -- ./inp_files/12284.got.cif
#   From: 2010.03.12/outbox.cif.g09.slc.cpg/sg60_7_cif.got.tgz:12284.got - 2010.04.10 18:46:24.
