data_PCOD8248039
_publ_section_title
;
Structure prediction by ZEFSAII (Michael W. Deem and Ramdas Pophale) SiO2 
 PCOD8248039
Probable space group: P B C N
;
_chemical_formula_sum "Si O2"
_cell_formula_units_Z 40
_cell_length_a 8.455821
_cell_length_b 23.921603
_cell_length_c 8.690606
_cell_angle_alpha 90.000000
_cell_angle_beta 90.000000
_cell_angle_gamma 90.000000
_cell_volume 1757.907911
_symmetry_space_group_name_H-M "P B C N"
_symmetry_group_IT_number 60
_symmetry_cell_setting 'orthorhombic'
loop_
_space_group_symop_operation_xyz
x,y,z
1/2-x,1/2-y,1/2+z
1/2+x,1/2-y,-z
-x,y,1/2-z
-x,-y,-z
1/2+x,1/2+y,1/2-z
1/2-x,1/2+y,z
x,-y,1/2+z
loop_
_atom_site_type_symbol
_atom_site_label
_atom_site_fract_x
_atom_site_fract_y
_atom_site_fract_z
Si Si1 0.829751 0.440890 0.673608
Si Si2 0.691918 0.325680 0.579299
Si Si3 0.673489 0.476548 0.969171
Si Si4 0.321928 0.217918 0.738001
Si Si5 0.400773 0.363870 0.399782
O O1 0.804037 0.376701 0.626581
O O2 0.696052 0.464033 0.789275
O O3 0.807926 0.479345 0.522518
O O4 0.000000 0.447431 0.750000
O O5 0.758943 0.292611 0.432477
O O6 0.686698 0.283772 0.723726
O O7 0.515541 0.347193 0.540878
O O8 0.500000 0.500000 0.000000
O O9 0.700598 0.418143 0.057150
O O10 0.500000 0.195455 0.750000
O O11 0.217829 0.186417 0.865353
O O12 0.500000 0.379947 0.250000
#
# Coordination Sequence:
#
# PCOD8248039 Si02
#       5
#     8   8   8   8   8
#     4  12  29  46  74 108 148 186 248 305 370 432
#     4  11  26  46  70 105 145 199 238 299 365 443
#     4  12  25  47  77 104 142 193 241 303 364 448
#     4  11  26  43  73 103 146 189 248 303 364 429
#     4  10  23  44  71 102 142 187 246 292 366 437
#
# _framework density 22.75432
#
# number of rings (size 3 to 8) (size 9 to 14) (size 15 to 20)
#    0.000    0.800    2.000    3.600   11.200    3.200 
#    0.000    0.000    0.000    0.000    0.000    0.000 
#    0.000    0.000    0.000    0.000    0.000    0.000 
#
# Total GULP energy -496221.292307 kJ/mol
# GULP energy per Si atom -12405.532308 kJ/mol
# Density = 2.270253 g / cm^3
# Si number density = 22.754320 Si / 1000 Ang^3
#
#
#
# Elastic Constant Matrix: (Units=GPa)
#
#
# Indices 1 2 3 4 5 6 
#
# 1 100.4714 25.4165 16.6904 0.0000 0.0000 0.0000
# 2 25.4165 136.6283 53.3636 0.0000 0.0000 0.0000
# 3 16.6904 53.3636 87.1357 0.0000 0.0000 0.0000
# 4 0.0000 0.0000 0.0000 33.0073 0.0000 0.0000
# 5 0.0000 0.0000 0.0000 0.0000 35.8653 0.0000
# 6 0.0000 0.0000 0.0000 0.0000 0.0000 25.0529
#
#
#
# Elastic Compliance Matrix: (Units=1/GPa)
#
#
# Indices 1 2 3 4 5 6 
#
# 1 0.010520 -0.001538 -0.001073 0.000000 0.000000 0.000000
# 2 -0.001538 0.009845 -0.005735 0.000000 0.000000 0.000000
# 3 -0.001073 -0.005735 0.015194 0.000000 0.000000 0.000000
# 4 0.000000 0.000000 0.000000 0.030296 0.000000 0.000000
# 5 0.000000 0.000000 0.000000 0.000000 0.027882 0.000000
# 6 0.000000 0.000000 0.000000 0.000000 0.000000 0.039916
#
#
# Mechanical properties :
#
#
# Convention : Reuss Voigt Hill
#
# Bulk Modulus (GPa) = 53.00078 57.24182 55.12130
# Shear Modulus (GPa) = 31.92143 34.03608 32.97875
#
# Velocity S-wave (km/s) = 3.74956 3.87176 3.81115
# Velocity P-wave (km/s) = 6.48759 6.72298 6.60633
#
# Compressibility (1/GPa) = 0.01886765
#
# Stress axis : x y z
#
# Youngs Moduli (GPa) = 95.05325 101.57382 65.81545
#
# Poissons Ratio (x) = 0.15621 0.07064
# Poissons Ratio (y) = 0.14618 0.37743
# Poissons Ratio (z) = 0.10202 0.58250
#
# Static dielectric constant tensor:
#      x y z
#    x 4.025090 0.000000 0.000000 
#    y 0.000000 4.246310 0.000000 
#    z 0.000000 0.000000 4.165910 
# 
# 
# High freq. dielectric constant tensor:
#      x y z
#    x 1.892460 0.000000 0.000000 
#    y 0.000000 1.911630 0.000000 
#    z 0.000000 0.000000 1.907460 
# 
# From -- ./inp_files/3839.got.cif
#   From: 2010.03.12/outbox.cif.g09.slc.cpg/sg60_2_cif.got.tgz:3839.got - 2010.04.10 18:46:24.
