data_PCOD8248427
_publ_section_title
;
Structure prediction by ZEFSAII (Michael W. Deem and Ramdas Pophale) SiO2 
 PCOD8248427
Probable space group: P B C N
;
_chemical_formula_sum "Si O2"
_cell_formula_units_Z 48
_cell_length_a 18.529040
_cell_length_b 14.228637
_cell_length_c 8.832862
_cell_angle_alpha 90.000000
_cell_angle_beta 90.000000
_cell_angle_gamma 90.000000
_cell_volume 2328.722096
_symmetry_space_group_name_H-M "P B C N"
_symmetry_group_IT_number 60
_symmetry_cell_setting 'orthorhombic'
loop_
_space_group_symop_operation_xyz
x,y,z
1/2-x,1/2-y,1/2+z
1/2+x,1/2-y,-z
-x,y,1/2-z
-x,-y,-z
1/2+x,1/2+y,1/2-z
1/2-x,1/2+y,z
x,-y,1/2+z
loop_
_atom_site_type_symbol
_atom_site_label
_atom_site_fract_x
_atom_site_fract_y
_atom_site_fract_z
Si Si1 0.193859 0.883646 0.880971
Si Si2 0.583600 0.765718 0.220620
Si Si3 0.578933 0.885904 0.711362
Si Si4 0.671044 0.765450 0.522065
Si Si5 0.781686 0.935979 0.960853
Si Si6 0.878832 0.442839 0.029249
O O1 0.120797 0.824555 0.857107
O O2 0.252294 0.818413 0.967321
O O3 0.224588 0.922013 0.720120
O O4 0.173976 0.970359 0.992602
O O5 0.500000 0.740156 0.250000
O O6 0.628470 0.794408 0.369877
O O7 0.585024 0.853707 0.108457
O O8 0.500000 0.849717 0.750000
O O9 0.623581 0.793686 0.666758
O O10 0.580583 0.962081 0.576920
O O11 0.613760 0.938335 0.850774
O O12 0.679780 0.654228 0.532376
O O13 0.706778 0.948631 0.052217
#
# Coordination Sequence:
#
# PCOD8248427 Si02
#       6
#     8   8   8   8   8   8
#     4  11  24  42  66  93 128 165 212 268 310 383
#     4  11  25  44  65  95 132 173 214 268 329 380
#     4  12  24  38  59  94 131 168 206 257 325 388
#     4  11  23  42  64  92 126 169 214 263 314 386
#     4  11  23  39  64  96 120 163 220 262 316 372
#     4  12  21  37  62  90 131 165 209 263 320 383
#
# _framework density 20.612162000000001
#
# number of rings (size 3 to 8) (size 9 to 14) (size 15 to 20)
#    0.000    0.667    5.000    3.000    2.333    1.333 
#    0.000    4.167    0.000    0.000    0.000    0.000 
#    0.000    0.000    0.000    0.000    0.000    0.000 
#
# Total GULP energy -595269.033804 kJ/mol
# GULP energy per Si atom -12401.438204 kJ/mol
# Density = 2.056525 g / cm^3
# Si number density = 20.612162 Si / 1000 Ang^3
#
#
#
# Elastic Constant Matrix: (Units=GPa)
#
#
# Indices 1 2 3 4 5 6 
#
# 1 88.4364 29.0201 25.1524 0.0000 0.0000 0.0000
# 2 29.0201 102.5297 27.4851 0.0000 0.0000 0.0000
# 3 25.1524 27.4851 77.8406 0.0000 0.0000 0.0000
# 4 0.0000 0.0000 0.0000 111.9693 0.0000 0.0000
# 5 0.0000 0.0000 0.0000 0.0000 27.5343 0.0000
# 6 0.0000 0.0000 0.0000 0.0000 0.0000 -49.3848
#
#
#
# Elastic Compliance Matrix: (Units=1/GPa)
#
#
# Indices 1 2 3 4 5 6 
#
# 1 0.013168 -0.002857 -0.003246 0.000000 0.000000 0.000000
# 2 -0.002857 0.011393 -0.003100 0.000000 0.000000 0.000000
# 3 -0.003246 -0.003100 0.014990 0.000000 0.000000 0.000000
# 4 0.000000 0.000000 0.000000 0.008931 0.000000 0.000000
# 5 0.000000 0.000000 0.000000 0.000000 0.036318 0.000000
# 6 0.000000 0.000000 0.000000 0.000000 0.000000 -0.020249
#
#
# Mechanical properties :
#
#
# Convention : Reuss Voigt Hill
#
# Bulk Modulus (GPa) = 47.29092 48.01354 47.65223
# Shear Modulus (GPa) = 55.55208 30.50039 43.02624
#
# Velocity S-wave (km/s) = 5.19708 3.85090 4.57379
# Velocity P-wave (km/s) = 7.68153 6.56635 7.14572
#
# Compressibility (1/GPa) = 0.02114571
#
# Stress axis : x y z
#
# Youngs Moduli (GPa) = 75.93972 87.77471 66.71040
#
# Poissons Ratio (x) = 0.25077 0.21656
# Poissons Ratio (y) = 0.21696 0.20677
# Poissons Ratio (z) = 0.24652 0.27206
#
# Static dielectric constant tensor:
#      x y z
#    x 3.722570 0.000000 0.000000 
#    y 0.000000 3.786320 0.000000 
#    z 0.000000 0.000000 3.879150 
# 
# 
# High freq. dielectric constant tensor:
#      x y z
#    x 1.796300 0.000000 0.000000 
#    y 0.000000 1.808330 0.000000 
#    z 0.000000 0.000000 1.815870 
# 
# From -- ./inp_files/6693.got.cif
#   From: 2010.03.12/outbox.cif.g09.slc.cpg/sg60_4_cif.got.tgz:6693.got - 2010.04.10 18:46:24.
