data_PCOD8248786
_publ_section_title
;
Structure prediction by ZEFSAII (Michael W. Deem and Ramdas Pophale) SiO2 
 PCOD8248786
Probable space group: P B C A
;
_chemical_formula_sum "Si O2"
_cell_formula_units_Z 48
_cell_length_a 15.914707
_cell_length_b 17.258247
_cell_length_c 9.647807
_cell_angle_alpha 90.000000
_cell_angle_beta 90.000000
_cell_angle_gamma 90.000000
_cell_volume 2649.866134
_symmetry_space_group_name_H-M "P B C A"
_symmetry_group_IT_number 61
_symmetry_cell_setting 'orthorhombic'
loop_
_space_group_symop_operation_xyz
x,y,z
1/2-x,-y,1/2+z
1/2+x,1/2-y,-z
-x,1/2+y,1/2-z
-x,-y,-z
1/2+x,y,1/2-z
1/2-x,1/2+y,z
x,1/2-y,1/2+z
loop_
_atom_site_type_symbol
_atom_site_label
_atom_site_fract_x
_atom_site_fract_y
_atom_site_fract_z
Si Si1 0.676455 0.799671 0.448026
Si Si2 0.334728 0.802257 0.511139
Si Si3 0.089399 0.302380 0.220501
Si Si4 0.719625 0.931040 0.062735
Si Si5 0.899129 0.202171 0.657131
Si Si6 0.720678 0.432572 0.362380
O O1 0.755494 0.753492 0.508386
O O2 0.652258 0.772787 0.293499
O O3 0.601742 0.777668 0.555126
O O4 0.700360 0.890635 0.440096
O O5 0.385785 0.779473 0.648822
O O6 0.397396 0.790990 0.382733
O O7 0.299482 0.889977 0.512699
O O8 0.993015 0.322609 0.193808
O O9 0.145792 0.371172 0.157784
O O10 0.642780 0.871590 0.081523
O O11 0.748889 0.963819 0.212574
O O12 0.688678 0.998952 0.961191
#
# Coordination Sequence:
#
# PCOD8248786 Si02
#       6
#     8   8   8   8   8   8
#     4   9  18  33  51  73  98 130 169 202 239 292
#     4   9  18  33  51  73  98 130 169 202 239 292
#     4  10  19  32  52  77 103 127 159 209 255 289
#     4   9  19  33  50  71  98 133 169 202 239 292
#     4  10  19  32  52  77 103 127 159 209 255 289
#     4   9  19  33  50  71  98 133 169 202 239 292
#
# _framework density 18.114121999999998
#
# number of rings (size 3 to 8) (size 9 to 14) (size 15 to 20)
#    0.000    2.667    0.000    4.000    0.000    6.000 
#    0.000    0.000    0.000   29.000    0.000    0.000 
#    0.000    0.000    0.000    0.000    0.000    0.000 
#
# Total GULP energy -594897.333682 kJ/mol
# GULP energy per Si atom -12393.694452 kJ/mol
# Density = 1.807289 g / cm^3
# Si number density = 18.114122 Si / 1000 Ang^3
#
#
#
# Elastic Constant Matrix: (Units=GPa)
#
#
# Indices 1 2 3 4 5 6 
#
# 1 65.8958 17.8336 15.1589 0.0000 0.0000 0.0000
# 2 17.8336 56.7281 35.2672 0.0000 0.0000 0.0000
# 3 15.1589 35.2672 52.6185 0.0000 0.0000 0.0000
# 4 0.0000 0.0000 0.0000 32.9804 0.0000 0.0000
# 5 0.0000 0.0000 0.0000 0.0000 25.5305 0.0000
# 6 0.0000 0.0000 0.0000 0.0000 0.0000 13.8976
#
#
#
# Elastic Compliance Matrix: (Units=1/GPa)
#
#
# Indices 1 2 3 4 5 6 
#
# 1 0.016737 -0.003881 -0.002220 0.000000 0.000000 0.000000
# 2 -0.003881 0.031120 -0.019740 0.000000 0.000000 0.000000
# 3 -0.002220 -0.019740 0.032875 0.000000 0.000000 0.000000
# 4 0.000000 0.000000 0.000000 0.030321 0.000000 0.000000
# 5 0.000000 0.000000 0.000000 0.000000 0.039169 0.000000
# 6 0.000000 0.000000 0.000000 0.000000 0.000000 0.071955
#
#
# Mechanical properties :
#
#
# Convention : Reuss Voigt Hill
#
# Bulk Modulus (GPa) = 34.42477 34.64020 34.53249
# Shear Modulus (GPa) = 17.63405 21.61386 19.62396
#
# Velocity S-wave (km/s) = 3.12348 3.45803 3.29500
# Velocity P-wave (km/s) = 5.66161 5.92527 5.79494
#
# Compressibility (1/GPa) = 0.02904885
#
# Stress axis : x y z
#
# Youngs Moduli (GPa) = 59.74922 32.13354 30.41825
#
# Poissons Ratio (x) = 0.12471 0.06754
# Poissons Ratio (y) = 0.23189 0.60045
# Poissons Ratio (z) = 0.13267 0.63431
#
# Static dielectric constant tensor:
#      x y z
#    x 3.288250 0.000000 0.000000 
#    y 0.000000 3.172250 0.000000 
#    z 0.000000 0.000000 3.499100 
# 
# 
# High freq. dielectric constant tensor:
#      x y z
#    x 1.690540 0.000000 0.000000 
#    y 0.000000 1.674310 0.000000 
#    z 0.000000 0.000000 1.713330 
# 
# From -- ./inp_files/2858.got.cif
#   From: 2010.03.12/outbox.cif.g09.slc.cpg/sg61_2_cif.got.tgz:2858.got - 2010.04.10 19:05:03.
