data_PCOD8248676
_publ_section_title
;
Structure prediction by ZEFSAII (Michael W. Deem and Ramdas Pophale) SiO2 
 PCOD8248676
Probable space group: P B C N
;
_chemical_formula_sum "Si O2"
_cell_formula_units_Z 36
_cell_length_a 12.245103
_cell_length_b 12.175771
_cell_length_c 10.317338
_cell_angle_alpha 90.000000
_cell_angle_beta 90.000000
_cell_angle_gamma 90.000000
_cell_volume 1538.248755
_symmetry_space_group_name_H-M "P B C N"
_symmetry_group_IT_number 60
_symmetry_cell_setting 'orthorhombic'
loop_
_space_group_symop_operation_xyz
x,y,z
1/2-x,1/2-y,1/2+z
1/2+x,1/2-y,-z
-x,y,1/2-z
-x,-y,-z
1/2+x,1/2+y,1/2-z
1/2-x,1/2+y,z
x,-y,1/2+z
loop_
_atom_site_type_symbol
_atom_site_label
_atom_site_fract_x
_atom_site_fract_y
_atom_site_fract_z
Si Si1 0.278343 0.381934 0.775946
Si Si2 0.591499 0.721199 0.664722
Si Si3 0.262885 0.565273 0.988275
Si Si4 0.027021 0.625557 0.984187
Si Si5 0.000000 0.237624 0.250000
O O1 0.193911 0.279845 0.763907
O O2 0.252759 0.453367 0.904874
O O3 0.271734 0.456187 0.643910
O O4 0.400125 0.338046 0.793031
O O5 0.500000 0.655826 0.750000
O O6 0.632628 0.635138 0.557512
O O7 0.514445 0.817485 0.612628
O O8 0.156454 0.639744 0.962609
O O9 0.963010 0.682056 0.865843
O O10 0.000000 0.500000 0.000000
#
# Coordination Sequence:
#
# PCOD8248676 Si02
#       5
#     8   8   8   8   4
#     4  12  28  48  75 111 155 204 251 316 385 461
#     4  12  26  47  75 113 149 195 259 320 380 452
#     4  12  28  47  76 112 150 202 255 310 388 455
#     4  12  26  44  77 109 146 192 252 312 377 452
#     4  12  28  48  72 108 156 196 254 314 384 454
#
# _framework density 23.403237000000001
#
# number of rings (size 3 to 8) (size 9 to 14) (size 15 to 20)
#    0.000    0.000    8.889    0.000    6.222    4.444 
#    0.000    0.000    0.000    0.000    0.000    0.000 
#    0.000    0.000    0.000    0.000    0.000    0.000 
#
# Total GULP energy -446316.397794 kJ/mol
# GULP energy per Si atom -12397.677716 kJ/mol
# Density = 2.334997 g / cm^3
# Si number density = 23.403237 Si / 1000 Ang^3
#
#
#
# Elastic Constant Matrix: (Units=GPa)
#
#
# Indices 1 2 3 4 5 6 
#
# 1 135.0759 17.1376 11.2873 0.0000 0.0000 0.0000
# 2 17.1376 54.3559 16.6258 0.0000 0.0000 0.0000
# 3 11.2873 16.6258 118.4233 0.0000 0.0000 0.0000
# 4 0.0000 0.0000 0.0000 41.0351 0.0000 0.0000
# 5 0.0000 0.0000 0.0000 0.0000 39.7352 0.0000
# 6 0.0000 0.0000 0.0000 0.0000 0.0000 32.0539
#
#
#
# Elastic Compliance Matrix: (Units=1/GPa)
#
#
# Indices 1 2 3 4 5 6 
#
# 1 0.007731 -0.002311 -0.000412 0.000000 0.000000 0.000000
# 2 -0.002311 0.019914 -0.002575 0.000000 0.000000 0.000000
# 3 -0.000412 -0.002575 0.008845 0.000000 0.000000 0.000000
# 4 0.000000 0.000000 0.000000 0.024369 0.000000 0.000000
# 5 0.000000 0.000000 0.000000 0.000000 0.025167 0.000000
# 6 0.000000 0.000000 0.000000 0.000000 0.000000 0.031197
#
#
# Mechanical properties :
#
#
# Convention : Reuss Voigt Hill
#
# Bulk Modulus (GPa) = 38.62262 44.21741 41.42002
# Shear Modulus (GPa) = 36.64290 40.08513 38.36402
#
# Velocity S-wave (km/s) = 3.96121 4.14309 4.05317
# Velocity P-wave (km/s) = 6.12050 6.46697 6.29612
#
# Compressibility (1/GPa) = 0.02589156
#
# Stress axis : x y z
#
# Youngs Moduli (GPa) = 129.35024 50.21661 113.05614
#
# Poissons Ratio (x) = 0.11607 0.04662
# Poissons Ratio (y) = 0.29897 0.29117
# Poissons Ratio (z) = 0.05334 0.12933
#
# Static dielectric constant tensor:
#      x y z
#    x 4.379870 0.000000 0.000000 
#    y 0.000000 3.845100 0.000000 
#    z 0.000000 0.000000 4.485820 
# 
# 
# High freq. dielectric constant tensor:
#      x y z
#    x 1.945930 0.000000 0.000000 
#    y 0.000000 1.907970 0.000000 
#    z 0.000000 0.000000 1.933530 
# 
# From -- ./inp_files/10646.got.cif
#   From: 2010.03.12/outbox.cif.g09.slc.cpg/sg60_6_cif.got.tgz:10646.got - 2010.04.10 18:46:24.
