data_PCOD8248937
_publ_section_title
;
Structure prediction by ZEFSAII (Michael W. Deem and Ramdas Pophale) SiO2 
 PCOD8248937
Probable space group: P B C A
;
_chemical_formula_sum "Si O2"
_cell_formula_units_Z 40
_cell_length_a 17.818066
_cell_length_b 5.092239
_cell_length_c 20.137356
_cell_angle_alpha 90.000000
_cell_angle_beta 90.000000
_cell_angle_gamma 90.000000
_cell_volume 1827.139851
_symmetry_space_group_name_H-M "P B C A"
_symmetry_group_IT_number 61
_symmetry_cell_setting 'orthorhombic'
loop_
_space_group_symop_operation_xyz
x,y,z
1/2-x,-y,1/2+z
1/2+x,1/2-y,-z
-x,1/2+y,1/2-z
-x,-y,-z
1/2+x,y,1/2-z
1/2-x,1/2+y,z
x,1/2-y,1/2+z
loop_
_atom_site_type_symbol
_atom_site_label
_atom_site_fract_x
_atom_site_fract_y
_atom_site_fract_z
Si Si1 0.199814 0.921352 0.745421
Si Si2 0.948714 0.795312 0.073199
Si Si3 0.589410 0.796319 0.016136
Si Si4 0.466007 0.968565 0.283231
Si Si5 0.204123 0.853183 0.595275
O O1 0.241102 0.649967 0.763161
O O2 0.173478 0.912411 0.668791
O O3 0.122645 0.966085 0.784718
O O4 0.907905 0.512261 0.075843
O O5 0.987899 0.873207 0.142697
O O6 0.888684 0.020440 0.051023
O O7 0.007929 0.754351 0.014301
O O8 0.641106 0.909149 0.958248
O O9 0.485783 0.728212 0.233688
O O10 0.227005 0.551419 0.584458
#
# Coordination Sequence:
#
# PCOD8248937 Si02
#       5
#     8   8   8   8   8
#     4  10  22  40  60  86 122 159 196 247 306 357
#     4  10  22  37  59  85 114 151 189 240 300 346
#     4  10  20  38  57  82 117 147 188 243 295 347
#     4  12  24  40  64  92 120 158 211 254 297 365
#     4  10  20  35  58  84 111 150 196 236 284 348
#
# _framework density 21.892140000000001
#
# number of rings (size 3 to 8) (size 9 to 14) (size 15 to 20)
#    0.000    1.600    0.000    4.800    0.000    6.400 
#    0.000    6.000    0.000    0.000    0.000    0.000 
#    0.000    0.000    0.000    0.000    0.000    0.000 
#
# Total GULP energy -495763.638698 kJ/mol
# GULP energy per Si atom -12394.090967 kJ/mol
# Density = 2.184231 g / cm^3
# Si number density = 21.892140 Si / 1000 Ang^3
#
#
#
# Elastic Constant Matrix: (Units=GPa)
#
#
# Indices 1 2 3 4 5 6 
#
# 1 56.7350 29.5753 6.0090 0.0000 0.0000 0.0000
# 2 29.5753 145.4905 46.5796 0.0000 0.0000 0.0000
# 3 6.0090 46.5796 51.6641 0.0000 0.0000 0.0000
# 4 0.0000 0.0000 0.0000 32.7539 0.0000 0.0000
# 5 0.0000 0.0000 0.0000 0.0000 29.3063 0.0000
# 6 0.0000 0.0000 0.0000 0.0000 0.0000 23.3227
#
#
#
# Elastic Compliance Matrix: (Units=1/GPa)
#
#
# Indices 1 2 3 4 5 6 
#
# 1 0.019842 -0.004632 0.001868 0.000000 0.000000 0.000000
# 2 -0.004632 0.010743 -0.009147 0.000000 0.000000 0.000000
# 3 0.001868 -0.009147 0.027386 0.000000 0.000000 0.000000
# 4 0.000000 0.000000 0.000000 0.030531 0.000000 0.000000
# 5 0.000000 0.000000 0.000000 0.000000 0.034122 0.000000
# 6 0.000000 0.000000 0.000000 0.000000 0.000000 0.042877
#
#
# Mechanical properties :
#
#
# Convention : Reuss Voigt Hill
#
# Bulk Modulus (GPa) = 29.28315 46.46859 37.87587
# Shear Modulus (GPa) = 24.91200 28.52495 26.71848
#
# Velocity S-wave (km/s) = 3.37700 3.61359 3.49730
# Velocity P-wave (km/s) = 5.34889 6.21956 5.80059
#
# Compressibility (1/GPa) = 0.03414933
#
# Stress axis : x y z
#
# Youngs Moduli (GPa) = 50.39728 93.08053 36.51540
#
# Poissons Ratio (x) = 0.43111 -0.06821
# Poissons Ratio (y) = 0.23342 0.33402
# Poissons Ratio (z) = -0.09414 0.85144
#
# Static dielectric constant tensor:
#      x y z
#    x 3.576660 0.000000 0.000000 
#    y 0.000000 4.678920 0.000000 
#    z 0.000000 0.000000 3.757700 
# 
# 
# High freq. dielectric constant tensor:
#      x y z
#    x 1.826790 0.000000 0.000000 
#    y 0.000000 1.893100 0.000000 
#    z 0.000000 0.000000 1.850850 
# 
# From -- ./inp_files/682.got.cif
#   From: 2010.03.12/outbox.cif.g09.slc.cpg/sg61_1_cif.got.tgz:682.got - 2010.04.10 19:05:03.
