data_PCOD8248333
_publ_section_title
;
Structure prediction by ZEFSAII (Michael W. Deem and Ramdas Pophale) SiO2 
 PCOD8248333
Probable space group: P B C N
;
_chemical_formula_sum "Si O2"
_cell_formula_units_Z 60
_cell_length_a 8.750810
_cell_length_b 26.511042
_cell_length_c 12.811230
_cell_angle_alpha 90.000000
_cell_angle_beta 90.000000
_cell_angle_gamma 90.000000
_cell_volume 2972.116853
_symmetry_space_group_name_H-M "P B C N"
_symmetry_group_IT_number 60
_symmetry_cell_setting 'orthorhombic'
loop_
_space_group_symop_operation_xyz
x,y,z
1/2-x,1/2-y,1/2+z
1/2+x,1/2-y,-z
-x,y,1/2-z
-x,-y,-z
1/2+x,1/2+y,1/2-z
1/2-x,1/2+y,z
x,-y,1/2+z
loop_
_atom_site_type_symbol
_atom_site_label
_atom_site_fract_x
_atom_site_fract_y
_atom_site_fract_z
Si Si1 0.124174 0.834324 0.344037
Si Si2 0.000000 0.111080 0.250000
Si Si3 0.224178 0.538786 0.243295
Si Si4 0.570694 0.323521 0.547016
Si Si5 0.065961 0.280016 0.355620
Si Si6 0.850097 0.365723 0.440481
Si Si7 0.322581 0.426547 0.233286
Si Si8 0.476157 0.048749 0.429336
O O1 0.253678 0.791688 0.343520
O O2 0.214432 0.887496 0.326994
O O3 0.000000 0.825418 0.250000
O O4 0.042030 0.838987 0.454429
O O5 0.132198 0.072731 0.218174
O O6 0.031789 0.146100 0.348714
O O7 0.235267 0.478684 0.233352
O O8 0.180909 0.546522 0.364191
O O9 0.105537 0.556480 0.156550
O O10 0.550662 0.263397 0.558257
O O11 0.747642 0.334105 0.521061
O O12 0.000000 0.256088 0.250000
O O13 0.959718 0.328247 0.377809
O O14 0.728703 0.397349 0.371472
O O15 0.968203 0.402515 0.497963
O O16 0.500000 0.439184 0.250000
O O17 0.500000 0.000000 0.500000
#
# Coordination Sequence:
#
# PCOD8248333 Si02
#       8
#     8   4   8   8   8   8   8   8
#     4  11  24  44  71 102 133 171 233 296 342 404
#     4  12  26  44  66  94 142 186 226 278 344 430
#     4  11  25  42  66 101 138 179 233 272 345 425
#     4  12  25  48  66  98 141 184 234 288 348 419
#     4  12  25  43  72 103 133 179 237 285 358 414
#     4  12  24  45  69  99 140 179 231 295 342 415
#     4  11  21  41  69 100 133 176 225 285 340 405
#     4  11  25  42  65 101 137 179 224 286 346 405
#
# _framework density 20.187632000000001
#
# number of rings (size 3 to 8) (size 9 to 14) (size 15 to 20)
#    0.000    0.533    8.000    0.800    3.733    0.000 
#    0.000    4.000    0.000    0.000    0.000    0.000 
#    0.000    0.000    0.000    0.000    0.000    0.000 
#
# Total GULP energy -743609.286776 kJ/mol
# GULP energy per Si atom -12393.488113 kJ/mol
# Density = 2.014168 g / cm^3
# Si number density = 20.187632 Si / 1000 Ang^3
#
#
#
# Elastic Constant Matrix: (Units=GPa)
#
#
# Indices 1 2 3 4 5 6 
#
# 1 93.3508 35.2792 38.8116 0.0000 0.0000 0.0000
# 2 35.2792 110.2090 37.7525 0.0000 0.0000 0.0000
# 3 38.8116 37.7525 113.7033 0.0000 0.0000 0.0000
# 4 0.0000 0.0000 0.0000 36.5221 0.0000 0.0000
# 5 0.0000 0.0000 0.0000 0.0000 33.7323 0.0000
# 6 0.0000 0.0000 0.0000 0.0000 0.0000 8.9021
#
#
#
# Elastic Compliance Matrix: (Units=1/GPa)
#
#
# Indices 1 2 3 4 5 6 
#
# 1 0.013339 -0.003058 -0.003538 0.000000 0.000000 0.000000
# 2 -0.003058 0.010939 -0.002588 0.000000 0.000000 0.000000
# 3 -0.003538 -0.002588 0.010862 0.000000 0.000000 0.000000
# 4 0.000000 0.000000 0.000000 0.027381 0.000000 0.000000
# 5 0.000000 0.000000 0.000000 0.000000 0.029645 0.000000
# 6 0.000000 0.000000 0.000000 0.000000 0.000000 0.112333
#
#
# Mechanical properties :
#
#
# Convention : Reuss Voigt Hill
#
# Bulk Modulus (GPa) = 59.62428 60.10554 59.86491
# Shear Modulus (GPa) = 21.88589 29.52594 25.70591
#
# Velocity S-wave (km/s) = 3.29618 3.82851 3.57227
# Velocity P-wave (km/s) = 6.63969 7.02719 6.83619
#
# Compressibility (1/GPa) = 0.01677169
#
# Stress axis : x y z
#
# Youngs Moduli (GPa) = 74.96911 91.41430 92.06610
#
# Poissons Ratio (x) = 0.27955 0.32570
# Poissons Ratio (y) = 0.22926 0.23829
# Poissons Ratio (z) = 0.26522 0.23660
#
# Static dielectric constant tensor:
#      x y z
#    x 3.738850 0.000000 0.000000 
#    y 0.000000 3.715000 0.000000 
#    z 0.000000 0.000000 3.790510 
# 
# 
# High freq. dielectric constant tensor:
#      x y z
#    x 1.796060 0.000000 0.000000 
#    y 0.000000 1.796300 0.000000 
#    z 0.000000 0.000000 1.795530 
# 
# From -- ./inp_files/10295.got.cif
#   From: 2010.03.12/outbox.cif.g09.slc.cpg/sg60_6_cif.got.tgz:10295.got - 2010.04.10 18:46:24.
