data_PCOD8248201
_publ_section_title
;
Structure prediction by ZEFSAII (Michael W. Deem and Ramdas Pophale) SiO2 
 PCOD8248201
Probable space group: P B C N
;
_chemical_formula_sum "Si O2"
_cell_formula_units_Z 48
_cell_length_a 11.175479
_cell_length_b 21.060182
_cell_length_c 9.573060
_cell_angle_alpha 90.000000
_cell_angle_beta 90.000000
_cell_angle_gamma 90.000000
_cell_volume 2253.092634
_symmetry_space_group_name_H-M "P B C N"
_symmetry_group_IT_number 60
_symmetry_cell_setting 'orthorhombic'
loop_
_space_group_symop_operation_xyz
x,y,z
1/2-x,1/2-y,1/2+z
1/2+x,1/2-y,-z
-x,y,1/2-z
-x,-y,-z
1/2+x,1/2+y,1/2-z
1/2-x,1/2+y,z
x,-y,1/2+z
loop_
_atom_site_type_symbol
_atom_site_label
_atom_site_fract_x
_atom_site_fract_y
_atom_site_fract_z
Si Si1 0.500000 0.907728 0.250000
Si Si2 0.791336 0.206648 0.339935
Si Si3 0.323677 0.011680 0.144885
Si Si4 0.500000 0.385232 0.750000
Si Si5 0.675642 0.811786 0.559366
Si Si6 0.927170 0.635110 0.467108
Si Si7 0.696813 0.560792 0.081127
O O1 0.443777 0.861868 0.366140
O O2 0.396744 0.948911 0.178856
O O3 0.901139 0.158361 0.324029
O O4 0.833812 0.268947 0.421281
O O5 0.736355 0.225347 0.189176
O O6 0.691487 0.172888 0.432295
O O7 0.415519 0.061459 0.076603
O O8 0.270382 0.043419 0.281196
O O9 0.216141 0.993048 0.036870
O O10 0.441161 0.429848 0.870867
O O11 0.543207 0.833897 0.606528
O O12 0.755288 0.872689 0.520806
#
# Coordination Sequence:
#
# PCOD8248201 Si02
#       7
#     4   8   8   4   8   8   8
#     4  12  24  35  74 108 140 169 222 296 344 404
#     4  11  27  45  71  97 138 183 231 277 348 405
#     4  12  22  42  67 106 138 174 224 282 352 403
#     4  10  24  49  66  94 140 191 226 280 336 414
#     4  11  25  43  69 100 138 176 225 288 340 401
#     4  12  24  43  70 104 136 176 228 287 343 400
#     4  11  24  44  68 101 139 182 227 278 347 413
#
# _framework density 21.304053
#
# number of rings (size 3 to 8) (size 9 to 14) (size 15 to 20)
#    0.000    0.667    6.667    2.000    7.000    0.667 
#    0.000    0.000    0.000    4.000    0.000    0.000 
#    0.000    0.000    0.000    0.000    0.000    0.000 
#
# Total GULP energy -595284.279016 kJ/mol
# GULP energy per Si atom -12401.755813 kJ/mol
# Density = 2.125556 g / cm^3
# Si number density = 21.304053 Si / 1000 Ang^3
#
#
#
# Elastic Constant Matrix: (Units=GPa)
#
#
# Indices 1 2 3 4 5 6 
#
# 1 111.5835 21.6456 10.0742 0.0000 0.0000 0.0000
# 2 21.6456 63.0605 21.2345 0.0000 0.0000 0.0000
# 3 10.0742 21.2345 84.4936 0.0000 0.0000 0.0000
# 4 0.0000 0.0000 0.0000 27.6736 0.0000 0.0000
# 5 0.0000 0.0000 0.0000 0.0000 31.1108 0.0000
# 6 0.0000 0.0000 0.0000 0.0000 0.0000 26.2077
#
#
#
# Elastic Compliance Matrix: (Units=1/GPa)
#
#
# Indices 1 2 3 4 5 6 
#
# 1 0.009610 -0.003182 -0.000346 0.000000 0.000000 0.000000
# 2 -0.003182 0.018378 -0.004239 0.000000 0.000000 0.000000
# 3 -0.000346 -0.004239 0.012942 0.000000 0.000000 0.000000
# 4 0.000000 0.000000 0.000000 0.036136 0.000000 0.000000
# 5 0.000000 0.000000 0.000000 0.000000 0.032143 0.000000
# 6 0.000000 0.000000 0.000000 0.000000 0.000000 0.038157
#
#
# Mechanical properties :
#
#
# Convention : Reuss Voigt Hill
#
# Bulk Modulus (GPa) = 39.37802 40.56066 39.96934
# Shear Modulus (GPa) = 29.17746 30.74399 29.96072
#
# Velocity S-wave (km/s) = 3.70479 3.80294 3.75419
# Velocity P-wave (km/s) = 6.06832 6.19382 6.13139
#
# Compressibility (1/GPa) = 0.02539488
#
# Stress axis : x y z
#
# Youngs Moduli (GPa) = 104.05332 54.41418 77.26879
#
# Poissons Ratio (x) = 0.17316 0.02674
# Poissons Ratio (y) = 0.33112 0.32755
# Poissons Ratio (z) = 0.03601 0.23067
#
# Static dielectric constant tensor:
#      x y z
#    x 4.104410 0.000000 0.000000 
#    y 0.000000 3.881540 0.000000 
#    z 0.000000 0.000000 4.021410 
# 
# 
# High freq. dielectric constant tensor:
#      x y z
#    x 1.836140 0.000000 0.000000 
#    y 0.000000 1.827990 0.000000 
#    z 0.000000 0.000000 1.844660 
# 
# From -- ./inp_files/5112.got.cif
#   From: 2010.03.12/outbox.cif.g09.slc.cpg/sg60_3_cif.got.tgz:5112.got - 2010.04.10 18:46:24.
