data_PCOD8248163
_publ_section_title
;
Structure prediction by ZEFSAII (Michael W. Deem and Ramdas Pophale) SiO2 
 PCOD8248163
Probable space group: P B C N
;
_chemical_formula_sum "Si O2"
_cell_formula_units_Z 28
_cell_length_a 4.856804
_cell_length_b 20.556120
_cell_length_c 10.196536
_cell_angle_alpha 90.000000
_cell_angle_beta 90.000000
_cell_angle_gamma 90.000000
_cell_volume 1017.992032
_symmetry_space_group_name_H-M "P B C N"
_symmetry_group_IT_number 60
_symmetry_cell_setting 'orthorhombic'
loop_
_space_group_symop_operation_xyz
x,y,z
1/2-x,1/2-y,1/2+z
1/2+x,1/2-y,-z
-x,y,1/2-z
-x,-y,-z
1/2+x,1/2+y,1/2-z
1/2-x,1/2+y,z
x,-y,1/2+z
loop_
_atom_site_type_symbol
_atom_site_label
_atom_site_fract_x
_atom_site_fract_y
_atom_site_fract_z
Si Si1 0.259416 0.734072 0.076096
Si Si2 0.258188 0.013205 0.657086
Si Si3 0.337711 0.897667 0.476475
Si Si4 0.000000 0.169595 0.750000
O O1 0.234664 0.779358 0.202828
O O2 0.578793 0.730661 0.037788
O O3 0.134155 0.660328 0.083532
O O4 0.500000 0.985198 0.750000
O O5 0.193088 0.959783 0.545207
O O6 0.000000 0.027396 0.750000
O O7 0.368402 0.080490 0.587692
O O8 0.135496 0.875685 0.360055
#
# Coordination Sequence:
#
# PCOD8248163 Si02
#       4
#     8   8   8   4
#     4  10  24  44  72 110 145 199 255 314 392 460
#     4  11  28  50  79 115 157 214 262 327 395 470
#     4  10  26  51  79 115 164 201 271 325 401 472
#     4  10  24  50  82 114 156 208 256 330 396 474
#
# _framework density 27.505129
#
# number of rings (size 3 to 8) (size 9 to 14) (size 15 to 20)
#    0.000    1.714    0.000    0.000    8.000   14.857 
#   10.286    0.000    0.000    0.000    0.000    0.000 
#    0.000    0.000    0.000    0.000    0.000    0.000 
#
# Total GULP energy -346925.554709 kJ/mol
# GULP energy per Si atom -12390.198382 kJ/mol
# Density = 2.744253 g / cm^3
# Si number density = 27.505129 Si / 1000 Ang^3
#
#
#
# Elastic Constant Matrix: (Units=GPa)
#
#
# Indices 1 2 3 4 5 6 
#
# 1 109.8063 41.4371 31.9032 0.0000 0.0000 0.0000
# 2 41.4371 224.7473 77.9755 0.0000 0.0000 0.0000
# 3 31.9032 77.9755 115.6232 0.0000 0.0000 0.0000
# 4 0.0000 0.0000 0.0000 -17.3236 0.0000 0.0000
# 5 0.0000 0.0000 0.0000 0.0000 40.5901 0.0000
# 6 0.0000 0.0000 0.0000 0.0000 0.0000 51.6765
#
#
#
# Elastic Compliance Matrix: (Units=1/GPa)
#
#
# Indices 1 2 3 4 5 6 
#
# 1 0.010132 -0.001172 -0.002005 0.000000 0.000000 0.000000
# 2 -0.001172 0.005944 -0.003685 0.000000 0.000000 0.000000
# 3 -0.002005 -0.003685 0.011687 0.000000 0.000000 0.000000
# 4 0.000000 0.000000 0.000000 -0.057725 0.000000 0.000000
# 5 0.000000 0.000000 0.000000 0.000000 0.024637 0.000000
# 6 0.000000 0.000000 0.000000 0.000000 0.000000 0.019351
#
#
# Mechanical properties :
#
#
# Convention : Reuss Voigt Hill
#
# Bulk Modulus (GPa) = 71.23434 83.64535 77.43985
# Shear Modulus (GPa) = 154.17353 34.91267 94.54310
#
# Velocity S-wave (km/s) = 7.49495 3.56661 5.86920
# Velocity P-wave (km/s) = 10.04260 6.88751 8.61080
#
# Compressibility (1/GPa) = 0.01403817
#
# Stress axis : x y z
#
# Youngs Moduli (GPa) = 98.69822 168.23179 85.56308
#
# Poissons Ratio (x) = 0.19724 0.17155
# Poissons Ratio (y) = 0.11572 0.31532
# Poissons Ratio (z) = 0.19789 0.61997
#
# Static dielectric constant tensor:
#      x y z
#    x 5.038150 0.000000 0.000000 
#    y 0.000000 5.591210 0.000000 
#    z 0.000000 0.000000 5.739440 
# 
# 
# High freq. dielectric constant tensor:
#      x y z
#    x 2.116640 0.000000 0.000000 
#    y 0.000000 2.130540 0.000000 
#    z 0.000000 0.000000 2.098870 
# 
# From -- ./inp_files/8763.got.cif
#   From: 2010.03.12/outbox.cif.g09.slc.cpg/sg60_5_cif.got.tgz:8763.got - 2010.04.10 18:46:24.
