data_PCOD8248479
_publ_section_title
;
Structure prediction by ZEFSAII (Michael W. Deem and Ramdas Pophale) SiO2 
 PCOD8248479
Probable space group: P B C N
;
_chemical_formula_sum "Si O2"
_cell_formula_units_Z 32
_cell_length_a 11.822836
_cell_length_b 13.101266
_cell_length_c 9.034885
_cell_angle_alpha 90.000000
_cell_angle_beta 90.000000
_cell_angle_gamma 90.000000
_cell_volume 1399.450555
_symmetry_space_group_name_H-M "P B C N"
_symmetry_group_IT_number 60
_symmetry_cell_setting 'orthorhombic'
loop_
_space_group_symop_operation_xyz
x,y,z
1/2-x,1/2-y,1/2+z
1/2+x,1/2-y,-z
-x,y,1/2-z
-x,-y,-z
1/2+x,1/2+y,1/2-z
1/2-x,1/2+y,z
x,-y,1/2+z
loop_
_atom_site_type_symbol
_atom_site_label
_atom_site_fract_x
_atom_site_fract_y
_atom_site_fract_z
Si Si1 0.628494 0.336374 0.279031
Si Si2 0.615936 0.049487 0.550534
Si Si3 0.819065 0.757868 0.601940
Si Si4 0.271932 0.552006 0.227235
O O1 0.500000 0.306107 0.250000
O O2 0.676957 0.295533 0.433612
O O3 0.694745 0.285118 0.142984
O O4 0.641513 0.458373 0.280594
O O5 0.594502 0.161604 0.624583
O O6 0.710782 0.073119 0.427247
O O7 0.500000 0.000000 0.500000
O O8 0.667732 0.968655 0.662978
O O9 0.844953 0.850994 0.715012
#
# Coordination Sequence:
#
# PCOD8248479 Si02
#       4
#     8   8   8   8
#     4  11  26  46  72 104 145 192 237 302 369 432
#     4  11  24  42  72 106 141 191 247 306 366 429
#     4  11  24  45  73 104 145 187 247 304 359 445
#     4  11  23  45  66 101 149 183 246 304 356 441
#
# _framework density 22.866116999999999
#
# number of rings (size 3 to 8) (size 9 to 14) (size 15 to 20)
#    0.000    1.000    5.000    0.750    3.500    1.000 
#    0.000    6.250    0.000    0.000    0.000    0.000 
#    0.000    0.000    0.000    0.000    0.000    0.000 
#
# Total GULP energy -396641.537314 kJ/mol
# GULP energy per Si atom -12395.048041 kJ/mol
# Density = 2.281407 g / cm^3
# Si number density = 22.866117 Si / 1000 Ang^3
#
#
#
# Elastic Constant Matrix: (Units=GPa)
#
#
# Indices 1 2 3 4 5 6 
#
# 1 90.5424 39.7445 27.7092 0.0000 0.0000 0.0000
# 2 39.7445 170.9596 22.1510 0.0000 0.0000 0.0000
# 3 27.7092 22.1510 90.0451 0.0000 0.0000 0.0000
# 4 0.0000 0.0000 0.0000 45.4774 0.0000 0.0000
# 5 0.0000 0.0000 0.0000 0.0000 21.1487 0.0000
# 6 0.0000 0.0000 0.0000 0.0000 0.0000 24.6770
#
#
#
# Elastic Compliance Matrix: (Units=1/GPa)
#
#
# Indices 1 2 3 4 5 6 
#
# 1 0.013251 -0.002636 -0.003429 0.000000 0.000000 0.000000
# 2 -0.002636 0.006566 -0.000804 0.000000 0.000000 0.000000
# 3 -0.003429 -0.000804 0.012359 0.000000 0.000000 0.000000
# 4 0.000000 0.000000 0.000000 0.021989 0.000000 0.000000
# 5 0.000000 0.000000 0.000000 0.000000 0.047284 0.000000
# 6 0.000000 0.000000 0.000000 0.000000 0.000000 0.040524
#
#
# Mechanical properties :
#
#
# Convention : Reuss Voigt Hill
#
# Bulk Modulus (GPa) = 54.23860 58.97295 56.60578
# Shear Modulus (GPa) = 30.89127 35.72342 33.30735
#
# Velocity S-wave (km/s) = 3.67953 3.95686 3.82072
# Velocity P-wave (km/s) = 6.46711 6.83537 6.65379
#
# Compressibility (1/GPa) = 0.01843705
#
# Stress axis : x y z
#
# Youngs Moduli (GPa) = 75.46455 152.29031 80.91525
#
# Poissons Ratio (x) = 0.40149 0.27748
# Poissons Ratio (y) = 0.19895 0.06506
# Poissons Ratio (z) = 0.25878 0.12245
#
# Static dielectric constant tensor:
#      x y z
#    x 3.239680 0.000000 0.000000 
#    y 0.000000 4.688820 0.000000 
#    z 0.000000 0.000000 4.291000 
# 
# 
# High freq. dielectric constant tensor:
#      x y z
#    x 1.866940 0.000000 0.000000 
#    y 0.000000 1.936550 0.000000 
#    z 0.000000 0.000000 1.911510 
# 
# From -- ./inp_files/4518.got.cif
#   From: 2010.03.12/outbox.cif.g09.slc.cpg/sg60_3_cif.got.tgz:4518.got - 2010.04.10 18:46:24.
