data_PCOD8248697
_publ_section_title
;
Structure prediction by ZEFSAII (Michael W. Deem and Ramdas Pophale) SiO2 
 PCOD8248697
Probable space group: P B C A
;
_chemical_formula_sum "Si O2"
_cell_formula_units_Z 48
_cell_length_a 14.168022
_cell_length_b 26.479611
_cell_length_c 5.322851
_cell_angle_alpha 90.000000
_cell_angle_beta 90.000000
_cell_angle_gamma 90.000000
_cell_volume 1996.940535
_symmetry_space_group_name_H-M "P B C A"
_symmetry_group_IT_number 61
_symmetry_cell_setting 'orthorhombic'
loop_
_space_group_symop_operation_xyz
x,y,z
1/2-x,-y,1/2+z
1/2+x,1/2-y,-z
-x,1/2+y,1/2-z
-x,-y,-z
1/2+x,y,1/2-z
1/2-x,1/2+y,z
x,1/2-y,1/2+z
loop_
_atom_site_type_symbol
_atom_site_label
_atom_site_fract_x
_atom_site_fract_y
_atom_site_fract_z
Si Si1 0.424332 0.933087 0.303580
Si Si2 0.404723 0.112016 0.482429
Si Si3 0.917027 0.881926 0.702049
Si Si4 0.591895 0.725455 0.891141
Si Si5 0.298734 0.017921 0.413895
Si Si6 0.879778 0.766898 0.627433
O O1 0.536191 0.921750 0.314221
O O2 0.373455 0.901003 0.531247
O O3 0.400010 0.991827 0.347614
O O4 0.384908 0.917644 0.028737
O O5 0.468474 0.119489 0.231831
O O6 0.381636 0.166254 0.601676
O O7 0.311774 0.079023 0.416990
O O8 0.885897 0.826318 0.635167
O O9 0.637027 0.748344 0.637677
O O10 0.478780 0.735417 0.892528
O O11 0.270450 0.998597 0.690528
O O12 0.823499 0.752908 0.372586
#
# Coordination Sequence:
#
# PCOD8248697 Si02
#       6
#     8   8   8   8   8   8
#     4  10  21  39  61  86 116 152 201 246 292 351
#     4  10  23  36  66  90 121 154 203 243 302 355
#     4  10  19  31  61  90 118 147 190 245 299 346
#     4  10  17  29  52  91 125 140 180 248 305 339
#     4  12  28  44  59  85 123 164 204 251 301 353
#     4  10  15  26  45  86 130 136 170 235 312 337
#
# _framework density 24.036773
#
# number of rings (size 3 to 8) (size 9 to 14) (size 15 to 20)
#    1.000    0.667    3.333    4.500    2.333    0.667 
#    0.000    0.000    0.000    0.000    0.000   44.333 
#    0.000    0.000    0.000    0.000    0.000    0.000 
#
# Total GULP energy -594638.046912 kJ/mol
# GULP energy per Si atom -12388.292644 kJ/mol
# Density = 2.398206 g / cm^3
# Si number density = 24.036773 Si / 1000 Ang^3
#
#
#
# Elastic Constant Matrix: (Units=GPa)
#
#
# Indices 1 2 3 4 5 6 
#
# 1 8.9830 9.4887 4.8325 0.0000 0.0000 0.0000
# 2 9.4887 140.9445 32.1825 0.0000 0.0000 0.0000
# 3 4.8325 32.1825 205.1566 0.0000 0.0000 0.0000
# 4 0.0000 0.0000 0.0000 33.3663 0.0000 0.0000
# 5 0.0000 0.0000 0.0000 0.0000 21.7051 0.0000
# 6 0.0000 0.0000 0.0000 0.0000 0.0000 13.7064
#
#
#
# Elastic Compliance Matrix: (Units=1/GPa)
#
#
# Indices 1 2 3 4 5 6 
#
# 1 0.120362 -0.007733 -0.001622 0.000000 0.000000 0.000000
# 2 -0.007733 0.007855 -0.001050 0.000000 0.000000 0.000000
# 3 -0.001622 -0.001050 0.005077 0.000000 0.000000 0.000000
# 4 0.000000 0.000000 0.000000 0.029970 0.000000 0.000000
# 5 0.000000 0.000000 0.000000 0.000000 0.046072 0.000000
# 6 0.000000 0.000000 0.000000 0.000000 0.000000 0.072958
#
#
# Mechanical properties :
#
#
# Convention : Reuss Voigt Hill
#
# Bulk Modulus (GPa) = 8.89006 49.78793 29.33900
# Shear Modulus (GPa) = 14.67995 34.32760 24.50377
#
# Velocity S-wave (km/s) = 2.47397 3.78316 3.19631
# Velocity P-wave (km/s) = 3.44489 6.31199 5.08471
#
# Compressibility (1/GPa) = 0.11248512
#
# Stress axis : x y z
#
# Youngs Moduli (GPa) = 8.30824 127.30174 196.95656
#
# Poissons Ratio (x) = 0.98439 0.31949
# Poissons Ratio (y) = 0.06425 0.20683
# Poissons Ratio (z) = 0.01348 0.13368
#
# Static dielectric constant tensor:
#      x y z
#    x 3.640970 0.000000 0.000000 
#    y 0.000000 4.161740 0.000000 
#    z 0.000000 0.000000 5.012300 
# 
# 
# High freq. dielectric constant tensor:
#      x y z
#    x 1.895380 0.000000 0.000000 
#    y 0.000000 1.958190 0.000000 
#    z 0.000000 0.000000 1.972160 
# 
# From -- ./inp_files/547.got.cif
#   From: 2010.03.12/outbox.cif.g09.slc.cpg/sg61_1_cif.got.tgz:547.got - 2010.04.10 19:05:03.
