data_PCOD8248411
_publ_section_title
;
Structure prediction by ZEFSAII (Michael W. Deem and Ramdas Pophale) SiO2 
 PCOD8248411
Probable space group: P B C N
;
_chemical_formula_sum "Si O2"
_cell_formula_units_Z 48
_cell_length_a 16.301940
_cell_length_b 11.196875
_cell_length_c 11.613989
_cell_angle_alpha 90.000000
_cell_angle_beta 90.000000
_cell_angle_gamma 90.000000
_cell_volume 2119.910523
_symmetry_space_group_name_H-M "P B C N"
_symmetry_group_IT_number 60
_symmetry_cell_setting 'orthorhombic'
loop_
_space_group_symop_operation_xyz
x,y,z
1/2-x,1/2-y,1/2+z
1/2+x,1/2-y,-z
-x,y,1/2-z
-x,-y,-z
1/2+x,1/2+y,1/2-z
1/2-x,1/2+y,z
x,-y,1/2+z
loop_
_atom_site_type_symbol
_atom_site_label
_atom_site_fract_x
_atom_site_fract_y
_atom_site_fract_z
Si Si1 0.840856 0.540544 0.374561
Si Si2 0.185915 0.953444 0.990242
Si Si3 0.600093 0.310973 0.998661
Si Si4 0.872351 0.700300 0.763866
Si Si5 0.782110 0.686931 0.174748
Si Si6 0.577391 0.768804 0.016626
O O1 0.750477 0.500953 0.415598
O O2 0.888982 0.428187 0.321588
O O3 0.837374 0.644921 0.279986
O O4 0.894885 0.598947 0.476339
O O5 0.231828 0.929252 0.869433
O O6 0.144414 0.827866 0.026766
O O7 0.114574 0.050658 0.969292
O O8 0.664525 0.230229 0.067120
O O9 0.614374 0.299353 0.861918
O O10 0.509638 0.269847 0.036018
O O11 0.779445 0.708274 0.714674
O O12 0.932758 0.724604 0.655915
#
# Coordination Sequence:
#
# PCOD8248411 Si02
#       6
#     8   8   8   8   8   8
#     4  12  22  44  70 100 137 184 237 280 339 426
#     4  11  22  45  71  98 133 188 237 283 340 418
#     4  12  24  46  69 105 142 178 234 297 355 410
#     4  11  24  43  71  97 138 185 230 282 350 423
#     4  11  23  42  71 102 131 182 243 282 342 416
#     4  11  27  44  69 107 144 184 229 292 365 405
#
# _framework density 22.642465000000001
#
# number of rings (size 3 to 8) (size 9 to 14) (size 15 to 20)
#    0.000    0.667    3.333    6.000    0.000    1.333 
#    3.000    0.000    0.000    0.000    0.000    0.000 
#    0.000    0.000    0.000    0.000    0.000    0.000 
#
# Total GULP energy -595359.701560 kJ/mol
# GULP energy per Si atom -12403.327116 kJ/mol
# Density = 2.259093 g / cm^3
# Si number density = 22.642465 Si / 1000 Ang^3
#
#
#
# Elastic Constant Matrix: (Units=GPa)
#
#
# Indices 1 2 3 4 5 6 
#
# 1 94.9457 32.8285 23.3062 0.0000 0.0000 0.0000
# 2 32.8285 128.3221 39.8934 0.0000 0.0000 0.0000
# 3 23.3062 39.8934 105.2088 0.0000 0.0000 0.0000
# 4 0.0000 0.0000 0.0000 34.8664 0.0000 0.0000
# 5 0.0000 0.0000 0.0000 0.0000 21.7187 0.0000
# 6 0.0000 0.0000 0.0000 0.0000 0.0000 28.2242
#
#
#
# Elastic Compliance Matrix: (Units=1/GPa)
#
#
# Indices 1 2 3 4 5 6 
#
# 1 0.011807 -0.002502 -0.001667 0.000000 0.000000 0.000000
# 2 -0.002502 0.009365 -0.002997 0.000000 0.000000 0.000000
# 3 -0.001667 -0.002997 0.011010 0.000000 0.000000 0.000000
# 4 0.000000 0.000000 0.000000 0.028681 0.000000 0.000000
# 5 0.000000 0.000000 0.000000 0.000000 0.046043 0.000000
# 6 0.000000 0.000000 0.000000 0.000000 0.000000 0.035431
#
#
# Mechanical properties :
#
#
# Convention : Reuss Voigt Hill
#
# Bulk Modulus (GPa) = 56.02062 57.83699 56.92880
# Shear Modulus (GPa) = 30.74694 32.45842 31.60268
#
# Velocity S-wave (km/s) = 3.68901 3.79029 3.73999
# Velocity P-wave (km/s) = 6.55288 6.68985 6.62172
#
# Compressibility (1/GPa) = 0.01785057
#
# Stress axis : x y z
#
# Youngs Moduli (GPa) = 84.69799 106.78434 90.82356
#
# Poissons Ratio (x) = 0.26721 0.15137
# Poissons Ratio (y) = 0.21195 0.27216
# Poissons Ratio (z) = 0.14116 0.31999
#
# Static dielectric constant tensor:
#      x y z
#    x 3.882400 0.000000 0.000000 
#    y 0.000000 4.038420 0.000000 
#    z 0.000000 0.000000 4.042110 
# 
# 
# High freq. dielectric constant tensor:
#      x y z
#    x 1.882280 0.000000 0.000000 
#    y 0.000000 1.894950 0.000000 
#    z 0.000000 0.000000 1.895400 
# 
# From -- ./inp_files/12417.got.cif
#   From: 2010.03.12/outbox.cif.g09.slc.cpg/sg60_7_cif.got.tgz:12417.got - 2010.04.10 18:46:24.
