data_PCOD8248903
_publ_section_title
;
Structure prediction by ZEFSAII (Michael W. Deem and Ramdas Pophale) SiO2 
 PCOD8248903
Probable space group: P B C A
;
_chemical_formula_sum "Si O2"
_cell_formula_units_Z 48
_cell_length_a 8.617401
_cell_length_b 31.346824
_cell_length_c 9.478685
_cell_angle_alpha 90.000000
_cell_angle_beta 90.000000
_cell_angle_gamma 90.000000
_cell_volume 2560.459667
_symmetry_space_group_name_H-M "P B C A"
_symmetry_group_IT_number 61
_symmetry_cell_setting 'orthorhombic'
loop_
_space_group_symop_operation_xyz
x,y,z
1/2-x,-y,1/2+z
1/2+x,1/2-y,-z
-x,1/2+y,1/2-z
-x,-y,-z
1/2+x,y,1/2-z
1/2-x,1/2+y,z
x,1/2-y,1/2+z
loop_
_atom_site_type_symbol
_atom_site_label
_atom_site_fract_x
_atom_site_fract_y
_atom_site_fract_z
Si Si1 0.326031 0.622551 0.365982
Si Si2 0.159755 0.960371 0.874248
Si Si3 0.819513 0.122047 0.431248
Si Si4 0.179656 0.783909 0.564360
Si Si5 0.826136 0.783225 0.636538
Si Si6 0.298231 0.537072 0.067143
O O1 0.224797 0.584716 0.435570
O O2 0.295698 0.623633 0.200643
O O3 0.506023 0.612339 0.384454
O O4 0.282859 0.669690 0.425018
O O5 0.198956 0.967294 0.710266
O O6 0.239283 0.997784 0.965099
O O7 0.976976 0.961084 0.892012
O O8 0.808732 0.168422 0.505598
O O9 0.755907 0.080646 0.516669
O O10 0.222760 0.750813 0.444367
O O11 0.293814 0.779473 0.697126
O O12 0.007043 0.773987 0.616879
#
# Coordination Sequence:
#
# PCOD8248903 Si02
#       6
#     8   8   8   8   8   8
#     4   9  17  30  50  73  97 129 166 201 242 293
#     4  10  20  33  51  75 100 129 165 203 245 292
#     4   9  17  30  50  73  97 129 166 201 242 293
#     4  10  20  34  53  77 103 133 169 208 251 299
#     4  10  20  34  53  77 103 133 169 208 251 299
#     4  10  20  33  51  75 100 129 165 203 245 292
#
# _framework density 18.746632999999999
#
# number of rings (size 3 to 8) (size 9 to 14) (size 15 to 20)
#    0.000    2.333    0.000    5.000    0.000    6.667 
#    0.000    1.667    0.000    4.000    0.000    0.000 
#    0.000    0.000    0.000    0.000    0.000    0.000 
#
# Total GULP energy -594798.740834 kJ/mol
# GULP energy per Si atom -12391.640434 kJ/mol
# Density = 1.870396 g / cm^3
# Si number density = 18.746633 Si / 1000 Ang^3
#
#
#
# Elastic Constant Matrix: (Units=GPa)
#
#
# Indices 1 2 3 4 5 6 
#
# 1 42.8466 26.0978 1.5844 0.0000 0.0000 0.0000
# 2 26.0978 150.9641 33.1404 0.0000 0.0000 0.0000
# 3 1.5844 33.1404 34.1608 0.0000 0.0000 0.0000
# 4 0.0000 0.0000 0.0000 22.1405 0.0000 0.0000
# 5 0.0000 0.0000 0.0000 0.0000 20.2396 0.0000
# 6 0.0000 0.0000 0.0000 0.0000 0.0000 34.6637
#
#
#
# Elastic Compliance Matrix: (Units=1/GPa)
#
#
# Indices 1 2 3 4 5 6 
#
# 1 0.026528 -0.005484 0.004090 0.000000 0.000000 0.000000
# 2 -0.005484 0.009550 -0.009011 0.000000 0.000000 0.000000
# 3 0.004090 -0.009011 0.037825 0.000000 0.000000 0.000000
# 4 0.000000 0.000000 0.000000 0.045166 0.000000 0.000000
# 5 0.000000 0.000000 0.000000 0.000000 0.049408 0.000000
# 6 0.000000 0.000000 0.000000 0.000000 0.000000 0.028849
#
#
# Mechanical properties :
#
#
# Convention : Reuss Voigt Hill
#
# Bulk Modulus (GPa) = 18.83461 38.84629 28.84045
# Shear Modulus (GPa) = 21.20144 26.55205 23.87674
#
# Velocity S-wave (km/s) = 3.36660 3.76754 3.57270
# Velocity P-wave (km/s) = 5.01804 6.30020 5.69532
#
# Compressibility (1/GPa) = 0.05309374
#
# Stress axis : x y z
#
# Youngs Moduli (GPa) = 37.69601 104.71066 26.43756
#
# Poissons Ratio (x) = 0.57421 -0.10812
# Poissons Ratio (y) = 0.20672 0.23822
# Poissons Ratio (z) = -0.15416 0.94350
#
# Static dielectric constant tensor:
#      x y z
#    x 3.470930 0.000000 0.000000 
#    y 0.000000 4.316190 0.000000 
#    z 0.000000 0.000000 3.065140 
# 
# 
# High freq. dielectric constant tensor:
#      x y z
#    x 1.744590 0.000000 0.000000 
#    y 0.000000 1.757470 0.000000 
#    z 0.000000 0.000000 1.667190 
# 
# From -- ./inp_files/4869.got.cif
#   From: 2010.03.12/outbox.cif.g09.slc.cpg/sg61_3_cif.got.tgz:4869.got - 2010.04.10 19:05:03.
