data_PCOD8248260
_publ_section_title
;
Structure prediction by ZEFSAII (Michael W. Deem and Ramdas Pophale) SiO2 
 PCOD8248260
Probable space group: P B C N
;
_chemical_formula_sum "Si O2"
_cell_formula_units_Z 48
_cell_length_a 11.048929
_cell_length_b 18.610597
_cell_length_c 11.798551
_cell_angle_alpha 90.000000
_cell_angle_beta 90.000000
_cell_angle_gamma 90.000000
_cell_volume 2426.102592
_symmetry_space_group_name_H-M "P B C N"
_symmetry_group_IT_number 60
_symmetry_cell_setting 'orthorhombic'
loop_
_space_group_symop_operation_xyz
x,y,z
1/2-x,1/2-y,1/2+z
1/2+x,1/2-y,-z
-x,y,1/2-z
-x,-y,-z
1/2+x,1/2+y,1/2-z
1/2-x,1/2+y,z
x,-y,1/2+z
loop_
_atom_site_type_symbol
_atom_site_label
_atom_site_fract_x
_atom_site_fract_y
_atom_site_fract_z
Si Si1 0.126666 0.558283 0.295156
Si Si2 0.796763 0.043258 0.409931
Si Si3 0.737233 0.612283 0.989467
Si Si4 0.501112 0.651945 0.384909
Si Si5 0.419618 0.060684 0.938953
Si Si6 0.938213 0.691462 0.873446
O O1 0.238545 0.565617 0.210127
O O2 0.162972 0.593351 0.415015
O O3 0.102176 0.472379 0.313309
O O4 0.000000 0.593375 0.250000
O O5 0.923419 0.083471 0.428320
O O6 0.709566 0.072832 0.505830
O O7 0.813469 0.957738 0.423999
O O8 0.628901 0.651773 0.054704
O O9 0.799919 0.662844 0.892534
O O10 0.500000 0.646418 0.250000
O O11 0.560944 0.727627 0.421260
O O12 0.479995 0.137890 0.946020
O O13 0.500000 0.000000 0.000000
O O14 0.000000 0.690180 0.750000
#
# Coordination Sequence:
#
# PCOD8248260 Si02
#       6
#     8   8   8   8   8   8
#     4  11  18  33  63  93 118 148 210 262 307 354
#     4  11  21  37  62  90 121 159 212 252 300 377
#     4  11  22  41  62  90 125 167 209 257 313 383
#     4  11  25  41  61  89 126 175 199 253 326 392
#     4  11  19  33  60  95 112 158 203 259 308 348
#     4  11  23  41  62  91 127 158 209 265 323 367
#
# _framework density 19.784818999999999
#
# number of rings (size 3 to 8) (size 9 to 14) (size 15 to 20)
#    0.000    1.000    6.667    2.000    2.333    0.000 
#    0.000    0.000    0.000    0.000    0.000    0.000 
#    0.000    0.000    0.000    0.000    0.000    0.000 
#
# Total GULP energy -594639.079217 kJ/mol
# GULP energy per Si atom -12388.314150 kJ/mol
# Density = 1.973979 g / cm^3
# Si number density = 19.784819 Si / 1000 Ang^3
#
#
#
# Elastic Constant Matrix: (Units=GPa)
#
#
# Indices 1 2 3 4 5 6 
#
# 1 115.6095 55.5943 39.6008 0.0000 0.0000 0.0000
# 2 55.5943 133.8717 24.6808 0.0000 0.0000 0.0000
# 3 39.6008 24.6808 66.3463 0.0000 0.0000 0.0000
# 4 0.0000 0.0000 0.0000 19.3915 0.0000 0.0000
# 5 0.0000 0.0000 0.0000 0.0000 37.0548 0.0000
# 6 0.0000 0.0000 0.0000 0.0000 0.0000 33.2779
#
#
#
# Elastic Compliance Matrix: (Units=1/GPa)
#
#
# Indices 1 2 3 4 5 6 
#
# 1 0.012726 -0.004170 -0.006044 0.000000 0.000000 0.000000
# 2 -0.004170 0.009387 -0.001003 0.000000 0.000000 0.000000
# 3 -0.006044 -0.001003 0.019053 0.000000 0.000000 0.000000
# 4 0.000000 0.000000 0.000000 0.051569 0.000000 0.000000
# 5 0.000000 0.000000 0.000000 0.000000 0.026987 0.000000
# 6 0.000000 0.000000 0.000000 0.000000 0.000000 0.030050
#
#
# Mechanical properties :
#
#
# Convention : Reuss Voigt Hill
#
# Bulk Modulus (GPa) = 53.38804 61.73103 57.55953
# Shear Modulus (GPa) = 28.01912 31.00828 29.51370
#
# Velocity S-wave (km/s) = 3.76732 3.96318 3.86649
# Velocity P-wave (km/s) = 6.77986 7.22574 7.00635
#
# Compressibility (1/GPa) = 0.01873079
#
# Stress axis : x y z
#
# Youngs Moduli (GPa) = 78.58125 106.53537 52.48486
#
# Poissons Ratio (x) = 0.44429 0.31724
# Poissons Ratio (y) = 0.32771 0.05262
# Poissons Ratio (z) = 0.47497 0.10681
#
# Static dielectric constant tensor:
#      x y z
#    x 3.460820 0.000000 0.000000 
#    y 0.000000 3.767310 0.000000 
#    z 0.000000 0.000000 3.571240 
# 
# 
# High freq. dielectric constant tensor:
#      x y z
#    x 1.772270 0.000000 0.000000 
#    y 0.000000 1.759190 0.000000 
#    z 0.000000 0.000000 1.767830 
# 
# From -- ./inp_files/11013.got.cif
#   From: 2010.03.12/outbox.cif.g09.slc.cpg/sg60_6_cif.got.tgz:11013.got - 2010.04.10 18:46:24.
