data_PCOD8248079
_publ_section_title
;
Structure prediction by ZEFSAII (Michael W. Deem and Ramdas Pophale) SiO2 
 PCOD8248079
Probable space group: P B C N
;
_chemical_formula_sum "Si O2"
_cell_formula_units_Z 32
_cell_length_a 10.263688
_cell_length_b 9.658817
_cell_length_c 12.955117
_cell_angle_alpha 90.000000
_cell_angle_beta 90.000000
_cell_angle_gamma 90.000000
_cell_volume 1284.306614
_symmetry_space_group_name_H-M "P B C N"
_symmetry_group_IT_number 60
_symmetry_cell_setting 'orthorhombic'
loop_
_space_group_symop_operation_xyz
x,y,z
1/2-x,1/2-y,1/2+z
1/2+x,1/2-y,-z
-x,y,1/2-z
-x,-y,-z
1/2+x,1/2+y,1/2-z
1/2-x,1/2+y,z
x,-y,1/2+z
loop_
_atom_site_type_symbol
_atom_site_label
_atom_site_fract_x
_atom_site_fract_y
_atom_site_fract_z
Si Si1 0.287296 0.562196 0.348536
Si Si2 0.704216 0.831699 0.286510
Si Si3 0.916481 0.635276 0.991342
Si Si4 0.477569 0.361511 0.137977
O O1 0.288285 0.680072 0.261733
O O2 0.190862 0.441408 0.306365
O O3 0.225056 0.617373 0.454651
O O4 0.432708 0.500578 0.369751
O O5 0.587982 0.830004 0.369295
O O6 0.823840 0.888386 0.358446
O O7 0.990808 0.761844 0.043970
O O8 0.000000 0.500000 0.000000
O O9 0.500000 0.287749 0.250000
#
# Coordination Sequence:
#
# PCOD8248079 Si02
#       4
#     8   8   8   8
#     4  11  24  49  73 108 155 198 250 324 385 458
#     4  11  26  47  76 107 150 201 256 320 391 460
#     4  12  27  45  79 111 151 202 259 317 395 469
#     4  10  23  48  70 105 155 195 249 317 376 459
#
# _framework density 24.916169
#
# number of rings (size 3 to 8) (size 9 to 14) (size 15 to 20)
#    0.000    1.000    5.000    1.500    7.000    1.000 
#   22.500    0.000    0.000    0.000    0.000    0.000 
#    0.000    0.000    0.000    0.000    0.000    0.000 
#
# Total GULP energy -396552.266713 kJ/mol
# GULP energy per Si atom -12392.258335 kJ/mol
# Density = 2.485946 g / cm^3
# Si number density = 24.916169 Si / 1000 Ang^3
#
#
#
# Elastic Constant Matrix: (Units=GPa)
#
#
# Indices 1 2 3 4 5 6 
#
# 1 46.4388 11.7238 -18.3024 0.0000 0.0000 0.0000
# 2 11.7238 116.1869 13.7973 0.0000 0.0000 0.0000
# 3 -18.3024 13.7973 69.3775 0.0000 0.0000 0.0000
# 4 0.0000 0.0000 0.0000 28.1050 0.0000 0.0000
# 5 0.0000 0.0000 0.0000 0.0000 43.9509 0.0000
# 6 0.0000 0.0000 0.0000 0.0000 0.0000 31.8793
#
#
#
# Elastic Compliance Matrix: (Units=1/GPa)
#
#
# Indices 1 2 3 4 5 6 
#
# 1 0.025297 -0.003426 0.007355 0.000000 0.000000 0.000000
# 2 -0.003426 0.009279 -0.002749 0.000000 0.000000 0.000000
# 3 0.007355 -0.002749 0.016901 0.000000 0.000000 0.000000
# 4 0.000000 0.000000 0.000000 0.035581 0.000000 0.000000
# 5 0.000000 0.000000 0.000000 0.000000 0.022753 0.000000
# 6 0.000000 0.000000 0.000000 0.000000 0.000000 0.031368
#
#
# Mechanical properties :
#
#
# Convention : Reuss Voigt Hill
#
# Bulk Modulus (GPa) = 18.57462 27.38230 22.97846
# Shear Modulus (GPa) = 31.89484 35.77267 33.83375
#
# Velocity S-wave (km/s) = 3.58171 3.79320 3.68897
# Velocity P-wave (km/s) = 4.95741 5.49528 5.23326
#
# Compressibility (1/GPa) = 0.05383690
#
# Stress axis : x y z
#
# Youngs Moduli (GPa) = 39.52980 107.77031 59.16831
#
# Poissons Ratio (x) = 0.36923 -0.43518
# Poissons Ratio (y) = 0.13543 0.16266
# Poissons Ratio (z) = -0.29074 0.29628
#
# Static dielectric constant tensor:
#      x y z
#    x 4.808890 0.000000 0.000000 
#    y 0.000000 4.231810 0.000000 
#    z 0.000000 0.000000 4.538670 
# 
# 
# High freq. dielectric constant tensor:
#      x y z
#    x 1.989020 0.000000 0.000000 
#    y 0.000000 1.985010 0.000000 
#    z 0.000000 0.000000 2.010940 
# 
# From -- ./inp_files/15602.got.cif
#   From: 2010.03.12/outbox.cif.g09.slc.cpg/sg60_8_cif.got.tgz:15602.got - 2010.04.10 18:46:24.
