data_PCOD8248779
_publ_section_title
;
Structure prediction by ZEFSAII (Michael W. Deem and Ramdas Pophale) SiO2 
 PCOD8248779
Probable space group: P B C A
;
_chemical_formula_sum "Si O2"
_cell_formula_units_Z 64
_cell_length_a 20.046750
_cell_length_b 19.456840
_cell_length_c 8.772382
_cell_angle_alpha 90.000000
_cell_angle_beta 90.000000
_cell_angle_gamma 90.000000
_cell_volume 3421.636082
_symmetry_space_group_name_H-M "P B C A"
_symmetry_group_IT_number 61
_symmetry_cell_setting 'orthorhombic'
loop_
_space_group_symop_operation_xyz
x,y,z
1/2-x,-y,1/2+z
1/2+x,1/2-y,-z
-x,1/2+y,1/2-z
-x,-y,-z
1/2+x,y,1/2-z
1/2-x,1/2+y,z
x,1/2-y,1/2+z
loop_
_atom_site_type_symbol
_atom_site_label
_atom_site_fract_x
_atom_site_fract_y
_atom_site_fract_z
Si Si1 0.920795 0.568256 0.181516
Si Si2 0.835502 0.162028 0.789723
Si Si3 0.830697 0.303211 0.636367
Si Si4 0.233976 0.050317 0.657899
Si Si5 0.915734 0.960657 0.331497
Si Si6 0.449206 0.101096 0.312323
Si Si7 0.771284 0.913746 0.687287
Si Si8 0.956487 0.428339 0.335928
O O1 0.849476 0.604648 0.202391
O O2 0.924638 0.500276 0.284883
O O3 0.978699 0.620380 0.239585
O O4 0.934365 0.546884 0.008124
O O5 0.825651 0.223072 0.671110
O O6 0.782176 0.102234 0.750842
O O7 0.910186 0.132877 0.773392
O O8 0.822295 0.191191 0.956710
O O9 0.901955 0.332569 0.692744
O O10 0.771127 0.344981 0.719316
O O11 0.157888 0.068752 0.702068
O O12 0.246810 0.057132 0.478519
O O13 0.251331 0.971744 0.692662
O O14 0.969314 0.918197 0.231695
O O15 0.916645 0.041021 0.289211
O O16 0.458691 0.072089 0.481996
#
# Coordination Sequence:
#
# PCOD8248779 Si02
#       8
#     8   8   8   8   8   8   8   8
#     4  10  19  31  53  82 109 136 174 222 269 316
#     4  10  22  38  55  78 108 145 185 224 272 328
#     4  10  22  38  55  78 108 145 185 224 272 328
#     4  10  20  35  55  81 110 141 180 226 271 321
#     4  10  19  31  53  82 109 136 174 222 269 316
#     4  10  19  33  53  77 108 140 175 221 267 319
#     4  10  20  35  55  81 110 141 180 226 271 321
#     4  10  19  33  53  77 108 140 175 221 267 319
#
# _framework density 18.704502000000002
#
# number of rings (size 3 to 8) (size 9 to 14) (size 15 to 20)
#    0.000    2.000    2.500    3.000    0.000    4.000 
#    0.000    1.250    0.000    6.000    0.000    0.000 
#    0.000    0.000    0.000    0.000    0.000    0.000 
#
# Total GULP energy -793616.161494 kJ/mol
# GULP energy per Si atom -12400.252523 kJ/mol
# Density = 1.866193 g / cm^3
# Si number density = 18.704502 Si / 1000 Ang^3
#
#
#
# Elastic Constant Matrix: (Units=GPa)
#
#
# Indices 1 2 3 4 5 6 
#
# 1 102.8582 13.8624 22.4519 0.0000 0.0000 0.0000
# 2 13.8624 41.2442 -3.6049 0.0000 0.0000 0.0000
# 3 22.4519 -3.6049 38.6018 0.0000 0.0000 0.0000
# 4 0.0000 0.0000 0.0000 27.0142 0.0000 0.0000
# 5 0.0000 0.0000 0.0000 0.0000 28.3936 0.0000
# 6 0.0000 0.0000 0.0000 0.0000 0.0000 22.2120
#
#
#
# Elastic Compliance Matrix: (Units=1/GPa)
#
#
# Indices 1 2 3 4 5 6 
#
# 1 0.011966 -0.004668 -0.007395 0.000000 0.000000 0.000000
# 2 -0.004668 0.026267 0.005168 0.000000 0.000000 0.000000
# 3 -0.007395 0.005168 0.030690 0.000000 0.000000 0.000000
# 4 0.000000 0.000000 0.000000 0.037018 0.000000 0.000000
# 5 0.000000 0.000000 0.000000 0.000000 0.035219 0.000000
# 6 0.000000 0.000000 0.000000 0.000000 0.000000 0.045021
#
#
# Mechanical properties :
#
#
# Convention : Reuss Voigt Hill
#
# Bulk Modulus (GPa) = 18.13874 27.56922 22.85398
# Shear Modulus (GPa) = 22.89937 25.52364 24.21150
#
# Velocity S-wave (km/s) = 3.50275 3.69802 3.60171
# Velocity P-wave (km/s) = 5.10663 5.74501 5.43520
#
# Compressibility (1/GPa) = 0.05513061
#
# Stress axis : x y z
#
# Youngs Moduli (GPa) = 83.57349 38.07128 32.58443
#
# Poissons Ratio (x) = 0.17772 0.24098
# Poissons Ratio (y) = 0.39013 -0.16840
# Poissons Ratio (z) = 0.61806 -0.19675
#
# Static dielectric constant tensor:
#      x y z
#    x 3.858180 0.000000 0.000000 
#    y 0.000000 3.119200 0.000000 
#    z 0.000000 0.000000 3.402660 
# 
# 
# High freq. dielectric constant tensor:
#      x y z
#    x 1.745300 0.000000 0.000000 
#    y 0.000000 1.687140 0.000000 
#    z 0.000000 0.000000 1.729010 
# 
# From -- ./inp_files/4127.got.cif
#   From: 2010.03.12/outbox.cif.g09.slc.cpg/sg61_3_cif.got.tgz:4127.got - 2010.04.10 19:05:03.
