data_PCOD8248005
_publ_section_title
;
Structure prediction by ZEFSAII (Michael W. Deem and Ramdas Pophale) SiO2 
 PCOD8248005
Probable space group: P B C N
;
_chemical_formula_sum "Si O2"
_cell_formula_units_Z 48
_cell_length_a 8.646593
_cell_length_b 14.426138
_cell_length_c 17.682421
_cell_angle_alpha 90.000000
_cell_angle_beta 90.000000
_cell_angle_gamma 90.000000
_cell_volume 2205.651155
_symmetry_space_group_name_H-M "P B C N"
_symmetry_group_IT_number 60
_symmetry_cell_setting 'orthorhombic'
loop_
_space_group_symop_operation_xyz
x,y,z
1/2-x,1/2-y,1/2+z
1/2+x,1/2-y,-z
-x,y,1/2-z
-x,-y,-z
1/2+x,1/2+y,1/2-z
1/2-x,1/2+y,z
x,-y,1/2+z
loop_
_atom_site_type_symbol
_atom_site_label
_atom_site_fract_x
_atom_site_fract_y
_atom_site_fract_z
Si Si1 0.339414 0.756542 0.711161
Si Si2 0.647211 0.549509 0.034963
Si Si3 0.345220 0.414358 0.790973
Si Si4 0.264207 0.857963 0.441133
Si Si5 0.673247 0.902409 0.224815
Si Si6 0.579857 0.276544 0.454931
O O1 0.500000 0.779592 0.750000
O O2 0.208307 0.819959 0.750192
O O3 0.289799 0.649355 0.718302
O O4 0.360543 0.770614 0.621894
O O5 0.621838 0.592950 0.119097
O O6 0.773725 0.467294 0.036148
O O7 0.500000 0.500000 0.000000
O O8 0.688040 0.635954 0.980244
O O9 0.500000 0.448612 0.750000
O O10 0.212092 0.489547 0.776812
O O11 0.301081 0.849484 0.353526
O O12 0.400193 0.805772 0.484945
O O13 0.097602 0.809705 0.454678
O O14 0.500000 0.888834 0.250000
#
# Coordination Sequence:
#
# PCOD8248005 Si02
#       6
#     8   8   8   8   8   8
#     4  12  25  42  67  98 138 180 228 287 345 419
#     4   9  22  42  66  95 135 176 228 283 343 416
#     4  11  25  43  71  99 135 181 235 287 354 422
#     4  10  23  43  66  98 135 177 230 285 343 418
#     4  11  24  44  68  96 136 178 232 286 348 409
#     4  11  24  41  68  96 137 178 226 286 346 415
#
# _framework density 21.762281999999999
#
# number of rings (size 3 to 8) (size 9 to 14) (size 15 to 20)
#    0.000    1.333    1.667    2.500   11.667    0.000 
#    0.000    0.833    0.000    0.000    0.000    0.000 
#    0.000    0.000    0.000    0.000    0.000    0.000 
#
# Total GULP energy -595002.619089 kJ/mol
# GULP energy per Si atom -12395.887898 kJ/mol
# Density = 2.171275 g / cm^3
# Si number density = 21.762282 Si / 1000 Ang^3
#
#
#
# Elastic Constant Matrix: (Units=GPa)
#
#
# Indices 1 2 3 4 5 6 
#
# 1 85.1453 26.4905 39.2530 0.0000 0.0000 0.0000
# 2 26.4905 99.0043 49.3535 0.0000 0.0000 0.0000
# 3 39.2530 49.3535 90.6194 0.0000 0.0000 0.0000
# 4 0.0000 0.0000 0.0000 39.4188 0.0000 0.0000
# 5 0.0000 0.0000 0.0000 0.0000 38.1841 0.0000
# 6 0.0000 0.0000 0.0000 0.0000 0.0000 40.3316
#
#
#
# Elastic Compliance Matrix: (Units=1/GPa)
#
#
# Indices 1 2 3 4 5 6 
#
# 1 0.014754 -0.001046 -0.005821 0.000000 0.000000 0.000000
# 2 -0.001046 0.013939 -0.007138 0.000000 0.000000 0.000000
# 3 -0.005821 -0.007138 0.017444 0.000000 0.000000 0.000000
# 4 0.000000 0.000000 0.000000 0.025369 0.000000 0.000000
# 5 0.000000 0.000000 0.000000 0.000000 0.026189 0.000000
# 6 0.000000 0.000000 0.000000 0.000000 0.000000 0.024794
#
#
# Mechanical properties :
#
#
# Convention : Reuss Voigt Hill
#
# Bulk Modulus (GPa) = 55.16887 56.10699 55.63793
# Shear Modulus (GPa) = 31.94035 34.23171 33.08603
#
# Velocity S-wave (km/s) = 3.83520 3.97039 3.90338
# Velocity P-wave (km/s) = 6.70950 6.84517 6.77768
#
# Compressibility (1/GPa) = 0.01812616
#
# Stress axis : x y z
#
# Youngs Moduli (GPa) = 67.77998 71.74165 57.32477
#
# Poissons Ratio (x) = 0.07503 0.33370
# Poissons Ratio (y) = 0.07088 0.40921
# Poissons Ratio (z) = 0.39456 0.51213
#
# Static dielectric constant tensor:
#      x y z
#    x 3.675230 0.000000 0.000000 
#    y 0.000000 4.259630 0.000000 
#    z 0.000000 0.000000 4.091430 
# 
# 
# High freq. dielectric constant tensor:
#      x y z
#    x 1.835940 0.000000 0.000000 
#    y 0.000000 1.869780 0.000000 
#    z 0.000000 0.000000 1.866920 
# 
# From -- ./inp_files/19283.got.cif
#   From: 2010.03.12/outbox.cif.g09.slc.cpg/sg60_10_cif.got.tgz:19283.got - 2010.04.10 18:46:24.
