data_PCOD8248541
_publ_section_title
;
Structure prediction by ZEFSAII (Michael W. Deem and Ramdas Pophale) SiO2 
 PCOD8248541
Probable space group: P B C N
;
_chemical_formula_sum "Si O2"
_cell_formula_units_Z 28
_cell_length_a 6.528449
_cell_length_b 15.758078
_cell_length_c 11.513570
_cell_angle_alpha 90.000000
_cell_angle_beta 90.000000
_cell_angle_gamma 90.000000
_cell_volume 1184.467823
_symmetry_space_group_name_H-M "P B C N"
_symmetry_group_IT_number 60
_symmetry_cell_setting 'orthorhombic'
loop_
_space_group_symop_operation_xyz
x,y,z
1/2-x,1/2-y,1/2+z
1/2+x,1/2-y,-z
-x,y,1/2-z
-x,-y,-z
1/2+x,1/2+y,1/2-z
1/2-x,1/2+y,z
x,-y,1/2+z
loop_
_atom_site_type_symbol
_atom_site_label
_atom_site_fract_x
_atom_site_fract_y
_atom_site_fract_z
Si Si1 0.523059 0.639410 0.951416
Si Si2 0.500000 0.893499 0.750000
Si Si3 0.846486 0.986510 0.646138
Si Si4 0.825942 0.236888 0.348197
O O1 0.358136 0.588861 0.871441
O O2 0.699915 0.676504 0.867560
O O3 0.607399 0.565260 0.030724
O O4 0.425354 0.714795 0.027086
O O5 0.614122 0.959240 0.666905
O O6 0.333730 0.836150 0.685214
O O7 0.000000 0.957459 0.750000
O O8 0.000000 0.248983 0.250000
#
# Coordination Sequence:
#
# PCOD8248541 Si02
#       4
#     8   4   8   8
#     4  11  25  47  75 104 150 200 247 304 388 446
#     4  12  22  48  76 102 158 190 238 328 366 438
#     4  11  24  49  70 110 152 194 251 309 372 464
#     4  12  26  49  75 114 153 196 257 322 374 457
#
# _framework density 23.639308
#
# number of rings (size 3 to 8) (size 9 to 14) (size 15 to 20)
#    0.000    0.571    5.714    1.714    2.000    1.143 
#    7.714    0.000    0.000    0.000    0.000    0.000 
#    0.000    0.000    0.000    0.000    0.000    0.000 
#
# Total GULP energy -347016.720059 kJ/mol
# GULP energy per Si atom -12393.454288 kJ/mol
# Density = 2.358550 g / cm^3
# Si number density = 23.639308 Si / 1000 Ang^3
#
#
#
# Elastic Constant Matrix: (Units=GPa)
#
#
# Indices 1 2 3 4 5 6 
#
# 1 140.9857 78.8180 68.6119 0.0000 0.0000 0.0000
# 2 78.8180 148.4442 64.8108 0.0000 0.0000 0.0000
# 3 68.6119 64.8108 94.5945 0.0000 0.0000 0.0000
# 4 0.0000 0.0000 0.0000 160.6584 0.0000 0.0000
# 5 0.0000 0.0000 0.0000 0.0000 41.8630 0.0000
# 6 0.0000 0.0000 0.0000 0.0000 0.0000 97.5832
#
#
#
# Elastic Compliance Matrix: (Units=1/GPa)
#
#
# Indices 1 2 3 4 5 6 
#
# 1 0.012271 -0.003752 -0.006330 0.000000 0.000000 0.000000
# 2 -0.003752 0.010759 -0.004650 0.000000 0.000000 0.000000
# 3 -0.006330 -0.004650 0.018349 0.000000 0.000000 0.000000
# 4 0.000000 0.000000 0.000000 0.006224 0.000000 0.000000
# 5 0.000000 0.000000 0.000000 0.000000 0.023887 0.000000
# 6 0.000000 0.000000 0.000000 0.000000 0.000000 0.010248
#
#
# Mechanical properties :
#
#
# Convention : Reuss Voigt Hill
#
# Bulk Modulus (GPa) = 83.92873 89.83398 86.88135
# Shear Modulus (GPa) = 43.41306 71.47317 57.44311
#
# Velocity S-wave (km/s) = 4.29006 5.50459 4.93483
# Velocity P-wave (km/s) = 7.75374 8.85918 8.32483
#
# Compressibility (1/GPa) = 0.01191487
#
# Stress axis : x y z
#
# Youngs Moduli (GPa) = 81.49440 92.94745 54.49984
#
# Poissons Ratio (x) = 0.34871 0.34498
# Poissons Ratio (y) = 0.30574 0.25343
# Poissons Ratio (z) = 0.51585 0.43222
#
# Static dielectric constant tensor:
#      x y z
#    x 4.705440 0.000000 0.000000 
#    y 0.000000 4.433660 0.000000 
#    z 0.000000 0.000000 4.647550 
# 
# 
# High freq. dielectric constant tensor:
#      x y z
#    x 1.933110 0.000000 0.000000 
#    y 0.000000 1.945470 0.000000 
#    z 0.000000 0.000000 1.943580 
# 
# From -- ./inp_files/18363.got.cif
#   From: 2010.03.12/outbox.cif.g09.slc.cpg/sg60_10_cif.got.tgz:18363.got - 2010.04.10 18:46:24.
