data_PCOD8248122
_publ_section_title
;
Structure prediction by ZEFSAII (Michael W. Deem and Ramdas Pophale) SiO2 
 PCOD8248122
Probable space group: P B C N
;
_chemical_formula_sum "Si O2"
_cell_formula_units_Z 40
_cell_length_a 18.371416
_cell_length_b 4.981654
_cell_length_c 17.814175
_cell_angle_alpha 90.000000
_cell_angle_beta 90.000000
_cell_angle_gamma 90.000000
_cell_volume 1630.353973
_symmetry_space_group_name_H-M "P B C N"
_symmetry_group_IT_number 60
_symmetry_cell_setting 'orthorhombic'
loop_
_space_group_symop_operation_xyz
x,y,z
1/2-x,1/2-y,1/2+z
1/2+x,1/2-y,-z
-x,y,1/2-z
-x,-y,-z
1/2+x,1/2+y,1/2-z
1/2-x,1/2+y,z
x,-y,1/2+z
loop_
_atom_site_type_symbol
_atom_site_label
_atom_site_fract_x
_atom_site_fract_y
_atom_site_fract_z
Si Si1 0.105964 0.141376 0.297836
Si Si2 0.700875 0.756419 0.067301
Si Si3 0.950313 0.733887 0.857350
Si Si4 0.702115 0.763013 0.773777
Si Si5 0.115668 0.763714 0.080734
O O1 0.161266 0.293539 0.352982
O O2 0.099275 0.297775 0.218148
O O3 0.027957 0.139874 0.337647
O O4 0.133103 0.835875 0.277726
O O5 0.731989 0.457393 0.060625
O O6 0.642510 0.805950 0.002037
O O7 0.949281 0.442733 0.896108
O O8 0.915110 0.936289 0.917133
O O9 0.768254 0.557346 0.754214
O O10 0.683021 0.756132 0.861792
#
# Coordination Sequence:
#
# PCOD8248122 Si02
#       5
#     8   8   8   8   8
#     4  10  24  42  65  97 131 166 217 269 323 377
#     4  12  26  43  65  96 131 165 209 270 326 381
#     4  10  24  43  67  93 127 173 218 263 313 390
#     4  11  21  37  62  90 124 167 210 258 318 384
#     4  11  23  42  65  92 127 172 218 261 320 387
#
# _framework density 24.534549999999999
#
# number of rings (size 3 to 8) (size 9 to 14) (size 15 to 20)
#    0.000    1.200    0.000    6.000    0.000   14.400 
#    0.000    0.000    0.000    0.000    0.000    0.000 
#    0.000    0.000    0.000    0.000    0.000    0.000 
#
# Total GULP energy -495993.509928 kJ/mol
# GULP energy per Si atom -12399.837748 kJ/mol
# Density = 2.447871 g / cm^3
# Si number density = 24.534550 Si / 1000 Ang^3
#
#
#
# Elastic Constant Matrix: (Units=GPa)
#
#
# Indices 1 2 3 4 5 6 
#
# 1 56.5028 10.6369 2.3961 0.0000 0.0000 0.0000
# 2 10.6369 78.2831 22.0688 0.0000 0.0000 0.0000
# 3 2.3961 22.0688 69.2530 0.0000 0.0000 0.0000
# 4 0.0000 0.0000 0.0000 24.7241 0.0000 0.0000
# 5 0.0000 0.0000 0.0000 0.0000 42.2572 0.0000
# 6 0.0000 0.0000 0.0000 0.0000 0.0000 35.9622
#
#
#
# Elastic Compliance Matrix: (Units=1/GPa)
#
#
# Indices 1 2 3 4 5 6 
#
# 1 0.018165 -0.002517 0.000174 0.000000 0.000000 0.000000
# 2 -0.002517 0.014384 -0.004497 0.000000 0.000000 0.000000
# 3 0.000174 -0.004497 0.015867 0.000000 0.000000 0.000000
# 4 0.000000 0.000000 0.000000 0.040446 0.000000 0.000000
# 5 0.000000 0.000000 0.000000 0.000000 0.023665 0.000000
# 6 0.000000 0.000000 0.000000 0.000000 0.000000 0.027807
#
#
# Mechanical properties :
#
#
# Convention : Reuss Voigt Hill
#
# Bulk Modulus (GPa) = 28.78927 30.47136 29.63032
# Shear Modulus (GPa) = 30.19477 31.85119 31.02298
#
# Velocity S-wave (km/s) = 3.51194 3.60699 3.55978
# Velocity P-wave (km/s) = 5.31081 5.45838 5.38510
#
# Compressibility (1/GPa) = 0.03473516
#
# Stress axis : x y z
#
# Youngs Moduli (GPa) = 55.05172 69.52269 63.02498
#
# Poissons Ratio (x) = 0.17500 -0.01094
# Poissons Ratio (y) = 0.13857 0.28340
# Poissons Ratio (z) = -0.00956 0.31261
#
# Static dielectric constant tensor:
#      x y z
#    x 4.462760 0.000000 0.000000 
#    y 0.000000 4.243360 0.000000 
#    z 0.000000 0.000000 4.432030 
# 
# 
# High freq. dielectric constant tensor:
#      x y z
#    x 1.977470 0.000000 0.000000 
#    y 0.000000 1.976240 0.000000 
#    z 0.000000 0.000000 1.975080 
# 
# From -- ./inp_files/20751.got.cif
#   From: 2010.03.12/outbox.cif.g09.slc.cpg/sg60_11_cif.got.tgz:20751.got - 2010.04.10 18:46:24.
