data_PCOD8248584
_publ_section_title
;
Structure prediction by ZEFSAII (Michael W. Deem and Ramdas Pophale) SiO2 
 PCOD8248584
Probable space group: P B C N
;
_chemical_formula_sum "Si O2"
_cell_formula_units_Z 60
_cell_length_a 11.019790
_cell_length_b 9.099505
_cell_length_c 26.937751
_cell_angle_alpha 90.000000
_cell_angle_beta 90.000000
_cell_angle_gamma 90.000000
_cell_volume 2701.173128
_symmetry_space_group_name_H-M "P B C N"
_symmetry_group_IT_number 60
_symmetry_cell_setting 'orthorhombic'
loop_
_space_group_symop_operation_xyz
x,y,z
1/2-x,1/2-y,1/2+z
1/2+x,1/2-y,-z
-x,y,1/2-z
-x,-y,-z
1/2+x,1/2+y,1/2-z
1/2-x,1/2+y,z
x,-y,1/2+z
loop_
_atom_site_type_symbol
_atom_site_label
_atom_site_fract_x
_atom_site_fract_y
_atom_site_fract_z
Si Si1 0.297613 0.356096 0.885587
Si Si2 0.125675 0.427160 0.441470
Si Si3 0.008090 0.019143 0.826859
Si Si4 0.646801 0.743913 0.298063
Si Si5 0.665794 0.768588 0.711108
Si Si6 0.642883 0.030898 0.444961
Si Si7 0.000000 0.494063 0.250000
Si Si8 0.305605 0.315142 0.113268
O O1 0.339907 0.236130 0.925039
O O2 0.188914 0.450677 0.907793
O O3 0.411126 0.458995 0.872251
O O4 0.252740 0.273472 0.836220
O O5 0.171372 0.446771 0.497381
O O6 0.981462 0.443276 0.436846
O O7 0.091034 0.116113 0.789597
O O8 0.904864 0.120864 0.849615
O O9 0.951096 0.886817 0.794853
O O10 0.756498 0.718463 0.260675
O O11 0.583610 0.897416 0.285663
O O12 0.696505 0.748779 0.353969
O O13 0.575986 0.907363 0.711576
O O14 0.754754 0.940170 0.422830
O O15 0.632372 0.188832 0.419090
#
# Coordination Sequence:
#
# PCOD8248584 Si02
#       8
#     8   8   8   8   8   8   4   8
#     4  12  25  48  73 108 144 192 241 298 365 430
#     4  11  26  48  75 106 144 188 242 304 364 432
#     4  12  26  47  73 104 148 188 241 296 359 432
#     4  12  27  47  70 106 146 191 237 291 352 428
#     4  12  27  47  70 106 146 191 237 291 352 428
#     4  11  26  48  75 106 144 188 242 304 364 432
#     4  12  28  42  72  98 142 190 232 288 342 422
#     4  12  25  48  73 108 144 192 241 298 365 430
#
# _framework density 22.212572999999999
#
# number of rings (size 3 to 8) (size 9 to 14) (size 15 to 20)
#    0.000    0.267    2.667    5.600    5.600    3.733 
#    0.000    1.333    0.000    0.000    0.000    0.000 
#    0.000    0.000    0.000    0.000    0.000    0.000 
#
# Total GULP energy -744594.407439 kJ/mol
# GULP energy per Si atom -12409.906791 kJ/mol
# Density = 2.216202 g / cm^3
# Si number density = 22.212573 Si / 1000 Ang^3
#
#
#
# Elastic Constant Matrix: (Units=GPa)
#
#
# Indices 1 2 3 4 5 6 
#
# 1 73.4807 22.2035 23.3848 0.0000 0.0000 0.0000
# 2 22.2035 108.7272 22.9436 0.0000 0.0000 0.0000
# 3 23.3848 22.9436 95.5628 0.0000 0.0000 0.0000
# 4 0.0000 0.0000 0.0000 40.8219 0.0000 0.0000
# 5 0.0000 0.0000 0.0000 0.0000 35.8742 0.0000
# 6 0.0000 0.0000 0.0000 0.0000 0.0000 46.5070
#
#
#
# Elastic Compliance Matrix: (Units=1/GPa)
#
#
# Indices 1 2 3 4 5 6 
#
# 1 0.015363 -0.002469 -0.003167 0.000000 0.000000 0.000000
# 2 -0.002469 0.010085 -0.001817 0.000000 0.000000 0.000000
# 3 -0.003167 -0.001817 0.011675 0.000000 0.000000 0.000000
# 4 0.000000 0.000000 0.000000 0.024497 0.000000 0.000000
# 5 0.000000 0.000000 0.000000 0.000000 0.027875 0.000000
# 6 0.000000 0.000000 0.000000 0.000000 0.000000 0.021502
#
#
# Mechanical properties :
#
#
# Convention : Reuss Voigt Hill
#
# Bulk Modulus (GPa) = 45.00900 46.09273 45.55087
# Shear Modulus (GPa) = 37.50691 38.58986 38.04838
#
# Velocity S-wave (km/s) = 4.11365 4.17261 4.14324
# Velocity P-wave (km/s) = 6.54749 6.63401 6.59089
#
# Compressibility (1/GPa) = 0.02221778
#
# Stress axis : x y z
#
# Youngs Moduli (GPa) = 65.09213 99.15717 85.64963
#
# Poissons Ratio (x) = 0.24483 0.27122
# Poissons Ratio (y) = 0.16072 0.15563
# Poissons Ratio (z) = 0.20612 0.18018
#
# Static dielectric constant tensor:
#      x y z
#    x 4.179140 0.000000 0.000000 
#    y 0.000000 4.112400 0.000000 
#    z 0.000000 0.000000 4.035560 
# 
# 
# High freq. dielectric constant tensor:
#      x y z
#    x 1.888280 0.000000 0.000000 
#    y 0.000000 1.890360 0.000000 
#    z 0.000000 0.000000 1.878970 
# 
# From -- ./inp_files/25352.got.cif
#   From: 2010.03.12/outbox.cif.g09.slc.cpg/sg60_13_cif.got.tgz:25352.got - 2010.04.10 18:46:24.
