data_PCOD8248730
_publ_section_title
;
Structure prediction by ZEFSAII (Michael W. Deem and Ramdas Pophale) SiO2 
 PCOD8248730
Probable space group: P B C A
;
_chemical_formula_sum "Si O2"
_cell_formula_units_Z 64
_cell_length_a 16.257601
_cell_length_b 22.999838
_cell_length_c 8.490109
_cell_angle_alpha 90.000000
_cell_angle_beta 90.000000
_cell_angle_gamma 90.000000
_cell_volume 3174.640144
_symmetry_space_group_name_H-M "P B C A"
_symmetry_group_IT_number 61
_symmetry_cell_setting 'orthorhombic'
loop_
_space_group_symop_operation_xyz
x,y,z
1/2-x,-y,1/2+z
1/2+x,1/2-y,-z
-x,1/2+y,1/2-z
-x,-y,-z
1/2+x,y,1/2-z
1/2-x,1/2+y,z
x,1/2-y,1/2+z
loop_
_atom_site_type_symbol
_atom_site_label
_atom_site_fract_x
_atom_site_fract_y
_atom_site_fract_z
Si Si1 0.503871 0.051146 0.783948
Si Si2 0.207914 0.479504 0.925107
Si Si3 0.160078 0.554766 0.636043
Si Si4 0.133424 0.752961 0.866353
Si Si5 0.889918 0.869102 0.463794
Si Si6 0.904358 0.051126 0.391751
Si Si7 0.950548 0.324484 0.883451
Si Si8 0.775945 0.179599 0.873552
O O1 0.439622 0.056989 0.638410
O O2 0.565950 0.105987 0.804062
O O3 0.552466 0.990557 0.762338
O O4 0.454093 0.049799 0.945467
O O5 0.303247 0.461293 0.962238
O O6 0.149448 0.422856 0.939670
O O7 0.184855 0.525952 0.062896
O O8 0.197174 0.506650 0.754206
O O9 0.193976 0.617251 0.688627
O O10 0.207385 0.727353 0.760419
O O11 0.059948 0.779736 0.760272
O O12 0.172836 0.803375 0.971495
O O13 0.092717 0.700632 0.961568
O O14 0.953730 0.836807 0.580482
O O15 0.821287 0.822680 0.410692
O O16 0.902214 0.116962 0.330218
#
# Coordination Sequence:
#
# PCOD8248730 Si02
#       8
#     8   8   8   8   8   8   8   8
#     4   8  14  28  51  77 101 134 171 205 257 322
#     4   9  18  30  53  82 106 139 174 210 266 327
#     4  10  18  32  54  81 113 140 173 217 264 323
#     4  10  22  36  54  78 102 140 186 227 271 312
#     4   9  18  33  57  80 105 141 178 217 270 328
#     4   8  14  27  49  72  98 132 169 205 253 317
#     4  10  19  35  56  76 103 138 180 222 266 318
#     4  10  21  37  54  77 108 139 181 230 269 313
#
# _framework density 20.159766000000001
#
# number of rings (size 3 to 8) (size 9 to 14) (size 15 to 20)
#    0.000    2.750    0.000    4.500    0.000    3.000 
#    0.000    0.000    0.000   32.250    0.000    0.000 
#    0.000    0.000    0.000    0.000    0.000    0.000 
#
# Total GULP energy -793119.658901 kJ/mol
# GULP energy per Si atom -12392.494670 kJ/mol
# Density = 2.011388 g / cm^3
# Si number density = 20.159766 Si / 1000 Ang^3
#
#
#
# Elastic Constant Matrix: (Units=GPa)
#
#
# Indices 1 2 3 4 5 6 
#
# 1 113.2615 49.5829 34.7153 0.0000 0.0000 0.0000
# 2 49.5829 76.2046 22.9218 0.0000 0.0000 0.0000
# 3 34.7153 22.9218 51.6118 0.0000 0.0000 0.0000
# 4 0.0000 0.0000 0.0000 19.4282 0.0000 0.0000
# 5 0.0000 0.0000 0.0000 0.0000 20.9496 0.0000
# 6 0.0000 0.0000 0.0000 0.0000 0.0000 32.2720
#
#
#
# Elastic Compliance Matrix: (Units=1/GPa)
#
#
# Indices 1 2 3 4 5 6 
#
# 1 0.013844 -0.007164 -0.006130 0.000000 0.000000 0.000000
# 2 -0.007164 0.018853 -0.003554 0.000000 0.000000 0.000000
# 3 -0.006130 -0.003554 0.025077 0.000000 0.000000 0.000000
# 4 0.000000 0.000000 0.000000 0.051472 0.000000 0.000000
# 5 0.000000 0.000000 0.000000 0.000000 0.047734 0.000000
# 6 0.000000 0.000000 0.000000 0.000000 0.000000 0.030987
#
#
# Mechanical properties :
#
#
# Convention : Reuss Voigt Hill
#
# Bulk Modulus (GPa) = 41.53273 50.61308 46.07290
# Shear Modulus (GPa) = 21.76854 23.45383 22.61119
#
# Velocity S-wave (km/s) = 3.28960 3.41456 3.35266
# Velocity P-wave (km/s) = 5.92243 6.38014 6.15554
#
# Compressibility (1/GPa) = 0.02407740
#
# Stress axis : x y z
#
# Youngs Moduli (GPa) = 72.23212 53.04226 39.87656
#
# Poissons Ratio (x) = 0.37999 0.24446
# Poissons Ratio (y) = 0.51746 0.14174
# Poissons Ratio (z) = 0.44281 0.18853
#
# Static dielectric constant tensor:
#      x y z
#    x 4.008290 0.000000 0.000000 
#    y 0.000000 3.839060 0.000000 
#    z 0.000000 0.000000 3.266840 
# 
# 
# High freq. dielectric constant tensor:
#      x y z
#    x 1.784670 0.000000 0.000000 
#    y 0.000000 1.790440 0.000000 
#    z 0.000000 0.000000 1.753480 
# 
# From -- ./inp_files/3703.got.cif
#   From: 2010.03.12/outbox.cif.g09.slc.cpg/sg61_2_cif.got.tgz:3703.got - 2010.04.10 19:05:03.
