data_PCOD8248356
_publ_section_title
;
Structure prediction by ZEFSAII (Michael W. Deem and Ramdas Pophale) SiO2 
 PCOD8248356
Probable space group: P B C N
;
_chemical_formula_sum "Si O2"
_cell_formula_units_Z 56
_cell_length_a 14.782877
_cell_length_b 8.338989
_cell_length_c 20.585684
_cell_angle_alpha 90.000000
_cell_angle_beta 90.000000
_cell_angle_gamma 90.000000
_cell_volume 2537.684729
_symmetry_space_group_name_H-M "P B C N"
_symmetry_group_IT_number 60
_symmetry_cell_setting 'orthorhombic'
loop_
_space_group_symop_operation_xyz
x,y,z
1/2-x,1/2-y,1/2+z
1/2+x,1/2-y,-z
-x,y,1/2-z
-x,-y,-z
1/2+x,1/2+y,1/2-z
1/2-x,1/2+y,z
x,-y,1/2+z
loop_
_atom_site_type_symbol
_atom_site_label
_atom_site_fract_x
_atom_site_fract_y
_atom_site_fract_z
Si Si1 0.515562 0.351470 0.451920
Si Si2 0.880177 0.664922 0.971690
Si Si3 0.794236 0.261040 0.792896
Si Si4 0.487419 0.820426 0.158291
Si Si5 0.954138 0.039737 0.813419
Si Si6 0.302311 0.830293 0.561003
Si Si7 0.633893 0.936238 0.239859
O O1 0.500000 0.500000 0.500000
O O2 0.442439 0.210220 0.466385
O O3 0.494921 0.401170 0.378172
O O4 0.620840 0.299957 0.456700
O O5 0.955845 0.673324 0.915318
O O6 0.797063 0.788561 0.966173
O O7 0.835497 0.491149 0.974518
O O8 0.851923 0.101670 0.808379
O O9 0.787562 0.355769 0.861776
O O10 0.827443 0.383252 0.736311
O O11 0.701295 0.199326 0.765025
O O12 0.460593 0.650717 0.189215
O O13 0.593092 0.869987 0.170825
O O14 0.438471 0.953729 0.201907
O O15 0.000000 0.116076 0.750000
#
# Coordination Sequence:
#
# PCOD8248356 Si02
#       7
#     8   8   8   8   8   8   8
#     4  11  24  42  68  99 133 174 223 281 338 400
#     4  12  23  43  68  98 137 175 233 286 339 411
#     4  11  22  38  64  95 135 176 236 273 334 412
#     4  11  22  38  64  96 136 173 222 284 345 391
#     4  11  24  41  68  95 131 173 223 271 340 401
#     4  11  23  39  69 102 129 182 230 280 338 410
#     4  11  22  36  60  98 130 176 222 286 335 391
#
# _framework density 22.067359
#
# number of rings (size 3 to 8) (size 9 to 14) (size 15 to 20)
#    0.000    0.857    5.714    2.143    4.000    0.000 
#    0.000    1.429    0.000    0.000    0.000    0.000 
#    0.000    0.000    0.000    0.000    0.000    0.000 
#
# Total GULP energy -693902.746796 kJ/mol
# GULP energy per Si atom -12391.120478 kJ/mol
# Density = 2.201713 g / cm^3
# Si number density = 22.067359 Si / 1000 Ang^3
#
#
#
# Elastic Constant Matrix: (Units=GPa)
#
#
# Indices 1 2 3 4 5 6 
#
# 1 118.9732 31.7142 52.2081 0.0000 0.0000 0.0000
# 2 31.7142 93.9766 24.2350 0.0000 0.0000 0.0000
# 3 52.2081 24.2350 106.3198 0.0000 0.0000 0.0000
# 4 0.0000 0.0000 0.0000 21.8560 0.0000 0.0000
# 5 0.0000 0.0000 0.0000 0.0000 38.3266 0.0000
# 6 0.0000 0.0000 0.0000 0.0000 0.0000 35.2376
#
#
#
# Elastic Compliance Matrix: (Units=1/GPa)
#
#
# Indices 1 2 3 4 5 6 
#
# 1 0.011249 -0.002520 -0.004949 0.000000 0.000000 0.000000
# 2 -0.002520 0.011870 -0.001468 0.000000 0.000000 0.000000
# 3 -0.004949 -0.001468 0.012171 0.000000 0.000000 0.000000
# 4 0.000000 0.000000 0.000000 0.045754 0.000000 0.000000
# 5 0.000000 0.000000 0.000000 0.000000 0.026092 0.000000
# 6 0.000000 0.000000 0.000000 0.000000 0.000000 0.028379
#
#
# Mechanical properties :
#
#
# Convention : Reuss Voigt Hill
#
# Bulk Modulus (GPa) = 57.42347 59.50935 58.46641
# Shear Modulus (GPa) = 31.40833 33.15821 32.28327
#
# Velocity S-wave (km/s) = 3.77675 3.88053 3.82899
# Velocity P-wave (km/s) = 6.71542 6.86321 6.78972
#
# Compressibility (1/GPa) = 0.01741448
#
# Stress axis : x y z
#
# Youngs Moduli (GPa) = 88.89823 84.24629 82.16492
#
# Poissons Ratio (x) = 0.21228 0.40666
# Poissons Ratio (y) = 0.22400 0.12065
# Poissons Ratio (z) = 0.43999 0.12370
#
# Static dielectric constant tensor:
#      x y z
#    x 4.248570 0.000000 0.000000 
#    y 0.000000 4.015100 0.000000 
#    z 0.000000 0.000000 3.868670 
# 
# 
# High freq. dielectric constant tensor:
#      x y z
#    x 1.874650 0.000000 0.000000 
#    y 0.000000 1.879270 0.000000 
#    z 0.000000 0.000000 1.839070 
# 
# From -- ./inp_files/22924.got.cif
#   From: 2010.03.12/outbox.cif.g09.slc.cpg/sg60_12_cif.got.tgz:22924.got - 2010.04.10 18:46:24.
