data_PCOD8248657
_publ_section_title
;
Structure prediction by ZEFSAII (Michael W. Deem and Ramdas Pophale) SiO2 
 PCOD8248657
Probable space group: P B C N
;
_chemical_formula_sum "Si O2"
_cell_formula_units_Z 40
_cell_length_a 14.504128
_cell_length_b 10.115420
_cell_length_c 10.483443
_cell_angle_alpha 90.000000
_cell_angle_beta 90.000000
_cell_angle_gamma 90.000000
_cell_volume 1538.081972
_symmetry_space_group_name_H-M "P B C N"
_symmetry_group_IT_number 60
_symmetry_cell_setting 'orthorhombic'
loop_
_space_group_symop_operation_xyz
x,y,z
1/2-x,1/2-y,1/2+z
1/2+x,1/2-y,-z
-x,y,1/2-z
-x,-y,-z
1/2+x,1/2+y,1/2-z
1/2-x,1/2+y,z
x,-y,1/2+z
loop_
_atom_site_type_symbol
_atom_site_label
_atom_site_fract_x
_atom_site_fract_y
_atom_site_fract_z
Si Si1 0.931115 0.273883 0.017968
Si Si2 0.199168 0.015468 0.232711
Si Si3 0.500000 0.815683 0.750000
Si Si4 0.859983 0.452561 0.593031
Si Si5 0.742785 0.225146 0.925378
Si Si6 0.500000 0.615234 0.250000
O O1 0.923315 0.432218 0.033911
O O2 0.994514 0.209076 0.126316
O O3 0.974818 0.235699 0.879678
O O4 0.825337 0.225569 0.029804
O O5 0.254740 0.015925 0.366455
O O6 0.227344 0.129521 0.132352
O O7 0.089377 0.021661 0.252341
O O8 0.224452 0.870522 0.186138
O O9 0.410405 0.903837 0.779221
O O10 0.850779 0.333853 0.488744
#
# Coordination Sequence:
#
# PCOD8248657 Si02
#       6
#     8   8   4   8   8   4
#     4  12  26  49  79 118 157 211 261 332 394 479
#     4  12  27  48  79 112 161 208 265 328 397 476
#     4  12  25  45  80 122 156 202 270 334 392 474
#     4  12  24  48  78 113 157 208 267 321 398 474
#     4  12  25  49  75 112 159 208 260 325 400 472
#     4  12  27  51  80 120 160 210 266 328 406 478
#
# _framework density 26.006415000000001
#
# number of rings (size 3 to 8) (size 9 to 14) (size 15 to 20)
#    0.000    0.000    6.000    3.600    0.000    1.600 
#    3.600    0.000    0.000    0.000    0.000    0.000 
#    0.000    0.000    0.000    0.000    0.000    0.000 
#
# Total GULP energy -495778.267682 kJ/mol
# GULP energy per Si atom -12394.456692 kJ/mol
# Density = 2.594722 g / cm^3
# Si number density = 26.006415 Si / 1000 Ang^3
#
#
#
# Elastic Constant Matrix: (Units=GPa)
#
#
# Indices 1 2 3 4 5 6 
#
# 1 102.4990 -1.7067 21.8769 0.0000 0.0000 0.0000
# 2 -1.7067 39.9526 4.7011 0.0000 0.0000 0.0000
# 3 21.8769 4.7011 121.2813 0.0000 0.0000 0.0000
# 4 0.0000 0.0000 0.0000 32.2780 0.0000 0.0000
# 5 0.0000 0.0000 0.0000 0.0000 53.5474 0.0000
# 6 0.0000 0.0000 0.0000 0.0000 0.0000 -25.0013
#
#
#
# Elastic Compliance Matrix: (Units=1/GPa)
#
#
# Indices 1 2 3 4 5 6 
#
# 1 0.010164 0.000653 -0.001859 0.000000 0.000000 0.000000
# 2 0.000653 0.025186 -0.001094 0.000000 0.000000 0.000000
# 3 -0.001859 -0.001094 0.008623 0.000000 0.000000 0.000000
# 4 0.000000 0.000000 0.000000 0.030981 0.000000 0.000000
# 5 0.000000 0.000000 0.000000 0.000000 0.018675 0.000000
# 6 0.000000 0.000000 0.000000 0.000000 0.000000 -0.039998
#
#
# Mechanical properties :
#
#
# Convention : Reuss Voigt Hill
#
# Bulk Modulus (GPa) = 25.39788 34.83064 30.11426
# Shear Modulus (GPa) = 70.07195 28.08891 49.08043
#
# Velocity S-wave (km/s) = 5.19640 3.29002 4.34895
# Velocity P-wave (km/s) = 6.76688 5.27773 6.06816
#
# Compressibility (1/GPa) = 0.03937337
#
# Stress axis : x y z
#
# Youngs Moduli (GPa) = 98.38874 39.70412 115.96932
#
# Poissons Ratio (x) = -0.02592 0.21555
# Poissons Ratio (y) = -0.06424 0.12688
# Poissons Ratio (z) = 0.18287 0.04344
#
# Static dielectric constant tensor:
#      x y z
#    x 4.993910 0.000000 0.000000 
#    y 0.000000 4.534060 0.000000 
#    z 0.000000 0.000000 4.496130 
# 
# 
# High freq. dielectric constant tensor:
#      x y z
#    x 2.063420 0.000000 0.000000 
#    y 0.000000 2.029200 0.000000 
#    z 0.000000 0.000000 2.042790 
# 
# From -- ./inp_files/11745.got.cif
#   From: 2010.03.12/outbox.cif.g09.slc.cpg/sg60_6_cif.got.tgz:11745.got - 2010.04.10 18:46:24.
