data_PCOD8248522
_publ_section_title
;
Structure prediction by ZEFSAII (Michael W. Deem and Ramdas Pophale) SiO2 
 PCOD8248522
Probable space group: P B C N
;
_chemical_formula_sum "Si O2"
_cell_formula_units_Z 32
_cell_length_a 5.351868
_cell_length_b 22.604949
_cell_length_c 10.647561
_cell_angle_alpha 90.000000
_cell_angle_beta 90.000000
_cell_angle_gamma 90.000000
_cell_volume 1288.128122
_symmetry_space_group_name_H-M "P B C N"
_symmetry_group_IT_number 60
_symmetry_cell_setting 'orthorhombic'
loop_
_space_group_symop_operation_xyz
x,y,z
1/2-x,1/2-y,1/2+z
1/2+x,1/2-y,-z
-x,y,1/2-z
-x,-y,-z
1/2+x,1/2+y,1/2-z
1/2-x,1/2+y,z
x,-y,1/2+z
loop_
_atom_site_type_symbol
_atom_site_label
_atom_site_fract_x
_atom_site_fract_y
_atom_site_fract_z
Si Si1 0.184612 0.410722 0.140416
Si Si2 0.819686 0.393364 0.631484
Si Si3 0.779282 0.237019 0.076553
Si Si4 0.000000 0.182288 0.750000
Si Si5 0.500000 0.513035 0.250000
O O1 0.398539 0.359718 0.137594
O O2 0.296990 0.474453 0.175160
O O3 0.000000 0.391602 0.250000
O O4 0.051248 0.409008 0.003612
O O5 0.689011 0.329545 0.627155
O O6 0.616472 0.444849 0.644341
O O7 0.000000 0.396837 0.750000
O O8 0.724537 0.277836 0.196840
O O9 0.536294 0.241045 0.985638
#
# Coordination Sequence:
#
# PCOD8248522 Si02
#       5
#     8   8   8   4   4
#     4  11  25  51  77 107 157 207 268 323 402 471
#     4  12  27  46  77 114 156 202 261 332 398 473
#     4  12  27  47  76 115 162 205 263 324 404 485
#     4  11  24  44  76 110 150 213 254 328 396 489
#     4  11  28  46  78 112 152 205 274 330 394 465
#
# _framework density 24.842251999999998
#
# number of rings (size 3 to 8) (size 9 to 14) (size 15 to 20)
#    0.000    0.500    3.750    3.000    3.500    8.000 
#    0.000    0.000    0.000    0.000    0.000    0.000 
#    0.000    0.000    0.000    0.000    0.000    0.000 
#
# Total GULP energy -396752.247636 kJ/mol
# GULP energy per Si atom -12398.507739 kJ/mol
# Density = 2.478571 g / cm^3
# Si number density = 24.842252 Si / 1000 Ang^3
#
#
#
# Elastic Constant Matrix: (Units=GPa)
#
#
# Indices 1 2 3 4 5 6 
#
# 1 43.1441 7.7376 29.2423 0.0000 0.0000 0.0000
# 2 7.7376 170.7887 42.2331 0.0000 0.0000 0.0000
# 3 29.2423 42.2331 188.2926 0.0000 0.0000 0.0000
# 4 0.0000 0.0000 0.0000 75.3082 0.0000 0.0000
# 5 0.0000 0.0000 0.0000 0.0000 43.9053 0.0000
# 6 0.0000 0.0000 0.0000 0.0000 0.0000 -62.4140
#
#
#
# Elastic Compliance Matrix: (Units=1/GPa)
#
#
# Indices 1 2 3 4 5 6 
#
# 1 0.025911 -0.000189 -0.003982 0.000000 0.000000 0.000000
# 2 -0.000189 0.006200 -0.001361 0.000000 0.000000 0.000000
# 3 -0.003982 -0.001361 0.006235 0.000000 0.000000 0.000000
# 4 0.000000 0.000000 0.000000 0.013279 0.000000 0.000000
# 5 0.000000 0.000000 0.000000 0.000000 0.022776 0.000000
# 6 0.000000 0.000000 0.000000 0.000000 0.000000 -0.016022
#
#
# Mechanical properties :
#
#
# Convention : Reuss Voigt Hill
#
# Bulk Modulus (GPa) = 36.65510 62.29460 49.47485
# Shear Modulus (GPa) = 63.66439 32.89404 48.27921
#
# Velocity S-wave (km/s) = 5.06785 3.64279 4.41322
# Velocity P-wave (km/s) = 7.00224 6.54398 6.77698
#
# Compressibility (1/GPa) = 0.02728134
#
# Stress axis : x y z
#
# Youngs Moduli (GPa) = 38.59405 161.28004 160.39619
#
# Poissons Ratio (x) = 0.03053 0.63862
# Poissons Ratio (y) = 0.00731 0.21835
# Poissons Ratio (z) = 0.15366 0.21955
#
# Static dielectric constant tensor:
#      x y z
#    x 4.284900 0.000000 0.000000 
#    y 0.000000 4.859190 0.000000 
#    z 0.000000 0.000000 4.621540 
# 
# 
# High freq. dielectric constant tensor:
#      x y z
#    x 1.966310 0.000000 0.000000 
#    y 0.000000 2.020670 0.000000 
#    z 0.000000 0.000000 2.000390 
# 
# From -- ./inp_files/8847.got.cif
#   From: 2010.03.12/outbox.cif.g09.slc.cpg/sg60_5_cif.got.tgz:8847.got - 2010.04.10 18:46:24.
