data_PCOD8248004
_publ_section_title
;
Structure prediction by ZEFSAII (Michael W. Deem and Ramdas Pophale) SiO2 
 PCOD8248004
Probable space group: P B C N
;
_chemical_formula_sum "Si O2"
_cell_formula_units_Z 48
_cell_length_a 15.746505
_cell_length_b 8.654615
_cell_length_c 15.424936
_cell_angle_alpha 90.000000
_cell_angle_beta 90.000000
_cell_angle_gamma 90.000000
_cell_volume 2102.109327
_symmetry_space_group_name_H-M "P B C N"
_symmetry_group_IT_number 60
_symmetry_cell_setting 'orthorhombic'
loop_
_space_group_symop_operation_xyz
x,y,z
1/2-x,1/2-y,1/2+z
1/2+x,1/2-y,-z
-x,y,1/2-z
-x,-y,-z
1/2+x,1/2+y,1/2-z
1/2-x,1/2+y,z
x,-y,1/2+z
loop_
_atom_site_type_symbol
_atom_site_label
_atom_site_fract_x
_atom_site_fract_y
_atom_site_fract_z
Si Si1 0.153516 0.953935 0.650417
Si Si2 0.067415 0.352424 0.822107
Si Si3 0.179815 0.105298 0.466571
Si Si4 0.168992 0.419802 0.407954
Si Si5 0.522777 0.473778 0.100060
Si Si6 0.236916 0.773605 0.249491
O O1 0.167632 0.005620 0.552346
O O2 0.050248 0.949521 0.661309
O O3 0.191108 0.074697 0.716814
O O4 0.201882 0.794714 0.673283
O O5 0.077994 0.501843 0.885825
O O6 0.160471 0.339540 0.777684
O O7 0.000000 0.398368 0.750000
O O8 0.033816 0.206228 0.876066
O O9 0.164914 0.289558 0.484515
O O10 0.273315 0.065982 0.433229
O O11 0.114209 0.055002 0.389407
O O12 0.204712 0.315173 0.330246
O O13 0.500000 0.500000 0.000000
#
# Coordination Sequence:
#
# PCOD8248004 Si02
#       6
#     8   8   8   8   8   8
#     4  11  24  41  66  95 133 174 221 281 337 406
#     4  12  24  41  68  96 135 174 224 286 343 399
#     4  11  22  42  65  97 132 182 225 275 338 415
#     4  12  23  41  69  98 131 178 231 275 343 412
#     4  10  23  43  66  95 134 182 223 268 343 411
#     4  12  22  41  65  97 130 171 228 276 340 401
#
# _framework density 22.834205999999998
#
# number of rings (size 3 to 8) (size 9 to 14) (size 15 to 20)
#    0.000    0.667    6.667    1.000    0.000    2.667 
#    0.000    3.333    0.000    0.000    0.000    0.000 
#    0.000    0.000    0.000    0.000    0.000    0.000 
#
# Total GULP energy -594843.549683 kJ/mol
# GULP energy per Si atom -12392.573952 kJ/mol
# Density = 2.278223 g / cm^3
# Si number density = 22.834206 Si / 1000 Ang^3
#
#
#
# Elastic Constant Matrix: (Units=GPa)
#
#
# Indices 1 2 3 4 5 6 
#
# 1 72.9962 3.7227 18.5808 0.0000 0.0000 0.0000
# 2 3.7227 68.2505 5.3973 0.0000 0.0000 0.0000
# 3 18.5808 5.3973 41.9791 0.0000 0.0000 0.0000
# 4 0.0000 0.0000 0.0000 37.6382 0.0000 0.0000
# 5 0.0000 0.0000 0.0000 0.0000 30.2184 0.0000
# 6 0.0000 0.0000 0.0000 0.0000 0.0000 38.7585
#
#
#
# Elastic Compliance Matrix: (Units=1/GPa)
#
#
# Indices 1 2 3 4 5 6 
#
# 1 0.015445 -0.000305 -0.006797 0.000000 0.000000 0.000000
# 2 -0.000305 0.014808 -0.001769 0.000000 0.000000 0.000000
# 3 -0.006797 -0.001769 0.027057 0.000000 0.000000 0.000000
# 4 0.000000 0.000000 0.000000 0.026569 0.000000 0.000000
# 5 0.000000 0.000000 0.000000 0.000000 0.033092 0.000000
# 6 0.000000 0.000000 0.000000 0.000000 0.000000 0.025801
#
#
# Mechanical properties :
#
#
# Convention : Reuss Voigt Hill
#
# Bulk Modulus (GPa) = 25.27237 26.51414 25.89325
# Shear Modulus (GPa) = 28.78453 31.69135 30.23794
#
# Velocity S-wave (km/s) = 3.55433 3.72948 3.64296
# Velocity P-wave (km/s) = 5.28546 5.49383 5.39065
#
# Compressibility (1/GPa) = 0.03956890
#
# Stress axis : x y z
#
# Youngs Moduli (GPa) = 64.74561 67.52908 36.95851
#
# Poissons Ratio (x) = 0.02059 0.25121
# Poissons Ratio (y) = 0.01974 0.06538
# Poissons Ratio (z) = 0.44008 0.11946
#
# Static dielectric constant tensor:
#      x y z
#    x 5.035750 0.000000 0.000000 
#    y 0.000000 4.209120 0.000000 
#    z 0.000000 0.000000 4.037760 
# 
# 
# High freq. dielectric constant tensor:
#      x y z
#    x 1.909650 0.000000 0.000000 
#    y 0.000000 1.896450 0.000000 
#    z 0.000000 0.000000 1.895160 
# 
# From -- ./inp_files/20463.got.cif
#   From: 2010.03.12/outbox.cif.g09.slc.cpg/sg60_11_cif.got.tgz:20463.got - 2010.04.10 18:46:24.
