data_PCOD8248693
_publ_section_title
;
Structure prediction by ZEFSAII (Michael W. Deem and Ramdas Pophale) SiO2 
 PCOD8248693
Probable space group: P B C N
;
_chemical_formula_sum "Si O2"
_cell_formula_units_Z 64
_cell_length_a 15.400146
_cell_length_b 8.363180
_cell_length_c 27.951521
_cell_angle_alpha 90.000000
_cell_angle_beta 90.000000
_cell_angle_gamma 90.000000
_cell_volume 3599.993591
_symmetry_space_group_name_H-M "P B C N"
_symmetry_group_IT_number 60
_symmetry_cell_setting 'orthorhombic'
loop_
_space_group_symop_operation_xyz
x,y,z
1/2-x,1/2-y,1/2+z
1/2+x,1/2-y,-z
-x,y,1/2-z
-x,-y,-z
1/2+x,1/2+y,1/2-z
1/2-x,1/2+y,z
x,-y,1/2+z
loop_
_atom_site_type_symbol
_atom_site_label
_atom_site_fract_x
_atom_site_fract_y
_atom_site_fract_z
Si Si1 0.154497 0.813543 0.815060
Si Si2 0.133011 0.413132 0.732551
Si Si3 0.210488 0.894136 0.258838
Si Si4 0.535154 0.026518 0.680924
Si Si5 0.030233 0.543368 0.928091
Si Si6 0.784354 0.895407 0.018283
Si Si7 0.130118 0.597713 0.513427
Si Si8 0.158454 0.816947 0.924585
O O1 0.236789 0.709881 0.797755
O O2 0.064430 0.711956 0.810693
O O3 0.171659 0.862653 0.869573
O O4 0.147600 0.976754 0.784486
O O5 0.220986 0.513727 0.725018
O O6 0.152864 0.223987 0.725083
O O7 0.100140 0.419561 0.787675
O O8 0.063251 0.491754 0.697074
O O9 0.543558 0.977820 0.625524
O O10 0.077107 0.421367 0.963871
O O11 0.069905 0.720394 0.933440
O O12 0.928548 0.555894 0.940761
O O13 0.840904 0.782530 0.983687
O O14 0.740525 0.789282 0.059675
O O15 0.712613 0.980750 0.985151
O O16 0.846675 0.023726 0.043625
#
# Coordination Sequence:
#
# PCOD8248693 Si02
#       8
#     8   8   8   8   8   8   8   8
#     4   9  16  27  47  72  96 121 153 194 239 282
#     4   9  18  33  49  69  95 124 157 194 236 281
#     4   9  17  29  48  70  94 123 154 192 235 281
#     4   9  18  33  50  68  95 126 156 195 240 280
#     4   9  18  32  49  68  93 126 158 193 237 280
#     4   9  17  28  45  67  95 125 154 193 233 275
#     4   9  18  32  48  68  94 124 158 193 234 279
#     4   9  16  26  44  71  96 122 154 192 236 277
#
# _framework density 17.777811
#
# number of rings (size 3 to 8) (size 9 to 14) (size 15 to 20)
#    0.000    3.000    0.000    0.750    0.000    7.500 
#    0.000    8.750    0.000    0.000    0.000    0.000 
#    0.000    0.000    0.000    0.000    0.000    0.000 
#
# Total GULP energy -793288.610249 kJ/mol
# GULP energy per Si atom -12395.134535 kJ/mol
# Density = 1.773735 g / cm^3
# Si number density = 17.777811 Si / 1000 Ang^3
#
#
#
# Elastic Constant Matrix: (Units=GPa)
#
#
# Indices 1 2 3 4 5 6 
#
# 1 71.6528 35.7933 17.8303 0.0000 0.0000 0.0000
# 2 35.7933 98.2182 10.8354 0.0000 0.0000 0.0000
# 3 17.8303 10.8354 42.5291 0.0000 0.0000 0.0000
# 4 0.0000 0.0000 0.0000 16.0756 0.0000 0.0000
# 5 0.0000 0.0000 0.0000 0.0000 18.6978 0.0000
# 6 0.0000 0.0000 0.0000 0.0000 0.0000 22.2426
#
#
#
# Elastic Compliance Matrix: (Units=1/GPa)
#
#
# Indices 1 2 3 4 5 6 
#
# 1 0.018537 -0.006069 -0.006225 0.000000 0.000000 0.000000
# 2 -0.006069 0.012463 -0.000631 0.000000 0.000000 0.000000
# 3 -0.006225 -0.000631 0.026284 0.000000 0.000000 0.000000
# 4 0.000000 0.000000 0.000000 0.062206 0.000000 0.000000
# 5 0.000000 0.000000 0.000000 0.000000 0.053482 0.000000
# 6 0.000000 0.000000 0.000000 0.000000 0.000000 0.044959
#
#
# Mechanical properties :
#
#
# Convention : Reuss Voigt Hill
#
# Bulk Modulus (GPa) = 31.81304 37.92422 34.86863
# Shear Modulus (GPa) = 19.66505 21.26594 20.46550
#
# Velocity S-wave (km/s) = 3.32950 3.46237 3.39659
# Velocity P-wave (km/s) = 5.71965 6.11250 5.91934
#
# Compressibility (1/GPa) = 0.03143365
#
# Stress axis : x y z
#
# Youngs Moduli (GPa) = 53.94673 80.24045 38.04590
#
# Poissons Ratio (x) = 0.48694 0.23685
# Poissons Ratio (y) = 0.32738 0.02400
# Poissons Ratio (z) = 0.33584 0.05063
#
# Static dielectric constant tensor:
#      x y z
#    x 3.305700 0.000000 0.000000 
#    y 0.000000 3.416110 0.000000 
#    z 0.000000 0.000000 3.001220 
# 
# 
# High freq. dielectric constant tensor:
#      x y z
#    x 1.678930 0.000000 0.000000 
#    y 0.000000 1.688680 0.000000 
#    z 0.000000 0.000000 1.653700 
# 
# From -- ./inp_files/25482.got.cif
#   From: 2010.03.12/outbox.cif.g09.slc.cpg/sg60_13_cif.got.tgz:25482.got - 2010.04.10 18:46:24.
