data_PCOD8248480
_publ_section_title
;
Structure prediction by ZEFSAII (Michael W. Deem and Ramdas Pophale) SiO2 
 PCOD8248480
Probable space group: P B C N
;
_chemical_formula_sum "Si O2"
_cell_formula_units_Z 48
_cell_length_a 27.262263
_cell_length_b 8.498583
_cell_length_c 9.158699
_cell_angle_alpha 90.000000
_cell_angle_beta 90.000000
_cell_angle_gamma 90.000000
_cell_volume 2121.984511
_symmetry_space_group_name_H-M "P B C N"
_symmetry_group_IT_number 60
_symmetry_cell_setting 'orthorhombic'
loop_
_space_group_symop_operation_xyz
x,y,z
1/2-x,1/2-y,1/2+z
1/2+x,1/2-y,-z
-x,y,1/2-z
-x,-y,-z
1/2+x,1/2+y,1/2-z
1/2-x,1/2+y,z
x,-y,1/2+z
loop_
_atom_site_type_symbol
_atom_site_label
_atom_site_fract_x
_atom_site_fract_y
_atom_site_fract_z
Si Si1 0.793556 0.160008 0.088137
Si Si2 0.105636 0.682996 0.438504
Si Si3 0.447675 0.316355 0.185196
Si Si4 0.297495 0.325491 0.561064
Si Si5 0.607718 0.179421 0.573324
Si Si6 0.050400 0.180028 0.180089
O O1 0.788560 0.155675 0.264889
O O2 0.745055 0.227171 0.014956
O O3 0.837488 0.270276 0.029894
O O4 0.802698 0.989182 0.022179
O O5 0.097385 0.792317 0.297432
O O6 0.153010 0.728990 0.531862
O O7 0.107842 0.503707 0.386181
O O8 0.057591 0.714877 0.536831
O O9 0.500000 0.260495 0.250000
O O10 0.433862 0.210894 0.047012
O O11 0.450351 0.497193 0.135500
O O12 0.595232 0.286305 0.712124
O O13 0.000000 0.236236 0.250000
#
# Coordination Sequence:
#
# PCOD8248480 Si02
#       6
#     8   8   8   8   8   8
#     4  12  27  48  76 107 144 189 239 296 363 436
#     4  12  26  43  69 103 143 184 237 292 358 426
#     4  11  25  43  70 101 138 191 241 295 357 425
#     4  12  27  48  76 107 144 189 239 296 363 436
#     4  12  26  43  69 103 143 184 237 292 358 426
#     4  11  23  45  68  97 138 185 239 295 355 427
#
# _framework density 22.620334
#
# number of rings (size 3 to 8) (size 9 to 14) (size 15 to 20)
#    0.000    0.333    1.667    7.000    4.667    6.667 
#    0.000    0.000    0.000    0.000    0.000    0.000 
#    0.000    0.000    0.000    0.000    0.000    0.000 
#
# Total GULP energy -595299.067124 kJ/mol
# GULP energy per Si atom -12402.063898 kJ/mol
# Density = 2.256885 g / cm^3
# Si number density = 22.620334 Si / 1000 Ang^3
#
#
#
# Elastic Constant Matrix: (Units=GPa)
#
#
# Indices 1 2 3 4 5 6 
#
# 1 91.1889 36.6629 21.0105 0.0000 0.0000 0.0000
# 2 36.6629 94.4741 22.7632 0.0000 0.0000 0.0000
# 3 21.0105 22.7632 115.3986 0.0000 0.0000 0.0000
# 4 0.0000 0.0000 0.0000 37.8761 0.0000 0.0000
# 5 0.0000 0.0000 0.0000 0.0000 218.7830 0.0000
# 6 0.0000 0.0000 0.0000 0.0000 0.0000 18.9323
#
#
#
# Elastic Compliance Matrix: (Units=1/GPa)
#
#
# Indices 1 2 3 4 5 6 
#
# 1 0.013225 -0.004779 -0.001465 0.000000 0.000000 0.000000
# 2 -0.004779 0.012840 -0.001663 0.000000 0.000000 0.000000
# 3 -0.001465 -0.001663 0.009260 0.000000 0.000000 0.000000
# 4 0.000000 0.000000 0.000000 0.026402 0.000000 0.000000
# 5 0.000000 0.000000 0.000000 0.000000 0.004571 0.000000
# 6 0.000000 0.000000 0.000000 0.000000 0.000000 0.052820
#
#
# Mechanical properties :
#
#
# Convention : Reuss Voigt Hill
#
# Bulk Modulus (GPa) = 51.25160 51.32610 51.28885
# Shear Modulus (GPa) = 35.35149 69.82661 52.58905
#
# Velocity S-wave (km/s) = 3.95754 5.56201 4.82691
# Velocity P-wave (km/s) = 6.60222 7.99922 7.33406
#
# Compressibility (1/GPa) = 0.01951159
#
# Stress axis : x y z
#
# Youngs Moduli (GPa) = 75.61203 77.87988 107.98732
#
# Poissons Ratio (x) = 0.37222 0.15822
# Poissons Ratio (y) = 0.36138 0.17955
# Poissons Ratio (z) = 0.11078 0.12949
#
# Static dielectric constant tensor:
#      x y z
#    x 4.093750 0.000000 0.000000 
#    y 0.000000 3.993150 0.000000 
#    z 0.000000 0.000000 4.396880 
# 
# 
# High freq. dielectric constant tensor:
#      x y z
#    x 1.907150 0.000000 0.000000 
#    y 0.000000 1.892470 0.000000 
#    z 0.000000 0.000000 1.906890 
# 
# From -- ./inp_files/8415.got.cif
#   From: 2010.03.12/outbox.cif.g09.slc.cpg/sg60_5_cif.got.tgz:8415.got - 2010.04.10 18:46:24.
