data_PCOD8248301
_publ_section_title
;
Structure prediction by ZEFSAII (Michael W. Deem and Ramdas Pophale) SiO2 
 PCOD8248301
Probable space group: P B C N
;
_chemical_formula_sum "Si O2"
_cell_formula_units_Z 64
_cell_length_a 7.485759
_cell_length_b 22.254786
_cell_length_c 20.940748
_cell_angle_alpha 90.000000
_cell_angle_beta 90.000000
_cell_angle_gamma 90.000000
_cell_volume 3488.602231
_symmetry_space_group_name_H-M "P B C N"
_symmetry_group_IT_number 60
_symmetry_cell_setting 'orthorhombic'
loop_
_space_group_symop_operation_xyz
x,y,z
1/2-x,1/2-y,1/2+z
1/2+x,1/2-y,-z
-x,y,1/2-z
-x,-y,-z
1/2+x,1/2+y,1/2-z
1/2-x,1/2+y,z
x,-y,1/2+z
loop_
_atom_site_type_symbol
_atom_site_label
_atom_site_fract_x
_atom_site_fract_y
_atom_site_fract_z
Si Si1 0.812997 0.189430 0.040253
Si Si2 0.283830 0.533924 0.183196
Si Si3 0.770551 0.801749 0.953791
Si Si4 0.301556 0.670102 0.322194
Si Si5 0.318361 0.465363 0.828760
Si Si6 0.513688 0.899331 0.509220
Si Si7 0.494649 0.987577 0.401900
Si Si8 0.221623 0.830612 0.684815
O O1 0.755974 0.208368 0.113617
O O2 0.708986 0.128517 0.022538
O O3 0.024854 0.176576 0.038439
O O4 0.754515 0.239389 0.990023
O O5 0.476324 0.530297 0.148263
O O6 0.302964 0.513837 0.255963
O O7 0.206076 0.601606 0.177007
O O8 0.146207 0.487680 0.152140
O O9 0.640998 0.849976 0.985260
O O10 0.718441 0.793030 0.878084
O O11 0.238563 0.601918 0.335507
O O12 0.212334 0.694596 0.255185
O O13 0.510657 0.667380 0.311198
O O14 0.202990 0.509781 0.872293
O O15 0.512458 0.924020 0.437206
O O16 0.467928 0.955155 0.553807
#
# Coordination Sequence:
#
# PCOD8248301 Si02
#       8
#     8   8   8   8   8   8   8   8
#     4  11  21  37  59  79 113 150 189 237 282 335
#     4   9  17  31  53  80 109 143 183 232 286 329
#     4  11  21  37  59  79 113 150 189 237 282 335
#     4   8  15  29  51  80 108 136 179 233 286 329
#     4   9  17  31  53  80 109 143 183 232 286 329
#     4  11  24  36  50  86 110 155 190 216 286 335
#     4  11  21  34  54  78 125 141 184 232 266 361
#     4   8  15  29  51  80 108 136 179 233 286 329
#
# _framework density 18.345455999999999
#
# number of rings (size 3 to 8) (size 9 to 14) (size 15 to 20)
#    0.000    2.250    3.750    1.875    0.000    1.000 
#    0.000    3.125    0.000    3.000    0.000    0.000 
#    0.000    0.000    0.000    0.000    0.000    0.000 
#
# Total GULP energy -792983.874213 kJ/mol
# GULP energy per Si atom -12390.373035 kJ/mol
# Density = 1.830370 g / cm^3
# Si number density = 18.345456 Si / 1000 Ang^3
#
#
#
# Elastic Constant Matrix: (Units=GPa)
#
#
# Indices 1 2 3 4 5 6 
#
# 1 60.3811 3.5010 9.1097 0.0000 0.0000 0.0000
# 2 3.5010 39.3739 32.5449 0.0000 0.0000 0.0000
# 3 9.1097 32.5449 119.5937 0.0000 0.0000 0.0000
# 4 0.0000 0.0000 0.0000 30.1697 0.0000 0.0000
# 5 0.0000 0.0000 0.0000 0.0000 25.8009 0.0000
# 6 0.0000 0.0000 0.0000 0.0000 0.0000 17.1944
#
#
#
# Elastic Compliance Matrix: (Units=1/GPa)
#
#
# Indices 1 2 3 4 5 6 
#
# 1 0.016764 -0.000561 -0.001124 0.000000 0.000000 0.000000
# 2 -0.000561 0.032787 -0.008880 0.000000 0.000000 0.000000
# 3 -0.001124 -0.008880 0.010864 0.000000 0.000000 0.000000
# 4 0.000000 0.000000 0.000000 0.033146 0.000000 0.000000
# 5 0.000000 0.000000 0.000000 0.000000 0.038758 0.000000
# 6 0.000000 0.000000 0.000000 0.000000 0.000000 0.058159
#
#
# Mechanical properties :
#
#
# Convention : Reuss Voigt Hill
#
# Bulk Modulus (GPa) = 25.45560 34.40665 29.93112
# Shear Modulus (GPa) = 22.25172 26.24586 24.24879
#
# Velocity S-wave (km/s) = 3.48649 3.78649 3.63958
# Velocity P-wave (km/s) = 5.48756 6.15729 5.83205
#
# Compressibility (1/GPa) = 0.03928409
#
# Stress axis : x y z
#
# Youngs Moduli (GPa) = 59.65294 30.50002 92.05013
#
# Poissons Ratio (x) = 0.01712 0.10348
# Poissons Ratio (y) = 0.03349 0.81736
# Poissons Ratio (z) = 0.06706 0.27083
#
# Static dielectric constant tensor:
#      x y z
#    x 3.422400 0.000000 0.000000 
#    y 0.000000 2.983900 0.000000 
#    z 0.000000 0.000000 3.889160 
# 
# 
# High freq. dielectric constant tensor:
#      x y z
#    x 1.717200 0.000000 0.000000 
#    y 0.000000 1.646590 0.000000 
#    z 0.000000 0.000000 1.728100 
# 
# From -- ./inp_files/19729.got.cif
#   From: 2010.03.12/outbox.cif.g09.slc.cpg/sg60_10_cif.got.tgz:19729.got - 2010.04.10 18:46:24.
