data_PCOD8248679
_publ_section_title
;
Structure prediction by ZEFSAII (Michael W. Deem and Ramdas Pophale) SiO2 
 PCOD8248679
Probable space group: P B C N
;
_chemical_formula_sum "Si O2"
_cell_formula_units_Z 44
_cell_length_a 29.797781
_cell_length_b 4.843182
_cell_length_c 12.365409
_cell_angle_alpha 90.000000
_cell_angle_beta 90.000000
_cell_angle_gamma 90.000000
_cell_volume 1784.527312
_symmetry_space_group_name_H-M "P B C N"
_symmetry_group_IT_number 60
_symmetry_cell_setting 'orthorhombic'
loop_
_space_group_symop_operation_xyz
x,y,z
1/2-x,1/2-y,1/2+z
1/2+x,1/2-y,-z
-x,y,1/2-z
-x,-y,-z
1/2+x,1/2+y,1/2-z
1/2-x,1/2+y,z
x,-y,1/2+z
loop_
_atom_site_type_symbol
_atom_site_label
_atom_site_fract_x
_atom_site_fract_y
_atom_site_fract_z
Si Si1 0.500000 0.694506 0.250000
Si Si2 0.280343 0.325348 0.482599
Si Si3 0.149883 0.862072 0.665708
Si Si4 0.558929 0.531924 0.434020
Si Si5 0.058239 0.502651 0.922876
Si Si6 0.351886 0.136892 0.312292
O O1 0.529444 0.492466 0.325645
O O2 0.468802 0.894852 0.319916
O O3 0.264569 0.641801 0.478760
O O4 0.307037 0.291126 0.594085
O O5 0.310190 0.244549 0.380745
O O6 0.105015 0.810298 0.596375
O O7 0.153591 0.677506 0.773373
O O8 0.146091 0.178275 0.704382
O O9 0.569197 0.246889 0.493346
O O10 0.532388 0.753039 0.512583
O O11 0.103162 0.349331 0.882644
#
# Coordination Sequence:
#
# PCOD8248679 Si02
#       6
#     4   8   8   8   8   8
#     4  12  28  48  76 114 150 200 262 314 380 452
#     4  12  28  47  76 111 149 190 248 310 364 449
#     4  12  26  47  78 107 148 198 245 302 381 446
#     4  12  27  47  76 109 151 198 252 314 377 452
#     4  12  27  48  75 110 150 200 253 311 379 448
#     4  12  26  48  77 109 149 199 244 305 381 449
#
# _framework density 24.656389999999998
#
# number of rings (size 3 to 8) (size 9 to 14) (size 15 to 20)
#    0.000    0.000    3.636    5.455    2.545    5.818 
#    0.000    0.000    0.000    0.000    0.000    0.000 
#    0.000    0.000    0.000    0.000    0.000    0.000 
#
# Total GULP energy -545924.868008 kJ/mol
# GULP energy per Si atom -12407.383364 kJ/mol
# Density = 2.460027 g / cm^3
# Si number density = 24.656390 Si / 1000 Ang^3
#
#
#
# Elastic Constant Matrix: (Units=GPa)
#
#
# Indices 1 2 3 4 5 6 
#
# 1 95.5066 8.8438 48.9577 0.0000 0.0000 0.0000
# 2 8.8438 97.2042 29.1827 0.0000 0.0000 0.0000
# 3 48.9577 29.1827 128.3061 0.0000 0.0000 0.0000
# 4 0.0000 0.0000 0.0000 54.1832 0.0000 0.0000
# 5 0.0000 0.0000 0.0000 0.0000 41.8386 0.0000
# 6 0.0000 0.0000 0.0000 0.0000 0.0000 26.8565
#
#
#
# Elastic Compliance Matrix: (Units=1/GPa)
#
#
# Indices 1 2 3 4 5 6 
#
# 1 0.013026 0.000330 -0.005045 0.000000 0.000000 0.000000
# 2 0.000330 0.011050 -0.002639 0.000000 0.000000 0.000000
# 3 -0.005045 -0.002639 0.010319 0.000000 0.000000 0.000000
# 4 0.000000 0.000000 0.000000 0.018456 0.000000 0.000000
# 5 0.000000 0.000000 0.000000 0.000000 0.023901 0.000000
# 6 0.000000 0.000000 0.000000 0.000000 0.000000 0.037235
#
#
# Mechanical properties :
#
#
# Convention : Reuss Voigt Hill
#
# Bulk Modulus (GPa) = 50.79801 54.99835 52.89818
# Shear Modulus (GPa) = 36.96603 40.17783 38.57193
#
# Velocity S-wave (km/s) = 3.87621 4.04110 3.95951
# Velocity P-wave (km/s) = 6.37812 6.64291 6.51186
#
# Compressibility (1/GPa) = 0.01968581
#
# Stress axis : x y z
#
# Youngs Moduli (GPa) = 76.76781 90.49836 96.90610
#
# Poissons Ratio (x) = -0.02983 0.48893
# Poissons Ratio (y) = -0.02530 0.25574
# Poissons Ratio (z) = 0.38732 0.23883
#
# Static dielectric constant tensor:
#      x y z
#    x 4.494370 0.000000 0.000000 
#    y 0.000000 4.327610 0.000000 
#    z 0.000000 0.000000 4.582700 
# 
# 
# High freq. dielectric constant tensor:
#      x y z
#    x 1.984170 0.000000 0.000000 
#    y 0.000000 1.988200 0.000000 
#    z 0.000000 0.000000 2.001090 
# 
# From -- ./inp_files/18022.got.cif
#   From: 2010.03.12/outbox.cif.g09.slc.cpg/sg60_10_cif.got.tgz:18022.got - 2010.04.10 18:46:24.
