data_PCOD8248963
_publ_section_title
;
Structure prediction by ZEFSAII (Michael W. Deem and Ramdas Pophale) SiO2 
 PCOD8248963
Probable space group: P B C A
;
_chemical_formula_sum "Si O2"
_cell_formula_units_Z 64
_cell_length_a 8.596364
_cell_length_b 15.649415
_cell_length_c 22.405284
_cell_angle_alpha 90.000000
_cell_angle_beta 90.000000
_cell_angle_gamma 90.000000
_cell_volume 3014.139563
_symmetry_space_group_name_H-M "P B C A"
_symmetry_group_IT_number 61
_symmetry_cell_setting 'orthorhombic'
loop_
_space_group_symop_operation_xyz
x,y,z
1/2-x,-y,1/2+z
1/2+x,1/2-y,-z
-x,1/2+y,1/2-z
-x,-y,-z
1/2+x,y,1/2-z
1/2-x,1/2+y,z
x,1/2-y,1/2+z
loop_
_atom_site_type_symbol
_atom_site_label
_atom_site_fract_x
_atom_site_fract_y
_atom_site_fract_z
Si Si1 0.732016 0.714355 0.316944
Si Si2 0.496293 0.957580 0.207627
Si Si3 0.682301 0.720642 0.941535
Si Si4 0.558423 0.201278 0.721118
Si Si5 0.133203 0.976476 0.419937
Si Si6 0.662539 0.024589 0.313530
Si Si7 0.954522 0.589885 0.608590
Si Si8 0.455284 0.639061 0.489507
O O1 0.767051 0.767380 0.377332
O O2 0.806660 0.754515 0.258067
O O3 0.549185 0.721725 0.302938
O O4 0.782439 0.618627 0.330241
O O5 0.533107 0.864372 0.235402
O O6 0.595421 0.971442 0.149178
O O7 0.555557 0.028596 0.254654
O O8 0.312141 0.964886 0.197112
O O9 0.556818 0.644761 0.937498
O O10 0.594301 0.806785 0.960750
O O11 0.813806 0.699406 0.990006
O O12 0.614247 0.147339 0.663119
O O13 0.312394 0.949559 0.428910
O O14 0.018762 0.912971 0.454198
O O15 0.109970 0.073735 0.440430
O O16 0.563172 0.986895 0.367994
#
# Coordination Sequence:
#
# PCOD8248963 Si02
#       8
#     8   8   8   8   8   8   8   8
#     4  11  22  37  59  89 124 155 197 249 301 364
#     4  11  20  38  60  85 125 160 198 247 307 372
#     4  11  24  43  63  88 124 165 208 264 313 362
#     4  10  20  36  59  89 120 156 192 236 305 379
#     4  11  23  41  64  90 120 161 209 262 309 363
#     4  11  22  36  60  94 125 162 202 244 306 383
#     4  10  22  41  64  90 122 159 201 252 318 378
#     4  11  25  42  63  88 118 162 215 260 307 361
#
# _framework density 21.233257999999999
#
# number of rings (size 3 to 8) (size 9 to 14) (size 15 to 20)
#    0.000    1.250    0.000    8.250    0.000    3.500 
#    0.000    2.500    0.000    0.000    0.000    0.000 
#    0.000    0.000    0.000    0.000    0.000    0.000 
#
# Total GULP energy -793750.274390 kJ/mol
# GULP energy per Si atom -12402.348037 kJ/mol
# Density = 2.118493 g / cm^3
# Si number density = 21.233258 Si / 1000 Ang^3
#
#
#
# Elastic Constant Matrix: (Units=GPa)
#
#
# Indices 1 2 3 4 5 6 
#
# 1 80.4743 32.1661 9.4919 0.0000 0.0000 0.0000
# 2 32.1661 102.6164 12.0060 0.0000 0.0000 0.0000
# 3 9.4919 12.0060 48.3447 0.0000 0.0000 0.0000
# 4 0.0000 0.0000 0.0000 16.4234 0.0000 0.0000
# 5 0.0000 0.0000 0.0000 0.0000 37.0053 0.0000
# 6 0.0000 0.0000 0.0000 0.0000 0.0000 40.2324
#
#
#
# Elastic Compliance Matrix: (Units=1/GPa)
#
#
# Indices 1 2 3 4 5 6 
#
# 1 0.014349 -0.004293 -0.001751 0.000000 0.000000 0.000000
# 2 -0.004293 0.011321 -0.001969 0.000000 0.000000 0.000000
# 3 -0.001751 -0.001969 0.021517 0.000000 0.000000 0.000000
# 4 0.000000 0.000000 0.000000 0.060889 0.000000 0.000000
# 5 0.000000 0.000000 0.000000 0.000000 0.027023 0.000000
# 6 0.000000 0.000000 0.000000 0.000000 0.000000 0.024856
#
#
# Mechanical properties :
#
#
# Convention : Reuss Voigt Hill
#
# Bulk Modulus (GPa) = 32.09032 37.64037 34.86535
# Shear Modulus (GPa) = 26.82874 30.58364 28.70619
#
# Velocity S-wave (km/s) = 3.55847 3.79933 3.68087
# Velocity P-wave (km/s) = 5.65947 6.08376 5.87545
#
# Compressibility (1/GPa) = 0.03116204
#
# Stress axis : x y z
#
# Youngs Moduli (GPa) = 69.69241 88.33142 46.47384
#
# Poissons Ratio (x) = 0.37920 0.08138
# Poissons Ratio (y) = 0.29918 0.09149
# Poissons Ratio (z) = 0.12204 0.17389
#
# Static dielectric constant tensor:
#      x y z
#    x 3.842000 0.000000 0.000000 
#    y 0.000000 3.819630 0.000000 
#    z 0.000000 0.000000 3.767280 
# 
# 
# High freq. dielectric constant tensor:
#      x y z
#    x 1.834650 0.000000 0.000000 
#    y 0.000000 1.834220 0.000000 
#    z 0.000000 0.000000 1.831770 
# 
# From -- ./inp_files/10902.got.cif
#   From: 2010.03.12/outbox.cif.g09.slc.cpg/sg61_6_cif.got.tgz:10902.got - 2010.04.10 19:05:03.
