data_PCOD8248402
_publ_section_title
;
Structure prediction by ZEFSAII (Michael W. Deem and Ramdas Pophale) SiO2 
 PCOD8248402
Probable space group: P B C N
;
_chemical_formula_sum "Si O2"
_cell_formula_units_Z 64
_cell_length_a 10.510460
_cell_length_b 8.956763
_cell_length_c 28.950051
_cell_angle_alpha 90.000000
_cell_angle_beta 90.000000
_cell_angle_gamma 90.000000
_cell_volume 2725.349094
_symmetry_space_group_name_H-M "P B C N"
_symmetry_group_IT_number 60
_symmetry_cell_setting 'orthorhombic'
loop_
_space_group_symop_operation_xyz
x,y,z
1/2-x,1/2-y,1/2+z
1/2+x,1/2-y,-z
-x,y,1/2-z
-x,-y,-z
1/2+x,1/2+y,1/2-z
1/2-x,1/2+y,z
x,-y,1/2+z
loop_
_atom_site_type_symbol
_atom_site_label
_atom_site_fract_x
_atom_site_fract_y
_atom_site_fract_z
Si Si1 0.827971 0.846782 0.459059
Si Si2 0.686502 0.522513 0.828610
Si Si3 0.358248 0.773562 0.119296
Si Si4 0.000477 0.793779 0.380746
Si Si5 0.222993 0.117501 0.822921
Si Si6 0.641335 0.058671 0.510240
Si Si7 0.578226 0.974590 0.108468
Si Si8 0.359439 0.364536 0.763946
O O1 0.738647 0.763738 0.422590
O O2 0.956334 0.881533 0.428148
O O3 0.754937 0.989521 0.479264
O O4 0.858889 0.735594 0.500971
O O5 0.819179 0.599974 0.842682
O O6 0.635946 0.391761 0.861290
O O7 0.583667 0.656569 0.836201
O O8 0.706084 0.452207 0.778304
O O9 0.496955 0.822876 0.102445
O O10 0.148602 0.809777 0.366294
O O11 0.983844 0.617222 0.390683
O O12 0.345071 0.034290 0.843759
O O13 0.269668 0.231995 0.782878
O O14 0.127772 0.992147 0.802725
O O15 0.500000 0.000000 0.500000
O O16 0.670843 0.022184 0.563772
O O17 0.500000 0.305247 0.750000
#
# Coordination Sequence:
#
# PCOD8248402 Si02
#       8
#     8   8   8   8   8   8   8   8
#     4  11  23  45  74 102 147 189 246 307 371 447
#     4  11  23  42  75 103 143 187 251 305 359 452
#     4  11  22  43  72 106 139 194 241 301 378 442
#     4  11  23  46  70 103 141 197 246 300 381 441
#     4  12  27  46  72 103 147 195 240 309 375 440
#     4  12  25  46  70 109 146 190 251 313 372 452
#     4  12  26  45  71 101 152 194 246 309 375 449
#     4  12  25  48  70 107 150 189 249 301 374 444
#
# _framework density 23.483229000000001
#
# number of rings (size 3 to 8) (size 9 to 14) (size 15 to 20)
#    0.000    0.500    5.000    4.500    1.750    0.000 
#    0.000    1.875    0.000    0.000    0.000    0.000 
#    0.000    0.000    0.000    0.000    0.000    0.000 
#
# Total GULP energy -793206.019256 kJ/mol
# GULP energy per Si atom -12393.844051 kJ/mol
# Density = 2.342978 g / cm^3
# Si number density = 23.483229 Si / 1000 Ang^3
#
#
#
# Elastic Constant Matrix: (Units=GPa)
#
#
# Indices 1 2 3 4 5 6 
#
# 1 86.7092 32.0494 26.5673 0.0000 0.0000 0.0000
# 2 32.0494 80.1971 30.0827 0.0000 0.0000 0.0000
# 3 26.5673 30.0827 105.9942 0.0000 0.0000 0.0000
# 4 0.0000 0.0000 0.0000 44.8415 0.0000 0.0000
# 5 0.0000 0.0000 0.0000 0.0000 43.5153 0.0000
# 6 0.0000 0.0000 0.0000 0.0000 0.0000 31.2290
#
#
#
# Elastic Compliance Matrix: (Units=1/GPa)
#
#
# Indices 1 2 3 4 5 6 
#
# 1 0.013953 -0.004772 -0.002143 0.000000 0.000000 0.000000
# 2 -0.004772 0.015587 -0.003228 0.000000 0.000000 0.000000
# 3 -0.002143 -0.003228 0.010888 0.000000 0.000000 0.000000
# 4 0.000000 0.000000 0.000000 0.022301 0.000000 0.000000
# 5 0.000000 0.000000 0.000000 0.000000 0.022980 0.000000
# 6 0.000000 0.000000 0.000000 0.000000 0.000000 0.032022
#
#
# Mechanical properties :
#
#
# Convention : Reuss Voigt Hill
#
# Bulk Modulus (GPa) = 49.64691 50.03327 49.84009
# Shear Modulus (GPa) = 34.54683 36.19722 35.37202
#
# Velocity S-wave (km/s) = 3.83969 3.93034 3.88528
# Velocity P-wave (km/s) = 6.39101 6.47680 6.43405
#
# Compressibility (1/GPa) = 0.02014224
#
# Stress axis : x y z
#
# Youngs Moduli (GPa) = 71.66737 64.15505 91.84705
#
# Poissons Ratio (x) = 0.30617 0.19682
# Poissons Ratio (y) = 0.34203 0.29645
# Poissons Ratio (z) = 0.15358 0.20707
#
# Static dielectric constant tensor:
#      x y z
#    x 4.158250 0.000000 0.000000 
#    y 0.000000 4.117730 0.000000 
#    z 0.000000 0.000000 4.459580 
# 
# 
# High freq. dielectric constant tensor:
#      x y z
#    x 1.918690 0.000000 0.000000 
#    y 0.000000 1.930240 0.000000 
#    z 0.000000 0.000000 1.930680 
# 
# From -- ./inp_files/26119.got.cif
#   From: 2010.03.12/outbox.cif.g09.slc.cpg/sg60_14_cif.got.tgz:26119.got - 2010.04.10 18:46:24.
