data_PCOD8248767
_publ_section_title
;
Structure prediction by ZEFSAII (Michael W. Deem and Ramdas Pophale) SiO2 
 PCOD8248767
Probable space group: P B C A
;
_chemical_formula_sum "Si O2"
_cell_formula_units_Z 48
_cell_length_a 16.326573
_cell_length_b 15.892207
_cell_length_c 9.463632
_cell_angle_alpha 90.000000
_cell_angle_beta 90.000000
_cell_angle_gamma 90.000000
_cell_volume 2455.483905
_symmetry_space_group_name_H-M "P B C A"
_symmetry_group_IT_number 61
_symmetry_cell_setting 'orthorhombic'
loop_
_space_group_symop_operation_xyz
x,y,z
1/2-x,-y,1/2+z
1/2+x,1/2-y,-z
-x,1/2+y,1/2-z
-x,-y,-z
1/2+x,y,1/2-z
1/2-x,1/2+y,z
x,1/2-y,1/2+z
loop_
_atom_site_type_symbol
_atom_site_label
_atom_site_fract_x
_atom_site_fract_y
_atom_site_fract_z
Si Si1 0.341592 0.530018 0.844733
Si Si2 0.428132 0.845416 0.815609
Si Si3 0.433022 0.454306 0.593317
Si Si4 0.571801 0.182326 0.508144
Si Si5 0.345430 0.019046 0.832296
Si Si6 0.067539 0.567299 0.551669
O O1 0.398806 0.518927 0.708713
O O2 0.365363 0.615564 0.924343
O O3 0.248556 0.532793 0.791992
O O4 0.354476 0.449209 0.949470
O O5 0.523426 0.874850 0.831541
O O6 0.409094 0.772494 0.926618
O O7 0.412786 0.811613 0.658535
O O8 0.364643 0.920122 0.849871
O O9 0.500000 0.500000 0.500000
O O10 0.361925 0.430724 0.480062
O O11 0.476286 0.157726 0.537658
O O12 0.405629 0.055269 0.712729
O O13 0.000000 0.500000 0.500000
#
# Coordination Sequence:
#
# PCOD8248767 Si02
#       6
#     8   8   8   8   8   8
#     4  11  21  40  65  88 122 166 203 256 309 364
#     4  11  23  40  59  91 123 158 206 255 301 362
#     4  10  21  37  62  90 116 157 213 249 288 370
#     4  11  23  39  62  87 122 162 204 254 307 356
#     4  11  22  38  66  93 121 160 208 253 309 370
#     4  10  18  40  63  83 116 164 206 246 294 364
#
# _framework density 19.548081
#
# number of rings (size 3 to 8) (size 9 to 14) (size 15 to 20)
#    0.000    1.333    5.000    4.000    7.000    0.000 
#    0.000    3.333    0.000    0.000    0.000    0.000 
#    0.000    0.000    0.000    0.000    0.000    0.000 
#
# Total GULP energy -594995.433299 kJ/mol
# GULP energy per Si atom -12395.738194 kJ/mol
# Density = 1.950359 g / cm^3
# Si number density = 19.548081 Si / 1000 Ang^3
#
#
#
# Elastic Constant Matrix: (Units=GPa)
#
#
# Indices 1 2 3 4 5 6 
#
# 1 94.5249 32.3785 31.7585 0.0000 0.0000 0.0000
# 2 32.3785 63.6978 31.4605 0.0000 0.0000 0.0000
# 3 31.7585 31.4605 141.8960 0.0000 0.0000 0.0000
# 4 0.0000 0.0000 0.0000 35.3511 0.0000 0.0000
# 5 0.0000 0.0000 0.0000 0.0000 31.2947 0.0000
# 6 0.0000 0.0000 0.0000 0.0000 0.0000 15.8531
#
#
#
# Elastic Compliance Matrix: (Units=1/GPa)
#
#
# Indices 1 2 3 4 5 6 
#
# 1 0.013141 -0.005870 -0.001640 0.000000 0.000000 0.000000
# 2 -0.005870 0.020252 -0.003176 0.000000 0.000000 0.000000
# 3 -0.001640 -0.003176 0.008119 0.000000 0.000000 0.000000
# 4 0.000000 0.000000 0.000000 0.028288 0.000000 0.000000
# 5 0.000000 0.000000 0.000000 0.000000 0.031954 0.000000
# 6 0.000000 0.000000 0.000000 0.000000 0.000000 0.063079
#
#
# Mechanical properties :
#
#
# Convention : Reuss Voigt Hill
#
# Bulk Modulus (GPa) = 49.65394 54.59042 52.12218
# Shear Modulus (GPa) = 25.91791 30.13453 28.02622
#
# Velocity S-wave (km/s) = 3.64518 3.93053 3.79054
# Velocity P-wave (km/s) = 6.57058 6.97034 6.77341
#
# Compressibility (1/GPa) = 0.02013939
#
# Stress axis : x y z
#
# Youngs Moduli (GPa) = 76.09907 49.37875 123.17328
#
# Poissons Ratio (x) = 0.28984 0.20197
# Poissons Ratio (y) = 0.44669 0.39124
# Poissons Ratio (z) = 0.12478 0.15684
#
# Static dielectric constant tensor:
#      x y z
#    x 3.915050 0.000000 0.000000 
#    y 0.000000 3.400390 0.000000 
#    z 0.000000 0.000000 4.071100 
# 
# 
# High freq. dielectric constant tensor:
#      x y z
#    x 1.750630 0.000000 0.000000 
#    y 0.000000 1.721620 0.000000 
#    z 0.000000 0.000000 1.790660 
# 
# From -- ./inp_files/2853.got.cif
#   From: 2010.03.12/outbox.cif.g09.slc.cpg/sg61_2_cif.got.tgz:2853.got - 2010.04.10 19:05:03.
