data_PCOD8248307
_publ_section_title
;
Structure prediction by ZEFSAII (Michael W. Deem and Ramdas Pophale) SiO2 
 PCOD8248307
Probable space group: P B C N
;
_chemical_formula_sum "Si O2"
_cell_formula_units_Z 56
_cell_length_a 20.373723
_cell_length_b 14.808361
_cell_length_c 9.085390
_cell_angle_alpha 90.000000
_cell_angle_beta 90.000000
_cell_angle_gamma 90.000000
_cell_volume 2741.075292
_symmetry_space_group_name_H-M "P B C N"
_symmetry_group_IT_number 60
_symmetry_cell_setting 'orthorhombic'
loop_
_space_group_symop_operation_xyz
x,y,z
1/2-x,1/2-y,1/2+z
1/2+x,1/2-y,-z
-x,y,1/2-z
-x,-y,-z
1/2+x,1/2+y,1/2-z
1/2-x,1/2+y,z
x,-y,1/2+z
loop_
_atom_site_type_symbol
_atom_site_label
_atom_site_fract_x
_atom_site_fract_y
_atom_site_fract_z
Si Si1 0.546227 0.014261 0.870940
Si Si2 0.808217 0.738574 0.151253
Si Si3 0.782961 0.924180 0.288575
Si Si4 0.932635 0.234558 0.158432
Si Si5 0.185052 0.108842 0.375216
Si Si6 0.434737 0.811733 0.665745
Si Si7 0.349966 0.147763 0.635234
O O1 0.500000 0.063126 0.750000
O O2 0.600028 0.079496 0.940722
O O3 0.574520 0.918873 0.819590
O O4 0.500000 0.000000 0.000000
O O5 0.796871 0.844474 0.172097
O O6 0.741522 0.680207 0.178554
O O7 0.866431 0.720231 0.265469
O O8 0.828144 0.722968 0.981843
O O9 0.814169 0.909691 0.449881
O O10 0.705263 0.920406 0.308179
O O11 0.805379 0.017639 0.217297
O O12 0.888566 0.143612 0.158122
O O13 0.885926 0.309529 0.227222
O O14 0.000000 0.217390 0.250000
O O15 0.946626 0.270624 0.995481
O O16 0.500000 0.778612 0.750000
#
# Coordination Sequence:
#
# PCOD8248307 Si02
#       7
#     8   8   8   8   8   8   8
#     4  11  21  36  58  97 137 171 213 266 336 413
#     4  11  23  45  67  99 136 175 228 281 344 411
#     4  11  25  44  69 100 133 180 232 290 344 411
#     4  12  24  43  68  99 137 186 232 283 346 410
#     4  11  26  45  70 101 137 181 232 287 351 410
#     4  11  23  41  67  97 140 182 227 281 340 414
#     4  11  23  40  67 101 135 177 223 282 348 411
#
# _framework density 20.429939000000001
#
# number of rings (size 3 to 8) (size 9 to 14) (size 15 to 20)
#    0.000    0.857    2.857    5.571    2.000    4.571 
#    0.000    1.429    0.000    0.000    0.000    0.000 
#    0.000    0.000    0.000    0.000    0.000    0.000 
#
# Total GULP energy -693876.771193 kJ/mol
# GULP energy per Si atom -12390.656628 kJ/mol
# Density = 2.038344 g / cm^3
# Si number density = 20.429939 Si / 1000 Ang^3
#
#
#
# Elastic Constant Matrix: (Units=GPa)
#
#
# Indices 1 2 3 4 5 6 
#
# 1 102.3378 33.7626 47.8406 0.0000 0.0000 0.0000
# 2 33.7626 93.6429 31.4779 0.0000 0.0000 0.0000
# 3 47.8406 31.4779 118.5513 0.0000 0.0000 0.0000
# 4 0.0000 0.0000 0.0000 20.4928 0.0000 0.0000
# 5 0.0000 0.0000 0.0000 0.0000 33.7761 0.0000
# 6 0.0000 0.0000 0.0000 0.0000 0.0000 37.8628
#
#
#
# Elastic Compliance Matrix: (Units=1/GPa)
#
#
# Indices 1 2 3 4 5 6 
#
# 1 0.012848 -0.003173 -0.004342 0.000000 0.000000 0.000000
# 2 -0.003173 0.012509 -0.002041 0.000000 0.000000 0.000000
# 3 -0.004342 -0.002041 0.010729 0.000000 0.000000 0.000000
# 4 0.000000 0.000000 0.000000 0.048798 0.000000 0.000000
# 5 0.000000 0.000000 0.000000 0.000000 0.029607 0.000000
# 6 0.000000 0.000000 0.000000 0.000000 0.000000 0.026411
#
#
# Mechanical properties :
#
#
# Convention : Reuss Voigt Hill
#
# Bulk Modulus (GPa) = 58.91270 60.07712 59.49491
# Shear Modulus (GPa) = 30.18001 31.85639 31.01820
#
# Velocity S-wave (km/s) = 3.84766 3.95308 3.90073
# Velocity P-wave (km/s) = 6.97412 7.09268 7.03365
#
# Compressibility (1/GPa) = 0.01697427
#
# Stress axis : x y z
#
# Youngs Moduli (GPa) = 77.83161 79.94329 93.20133
#
# Poissons Ratio (x) = 0.25364 0.40472
# Poissons Ratio (y) = 0.24694 0.19023
# Poissons Ratio (z) = 0.33798 0.16317
#
# Static dielectric constant tensor:
#      x y z
#    x 4.084820 0.000000 0.000000 
#    y 0.000000 3.676140 0.000000 
#    z 0.000000 0.000000 3.782220 
# 
# 
# High freq. dielectric constant tensor:
#      x y z
#    x 1.813200 0.000000 0.000000 
#    y 0.000000 1.790960 0.000000 
#    z 0.000000 0.000000 1.813120 
# 
# From -- ./inp_files/7409.got.cif
#   From: 2010.03.12/outbox.cif.g09.slc.cpg/sg60_4_cif.got.tgz:7409.got - 2010.04.10 18:46:24.
