data_PCOD8248833
_publ_section_title
;
Structure prediction by ZEFSAII (Michael W. Deem and Ramdas Pophale) SiO2 
 PCOD8248833
Probable space group: P B C A
;
_chemical_formula_sum "Si O2"
_cell_formula_units_Z 48
_cell_length_a 14.561893
_cell_length_b 18.204734
_cell_length_c 8.467189
_cell_angle_alpha 90.000000
_cell_angle_beta 90.000000
_cell_angle_gamma 90.000000
_cell_volume 2244.612758
_symmetry_space_group_name_H-M "P B C A"
_symmetry_group_IT_number 61
_symmetry_cell_setting 'orthorhombic'
loop_
_space_group_symop_operation_xyz
x,y,z
1/2-x,-y,1/2+z
1/2+x,1/2-y,-z
-x,1/2+y,1/2-z
-x,-y,-z
1/2+x,y,1/2-z
1/2-x,1/2+y,z
x,1/2-y,1/2+z
loop_
_atom_site_type_symbol
_atom_site_label
_atom_site_fract_x
_atom_site_fract_y
_atom_site_fract_z
Si Si1 0.301587 0.837113 0.677984
Si Si2 0.512115 0.151210 0.179807
Si Si3 0.576244 0.737491 0.040623
Si Si4 0.275947 0.933435 0.399136
Si Si5 0.650583 0.553404 0.320830
Si Si6 0.203168 0.807011 0.219258
O O1 0.378660 0.860069 0.806175
O O2 0.330877 0.874478 0.509483
O O3 0.204486 0.872455 0.736103
O O4 0.284725 0.749367 0.666337
O O5 0.481646 0.188213 0.342763
O O6 0.493647 0.203041 0.031231
O O7 0.456764 0.074327 0.158056
O O8 0.620008 0.687191 0.904304
O O9 0.662185 0.780565 0.114009
O O10 0.195943 0.970755 0.509790
O O11 0.238236 0.889345 0.247130
O O12 0.341292 0.994122 0.319788
#
# Coordination Sequence:
#
# PCOD8248833 Si02
#       6
#     8   8   8   8   8   8
#     4  10  23  39  66  92 120 160 214 249 306 364
#     4  11  22  38  62  93 126 157 207 256 311 359
#     4  10  19  35  63  89 121 157 192 266 304 349
#     4  10  22  40  61  89 122 166 205 243 314 367
#     4  10  22  42  59  87 129 163 200 250 305 377
#     4  11  18  40  63  90 120 158 207 254 305 361
#
# _framework density 21.384533999999999
#
# number of rings (size 3 to 8) (size 9 to 14) (size 15 to 20)
#    1.000    0.667    6.667    0.000    4.667    0.667 
#    0.000    0.833    0.000    0.000    0.000    0.000 
#    0.000    0.000    0.000    0.000    0.000    0.000 
#
# Total GULP energy -594819.273220 kJ/mol
# GULP energy per Si atom -12392.068192 kJ/mol
# Density = 2.133586 g / cm^3
# Si number density = 21.384534 Si / 1000 Ang^3
#
#
#
# Elastic Constant Matrix: (Units=GPa)
#
#
# Indices 1 2 3 4 5 6 
#
# 1 50.7021 -5.5131 -8.7315 0.0000 0.0000 0.0000
# 2 -5.5131 49.1447 23.5687 0.0000 0.0000 0.0000
# 3 -8.7315 23.5687 70.0656 0.0000 0.0000 0.0000
# 4 0.0000 0.0000 0.0000 39.1925 0.0000 0.0000
# 5 0.0000 0.0000 0.0000 0.0000 16.8459 0.0000
# 6 0.0000 0.0000 0.0000 0.0000 0.0000 15.8978
#
#
#
# Elastic Compliance Matrix: (Units=1/GPa)
#
#
# Indices 1 2 3 4 5 6 
#
# 1 0.020221 0.001264 0.002095 0.000000 0.000000 0.000000
# 2 0.001264 0.024341 -0.008030 0.000000 0.000000 0.000000
# 3 0.002095 -0.008030 0.017235 0.000000 0.000000 0.000000
# 4 0.000000 0.000000 0.000000 0.025515 0.000000 0.000000
# 5 0.000000 0.000000 0.000000 0.000000 0.059362 0.000000
# 6 0.000000 0.000000 0.000000 0.000000 0.000000 0.062902
#
#
# Mechanical properties :
#
#
# Convention : Reuss Voigt Hill
#
# Bulk Modulus (GPa) = 19.06452 20.95117 20.00784
# Shear Modulus (GPa) = 21.15028 25.09312 23.12170
#
# Velocity S-wave (km/s) = 3.14832 3.42924 3.29178
# Velocity P-wave (km/s) = 4.70642 5.04958 4.88101
#
# Compressibility (1/GPa) = 0.05245346
#
# Stress axis : x y z
#
# Youngs Moduli (GPa) = 49.45298 41.08297 58.02264
#
# Poissons Ratio (x) = -0.05192 -0.12155
# Poissons Ratio (y) = -0.06250 0.46594
# Poissons Ratio (z) = -0.10360 0.32991
#
# Static dielectric constant tensor:
#      x y z
#    x 3.584100 0.000000 0.000000 
#    y 0.000000 3.544260 0.000000 
#    z 0.000000 0.000000 3.789770 
# 
# 
# High freq. dielectric constant tensor:
#      x y z
#    x 1.813100 0.000000 0.000000 
#    y 0.000000 1.816600 0.000000 
#    z 0.000000 0.000000 1.842850 
# 
# From -- ./inp_files/2910.got.cif
#   From: 2010.03.12/outbox.cif.g09.slc.cpg/sg61_2_cif.got.tgz:2910.got - 2010.04.10 19:05:03.
