data_PCOD8248940
_publ_section_title
;
Structure prediction by ZEFSAII (Michael W. Deem and Ramdas Pophale) SiO2 
 PCOD8248940
Probable space group: P B C A
;
_chemical_formula_sum "Si O2"
_cell_formula_units_Z 40
_cell_length_a 21.859842
_cell_length_b 14.381963
_cell_length_c 5.289346
_cell_angle_alpha 90.000000
_cell_angle_beta 90.000000
_cell_angle_gamma 90.000000
_cell_volume 1662.903942
_symmetry_space_group_name_H-M "P B C A"
_symmetry_group_IT_number 61
_symmetry_cell_setting 'orthorhombic'
loop_
_space_group_symop_operation_xyz
x,y,z
1/2-x,-y,1/2+z
1/2+x,1/2-y,-z
-x,1/2+y,1/2-z
-x,-y,-z
1/2+x,y,1/2-z
1/2-x,1/2+y,z
x,1/2-y,1/2+z
loop_
_atom_site_type_symbol
_atom_site_label
_atom_site_fract_x
_atom_site_fract_y
_atom_site_fract_z
Si Si1 0.353182 0.871585 0.920189
Si Si2 0.333424 0.059474 0.706518
Si Si3 0.041479 0.642614 0.609780
Si Si4 0.009741 0.152635 0.390289
Si Si5 0.287904 0.892993 0.429244
O O1 0.418576 0.822149 0.893748
O O2 0.308192 0.838169 0.687172
O O3 0.363722 0.982751 0.892142
O O4 0.326239 0.850413 0.196284
O O5 0.385638 0.127076 0.601401
O O6 0.283539 0.119546 0.862515
O O7 0.300420 0.004290 0.472258
O O8 0.009020 0.596520 0.363615
O O9 0.028672 0.752208 0.614216
O O10 0.010982 0.596004 0.859695
#
# Coordination Sequence:
#
# PCOD8248940 Si02
#       5
#     8   8   8   8   8
#     4  10  20  35  60  85 124 150 194 240 301 352
#     4  10  21  36  61  93 120 149 196 247 304 351
#     4  10  23  37  62  77 123 162 200 242 290 351
#     4  10  22  41  54  85 117 165 200 239 286 354
#     4  10  20  35  58  93 117 149 187 251 305 350
#
# _framework density 24.054303999999998
#
# number of rings (size 3 to 8) (size 9 to 14) (size 15 to 20)
#    1.200    0.800    2.000    1.200    2.800    1.600 
#    0.000    0.000    0.000   28.800    0.000    0.000 
#    0.000    0.000    0.000    0.000    0.000    0.000 
#
# Total GULP energy -495620.695189 kJ/mol
# GULP energy per Si atom -12390.517380 kJ/mol
# Density = 2.399956 g / cm^3
# Si number density = 24.054304 Si / 1000 Ang^3
#
#
#
# Elastic Constant Matrix: (Units=GPa)
#
#
# Indices 1 2 3 4 5 6 
#
# 1 133.3784 18.6235 44.6780 0.0000 0.0000 0.0000
# 2 18.6235 27.8667 -5.9711 0.0000 0.0000 0.0000
# 3 44.6780 -5.9711 220.6166 0.0000 0.0000 0.0000
# 4 0.0000 0.0000 0.0000 -18.4439 0.0000 0.0000
# 5 0.0000 0.0000 0.0000 0.0000 38.5243 0.0000
# 6 0.0000 0.0000 0.0000 0.0000 0.0000 11.2301
#
#
#
# Elastic Compliance Matrix: (Units=1/GPa)
#
#
# Indices 1 2 3 4 5 6 
#
# 1 0.009080 -0.006500 -0.002015 0.000000 0.000000 0.000000
# 2 -0.006500 0.040747 0.002419 0.000000 0.000000 0.000000
# 3 -0.002015 0.002419 0.005006 0.000000 0.000000 0.000000
# 4 0.000000 0.000000 0.000000 -0.054219 0.000000 0.000000
# 5 0.000000 0.000000 0.000000 0.000000 0.025958 0.000000
# 6 0.000000 0.000000 0.000000 0.000000 0.000000 0.089046
#
#
# Mechanical properties :
#
#
# Convention : Reuss Voigt Hill
#
# Bulk Modulus (GPa) = 23.45067 55.16916 39.30992
# Shear Modulus (GPa) = 35.20534 27.89753 31.55143
#
# Velocity S-wave (km/s) = 3.82982 3.40924 3.62563
# Velocity P-wave (km/s) = 5.41544 6.20341 5.82277
#
# Compressibility (1/GPa) = 0.04264270
#
# Stress axis : x y z
#
# Youngs Moduli (GPa) = 110.13316 24.54143 199.75073
#
# Poissons Ratio (x) = 0.15952 0.40244
# Poissons Ratio (y) = 0.71585 -0.48323
# Poissons Ratio (z) = 0.22189 -0.05937
#
# Static dielectric constant tensor:
#      x y z
#    x 4.022750 0.000000 0.000000 
#    y 0.000000 3.614860 0.000000 
#    z 0.000000 0.000000 6.862820 
# 
# 
# High freq. dielectric constant tensor:
#      x y z
#    x 1.948340 0.000000 0.000000 
#    y 0.000000 1.906540 0.000000 
#    z 0.000000 0.000000 1.975450 
# 
# From -- ./inp_files/930.got.cif
#   From: 2010.03.12/outbox.cif.g09.slc.cpg/sg61_1_cif.got.tgz:930.got - 2010.04.10 19:05:03.
