data_PCOD8248837
_publ_section_title
;
Structure prediction by ZEFSAII (Michael W. Deem and Ramdas Pophale) SiO2 
 PCOD8248837
Probable space group: P B C A
;
_chemical_formula_sum "Si O2"
_cell_formula_units_Z 56
_cell_length_a 15.032865
_cell_length_b 8.742100
_cell_length_c 20.656303
_cell_angle_alpha 90.000000
_cell_angle_beta 90.000000
_cell_angle_gamma 90.000000
_cell_volume 2714.626741
_symmetry_space_group_name_H-M "P B C A"
_symmetry_group_IT_number 61
_symmetry_cell_setting 'orthorhombic'
loop_
_space_group_symop_operation_xyz
x,y,z
1/2-x,-y,1/2+z
1/2+x,1/2-y,-z
-x,1/2+y,1/2-z
-x,-y,-z
1/2+x,y,1/2-z
1/2-x,1/2+y,z
x,1/2-y,1/2+z
loop_
_atom_site_type_symbol
_atom_site_label
_atom_site_fract_x
_atom_site_fract_y
_atom_site_fract_z
Si Si1 0.063928 0.498563 0.906330
Si Si2 0.213372 0.835593 0.332353
Si Si3 0.442771 0.482733 0.083810
Si Si4 0.477961 0.755314 0.004054
Si Si5 0.017182 0.881545 0.718448
Si Si6 0.877187 0.021116 0.164747
Si Si7 0.113267 0.574190 0.714675
O O1 0.155476 0.540663 0.871699
O O2 0.028158 0.646637 0.942602
O O3 0.988386 0.447758 0.854366
O O4 0.081695 0.361798 0.957445
O O5 0.185728 0.665816 0.353219
O O6 0.197216 0.864945 0.254967
O O7 0.317749 0.867843 0.345007
O O8 0.416265 0.630240 0.040672
O O9 0.538653 0.513962 0.117494
O O10 0.366653 0.455546 0.138554
O O11 0.448039 0.334560 0.038241
O O12 0.095358 0.961671 0.760009
O O13 0.032521 0.699361 0.717509
O O14 0.923565 0.916843 0.754252
#
# Coordination Sequence:
#
# PCOD8248837 Si02
#       7
#     8   8   8   8   8   8   8
#     4  10  19  36  55  84 107 139 185 230 260 317
#     4  10  21  35  54  80 110 139 173 223 279 326
#     4  10  19  36  55  84 107 139 185 230 260 317
#     4  10  20  32  58  80 104 140 182 224 268 308
#     4   9  18  32  53  78 104 132 173 224 268 310
#     4  10  21  35  54  80 110 139 173 223 279 326
#     4   9  18  32  53  78 104 132 173 224 268 310
#
# _framework density 20.628988
#
# number of rings (size 3 to 8) (size 9 to 14) (size 15 to 20)
#    0.000    2.286    2.857    0.000    4.000    1.143 
#    0.000    0.000    0.000   10.286    0.000    0.000 
#    0.000    0.000    0.000    0.000    0.000    0.000 
#
# Total GULP energy -693944.523398 kJ/mol
# GULP energy per Si atom -12391.866489 kJ/mol
# Density = 2.058204 g / cm^3
# Si number density = 20.628988 Si / 1000 Ang^3
#
#
#
# Elastic Constant Matrix: (Units=GPa)
#
#
# Indices 1 2 3 4 5 6 
#
# 1 31.5175 -5.7663 -0.7165 0.0000 0.0000 0.0000
# 2 -5.7663 71.5132 21.4780 0.0000 0.0000 0.0000
# 3 -0.7165 21.4780 105.9965 0.0000 0.0000 0.0000
# 4 0.0000 0.0000 0.0000 38.6066 0.0000 0.0000
# 5 0.0000 0.0000 0.0000 0.0000 10.9539 0.0000
# 6 0.0000 0.0000 0.0000 0.0000 0.0000 22.5434
#
#
#
# Elastic Compliance Matrix: (Units=1/GPa)
#
#
# Indices 1 2 3 4 5 6 
#
# 1 0.032214 0.002696 -0.000329 0.000000 0.000000 0.000000
# 2 0.002696 0.015115 -0.003045 0.000000 0.000000 0.000000
# 3 -0.000329 -0.003045 0.010049 0.000000 0.000000 0.000000
# 4 0.000000 0.000000 0.000000 0.025902 0.000000 0.000000
# 5 0.000000 0.000000 0.000000 0.000000 0.091292 0.000000
# 6 0.000000 0.000000 0.000000 0.000000 0.000000 0.044359
#
#
# Mechanical properties :
#
#
# Convention : Reuss Voigt Hill
#
# Bulk Modulus (GPa) = 17.84934 26.55753 22.20343
# Shear Modulus (GPa) = 20.92398 27.35623 24.14011
#
# Velocity S-wave (km/s) = 3.18826 3.64552 3.42453
# Velocity P-wave (km/s) = 4.71431 5.53368 5.14035
#
# Compressibility (1/GPa) = 0.05602450
#
# Stress axis : x y z
#
# Youngs Moduli (GPa) = 31.04223 66.15847 99.51267
#
# Poissons Ratio (x) = -0.17838 0.03270
# Poissons Ratio (y) = -0.08370 0.30297
# Poissons Ratio (z) = 0.01020 0.20142
#
# Static dielectric constant tensor:
#      x y z
#    x 3.115330 0.000000 0.000000 
#    y 0.000000 3.948470 0.000000 
#    z 0.000000 0.000000 4.106650 
# 
# 
# High freq. dielectric constant tensor:
#      x y z
#    x 1.737200 0.000000 0.000000 
#    y 0.000000 1.826550 0.000000 
#    z 0.000000 0.000000 1.819990 
# 
# From -- ./inp_files/4023.got.cif
#   From: 2010.03.12/outbox.cif.g09.slc.cpg/sg61_3_cif.got.tgz:4023.got - 2010.04.10 19:05:03.
