data_PCOD8248146
_publ_section_title
;
Structure prediction by ZEFSAII (Michael W. Deem and Ramdas Pophale) SiO2 
 PCOD8248146
Probable space group: P B C N
;
_chemical_formula_sum "Si O2"
_cell_formula_units_Z 64
_cell_length_a 28.263478
_cell_length_b 11.949198
_cell_length_c 7.903904
_cell_angle_alpha 90.000000
_cell_angle_beta 90.000000
_cell_angle_gamma 90.000000
_cell_volume 2669.353051
_symmetry_space_group_name_H-M "P B C N"
_symmetry_group_IT_number 60
_symmetry_cell_setting 'orthorhombic'
loop_
_space_group_symop_operation_xyz
x,y,z
1/2-x,1/2-y,1/2+z
1/2+x,1/2-y,-z
-x,y,1/2-z
-x,-y,-z
1/2+x,1/2+y,1/2-z
1/2-x,1/2+y,z
x,-y,1/2+z
loop_
_atom_site_type_symbol
_atom_site_label
_atom_site_fract_x
_atom_site_fract_y
_atom_site_fract_z
Si Si1 0.443545 0.851338 0.902715
Si Si2 0.411626 0.389096 0.474708
Si Si3 0.398993 0.019304 0.709960
Si Si4 0.259672 0.500025 0.054356
Si Si5 0.551399 0.605716 0.173268
Si Si6 0.804808 0.600408 0.191282
Si Si7 0.684916 0.362731 0.202580
Si Si8 0.966209 0.661603 0.586037
O O1 0.437871 0.718893 0.899331
O O2 0.428235 0.900333 0.717086
O O3 0.406727 0.904084 0.044685
O O4 0.498556 0.880841 0.936648
O O5 0.442305 0.498441 0.442029
O O6 0.408816 0.379431 0.678632
O O7 0.362401 0.409264 0.381545
O O8 0.422101 0.078742 0.879034
O O9 0.344801 0.988266 0.747993
O O10 0.242986 0.580609 0.204185
O O11 0.303208 0.417895 0.113231
O O12 0.213634 0.426542 0.997958
O O13 0.273071 0.591737 0.913954
O O14 0.500000 0.596072 0.250000
O O15 0.554702 0.714687 0.052073
O O16 0.820447 0.728805 0.210179
O O17 0.000000 0.668327 0.750000
#
# Coordination Sequence:
#
# PCOD8248146 Si02
#       8
#     8   8   8   8   8   8   8   8
#     4  11  22  41  63  92 136 173 221 270 335 379
#     4  12  23  42  67  96 128 179 220 281 322 400
#     4  11  21  40  65  95 129 172 218 273 321 403
#     4  10  24  43  66  96 127 169 207 276 337 397
#     4  11  22  41  66  91 135 176 229 270 336 382
#     4  11  22  40  69  96 127 167 217 262 336 400
#     4  11  23  44  65  93 133 164 218 268 333 397
#     4   9  19  39  63  88 130 179 211 274 331 374
#
# _framework density 23.975847000000002
#
# number of rings (size 3 to 8) (size 9 to 14) (size 15 to 20)
#    0.000    1.250    5.000    3.000    0.000    0.000 
#    2.250    5.625    0.000    0.000    0.000    0.000 
#    0.000    0.000    0.000    0.000    0.000    0.000 
#
# Total GULP energy -793101.082628 kJ/mol
# GULP energy per Si atom -12392.204416 kJ/mol
# Density = 2.392128 g / cm^3
# Si number density = 23.975847 Si / 1000 Ang^3
#
#
#
# Elastic Constant Matrix: (Units=GPa)
#
#
# Indices 1 2 3 4 5 6 
#
# 1 95.4438 29.2709 7.9849 0.0000 0.0000 0.0000
# 2 29.2709 118.8147 4.8946 0.0000 0.0000 0.0000
# 3 7.9849 4.8946 22.7996 0.0000 0.0000 0.0000
# 4 0.0000 0.0000 0.0000 34.0657 0.0000 0.0000
# 5 0.0000 0.0000 0.0000 0.0000 36.0727 0.0000
# 6 0.0000 0.0000 0.0000 0.0000 0.0000 37.0817
#
#
#
# Elastic Compliance Matrix: (Units=1/GPa)
#
#
# Indices 1 2 3 4 5 6 
#
# 1 0.011601 -0.002715 -0.003480 0.000000 0.000000 0.000000
# 2 -0.002715 0.009127 -0.001009 0.000000 0.000000 0.000000
# 3 -0.003480 -0.001009 0.045296 0.000000 0.000000 0.000000
# 4 0.000000 0.000000 0.000000 0.029355 0.000000 0.000000
# 5 0.000000 0.000000 0.000000 0.000000 0.027722 0.000000
# 6 0.000000 0.000000 0.000000 0.000000 0.000000 0.026967
#
#
# Mechanical properties :
#
#
# Convention : Reuss Voigt Hill
#
# Bulk Modulus (GPa) = 19.37354 35.70655 27.54004
# Shear Modulus (GPa) = 27.52087 34.43788 30.97938
#
# Velocity S-wave (km/s) = 3.39168 3.79404 3.59849
# Velocity P-wave (km/s) = 4.84107 5.84107 5.36442
#
# Compressibility (1/GPa) = 0.05161680
#
# Stress axis : x y z
#
# Youngs Moduli (GPa) = 86.19915 109.56759 22.07712
#
# Poissons Ratio (x) = 0.29744 0.07683
# Poissons Ratio (y) = 0.23400 0.02227
# Poissons Ratio (z) = 0.29998 0.11051
#
# Static dielectric constant tensor:
#      x y z
#    x 4.258990 0.000000 0.000000 
#    y 0.000000 4.500660 0.000000 
#    z 0.000000 0.000000 4.558870 
# 
# 
# High freq. dielectric constant tensor:
#      x y z
#    x 1.943160 0.000000 0.000000 
#    y 0.000000 1.961100 0.000000 
#    z 0.000000 0.000000 1.949340 
# 
# From -- ./inp_files/8505.got.cif
#   From: 2010.03.12/outbox.cif.g09.slc.cpg/sg60_5_cif.got.tgz:8505.got - 2010.04.10 18:46:24.
