data_PCOD8248744
_publ_section_title
;
Structure prediction by ZEFSAII (Michael W. Deem and Ramdas Pophale) SiO2 
 PCOD8248744
Probable space group: P B C A
;
_chemical_formula_sum "Si O2"
_cell_formula_units_Z 64
_cell_length_a 9.452559
_cell_length_b 14.562485
_cell_length_c 24.816271
_cell_angle_alpha 90.000000
_cell_angle_beta 90.000000
_cell_angle_gamma 90.000000
_cell_volume 3416.027914
_symmetry_space_group_name_H-M "P B C A"
_symmetry_group_IT_number 61
_symmetry_cell_setting 'orthorhombic'
loop_
_space_group_symop_operation_xyz
x,y,z
1/2-x,-y,1/2+z
1/2+x,1/2-y,-z
-x,1/2+y,1/2-z
-x,-y,-z
1/2+x,y,1/2-z
1/2-x,1/2+y,z
x,1/2-y,1/2+z
loop_
_atom_site_type_symbol
_atom_site_label
_atom_site_fract_x
_atom_site_fract_y
_atom_site_fract_z
Si Si1 0.892351 0.457953 0.959749
Si Si2 0.826959 0.481190 0.788496
Si Si3 0.155302 0.382181 0.122443
Si Si4 0.494113 0.967678 0.684916
Si Si5 0.596004 0.664993 0.368858
Si Si6 0.973522 0.144096 0.888248
Si Si7 0.910944 0.907688 0.000254
Si Si8 0.074266 0.188088 0.109504
O O1 0.875935 0.530338 0.912661
O O2 0.956019 0.370600 0.927751
O O3 0.752112 0.433780 0.992818
O O4 0.000000 0.500000 0.000000
O O5 0.846513 0.582216 0.815605
O O6 0.659323 0.461276 0.787318
O O7 0.881426 0.479863 0.727716
O O8 0.923060 0.405279 0.819428
O O9 0.306948 0.351324 0.099562
O O10 0.043828 0.297619 0.116398
O O11 0.520181 0.875569 0.649326
O O12 0.510919 0.056443 0.647102
O O13 0.505454 0.757906 0.357277
O O14 0.764734 0.673062 0.374059
O O15 0.064265 0.143710 0.943170
O O16 0.959847 0.841279 0.951721
O O17 0.000000 0.000000 0.000000
#
# Coordination Sequence:
#
# PCOD8248744 Si02
#       8
#     8   8   8   8   8   8   8   8
#     4  10  20  34  51  76 112 146 169 209 272 320
#     4   9  19  36  56  74 103 139 180 222 267 320
#     4   9  18  35  54  75 105 147 178 210 269 327
#     4  10  19  35  56  78 102 139 178 224 272 315
#     4   8  18  35  52  75 105 143 177 209 267 329
#     4  10  18  33  59  80 102 139 187 221 255 318
#     4  11  18  34  56  81 106 137 184 223 250 315
#     4   9  18  32  55  79 104 139 184 216 260 322
#
# _framework density 18.735211
#
# number of rings (size 3 to 8) (size 9 to 14) (size 15 to 20)
#    0.000    2.500    2.500    1.500    1.750    1.000 
#    4.500    0.000    2.750    0.000    0.000    0.000 
#    0.000    0.000    0.000    0.000    0.000    0.000 
#
# Total GULP energy -792888.120508 kJ/mol
# GULP energy per Si atom -12388.876883 kJ/mol
# Density = 1.869257 g / cm^3
# Si number density = 18.735211 Si / 1000 Ang^3
#
#
#
# Elastic Constant Matrix: (Units=GPa)
#
#
# Indices 1 2 3 4 5 6 
#
# 1 38.1815 17.2654 36.3748 0.0000 0.0000 0.0000
# 2 17.2654 107.0232 29.3947 0.0000 0.0000 0.0000
# 3 36.3748 29.3947 104.3123 0.0000 0.0000 0.0000
# 4 0.0000 0.0000 0.0000 20.3381 0.0000 0.0000
# 5 0.0000 0.0000 0.0000 0.0000 31.7474 0.0000
# 6 0.0000 0.0000 0.0000 0.0000 0.0000 10.5828
#
#
#
# Elastic Compliance Matrix: (Units=1/GPa)
#
#
# Indices 1 2 3 4 5 6 
#
# 1 0.040002 -0.002842 -0.013148 0.000000 0.000000 0.000000
# 2 -0.002842 0.010330 -0.001920 0.000000 0.000000 0.000000
# 3 -0.013148 -0.001920 0.014713 0.000000 0.000000 0.000000
# 4 0.000000 0.000000 0.000000 0.049169 0.000000 0.000000
# 5 0.000000 0.000000 0.000000 0.000000 0.031499 0.000000
# 6 0.000000 0.000000 0.000000 0.000000 0.000000 0.094493
#
#
# Mechanical properties :
#
#
# Convention : Reuss Voigt Hill
#
# Bulk Modulus (GPa) = 34.21857 46.17633 40.19745
# Shear Modulus (GPa) = 17.49686 23.63248 20.56467
#
# Velocity S-wave (km/s) = 3.05930 3.55546 3.31667
# Velocity P-wave (km/s) = 5.54825 6.44635 6.01409
#
# Compressibility (1/GPa) = 0.02922390
#
# Stress axis : x y z
#
# Youngs Moduli (GPa) = 24.99881 96.80983 67.96938
#
# Poissons Ratio (x) = 0.27514 0.89368
# Poissons Ratio (y) = 0.07105 0.13048
# Poissons Ratio (z) = 0.32869 0.18585
#
# Static dielectric constant tensor:
#      x y z
#    x 2.447890 0.000000 0.000000 
#    y 0.000000 3.667780 0.000000 
#    z 0.000000 0.000000 3.288670 
# 
# 
# High freq. dielectric constant tensor:
#      x y z
#    x 1.682860 0.000000 0.000000 
#    y 0.000000 1.745120 0.000000 
#    z 0.000000 0.000000 1.723230 
# 
# From -- ./inp_files/10926.got.cif
#   From: 2010.03.12/outbox.cif.g09.slc.cpg/sg61_6_cif.got.tgz:10926.got - 2010.04.10 19:05:03.
