data_PCOD8248713
_publ_section_title
;
Structure prediction by ZEFSAII (Michael W. Deem and Ramdas Pophale) SiO2 
 PCOD8248713
Probable space group: P B C A
;
_chemical_formula_sum "Si O2"
_cell_formula_units_Z 56
_cell_length_a 19.361585
_cell_length_b 8.046682
_cell_length_c 19.768942
_cell_angle_alpha 90.000000
_cell_angle_beta 90.000000
_cell_angle_gamma 90.000000
_cell_volume 3079.932318
_symmetry_space_group_name_H-M "P B C A"
_symmetry_group_IT_number 61
_symmetry_cell_setting 'orthorhombic'
loop_
_space_group_symop_operation_xyz
x,y,z
1/2-x,-y,1/2+z
1/2+x,1/2-y,-z
-x,1/2+y,1/2-z
-x,-y,-z
1/2+x,y,1/2-z
1/2-x,1/2+y,z
x,1/2-y,1/2+z
loop_
_atom_site_type_symbol
_atom_site_label
_atom_site_fract_x
_atom_site_fract_y
_atom_site_fract_z
Si Si1 0.400204 0.358129 0.754285
Si Si2 0.347857 0.681469 0.000602
Si Si3 0.326640 0.284250 0.137177
Si Si4 0.585901 0.412333 0.135025
Si Si5 0.960590 0.802432 0.268772
Si Si6 0.439315 0.947028 0.613184
Si Si7 0.724609 0.015802 0.939521
O O1 0.334401 0.286352 0.713481
O O2 0.374100 0.436260 0.825712
O O3 0.456139 0.212659 0.767820
O O4 0.439460 0.507326 0.712066
O O5 0.415226 0.652836 0.046901
O O6 0.289326 0.546635 0.016785
O O7 0.320424 0.866218 0.013172
O O8 0.366905 0.667542 0.922066
O O9 0.394220 0.388683 0.121274
O O10 0.255784 0.388766 0.127030
O O11 0.324480 0.131842 0.084555
O O12 0.566811 0.271891 0.191403
O O13 0.517515 0.495481 0.102915
O O14 0.928321 0.670551 0.321120
#
# Coordination Sequence:
#
# PCOD8248713 Si02
#       7
#     8   8   8   8   8   8   8
#     4   9  16  30  53  75 112 131 171 210 270 323
#     4  10  19  37  55  74 107 140 188 219 272 313
#     4  10  17  35  53  79  97 136 187 222 256 319
#     4   9  19  31  55  83 111 138 168 222 286 325
#     4   9  17  30  53  84 107 140 159 212 281 323
#     4  10  18  32  60  80 107 139 175 222 271 336
#     4   9  21  33  58  70 101 147 183 227 260 304
#
# _framework density 18.182217999999999
#
# number of rings (size 3 to 8) (size 9 to 14) (size 15 to 20)
#    0.857    1.714    1.429    1.286    0.000    0.000 
#    0.000    2.143   28.286    0.000    0.000    0.000 
#    0.000    0.000    0.000    0.000    0.000    0.000 
#
# Total GULP energy -693793.405728 kJ/mol
# GULP energy per Si atom -12389.167959 kJ/mol
# Density = 1.814083 g / cm^3
# Si number density = 18.182218 Si / 1000 Ang^3
#
#
#
# Elastic Constant Matrix: (Units=GPa)
#
#
# Indices 1 2 3 4 5 6 
#
# 1 29.1794 8.8572 17.9563 0.0000 0.0000 0.0000
# 2 8.8572 65.1179 8.8143 0.0000 0.0000 0.0000
# 3 17.9563 8.8143 90.3615 0.0000 0.0000 0.0000
# 4 0.0000 0.0000 0.0000 21.9011 0.0000 0.0000
# 5 0.0000 0.0000 0.0000 0.0000 29.2184 0.0000
# 6 0.0000 0.0000 0.0000 0.0000 0.0000 24.3930
#
#
#
# Elastic Compliance Matrix: (Units=1/GPa)
#
#
# Indices 1 2 3 4 5 6 
#
# 1 0.040281 -0.004454 -0.007570 0.000000 0.000000 0.000000
# 2 -0.004454 0.016055 -0.000681 0.000000 0.000000 0.000000
# 3 -0.007570 -0.000681 0.012637 0.000000 0.000000 0.000000
# 4 0.000000 0.000000 0.000000 0.045660 0.000000 0.000000
# 5 0.000000 0.000000 0.000000 0.000000 0.034225 0.000000
# 6 0.000000 0.000000 0.000000 0.000000 0.000000 0.040995
#
#
# Mechanical properties :
#
#
# Convention : Reuss Voigt Hill
#
# Bulk Modulus (GPa) = 22.95531 28.43494 25.69513
# Shear Modulus (GPa) = 21.75944 25.03788 23.39866
#
# Velocity S-wave (km/s) = 3.46315 3.71489 3.59123
# Velocity P-wave (km/s) = 5.35199 5.83724 5.59987
#
# Compressibility (1/GPa) = 0.04356290
#
# Stress axis : x y z
#
# Youngs Moduli (GPa) = 24.82544 62.28667 79.13037
#
# Poissons Ratio (x) = 0.27744 0.59902
# Poissons Ratio (y) = 0.11058 0.05388
# Poissons Ratio (z) = 0.18793 0.04241
#
# Static dielectric constant tensor:
#      x y z
#    x 3.144720 0.000000 0.000000 
#    y 0.000000 3.407730 0.000000 
#    z 0.000000 0.000000 3.214610 
# 
# 
# High freq. dielectric constant tensor:
#      x y z
#    x 1.682740 0.000000 0.000000 
#    y 0.000000 1.707250 0.000000 
#    z 0.000000 0.000000 1.686530 
# 
# From -- ./inp_files/9750.got.cif
#   From: 2010.03.12/outbox.cif.g09.slc.cpg/sg61_5_cif.got.tgz:9750.got - 2010.04.10 19:05:03.
