data_PCOD8248889
_publ_section_title
;
Structure prediction by ZEFSAII (Michael W. Deem and Ramdas Pophale) SiO2 
 PCOD8248889
Probable space group: P B C A
;
_chemical_formula_sum "Si O2"
_cell_formula_units_Z 64
_cell_length_a 8.997925
_cell_length_b 16.390150
_cell_length_c 21.062619
_cell_angle_alpha 90.000000
_cell_angle_beta 90.000000
_cell_angle_gamma 90.000000
_cell_volume 3106.259033
_symmetry_space_group_name_H-M "P B C A"
_symmetry_group_IT_number 61
_symmetry_cell_setting 'orthorhombic'
loop_
_space_group_symop_operation_xyz
x,y,z
1/2-x,-y,1/2+z
1/2+x,1/2-y,-z
-x,1/2+y,1/2-z
-x,-y,-z
1/2+x,y,1/2-z
1/2-x,1/2+y,z
x,1/2-y,1/2+z
loop_
_atom_site_type_symbol
_atom_site_label
_atom_site_fract_x
_atom_site_fract_y
_atom_site_fract_z
Si Si1 0.699821 0.516138 0.278523
Si Si2 0.833278 0.134673 0.109859
Si Si3 0.238533 0.054318 0.510746
Si Si4 0.560996 0.939464 0.076573
Si Si5 0.145484 0.700279 0.829533
Si Si6 0.936788 0.637619 0.724164
Si Si7 0.920449 0.931113 0.677481
Si Si8 0.936573 0.489334 0.373921
O O1 0.627372 0.426530 0.275648
O O2 0.567639 0.586148 0.279392
O O3 0.800576 0.517968 0.216893
O O4 0.796404 0.531825 0.340763
O O5 0.908080 0.218371 0.132448
O O6 0.673651 0.141720 0.147178
O O7 0.797252 0.126804 0.035286
O O8 0.928757 0.053967 0.126612
O O9 0.378956 0.034282 0.555998
O O10 0.092232 0.090863 0.544799
O O11 0.186606 0.972279 0.472933
O O12 0.633290 0.869181 0.117786
O O13 0.513458 0.014073 0.121189
O O14 0.315326 0.698668 0.805259
O O15 0.047771 0.692085 0.766009
O O16 0.018157 0.590607 0.666308
#
# Coordination Sequence:
#
# PCOD8248889 Si02
#       8
#     8   8   8   8   8   8   8   8
#     4  12  18  34  70  93 115 156 219 265 310 364
#     4  11  26  42  58  98 136 165 210 273 314 379
#     4  10  22  41  70  93 120 170 229 257 305 372
#     4  10  19  40  69  89 122 171 211 264 306 381
#     4  12  25  43  62  97 137 166 204 263 343 380
#     4  12  21  40  70  91 123 174 210 260 320 394
#     4  11  19  36  63  92 120 161 212 257 312 370
#     4  12  21  40  70  99 117 164 234 266 301 382
#
# _framework density 20.603562
#
# number of rings (size 3 to 8) (size 9 to 14) (size 15 to 20)
#    0.000    0.750    7.500    1.125    0.000    2.000 
#    4.500    0.000    0.000    0.000    0.000    0.000 
#    0.000    0.000    0.000    0.000    0.000    0.000 
#
# Total GULP energy -792876.112356 kJ/mol
# GULP energy per Si atom -12388.689256 kJ/mol
# Density = 2.055667 g / cm^3
# Si number density = 20.603562 Si / 1000 Ang^3
#
#
#
# Elastic Constant Matrix: (Units=GPa)
#
#
# Indices 1 2 3 4 5 6 
#
# 1 115.6834 21.9889 58.3824 0.0000 0.0000 0.0000
# 2 21.9889 58.2971 43.1900 0.0000 0.0000 0.0000
# 3 58.3824 43.1900 114.8812 0.0000 0.0000 0.0000
# 4 0.0000 0.0000 0.0000 24.5659 0.0000 0.0000
# 5 0.0000 0.0000 0.0000 0.0000 49.3403 0.0000
# 6 0.0000 0.0000 0.0000 0.0000 0.0000 15.4256
#
#
#
# Elastic Compliance Matrix: (Units=1/GPa)
#
#
# Indices 1 2 3 4 5 6 
#
# 1 0.011626 -0.000011 -0.005904 0.000000 0.000000 0.000000
# 2 -0.000011 0.023776 -0.008933 0.000000 0.000000 0.000000
# 3 -0.005904 -0.008933 0.015064 0.000000 0.000000 0.000000
# 4 0.000000 0.000000 0.000000 0.040707 0.000000 0.000000
# 5 0.000000 0.000000 0.000000 0.000000 0.020267 0.000000
# 6 0.000000 0.000000 0.000000 0.000000 0.000000 0.064827
#
#
# Mechanical properties :
#
#
# Convention : Reuss Voigt Hill
#
# Bulk Modulus (GPa) = 48.14875 59.55381 53.85128
# Shear Modulus (GPa) = 23.48669 28.88637 26.18653
#
# Velocity S-wave (km/s) = 3.37995 3.74840 3.56894
# Velocity P-wave (km/s) = 6.21707 6.90662 6.57090
#
# Compressibility (1/GPa) = 0.02076897
#
# Stress axis : x y z
#
# Youngs Moduli (GPa) = 86.01356 42.05959 66.38548
#
# Poissons Ratio (x) = 0.00046 0.39195
# Poissons Ratio (y) = 0.00095 0.59302
# Poissons Ratio (z) = 0.50784 0.37572
#
# Static dielectric constant tensor:
#      x y z
#    x 4.065390 0.000000 0.000000 
#    y 0.000000 3.346300 0.000000 
#    z 0.000000 0.000000 4.041440 
# 
# 
# High freq. dielectric constant tensor:
#      x y z
#    x 1.826530 0.000000 0.000000 
#    y 0.000000 1.749250 0.000000 
#    z 0.000000 0.000000 1.823980 
# 
# From -- ./inp_files/10198.got.cif
#   From: 2010.03.12/outbox.cif.g09.slc.cpg/sg61_6_cif.got.tgz:10198.got - 2010.04.10 19:05:03.
