data_PCOD8248357
_publ_section_title
;
Structure prediction by ZEFSAII (Michael W. Deem and Ramdas Pophale) SiO2 
 PCOD8248357
Probable space group: P B C N
;
_chemical_formula_sum "Si O2"
_cell_formula_units_Z 24
_cell_length_a 19.862128
_cell_length_b 4.558909
_cell_length_c 8.127090
_cell_angle_alpha 90.000000
_cell_angle_beta 90.000000
_cell_angle_gamma 90.000000
_cell_volume 735.905026
_symmetry_space_group_name_H-M "P B C N"
_symmetry_group_IT_number 60
_symmetry_cell_setting 'orthorhombic'
loop_
_space_group_symop_operation_xyz
x,y,z
1/2-x,1/2-y,1/2+z
1/2+x,1/2-y,-z
-x,y,1/2-z
-x,-y,-z
1/2+x,1/2+y,1/2-z
1/2-x,1/2+y,z
x,-y,1/2+z
loop_
_atom_site_type_symbol
_atom_site_label
_atom_site_fract_x
_atom_site_fract_y
_atom_site_fract_z
Si Si1 0.797545 0.844584 0.840075
Si Si2 0.961416 0.741998 0.406852
Si Si3 0.372863 0.107350 0.358859
O O1 0.777063 0.186756 0.819496
O O2 0.845464 0.707660 0.698889
O O3 0.823553 0.790178 0.025512
O O4 0.940410 0.475600 0.529699
O O5 0.891950 0.823601 0.301475
O O6 0.000000 0.608930 0.250000
O O7 0.000000 0.000000 0.500000
#
# Coordination Sequence:
#
# PCOD8248357 Si02
#       3
#     8   8   8
#     4  11  22  37  56  84 116 149 186 227 272 330
#     4   8  14  28  52  84 112 144 186 234 280 330
#     4   9  18  31  52  84 112 149 186 227 280 330
#
# _framework density 32.612906000000002
#
# number of rings (size 3 to 8) (size 9 to 14) (size 15 to 20)
#    0.000    2.667    0.000    2.000    0.000    0.000 
#    0.000    0.000    0.000    0.000    0.000  588.000 
#    0.000    0.000    0.000    0.000    0.000    0.000 
#
# Total GULP energy -297377.047542 kJ/mol
# GULP energy per Si atom -12390.710314 kJ/mol
# Density = 3.253868 g / cm^3
# Si number density = 32.612906 Si / 1000 Ang^3
#
#
#
# Elastic Constant Matrix: (Units=GPa)
#
#
# Indices 1 2 3 4 5 6 
#
# 1 131.9161 15.3651 51.1249 0.0000 0.0000 0.0000
# 2 15.3651 127.3594 47.0311 0.0000 0.0000 0.0000
# 3 51.1249 47.0311 208.6921 0.0000 0.0000 0.0000
# 4 0.0000 0.0000 0.0000 65.4697 0.0000 0.0000
# 5 0.0000 0.0000 0.0000 0.0000 92.9633 0.0000
# 6 0.0000 0.0000 0.0000 0.0000 0.0000 35.6249
#
#
#
# Elastic Compliance Matrix: (Units=1/GPa)
#
#
# Indices 1 2 3 4 5 6 
#
# 1 0.008385 -0.000276 -0.001992 0.000000 0.000000 0.000000
# 2 -0.000276 0.008574 -0.001865 0.000000 0.000000 0.000000
# 3 -0.001992 -0.001865 0.005700 0.000000 0.000000 0.000000
# 4 0.000000 0.000000 0.000000 0.015274 0.000000 0.000000
# 5 0.000000 0.000000 0.000000 0.000000 0.010757 0.000000
# 6 0.000000 0.000000 0.000000 0.000000 0.000000 0.028070
#
#
# Mechanical properties :
#
#
# Convention : Reuss Voigt Hill
#
# Bulk Modulus (GPa) = 69.47635 77.22332 73.34984
# Shear Modulus (GPa) = 55.66549 62.44135 59.05342
#
# Velocity S-wave (km/s) = 4.13589 4.38039 4.25989
# Velocity P-wave (km/s) = 6.64508 7.02238 6.83633
#
# Compressibility (1/GPa) = 0.01439339
#
# Stress axis : x y z
#
# Youngs Moduli (GPa) = 119.26516 116.63667 175.44150
#
# Poissons Ratio (x) = 0.03219 0.34945
# Poissons Ratio (y) = 0.03292 0.32712
# Poissons Ratio (z) = 0.23756 0.21747
#
# Static dielectric constant tensor:
#      x y z
#    x 8.969870 0.000000 0.000000 
#    y 0.000000 5.514460 0.000000 
#    z 0.000000 0.000000 7.100820 
# 
# 
# High freq. dielectric constant tensor:
#      x y z
#    x 2.449260 0.000000 0.000000 
#    y 0.000000 2.335580 0.000000 
#    z 0.000000 0.000000 2.395370 
# 
# From -- ./inp_files/7670.got.cif
#   From: 2010.03.12/outbox.cif.g09.slc.cpg/sg60_4_cif.got.tgz:7670.got - 2010.04.10 18:46:24.
