data_PCOD8248044
_publ_section_title
;
Structure prediction by ZEFSAII (Michael W. Deem and Ramdas Pophale) SiO2 
 PCOD8248044
Probable space group: P B C N
;
_chemical_formula_sum "Si O2"
_cell_formula_units_Z 40
_cell_length_a 11.354859
_cell_length_b 10.041838
_cell_length_c 12.731816
_cell_angle_alpha 90.000000
_cell_angle_beta 90.000000
_cell_angle_gamma 90.000000
_cell_volume 1451.728190
_symmetry_space_group_name_H-M "P B C N"
_symmetry_group_IT_number 60
_symmetry_cell_setting 'orthorhombic'
loop_
_space_group_symop_operation_xyz
x,y,z
1/2-x,1/2-y,1/2+z
1/2+x,1/2-y,-z
-x,y,1/2-z
-x,-y,-z
1/2+x,1/2+y,1/2-z
1/2-x,1/2+y,z
x,-y,1/2+z
loop_
_atom_site_type_symbol
_atom_site_label
_atom_site_fract_x
_atom_site_fract_y
_atom_site_fract_z
Si Si1 0.303912 0.194668 0.325741
Si Si2 0.952536 0.674387 0.975230
Si Si3 0.886171 0.044013 0.424771
Si Si4 0.390957 0.488095 0.331013
Si Si5 0.378337 0.924052 0.623940
O O1 0.348826 0.149199 0.439055
O O2 0.309530 0.356532 0.315489
O O3 0.393617 0.137034 0.238895
O O4 0.176447 0.126030 0.299824
O O5 0.077316 0.686637 0.038517
O O6 0.922678 0.803167 0.909866
O O7 0.961762 0.552540 0.893191
O O8 0.911374 0.990185 0.541879
O O9 0.751383 0.023299 0.398999
O O10 0.958083 0.976799 0.321401
#
# Coordination Sequence:
#
# PCOD8248044 Si02
#       5
#     8   8   8   8   8
#     4  11  24  45  71 107 152 185 246 305 367 439
#     4  10  24  43  72 104 147 195 247 299 370 441
#     4  10  23  44  73 103 139 196 247 298 368 443
#     4  10  24  45  71 106 144 190 239 309 366 442
#     4  11  24  43  72 107 145 198 242 306 369 432
#
# _framework density 27.553367000000001
#
# number of rings (size 3 to 8) (size 9 to 14) (size 15 to 20)
#    0.000    1.600    2.000    0.600    8.400    2.400 
#    7.200    0.000    0.000    0.000    0.000    0.000 
#    0.000    0.000    0.000    0.000    0.000    0.000 
#
# Total GULP energy -495580.526218 kJ/mol
# GULP energy per Si atom -12389.513155 kJ/mol
# Density = 2.749065 g / cm^3
# Si number density = 27.553367 Si / 1000 Ang^3
#
#
#
# Elastic Constant Matrix: (Units=GPa)
#
#
# Indices 1 2 3 4 5 6 
#
# 1 130.6645 27.3192 10.7348 0.0000 0.0000 0.0000
# 2 27.3192 135.8926 40.5094 0.0000 0.0000 0.0000
# 3 10.7348 40.5094 47.0660 0.0000 0.0000 0.0000
# 4 0.0000 0.0000 0.0000 42.9946 0.0000 0.0000
# 5 0.0000 0.0000 0.0000 0.0000 16.1299 0.0000
# 6 0.0000 0.0000 0.0000 0.0000 0.0000 39.0069
#
#
#
# Elastic Compliance Matrix: (Units=1/GPa)
#
#
# Indices 1 2 3 4 5 6 
#
# 1 0.008001 -0.001432 -0.000592 0.000000 0.000000 0.000000
# 2 -0.001432 0.010155 -0.008413 0.000000 0.000000 0.000000
# 3 -0.000592 -0.008413 0.028623 0.000000 0.000000 0.000000
# 4 0.000000 0.000000 0.000000 0.023259 0.000000 0.000000
# 5 0.000000 0.000000 0.000000 0.000000 0.061997 0.000000
# 6 0.000000 0.000000 0.000000 0.000000 0.000000 0.025637
#
#
# Mechanical properties :
#
#
# Convention : Reuss Voigt Hill
#
# Bulk Modulus (GPa) = 38.60481 52.30553 45.45517
# Shear Modulus (GPa) = 26.71203 35.29690 31.00447
#
# Velocity S-wave (km/s) = 3.11700 3.58304 3.35812
# Velocity P-wave (km/s) = 5.19573 6.01183 5.61862
#
# Compressibility (1/GPa) = 0.02590351
#
# Stress axis : x y z
#
# Youngs Moduli (GPa) = 124.98050 98.47689 34.93654
#
# Poissons Ratio (x) = 0.14101 0.02070
# Poissons Ratio (y) = 0.17896 0.29394
# Poissons Ratio (z) = 0.07405 0.82853
#
# Static dielectric constant tensor:
#      x y z
#    x 5.251870 0.000000 0.000000 
#    y 0.000000 4.638690 0.000000 
#    z 0.000000 0.000000 6.106070 
# 
# 
# High freq. dielectric constant tensor:
#      x y z
#    x 2.129020 0.000000 0.000000 
#    y 0.000000 2.089690 0.000000 
#    z 0.000000 0.000000 2.158210 
# 
# From -- ./inp_files/15857.got.cif
#   From: 2010.03.12/outbox.cif.g09.slc.cpg/sg60_8_cif.got.tgz:15857.got - 2010.04.10 18:46:24.
