data_PCOD8248375
_publ_section_title
;
Structure prediction by ZEFSAII (Michael W. Deem and Ramdas Pophale) SiO2 
 PCOD8248375
Probable space group: P B C N
;
_chemical_formula_sum "Si O2"
_cell_formula_units_Z 32
_cell_length_a 18.627067
_cell_length_b 15.229517
_cell_length_c 4.892318
_cell_angle_alpha 90.000000
_cell_angle_beta 90.000000
_cell_angle_gamma 90.000000
_cell_volume 1387.858805
_symmetry_space_group_name_H-M "P B C N"
_symmetry_group_IT_number 60
_symmetry_cell_setting 'orthorhombic'
loop_
_space_group_symop_operation_xyz
x,y,z
1/2-x,1/2-y,1/2+z
1/2+x,1/2-y,-z
-x,y,1/2-z
-x,-y,-z
1/2+x,1/2+y,1/2-z
1/2-x,1/2+y,z
x,-y,1/2+z
loop_
_atom_site_type_symbol
_atom_site_label
_atom_site_fract_x
_atom_site_fract_y
_atom_site_fract_z
Si Si1 0.500000 0.935356 0.750000
Si Si2 0.868165 0.057683 0.960500
Si Si3 0.500000 0.640783 0.750000
Si Si4 0.295444 0.732118 0.340046
Si Si5 0.066801 0.294221 0.055755
O O1 0.567398 0.868763 0.684965
O O2 0.500000 0.000000 0.500000
O O3 0.952694 0.084729 0.964625
O O4 0.852264 0.025039 0.654210
O O5 0.818624 0.138485 0.042429
O O6 0.557069 0.698900 0.580696
O O7 0.259910 0.784260 0.592286
O O8 0.360552 0.792439 0.230020
O O9 0.000000 0.318318 0.250000
#
# Coordination Sequence:
#
# PCOD8248375 Si02
#       5
#     4   8   4   8   8
#     4  11  24  42  70 107 140 172 240 321 360 386
#     4  12  25  43  70 108 147 181 230 294 355 423
#     4  11  22  40  72 113 144 184 230 289 360 432
#     4  12  27  48  71 100 145 197 238 285 353 433
#     4  11  23  44  76 104 135 188 249 287 346 439
#
# _framework density 23.057099000000001
#
# number of rings (size 3 to 8) (size 9 to 14) (size 15 to 20)
#    0.000    0.500    3.750    5.250    3.500    0.000 
#    0.000    7.500    0.000    0.000    0.000    0.000 
#    0.000    0.000    0.000    0.000    0.000    0.000 
#
# Total GULP energy -396601.197145 kJ/mol
# GULP energy per Si atom -12393.787411 kJ/mol
# Density = 2.300462 g / cm^3
# Si number density = 23.057099 Si / 1000 Ang^3
#
#
#
# Elastic Constant Matrix: (Units=GPa)
#
#
# Indices 1 2 3 4 5 6 
#
# 1 129.4688 64.1090 66.1567 0.0000 0.0000 0.0000
# 2 64.1090 104.9262 57.7830 0.0000 0.0000 0.0000
# 3 66.1567 57.7830 152.4364 0.0000 0.0000 0.0000
# 4 0.0000 0.0000 0.0000 49.6991 0.0000 0.0000
# 5 0.0000 0.0000 0.0000 0.0000 56.2523 0.0000
# 6 0.0000 0.0000 0.0000 0.0000 0.0000 14.0573
#
#
#
# Elastic Compliance Matrix: (Units=1/GPa)
#
#
# Indices 1 2 3 4 5 6 
#
# 1 0.012135 -0.005705 -0.003104 0.000000 0.000000 0.000000
# 2 -0.005705 0.014727 -0.003107 0.000000 0.000000 0.000000
# 3 -0.003104 -0.003107 0.009085 0.000000 0.000000 0.000000
# 4 0.000000 0.000000 0.000000 0.020121 0.000000 0.000000
# 5 0.000000 0.000000 0.000000 0.000000 0.017777 0.000000
# 6 0.000000 0.000000 0.000000 0.000000 0.000000 0.071137
#
#
# Mechanical properties :
#
#
# Convention : Reuss Voigt Hill
#
# Bulk Modulus (GPa) = 82.53708 84.76987 83.65348
# Shear Modulus (GPa) = 28.92657 37.25391 33.09024
#
# Velocity S-wave (km/s) = 3.54582 4.02397 3.79244
# Velocity P-wave (km/s) = 7.25523 7.64426 7.45229
#
# Compressibility (1/GPa) = 0.01211577
#
# Stress axis : x y z
#
# Youngs Moduli (GPa) = 82.40724 67.90268 110.07427
#
# Poissons Ratio (x) = 0.38738 0.34166
# Poissons Ratio (y) = 0.47013 0.34195
# Poissons Ratio (z) = 0.25579 0.21094
#
# Static dielectric constant tensor:
#      x y z
#    x 4.012490 0.000000 0.000000 
#    y 0.000000 4.385210 0.000000 
#    z 0.000000 0.000000 4.536440 
# 
# 
# High freq. dielectric constant tensor:
#      x y z
#    x 1.878870 0.000000 0.000000 
#    y 0.000000 1.915200 0.000000 
#    z 0.000000 0.000000 1.940860 
# 
# From -- ./inp_files/1565.got.cif
#   From: 2010.03.12/outbox.cif.g09.slc.cpg/sg60_1_cif.got.tgz:1565.got - 2010.04.10 18:46:24.
