data_PCOD8248083
_publ_section_title
;
Structure prediction by ZEFSAII (Michael W. Deem and Ramdas Pophale) SiO2 
 PCOD8248083
Probable space group: P B C N
;
_chemical_formula_sum "Si O2"
_cell_formula_units_Z 44
_cell_length_a 10.188465
_cell_length_b 24.544206
_cell_length_c 9.153503
_cell_angle_alpha 90.000000
_cell_angle_beta 90.000000
_cell_angle_gamma 90.000000
_cell_volume 2288.996209
_symmetry_space_group_name_H-M "P B C N"
_symmetry_group_IT_number 60
_symmetry_cell_setting 'orthorhombic'
loop_
_space_group_symop_operation_xyz
x,y,z
1/2-x,1/2-y,1/2+z
1/2+x,1/2-y,-z
-x,y,1/2-z
-x,-y,-z
1/2+x,1/2+y,1/2-z
1/2-x,1/2+y,z
x,-y,1/2+z
loop_
_atom_site_type_symbol
_atom_site_label
_atom_site_fract_x
_atom_site_fract_y
_atom_site_fract_z
Si Si1 0.676446 0.983579 0.504323
Si Si2 0.883993 0.214748 0.943587
Si Si3 0.000000 0.503729 0.250000
Si Si4 0.180057 0.787140 0.389848
Si Si5 0.607604 0.590662 0.938608
Si Si6 0.819192 0.087776 0.604781
O O1 0.573083 0.961579 0.625314
O O2 0.806597 0.949696 0.536464
O O3 0.612312 0.971201 0.343891
O O4 0.708785 0.047662 0.536226
O O5 0.838184 0.226508 0.779651
O O6 0.856242 0.152031 0.980503
O O7 0.039763 0.226120 0.966186
O O8 0.798379 0.250701 0.052187
O O9 0.224259 0.849593 0.416706
O O10 0.457048 0.578263 0.978469
O O11 0.646980 0.577371 0.772925
#
# Coordination Sequence:
#
# PCOD8248083 Si02
#       6
#     8   8   4   8   8   8
#     4  11  19  40  52  82 109 149 176 218 272 319
#     4   9  19  38  57  81 108 142 184 227 270 323
#     4  10  24  34  54  74 124 142 180 216 256 336
#     4   9  19  38  57  81 108 142 184 227 270 323
#     4   9  18  35  60  79 104 140 183 225 268 320
#     4   9  18  35  60  79 104 140 183 225 268 320
#
# _framework density 19.2224
#
# number of rings (size 3 to 8) (size 9 to 14) (size 15 to 20)
#    0.000    2.545    1.818    2.727    0.000    0.727 
#    9.818    0.000    0.000    0.000    0.000    0.000 
#    0.000    0.000    0.000    0.000    0.000    0.000 
#
# Total GULP energy -545079.771196 kJ/mol
# GULP energy per Si atom -12388.176618 kJ/mol
# Density = 1.917865 g / cm^3
# Si number density = 19.222400 Si / 1000 Ang^3
#
#
#
# Elastic Constant Matrix: (Units=GPa)
#
#
# Indices 1 2 3 4 5 6 
#
# 1 79.3397 40.8979 21.0629 0.0000 0.0000 0.0000
# 2 40.8979 74.6970 19.8922 0.0000 0.0000 0.0000
# 3 21.0629 19.8922 51.4581 0.0000 0.0000 0.0000
# 4 0.0000 0.0000 0.0000 16.0255 0.0000 0.0000
# 5 0.0000 0.0000 0.0000 0.0000 33.7847 0.0000
# 6 0.0000 0.0000 0.0000 0.0000 0.0000 24.7785
#
#
#
# Elastic Compliance Matrix: (Units=1/GPa)
#
#
# Indices 1 2 3 4 5 6 
#
# 1 0.018280 -0.008936 -0.004028 0.000000 0.000000 0.000000
# 2 -0.008936 0.019292 -0.003800 0.000000 0.000000 0.000000
# 3 -0.004028 -0.003800 0.022551 0.000000 0.000000 0.000000
# 4 0.000000 0.000000 0.000000 0.062401 0.000000 0.000000
# 5 0.000000 0.000000 0.000000 0.000000 0.029599 0.000000
# 6 0.000000 0.000000 0.000000 0.000000 0.000000 0.040358
#
#
# Mechanical properties :
#
#
# Convention : Reuss Voigt Hill
#
# Bulk Modulus (GPa) = 37.60113 41.02232 39.31173
# Shear Modulus (GPa) = 21.28818 23.16054 22.22436
#
# Velocity S-wave (km/s) = 3.33147 3.47489 3.40394
# Velocity P-wave (km/s) = 5.86531 6.12267 5.99537
#
# Compressibility (1/GPa) = 0.02659494
#
# Stress axis : x y z
#
# Youngs Moduli (GPa) = 54.70608 51.83536 44.34397
#
# Poissons Ratio (x) = 0.46319 0.17861
# Poissons Ratio (y) = 0.48884 0.16851
# Poissons Ratio (z) = 0.22035 0.19698
#
# Static dielectric constant tensor:
#      x y z
#    x 3.921840 0.000000 0.000000 
#    y 0.000000 3.297860 0.000000 
#    z 0.000000 0.000000 3.314020 
# 
# 
# High freq. dielectric constant tensor:
#      x y z
#    x 1.765360 0.000000 0.000000 
#    y 0.000000 1.723720 0.000000 
#    z 0.000000 0.000000 1.731740 
# 
# From -- ./inp_files/4994.got.cif
#   From: 2010.03.12/outbox.cif.g09.slc.cpg/sg60_3_cif.got.tgz:4994.got - 2010.04.10 18:46:24.
