data_PCOD8248970
_publ_section_title
;
Structure prediction by ZEFSAII (Michael W. Deem and Ramdas Pophale) SiO2 
 PCOD8248970
Probable space group: P B C A
;
_chemical_formula_sum "Si O2"
_cell_formula_units_Z 56
_cell_length_a 21.970119
_cell_length_b 7.497269
_cell_length_c 16.606000
_cell_angle_alpha 90.000000
_cell_angle_beta 90.000000
_cell_angle_gamma 90.000000
_cell_volume 2735.272104
_symmetry_space_group_name_H-M "P B C A"
_symmetry_group_IT_number 61
_symmetry_cell_setting 'orthorhombic'
loop_
_space_group_symop_operation_xyz
x,y,z
1/2-x,-y,1/2+z
1/2+x,1/2-y,-z
-x,1/2+y,1/2-z
-x,-y,-z
1/2+x,y,1/2-z
1/2-x,1/2+y,z
x,1/2-y,1/2+z
loop_
_atom_site_type_symbol
_atom_site_label
_atom_site_fract_x
_atom_site_fract_y
_atom_site_fract_z
Si Si1 0.811650 0.845253 0.133857
Si Si2 0.570771 0.655396 0.557086
Si Si3 0.879487 0.496686 0.481993
Si Si4 0.331409 0.591789 0.690652
Si Si5 0.202357 0.005289 0.161864
Si Si6 0.933490 0.638232 0.926188
Si Si7 0.321249 0.065941 0.837155
O O1 0.832655 0.952965 0.214197
O O2 0.830369 0.640937 0.142712
O O3 0.739145 0.858045 0.120243
O O4 0.844307 0.935810 0.059777
O O5 0.582080 0.480520 0.503601
O O6 0.504444 0.636242 0.597167
O O7 0.620454 0.668362 0.627858
O O8 0.575275 0.834494 0.503273
O O9 0.830607 0.424373 0.416542
O O10 0.917654 0.657093 0.443913
O O11 0.319231 0.797634 0.677088
O O12 0.275375 0.487739 0.648605
O O13 0.395795 0.551326 0.648087
O O14 0.184431 0.891452 0.241607
#
# Coordination Sequence:
#
# PCOD8248970 Si02
#       7
#     8   8   8   8   8   8   8
#     4  10  20  36  61  90 120 155 194 259 297 356
#     4  11  23  39  63  83 117 165 195 242 298 355
#     4  11  22  39  64  90 118 154 206 252 304 344
#     4   9  20  38  58  86 122 154 195 245 306 352
#     4   9  21  35  61  88 120 152 191 258 299 351
#     4  10  23  42  58  85 123 154 201 247 287 365
#     4  10  20  39  58  88 126 153 202 242 304 358
#
# _framework density 20.473284
#
# number of rings (size 3 to 8) (size 9 to 14) (size 15 to 20)
#    0.000    2.000    1.429    1.286    4.000    2.286 
#    0.000    5.714    0.000    0.000    0.000    0.000 
#    0.000    0.000    0.000    0.000    0.000    0.000 
#
# Total GULP energy -694399.477578 kJ/mol
# GULP energy per Si atom -12399.990671 kJ/mol
# Density = 2.042669 g / cm^3
# Si number density = 20.473284 Si / 1000 Ang^3
#
#
#
# Elastic Constant Matrix: (Units=GPa)
#
#
# Indices 1 2 3 4 5 6 
#
# 1 123.4742 11.2186 50.8167 0.0000 0.0000 0.0000
# 2 11.2186 42.4188 9.5197 0.0000 0.0000 0.0000
# 3 50.8167 9.5197 80.3803 0.0000 0.0000 0.0000
# 4 0.0000 0.0000 0.0000 18.3782 0.0000 0.0000
# 5 0.0000 0.0000 0.0000 0.0000 30.3747 0.0000
# 6 0.0000 0.0000 0.0000 0.0000 0.0000 27.2573
#
#
#
# Elastic Compliance Matrix: (Units=1/GPa)
#
#
# Indices 1 2 3 4 5 6 
#
# 1 0.011026 -0.001389 -0.006806 0.000000 0.000000 0.000000
# 2 -0.001389 0.024393 -0.002011 0.000000 0.000000 0.000000
# 3 -0.006806 -0.002011 0.016982 0.000000 0.000000 0.000000
# 4 0.000000 0.000000 0.000000 0.054412 0.000000 0.000000
# 5 0.000000 0.000000 0.000000 0.000000 0.032922 0.000000
# 6 0.000000 0.000000 0.000000 0.000000 0.000000 0.036687
#
#
# Mechanical properties :
#
#
# Convention : Reuss Voigt Hill
#
# Bulk Modulus (GPa) = 31.26053 43.26479 37.26266
# Shear Modulus (GPa) = 24.09660 26.84994 25.47327
#
# Velocity S-wave (km/s) = 3.43443 3.62534 3.53118
# Velocity P-wave (km/s) = 5.57039 6.22112 5.90472
#
# Compressibility (1/GPa) = 0.03198922
#
# Stress axis : x y z
#
# Youngs Moduli (GPa) = 90.69279 40.99535 58.88574
#
# Poissons Ratio (x) = 0.05693 0.40080
# Poissons Ratio (y) = 0.12594 0.11842
# Poissons Ratio (z) = 0.61729 0.08244
#
# Static dielectric constant tensor:
#      x y z
#    x 3.816360 0.000000 0.000000 
#    y 0.000000 3.695200 0.000000 
#    z 0.000000 0.000000 3.958380 
# 
# 
# High freq. dielectric constant tensor:
#      x y z
#    x 1.791950 0.000000 0.000000 
#    y 0.000000 1.804560 0.000000 
#    z 0.000000 0.000000 1.795190 
# 
# From -- ./inp_files/8370.got.cif
#   From: 2010.03.12/outbox.cif.g09.slc.cpg/sg61_5_cif.got.tgz:8370.got - 2010.04.10 19:05:03.
