data_PCOD8248331
_publ_section_title
;
Structure prediction by ZEFSAII (Michael W. Deem and Ramdas Pophale) SiO2 
 PCOD8248331
Probable space group: P B C N
;
_chemical_formula_sum "Si O2"
_cell_formula_units_Z 56
_cell_length_a 15.176290
_cell_length_b 10.655867
_cell_length_c 15.644805
_cell_angle_alpha 90.000000
_cell_angle_beta 90.000000
_cell_angle_gamma 90.000000
_cell_volume 2530.023543
_symmetry_space_group_name_H-M "P B C N"
_symmetry_group_IT_number 60
_symmetry_cell_setting 'orthorhombic'
loop_
_space_group_symop_operation_xyz
x,y,z
1/2-x,1/2-y,1/2+z
1/2+x,1/2-y,-z
-x,y,1/2-z
-x,-y,-z
1/2+x,1/2+y,1/2-z
1/2-x,1/2+y,z
x,-y,1/2+z
loop_
_atom_site_type_symbol
_atom_site_label
_atom_site_fract_x
_atom_site_fract_y
_atom_site_fract_z
Si Si1 0.000000 0.621636 0.250000
Si Si2 0.500000 0.633462 0.250000
Si Si3 0.044998 0.205530 0.903611
Si Si4 0.647586 0.511492 0.145379
Si Si5 0.610371 0.557599 0.958831
Si Si6 0.257591 0.680017 0.656090
Si Si7 0.301757 0.062379 0.250772
Si Si8 0.410806 0.718749 0.086142
O O1 0.001419 0.704712 0.164445
O O2 0.908391 0.541320 0.245112
O O3 0.586352 0.551293 0.226560
O O4 0.478903 0.717111 0.165798
O O5 0.988140 0.080290 0.923935
O O6 0.135020 0.141677 0.866199
O O7 0.051561 0.274021 0.996107
O O8 0.750255 0.554328 0.158132
O O9 0.617454 0.582389 0.059604
O O10 0.669400 0.663992 0.915786
O O11 0.634240 0.416219 0.932602
O O12 0.251140 0.552027 0.708593
O O13 0.281344 0.802584 0.710627
O O14 0.164572 0.686228 0.610617
#
# Coordination Sequence:
#
# PCOD8248331 Si02
#       8
#     4   4   8   8   8   8   8   8
#     4  12  27  45  68  96 146 191 231 288 356 417
#     4  12  17  35  64 104 140 171 221 292 348 401
#     4  11  22  42  72 105 138 184 237 287 351 425
#     4  11  22  38  70 106 135 176 239 287 338 420
#     4  11  21  41  67 105 139 179 235 295 342 416
#     4  12  24  45  70  97 140 186 235 284 352 417
#     4  12  27  47  69 102 139 192 233 289 350 421
#     4  11  23  39  69 103 141 176 233 289 350 409
#
# _framework density 22.134180000000001
#
# number of rings (size 3 to 8) (size 9 to 14) (size 15 to 20)
#    0.000    0.571    7.143    2.143    2.000    0.571 
#    0.000    0.714    3.143    0.000    0.000    0.000 
#    0.000    0.000    0.000    0.000    0.000    0.000 
#
# Total GULP energy -693770.837172 kJ/mol
# GULP energy per Si atom -12388.764949 kJ/mol
# Density = 2.208380 g / cm^3
# Si number density = 22.134180 Si / 1000 Ang^3
#
#
#
# Elastic Constant Matrix: (Units=GPa)
#
#
# Indices 1 2 3 4 5 6 
#
# 1 127.7180 20.3701 45.2187 0.0000 0.0000 0.0000
# 2 20.3701 58.1471 19.4676 0.0000 0.0000 0.0000
# 3 45.2187 19.4676 130.3227 0.0000 0.0000 0.0000
# 4 0.0000 0.0000 0.0000 -1.5384 0.0000 0.0000
# 5 0.0000 0.0000 0.0000 0.0000 31.5344 0.0000
# 6 0.0000 0.0000 0.0000 0.0000 0.0000 41.6975
#
#
#
# Elastic Compliance Matrix: (Units=1/GPa)
#
#
# Indices 1 2 3 4 5 6 
#
# 1 0.009202 -0.002268 -0.002854 0.000000 0.000000 0.000000
# 2 -0.002268 0.018662 -0.002001 0.000000 0.000000 0.000000
# 3 -0.002854 -0.002001 0.008962 0.000000 0.000000 0.000000
# 4 0.000000 0.000000 0.000000 -0.650025 0.000000 0.000000
# 5 0.000000 0.000000 0.000000 0.000000 0.031711 0.000000
# 6 0.000000 0.000000 0.000000 0.000000 0.000000 0.023982
#
#
# Mechanical properties :
#
#
# Convention : Reuss Voigt Hill
#
# Bulk Modulus (GPa) = 44.28556 54.03340 49.15948
# Shear Modulus (GPa) = -9.33302 29.74746 10.20722
#
# Velocity S-wave (km/s) = -2.05566 3.66998 2.14977
# Velocity P-wave (km/s) = 3.79696 6.51330 5.33104
#
# Compressibility (1/GPa) = 0.02258072
#
# Stress axis : x y z
#
# Youngs Moduli (GPa) = 108.67240 53.58425 111.57703
#
# Poissons Ratio (x) = 0.12153 0.31845
# Poissons Ratio (y) = 0.24648 0.22324
# Poissons Ratio (z) = 0.31016 0.10721
#
# Static dielectric constant tensor:
#      x y z
#    x 4.173550 0.000000 0.000000 
#    y 0.000000 3.600640 0.000000 
#    z 0.000000 0.000000 4.358000 
# 
# 
# High freq. dielectric constant tensor:
#      x y z
#    x 1.874120 0.000000 0.000000 
#    y 0.000000 1.833950 0.000000 
#    z 0.000000 0.000000 1.888340 
# 
# From -- ./inp_files/16898.got.cif
#   From: 2010.03.12/outbox.cif.g09.slc.cpg/sg60_9_cif.got.tgz:16898.got - 2010.04.10 18:46:24.
