data_PCOD8248895
_publ_section_title
;
Structure prediction by ZEFSAII (Michael W. Deem and Ramdas Pophale) SiO2 
 PCOD8248895
Probable space group: P B C A
;
_chemical_formula_sum "Si O2"
_cell_formula_units_Z 48
_cell_length_a 13.984026
_cell_length_b 14.084112
_cell_length_c 11.769725
_cell_angle_alpha 90.000000
_cell_angle_beta 90.000000
_cell_angle_gamma 90.000000
_cell_volume 2318.077803
_symmetry_space_group_name_H-M "P B C A"
_symmetry_group_IT_number 61
_symmetry_cell_setting 'orthorhombic'
loop_
_space_group_symop_operation_xyz
x,y,z
1/2-x,-y,1/2+z
1/2+x,1/2-y,-z
-x,1/2+y,1/2-z
-x,-y,-z
1/2+x,y,1/2-z
1/2-x,1/2+y,z
x,1/2-y,1/2+z
loop_
_atom_site_type_symbol
_atom_site_label
_atom_site_fract_x
_atom_site_fract_y
_atom_site_fract_z
Si Si1 0.623157 0.573726 0.457019
Si Si2 0.808479 0.500719 0.568994
Si Si3 0.241382 0.636472 0.244187
Si Si4 0.189910 0.343645 0.253741
Si Si5 0.360388 0.469069 0.169420
Si Si6 0.008479 0.091095 0.652322
O O1 0.699725 0.508391 0.522920
O O2 0.676579 0.645033 0.370222
O O3 0.551785 0.509532 0.384187
O O4 0.561772 0.630628 0.552855
O O5 0.818797 0.412302 0.654866
O O6 0.835089 0.599688 0.630712
O O7 0.880939 0.481049 0.464928
O O8 0.273201 0.739713 0.284996
O O9 0.334719 0.572219 0.220796
O O10 0.268515 0.401390 0.183433
O O11 0.093685 0.334854 0.177451
O O12 0.451452 0.424902 0.230677
#
# Coordination Sequence:
#
# PCOD8248895 Si02
#       6
#     8   8   8   8   8   8
#     4  10  20  40  70  85 125 174 215 265 329 384
#     4  10  19  42  63  91 129 174 204 275 328 377
#     4  10  21  41  66  94 127 169 214 269 329 380
#     4  11  22  40  65  99 128 169 223 265 329 392
#     4  10  22  42  64  91 133 167 215 272 324 385
#     4  11  20  41  68  95 123 175 224 262 326 396
#
# _framework density 20.706810999999998
#
# number of rings (size 3 to 8) (size 9 to 14) (size 15 to 20)
#    0.000    1.667    8.333    0.000    0.000    3.333 
#    3.000    0.000    0.000    0.000    0.000    0.000 
#    0.000    0.000    0.000    0.000    0.000    0.000 
#
# Total GULP energy -595055.766983 kJ/mol
# GULP energy per Si atom -12396.995145 kJ/mol
# Density = 2.065968 g / cm^3
# Si number density = 20.706811 Si / 1000 Ang^3
#
#
#
# Elastic Constant Matrix: (Units=GPa)
#
#
# Indices 1 2 3 4 5 6 
#
# 1 89.8190 19.0865 33.7543 0.0000 0.0000 0.0000
# 2 19.0865 103.2538 43.0815 0.0000 0.0000 0.0000
# 3 33.7543 43.0815 132.0338 0.0000 0.0000 0.0000
# 4 0.0000 0.0000 0.0000 8.0138 0.0000 0.0000
# 5 0.0000 0.0000 0.0000 0.0000 27.5414 0.0000
# 6 0.0000 0.0000 0.0000 0.0000 0.0000 9.3768
#
#
#
# Elastic Compliance Matrix: (Units=1/GPa)
#
#
# Indices 1 2 3 4 5 6 
#
# 1 0.012429 -0.001125 -0.002810 0.000000 0.000000 0.000000
# 2 -0.001125 0.011313 -0.003404 0.000000 0.000000 0.000000
# 3 -0.002810 -0.003404 0.009403 0.000000 0.000000 0.000000
# 4 0.000000 0.000000 0.000000 0.124785 0.000000 0.000000
# 5 0.000000 0.000000 0.000000 0.000000 0.036309 0.000000
# 6 0.000000 0.000000 0.000000 0.000000 0.000000 0.106646
#
#
# Mechanical properties :
#
#
# Convention : Reuss Voigt Hill
#
# Bulk Modulus (GPa) = 54.15176 57.43903 55.79540
# Shear Modulus (GPa) = 15.54156 24.26535 19.90345
#
# Velocity S-wave (km/s) = 2.74259 3.42695 3.10369
# Velocity P-wave (km/s) = 6.01976 6.59227 6.31251
#
# Compressibility (1/GPa) = 0.01846662
#
# Stress axis : x y z
#
# Youngs Moduli (GPa) = 80.45912 88.39394 106.35022
#
# Poissons Ratio (x) = 0.09943 0.29888
# Poissons Ratio (y) = 0.09051 0.36199
# Poissons Ratio (z) = 0.22612 0.30087
#
# Static dielectric constant tensor:
#      x y z
#    x 3.769410 0.000000 0.000000 
#    y 0.000000 3.371260 0.000000 
#    z 0.000000 0.000000 4.183300 
# 
# 
# High freq. dielectric constant tensor:
#      x y z
#    x 1.802720 0.000000 0.000000 
#    y 0.000000 1.763990 0.000000 
#    z 0.000000 0.000000 1.829420 
# 
# From -- ./inp_files/5719.got.cif
#   From: 2010.03.12/outbox.cif.g09.slc.cpg/sg61_3_cif.got.tgz:5719.got - 2010.04.10 19:05:03.
