data_PCOD8248571
_publ_section_title
;
Structure prediction by ZEFSAII (Michael W. Deem and Ramdas Pophale) SiO2 
 PCOD8248571
Probable space group: P B C N
;
_chemical_formula_sum "Si O2"
_cell_formula_units_Z 60
_cell_length_a 25.185419
_cell_length_b 9.035219
_cell_length_c 11.368287
_cell_angle_alpha 90.000000
_cell_angle_beta 90.000000
_cell_angle_gamma 90.000000
_cell_volume 2586.919373
_symmetry_space_group_name_H-M "P B C N"
_symmetry_group_IT_number 60
_symmetry_cell_setting 'orthorhombic'
loop_
_space_group_symop_operation_xyz
x,y,z
1/2-x,1/2-y,1/2+z
1/2+x,1/2-y,-z
-x,y,1/2-z
-x,-y,-z
1/2+x,1/2+y,1/2-z
1/2-x,1/2+y,z
x,-y,1/2+z
loop_
_atom_site_type_symbol
_atom_site_label
_atom_site_fract_x
_atom_site_fract_y
_atom_site_fract_z
Si Si1 0.442673 0.753500 0.193577
Si Si2 0.500000 0.771844 0.750000
Si Si3 0.700512 0.055319 0.169387
Si Si4 0.720023 0.651702 0.766169
Si Si5 0.898586 0.436769 0.816095
Si Si6 0.178497 0.311633 0.505366
Si Si7 0.633185 0.563429 0.157030
Si Si8 0.546978 0.396794 0.039643
O O1 0.500000 0.783541 0.250000
O O2 0.413441 0.616646 0.255706
O O3 0.402685 0.889009 0.199576
O O4 0.448692 0.730898 0.055354
O O5 0.457491 0.872822 0.685033
O O6 0.466477 0.670272 0.835307
O O7 0.727871 0.952174 0.270507
O O8 0.729102 0.217228 0.167218
O O9 0.640867 0.102505 0.208077
O O10 0.706159 0.961014 0.048797
O O11 0.712960 0.729335 0.893862
O O12 0.670788 0.547370 0.729396
O O13 0.875434 0.375433 0.938206
O O14 0.165776 0.198648 0.399808
O O15 0.603421 0.480263 0.050134
O O16 0.500000 0.500000 0.000000
#
# Coordination Sequence:
#
# PCOD8248571 Si02
#       8
#     8   4   8   8   8   8   8   8
#     4  12  25  43  68 105 141 196 244 295 359 436
#     4  12  26  44  68 102 146 192 244 298 356 434
#     4  11  25  49  72 106 142 183 237 298 363 443
#     4  11  27  48  75 109 140 185 242 303 365 434
#     4  11  26  43  69 102 144 185 242 292 360 430
#     4  11  25  48  75 105 147 191 233 307 366 432
#     4  12  24  47  72 106 146 189 249 296 364 440
#     4  12  24  40  66  99 144 191 238 295 356 428
#
# _framework density 23.193611000000001
#
# number of rings (size 3 to 8) (size 9 to 14) (size 15 to 20)
#    0.000    0.533    3.333    4.800    3.733    4.800 
#    0.000    0.000    0.000    0.000    0.000    0.000 
#    0.000    0.000    0.000    0.000    0.000    0.000 
#
# Total GULP energy -743765.511094 kJ/mol
# GULP energy per Si atom -12396.091852 kJ/mol
# Density = 2.314082 g / cm^3
# Si number density = 23.193611 Si / 1000 Ang^3
#
#
#
# Elastic Constant Matrix: (Units=GPa)
#
#
# Indices 1 2 3 4 5 6 
#
# 1 79.2365 19.5190 1.6638 0.0000 0.0000 0.0000
# 2 19.5190 109.1925 20.4381 0.0000 0.0000 0.0000
# 3 1.6638 20.4381 82.6195 0.0000 0.0000 0.0000
# 4 0.0000 0.0000 0.0000 35.0599 0.0000 0.0000
# 5 0.0000 0.0000 0.0000 0.0000 23.9427 0.0000
# 6 0.0000 0.0000 0.0000 0.0000 0.0000 37.6949
#
#
#
# Elastic Compliance Matrix: (Units=1/GPa)
#
#
# Indices 1 2 3 4 5 6 
#
# 1 0.013211 -0.002424 0.000334 0.000000 0.000000 0.000000
# 2 -0.002424 0.010048 -0.002437 0.000000 0.000000 0.000000
# 3 0.000334 -0.002437 0.012700 0.000000 0.000000 0.000000
# 4 0.000000 0.000000 0.000000 0.028523 0.000000 0.000000
# 5 0.000000 0.000000 0.000000 0.000000 0.041766 0.000000
# 6 0.000000 0.000000 0.000000 0.000000 0.000000 0.026529
#
#
# Mechanical properties :
#
#
# Convention : Reuss Voigt Hill
#
# Bulk Modulus (GPa) = 37.16958 39.36560 38.26759
# Shear Modulus (GPa) = 33.15703 34.63468 33.89585
#
# Velocity S-wave (km/s) = 3.78508 3.86850 3.82701
# Velocity P-wave (km/s) = 5.92984 6.07973 6.00525
#
# Compressibility (1/GPa) = 0.02690372
#
# Stress axis : x y z
#
# Youngs Moduli (GPa) = 75.69712 99.52697 78.74177
#
# Poissons Ratio (x) = 0.24125 -0.02627
# Poissons Ratio (y) = 0.18348 0.19187
# Poissons Ratio (z) = -0.02525 0.24252
#
# Static dielectric constant tensor:
#      x y z
#    x 4.025730 0.000000 0.000000 
#    y 0.000000 4.114620 0.000000 
#    z 0.000000 0.000000 3.945460 
# 
# 
# High freq. dielectric constant tensor:
#      x y z
#    x 1.926080 0.000000 0.000000 
#    y 0.000000 1.937370 0.000000 
#    z 0.000000 0.000000 1.904070 
# 
# From -- ./inp_files/13273.got.cif
#   From: 2010.03.12/outbox.cif.g09.slc.cpg/sg60_7_cif.got.tgz:13273.got - 2010.04.10 18:46:24.
