data_PCOD8248093
_publ_section_title
;
Structure prediction by ZEFSAII (Michael W. Deem and Ramdas Pophale) SiO2 
 PCOD8248093
Probable space group: P B C N
;
_chemical_formula_sum "Si O2"
_cell_formula_units_Z 64
_cell_length_a 14.320178
_cell_length_b 9.230531
_cell_length_c 23.919777
_cell_angle_alpha 90.000000
_cell_angle_beta 90.000000
_cell_angle_gamma 90.000000
_cell_volume 3161.784222
_symmetry_space_group_name_H-M "P B C N"
_symmetry_group_IT_number 60
_symmetry_cell_setting 'orthorhombic'
loop_
_space_group_symop_operation_xyz
x,y,z
1/2-x,1/2-y,1/2+z
1/2+x,1/2-y,-z
-x,y,1/2-z
-x,-y,-z
1/2+x,1/2+y,1/2-z
1/2-x,1/2+y,z
x,-y,1/2+z
loop_
_atom_site_type_symbol
_atom_site_label
_atom_site_fract_x
_atom_site_fract_y
_atom_site_fract_z
Si Si1 0.862636 0.989449 0.544621
Si Si2 0.745991 0.742252 0.604393
Si Si3 0.590909 0.990659 0.784245
Si Si4 0.853751 0.212711 0.837720
Si Si5 0.779038 0.507536 0.180232
Si Si6 0.923972 0.010729 0.423629
Si Si7 0.109799 0.006852 0.249770
Si Si8 0.354340 0.734667 0.160708
O O1 0.809086 0.845913 0.565705
O O2 0.857959 0.991716 0.477505
O O3 0.821002 0.141416 0.566997
O O4 0.968567 0.976200 0.562430
O O5 0.688874 0.849037 0.646355
O O6 0.806345 0.633227 0.643417
O O7 0.500000 0.946061 0.750000
O O8 0.575841 0.141742 0.816590
O O9 0.613134 0.878296 0.833974
O O10 0.675741 0.004431 0.740801
O O11 0.912926 0.127969 0.883870
O O12 0.745561 0.195971 0.854048
O O13 0.875487 0.152346 0.775684
O O14 0.664538 0.513057 0.190435
O O15 0.896488 0.160669 0.394017
O O16 0.162252 0.118147 0.209156
O O17 0.000000 0.046422 0.250000
#
# Coordination Sequence:
#
# PCOD8248093 Si02
#       8
#     8   8   8   8   8   8   8   8
#     4  10  24  49  63  98 113 167 213 274 311 384
#     4  10  24  38  70  86 130 158 218 248 320 372
#     4  12  24  36  59  94 136 163 203 251 315 369
#     4  11  22  41  60  94 125 167 208 261 307 378
#     4  11  21  39  59  94 130 172 200 261 299 382
#     4  10  25  43  73  84 127 159 222 261 321 375
#     4  11  22  37  63  88 130 177 215 241 311 383
#     4  11  22  41  60  94 125 167 208 261 307 378
#
# _framework density 20.241737000000001
#
# number of rings (size 3 to 8) (size 9 to 14) (size 15 to 20)
#    0.000    1.250    2.500    3.000   12.250    0.000 
#    0.000    0.000    0.000    7.500    0.000    0.000 
#    0.000    0.000    0.000    0.000    0.000    0.000 
#
# Total GULP energy -793505.193863 kJ/mol
# GULP energy per Si atom -12398.518654 kJ/mol
# Density = 2.019567 g / cm^3
# Si number density = 20.241737 Si / 1000 Ang^3
#
#
#
# Elastic Constant Matrix: (Units=GPa)
#
#
# Indices 1 2 3 4 5 6 
#
# 1 75.3126 17.9838 28.9033 0.0000 0.0000 0.0000
# 2 17.9838 124.0492 54.4874 0.0000 0.0000 0.0000
# 3 28.9033 54.4874 112.2198 0.0000 0.0000 0.0000
# 4 0.0000 0.0000 0.0000 25.3667 0.0000 0.0000
# 5 0.0000 0.0000 0.0000 0.0000 27.8801 0.0000
# 6 0.0000 0.0000 0.0000 0.0000 0.0000 29.6900
#
#
#
# Elastic Compliance Matrix: (Units=1/GPa)
#
#
# Indices 1 2 3 4 5 6 
#
# 1 0.014769 -0.000598 -0.003514 0.000000 0.000000 0.000000
# 2 -0.000598 0.010271 -0.004833 0.000000 0.000000 0.000000
# 3 -0.003514 -0.004833 0.012163 0.000000 0.000000 0.000000
# 4 0.000000 0.000000 0.000000 0.039422 0.000000 0.000000
# 5 0.000000 0.000000 0.000000 0.000000 0.035868 0.000000
# 6 0.000000 0.000000 0.000000 0.000000 0.000000 0.033681
#
#
# Mechanical properties :
#
#
# Convention : Reuss Voigt Hill
#
# Bulk Modulus (GPa) = 51.77638 57.14787 54.46212
# Shear Modulus (GPa) = 29.32542 30.60115 29.96328
#
# Velocity S-wave (km/s) = 3.81039 3.89239 3.85160
# Velocity P-wave (km/s) = 6.70770 6.96383 6.83696
#
# Compressibility (1/GPa) = 0.01931383
#
# Stress axis : x y z
#
# Youngs Moduli (GPa) = 67.70837 97.36342 82.21879
#
# Poissons Ratio (x) = 0.05820 0.28889
# Poissons Ratio (y) = 0.04047 0.39736
# Poissons Ratio (z) = 0.23791 0.47055
#
# Static dielectric constant tensor:
#      x y z
#    x 3.515010 0.000000 0.000000 
#    y 0.000000 3.800930 0.000000 
#    z 0.000000 0.000000 3.733840 
# 
# 
# High freq. dielectric constant tensor:
#      x y z
#    x 1.781620 0.000000 0.000000 
#    y 0.000000 1.805670 0.000000 
#    z 0.000000 0.000000 1.782700 
# 
# From -- ./inp_files/24462.got.cif
#   From: 2010.03.12/outbox.cif.g09.slc.cpg/sg60_13_cif.got.tgz:24462.got - 2010.04.10 18:46:24.
