data_PCOD8248749
_publ_section_title
;
Structure prediction by ZEFSAII (Michael W. Deem and Ramdas Pophale) SiO2 
 PCOD8248749
Probable space group: P B C A
;
_chemical_formula_sum "Si O2"
_cell_formula_units_Z 64
_cell_length_a 9.254315
_cell_length_b 21.772519
_cell_length_c 15.851654
_cell_angle_alpha 90.000000
_cell_angle_beta 90.000000
_cell_angle_gamma 90.000000
_cell_volume 3193.945788
_symmetry_space_group_name_H-M "P B C A"
_symmetry_group_IT_number 61
_symmetry_cell_setting 'orthorhombic'
loop_
_space_group_symop_operation_xyz
x,y,z
1/2-x,-y,1/2+z
1/2+x,1/2-y,-z
-x,1/2+y,1/2-z
-x,-y,-z
1/2+x,y,1/2-z
1/2-x,1/2+y,z
x,1/2-y,1/2+z
loop_
_atom_site_type_symbol
_atom_site_label
_atom_site_fract_x
_atom_site_fract_y
_atom_site_fract_z
Si Si1 0.933121 0.448948 0.859586
Si Si2 0.509370 0.755249 0.871593
Si Si3 0.101028 0.412408 0.151799
Si Si4 0.383887 0.362740 0.210210
Si Si5 0.552814 0.817645 0.701324
Si Si6 0.705854 0.788678 0.140013
Si Si7 0.059702 0.852545 0.493745
Si Si8 0.694758 0.395527 0.747157
O O1 0.945430 0.520545 0.880594
O O2 0.917138 0.409965 0.945185
O O3 0.787639 0.441439 0.804734
O O4 0.078965 0.430468 0.810810
O O5 0.558256 0.683980 0.862414
O O6 0.573797 0.799261 0.799820
O O7 0.337838 0.757301 0.864855
O O8 0.541648 0.787067 0.960359
O O9 0.273880 0.411227 0.167780
O O10 0.012680 0.395414 0.237597
O O11 0.066865 0.366124 0.074501
O O12 0.281796 0.324125 0.272180
O O13 0.563632 0.756725 0.643099
O O14 0.396782 0.849977 0.690531
O O15 0.690496 0.862009 0.685252
O O16 0.700180 0.838328 0.064313
#
# Coordination Sequence:
#
# PCOD8248749 Si02
#       8
#     8   8   8   8   8   8   8   8
#     4  11  22  41  62  90 122 160 212 253 290 364
#     4  11  20  37  58  86 131 148 198 253 307 373
#     4  11  23  42  65  87 122 167 206 249 303 355
#     4  10  22  40  63  91 116 159 209 250 298 369
#     4  10  18  34  59  87 121 152 194 244 301 365
#     4  10  21  35  58  89 120 160 189 246 309 362
#     4  11  24  36  60  92 123 161 200 247 316 358
#     4  10  19  35  61  87 117 157 204 252 292 350
#
# _framework density 20.037911000000001
#
# number of rings (size 3 to 8) (size 9 to 14) (size 15 to 20)
#    0.000    1.500    5.000    1.125    1.750    1.000 
#    0.000    0.000    0.000    0.750    0.000    0.000 
#    0.000    0.000    0.000    0.000    0.000    0.000 
#
# Total GULP energy -792919.799095 kJ/mol
# GULP energy per Si atom -12389.371861 kJ/mol
# Density = 1.999230 g / cm^3
# Si number density = 20.037911 Si / 1000 Ang^3
#
#
#
# Elastic Constant Matrix: (Units=GPa)
#
#
# Indices 1 2 3 4 5 6 
#
# 1 89.5095 27.6267 23.8189 0.0000 0.0000 0.0000
# 2 27.6267 93.4345 36.7366 0.0000 0.0000 0.0000
# 3 23.8189 36.7366 83.9393 0.0000 0.0000 0.0000
# 4 0.0000 0.0000 0.0000 30.8739 0.0000 0.0000
# 5 0.0000 0.0000 0.0000 0.0000 10.7501 0.0000
# 6 0.0000 0.0000 0.0000 0.0000 0.0000 28.9297
#
#
#
# Elastic Compliance Matrix: (Units=1/GPa)
#
#
# Indices 1 2 3 4 5 6 
#
# 1 0.012670 -0.002818 -0.002362 0.000000 0.000000 0.000000
# 2 -0.002818 0.013554 -0.005132 0.000000 0.000000 0.000000
# 3 -0.002362 -0.005132 0.014830 0.000000 0.000000 0.000000
# 4 0.000000 0.000000 0.000000 0.032390 0.000000 0.000000
# 5 0.000000 0.000000 0.000000 0.000000 0.093023 0.000000
# 6 0.000000 0.000000 0.000000 0.000000 0.000000 0.034567
#
#
# Mechanical properties :
#
#
# Convention : Reuss Voigt Hill
#
# Bulk Modulus (GPa) = 48.94865 49.24973 49.09919
# Shear Modulus (GPa) = 21.88503 26.02416 23.95460
#
# Velocity S-wave (km/s) = 3.30840 3.60772 3.46130
# Velocity P-wave (km/s) = 6.25101 6.47965 6.36635
#
# Compressibility (1/GPa) = 0.02042957
#
# Stress axis : x y z
#
# Youngs Moduli (GPa) = 78.92526 73.78048 67.43137
#
# Poissons Ratio (x) = 0.20788 0.15929
# Poissons Ratio (y) = 0.22238 0.34608
# Poissons Ratio (z) = 0.18644 0.37867
#
# Static dielectric constant tensor:
#      x y z
#    x 3.542220 0.000000 0.000000 
#    y 0.000000 3.657630 0.000000 
#    z 0.000000 0.000000 3.446380 
# 
# 
# High freq. dielectric constant tensor:
#      x y z
#    x 1.779680 0.000000 0.000000 
#    y 0.000000 1.783490 0.000000 
#    z 0.000000 0.000000 1.758010 
# 
# From -- ./inp_files/7257.got.cif
#   From: 2010.03.12/outbox.cif.g09.slc.cpg/sg61_4_cif.got.tgz:7257.got - 2010.04.10 19:05:03.
