data_PCOD8248516
_publ_section_title
;
Structure prediction by ZEFSAII (Michael W. Deem and Ramdas Pophale) SiO2 
 PCOD8248516
Probable space group: P B C N
;
_chemical_formula_sum "Si O2"
_cell_formula_units_Z 48
_cell_length_a 6.871452
_cell_length_b 24.593383
_cell_length_c 13.743033
_cell_angle_alpha 90.000000
_cell_angle_beta 90.000000
_cell_angle_gamma 90.000000
_cell_volume 2322.466080
_symmetry_space_group_name_H-M "P B C N"
_symmetry_group_IT_number 60
_symmetry_cell_setting 'orthorhombic'
loop_
_space_group_symop_operation_xyz
x,y,z
1/2-x,1/2-y,1/2+z
1/2+x,1/2-y,-z
-x,y,1/2-z
-x,-y,-z
1/2+x,1/2+y,1/2-z
1/2-x,1/2+y,z
x,-y,1/2+z
loop_
_atom_site_type_symbol
_atom_site_label
_atom_site_fract_x
_atom_site_fract_y
_atom_site_fract_z
Si Si1 0.500000 0.390505 0.250000
Si Si2 0.820210 0.310292 0.821844
Si Si3 0.644283 0.061537 0.659825
Si Si4 0.679790 0.189708 0.821844
Si Si5 0.500000 0.609495 0.250000
Si Si6 1.000000 0.641994 0.000000
Si Si7 0.855717 0.438463 0.659825
O O1 0.629517 0.431065 0.185718
O O2 0.644725 0.352227 0.309541
O O3 0.750000 0.250000 0.798723
O O4 0.644725 0.352227 0.809541
O O5 0.872817 0.316875 0.935190
O O6 0.000000 0.324167 0.750000
O O7 0.500000 0.074917 0.750000
O O8 0.617219 0.103022 0.571790
O O9 0.608285 1.000000 0.624309
O O10 0.500000 0.175833 0.750000
O O11 0.627183 0.183125 0.935190
O O12 0.370483 0.568935 0.314282
O O13 0.882781 0.603022 0.071790
O O14 0.000000 0.425083 0.750000
#
# Coordination Sequence:
#
# PCOD8248516 Si02
#       7
#     4   8   8   8   4   8   8
#     4  12  21  46  70  94 136 186 213 272 340 402
#     4  12  26  45  71  98 138 176 225 278 340 399
#     4  11  24  44  69 101 140 180 223 275 336 397
#     4  12  26  45  71  98 138 176 225 278 340 399
#     4  12  21  46  70  94 136 186 213 272 340 402
#     4  12  23  46  66 104 134 174 225 290 320 394
#     4  11  24  44  69 101 140 180 223 275 336 397
#
# _framework density 20.667684000000001
#
# number of rings (size 3 to 8) (size 9 to 14) (size 15 to 20)
#    0.000    0.333    8.333    1.000    0.000    5.333 
#    0.000    1.667    0.000    0.000    0.000    0.000 
#    0.000    0.000    0.000    0.000    0.000    0.000 
#
# Total GULP energy -594954.027810 kJ/mol
# GULP energy per Si atom -12394.875579 kJ/mol
# Density = 2.062064 g / cm^3
# Si number density = 20.667684 Si / 1000 Ang^3
#
#
#
# Elastic Constant Matrix: (Units=GPa)
#
#
# Indices 1 2 3 4 5 6 
#
# 1 123.8719 19.9406 37.7458 0.0000 0.0000 0.0000
# 2 19.9406 90.4587 13.9677 0.0000 0.0000 0.0000
# 3 37.7458 13.9677 109.2700 0.0000 0.0000 0.0000
# 4 0.0000 0.0000 0.0000 -21.2450 0.0000 0.0000
# 5 0.0000 0.0000 0.0000 0.0000 36.0661 0.0000
# 6 0.0000 0.0000 0.0000 0.0000 0.0000 38.2597
#
#
#
# Elastic Compliance Matrix: (Units=1/GPa)
#
#
# Indices 1 2 3 4 5 6 
#
# 1 0.009237 -0.001575 -0.002990 0.000000 0.000000 0.000000
# 2 -0.001575 0.011546 -0.000932 0.000000 0.000000 0.000000
# 3 -0.002990 -0.000932 0.010303 0.000000 0.000000 0.000000
# 4 0.000000 0.000000 0.000000 -0.047070 0.000000 0.000000
# 5 0.000000 0.000000 0.000000 0.000000 0.027727 0.000000
# 6 0.000000 0.000000 0.000000 0.000000 0.000000 0.026137
#
#
# Mechanical properties :
#
#
# Convention : Reuss Voigt Hill
#
# Bulk Modulus (GPa) = 49.76556 51.87875 50.82215
# Shear Modulus (GPa) = 89.97471 27.41259 58.69365
#
# Velocity S-wave (km/s) = 6.60519 3.64586 5.33483
# Velocity P-wave (km/s) = 9.07208 6.54820 7.91143
#
# Compressibility (1/GPa) = 0.02009422
#
# Stress axis : x y z
#
# Youngs Moduli (GPa) = 108.25640 86.61173 97.05443
#
# Poissons Ratio (x) = 0.13638 0.29016
# Poissons Ratio (y) = 0.17046 0.09045
# Poissons Ratio (z) = 0.32365 0.08072
#
# Static dielectric constant tensor:
#      x y z
#    x 5.456780 0.000000 0.000000 
#    y 0.000000 3.919010 0.000000 
#    z 0.000000 0.000000 3.820030 
# 
# 
# High freq. dielectric constant tensor:
#      x y z
#    x 1.811940 0.000000 0.000000 
#    y 0.000000 1.836190 0.000000 
#    z 0.000000 0.000000 1.797540 
# 
# From -- ./inp_files/13972.got.cif
#   From: 2010.03.12/outbox.cif.g09.slc.cpg/sg60_7_cif.got.tgz:13972.got - 2010.04.10 18:46:24.
