data_PCOD8248890
_publ_section_title
;
Structure prediction by ZEFSAII (Michael W. Deem and Ramdas Pophale) SiO2 
 PCOD8248890
Probable space group: P B C A
;
_chemical_formula_sum "Si O2"
_cell_formula_units_Z 48
_cell_length_a 16.141984
_cell_length_b 9.419366
_cell_length_c 16.233615
_cell_angle_alpha 90.000000
_cell_angle_beta 90.000000
_cell_angle_gamma 90.000000
_cell_volume 2468.276604
_symmetry_space_group_name_H-M "P B C A"
_symmetry_group_IT_number 61
_symmetry_cell_setting 'orthorhombic'
loop_
_space_group_symop_operation_xyz
x,y,z
1/2-x,-y,1/2+z
1/2+x,1/2-y,-z
-x,1/2+y,1/2-z
-x,-y,-z
1/2+x,y,1/2-z
1/2-x,1/2+y,z
x,1/2-y,1/2+z
loop_
_atom_site_type_symbol
_atom_site_label
_atom_site_fract_x
_atom_site_fract_y
_atom_site_fract_z
Si Si1 0.071378 0.660455 0.064943
Si Si2 0.658006 0.214411 0.569083
Si Si3 0.517558 0.915357 0.161376
Si Si4 0.820506 0.046356 0.569355
Si Si5 0.501948 0.607863 0.847304
Si Si6 0.038996 0.325030 0.566694
O O1 0.019503 0.528951 0.098478
O O2 0.078076 0.778466 0.138299
O O3 0.155460 0.603107 0.023083
O O4 0.020751 0.743060 0.995497
O O5 0.733096 0.112639 0.594301
O O6 0.687244 0.376927 0.570987
O O7 0.585018 0.188321 0.635946
O O8 0.629290 0.173380 0.476002
O O9 0.614083 0.900148 0.137819
O O10 0.507717 0.957927 0.256537
O O11 0.466092 0.768328 0.150232
O O12 0.508900 0.483236 0.914284
#
# Coordination Sequence:
#
# PCOD8248890 Si02
#       6
#     8   8   8   8   8   8
#     4  10  19  41  61  84 115 162 207 244 294 362
#     4  11  23  40  58  92 120 160 203 255 298 361
#     4  11  20  41  64  88 120 168 199 256 308 365
#     4  11  23  39  63  85 124 158 206 250 307 354
#     4  11  23  36  66  93 122 155 212 252 308 366
#     4  10  20  37  63  87 116 158 209 250 286 369
#
# _framework density 19.446767000000001
#
# number of rings (size 3 to 8) (size 9 to 14) (size 15 to 20)
#    0.000    1.333    5.000    4.000    7.000    0.000 
#    0.000    3.333    0.000    0.000    0.000    0.000 
#    0.000    0.000    0.000    0.000    0.000    0.000 
#
# Total GULP energy -594851.520238 kJ/mol
# GULP energy per Si atom -12392.740005 kJ/mol
# Density = 1.940251 g / cm^3
# Si number density = 19.446767 Si / 1000 Ang^3
#
#
#
# Elastic Constant Matrix: (Units=GPa)
#
#
# Indices 1 2 3 4 5 6 
#
# 1 75.4333 39.9329 36.1993 0.0000 0.0000 0.0000
# 2 39.9329 125.2193 18.8168 0.0000 0.0000 0.0000
# 3 36.1993 18.8168 83.9021 0.0000 0.0000 0.0000
# 4 0.0000 0.0000 0.0000 29.1773 0.0000 0.0000
# 5 0.0000 0.0000 0.0000 0.0000 14.6019 0.0000
# 6 0.0000 0.0000 0.0000 0.0000 0.0000 34.1213
#
#
#
# Elastic Compliance Matrix: (Units=1/GPa)
#
#
# Indices 1 2 3 4 5 6 
#
# 1 0.019436 -0.005110 -0.007240 0.000000 0.000000 0.000000
# 2 -0.005110 0.009608 0.000050 0.000000 0.000000 0.000000
# 3 -0.007240 0.000050 0.015031 0.000000 0.000000 0.000000
# 4 0.000000 0.000000 0.000000 0.034273 0.000000 0.000000
# 5 0.000000 0.000000 0.000000 0.000000 0.068484 0.000000
# 6 0.000000 0.000000 0.000000 0.000000 0.000000 0.029307
#
#
# Mechanical properties :
#
#
# Convention : Reuss Voigt Hill
#
# Bulk Modulus (GPa) = 51.34669 52.71696 52.03183
# Shear Modulus (GPa) = 24.12755 28.22047 26.17401
#
# Velocity S-wave (km/s) = 3.52617 3.81355 3.67267
# Velocity P-wave (km/s) = 6.56046 6.82335 6.69319
#
# Compressibility (1/GPa) = 0.01947545
#
# Stress axis : x y z
#
# Youngs Moduli (GPa) = 51.45023 104.07784 66.52942
#
# Poissons Ratio (x) = 0.53188 0.48165
# Poissons Ratio (y) = 0.26293 -0.00333
# Poissons Ratio (z) = 0.37248 -0.00521
#
# Static dielectric constant tensor:
#      x y z
#    x 3.368490 0.000000 0.000000 
#    y 0.000000 3.934240 0.000000 
#    z 0.000000 0.000000 3.735940 
# 
# 
# High freq. dielectric constant tensor:
#      x y z
#    x 1.719910 0.000000 0.000000 
#    y 0.000000 1.786460 0.000000 
#    z 0.000000 0.000000 1.746200 
# 
# From -- ./inp_files/8123.got.cif
#   From: 2010.03.12/outbox.cif.g09.slc.cpg/sg61_5_cif.got.tgz:8123.got - 2010.04.10 19:05:03.
