data_PCOD8248353
_publ_section_title
;
Structure prediction by ZEFSAII (Michael W. Deem and Ramdas Pophale) SiO2 
 PCOD8248353
Probable space group: P B C N
;
_chemical_formula_sum "Si O2"
_cell_formula_units_Z 64
_cell_length_a 20.037712
_cell_length_b 19.921426
_cell_length_c 9.150117
_cell_angle_alpha 90.000000
_cell_angle_beta 90.000000
_cell_angle_gamma 90.000000
_cell_volume 3652.541845
_symmetry_space_group_name_H-M "P B C N"
_symmetry_group_IT_number 60
_symmetry_cell_setting 'orthorhombic'
loop_
_space_group_symop_operation_xyz
x,y,z
1/2-x,1/2-y,1/2+z
1/2+x,1/2-y,-z
-x,y,1/2-z
-x,-y,-z
1/2+x,1/2+y,1/2-z
1/2-x,1/2+y,z
x,-y,1/2+z
loop_
_atom_site_type_symbol
_atom_site_label
_atom_site_fract_x
_atom_site_fract_y
_atom_site_fract_z
Si Si1 0.340628 0.719795 0.502591
Si Si2 0.339089 0.920464 0.695245
Si Si3 0.641971 0.257443 0.818840
Si Si4 0.261769 0.658610 0.012035
Si Si5 0.464083 0.151456 0.605829
Si Si6 0.649516 0.950995 0.475691
Si Si7 0.942333 0.307844 0.858016
Si Si8 0.747284 0.861852 0.312084
O O1 0.365534 0.705526 0.337696
O O2 0.288655 0.780238 0.495173
O O3 0.403242 0.740465 0.601448
O O4 0.308515 0.654715 0.578954
O O5 0.269038 0.892803 0.630941
O O6 0.328006 0.952387 0.855160
O O7 0.392634 0.861187 0.715953
O O8 0.368216 0.974570 0.580281
O O9 0.572748 0.223264 0.869440
O O10 0.697029 0.199987 0.809532
O O11 0.666327 0.313979 0.933849
O O12 0.272020 0.623727 0.853614
O O13 0.500000 0.124134 0.750000
O O14 0.414495 0.095720 0.544566
O O15 0.526155 0.158914 0.499567
O O16 0.711112 0.927084 0.375598
O O17 0.000000 0.285100 0.750000
#
# Coordination Sequence:
#
# PCOD8248353 Si02
#       8
#     8   8   8   8   8   8   8   8
#     4   9  17  30  49  69  96 124 158 204 250 294
#     4  11  23  36  51  69  97 133 173 213 246 291
#     4   9  17  30  49  70  94 125 159 202 251 293
#     4   9  18  31  50  71  92 120 162 206 254 295
#     4  11  22  35  50  71 102 138 170 203 242 294
#     4  11  23  36  51  69  97 133 173 211 249 288
#     4  11  22  35  48  72 103 136 172 203 243 291
#     4   9  18  31  50  71  92 121 160 207 255 294
#
# _framework density 17.522044999999999
#
# number of rings (size 3 to 8) (size 9 to 14) (size 15 to 20)
#    0.000    2.000    2.500    1.500    5.250    4.000 
#    0.000    0.000    0.000    0.000    0.000    0.000 
#    0.000    2.000    0.000    0.125    0.000    0.125 
#
# Total GULP energy -793476.015052 kJ/mol
# GULP energy per Si atom -12398.062735 kJ/mol
# Density = 1.748216 g / cm^3
# Si number density = 17.522045 Si / 1000 Ang^3
#
#
#
# Elastic Constant Matrix: (Units=GPa)
#
#
# Indices 1 2 3 4 5 6 
#
# 1 34.4901 20.9764 2.9157 0.0000 0.0000 0.0000
# 2 20.9764 22.0689 6.3204 0.0000 0.0000 0.0000
# 3 2.9157 6.3204 95.7263 0.0000 0.0000 0.0000
# 4 0.0000 0.0000 0.0000 25.1436 0.0000 0.0000
# 5 0.0000 0.0000 0.0000 0.0000 25.0328 0.0000
# 6 0.0000 0.0000 0.0000 0.0000 0.0000 -12.7220
#
#
#
# Elastic Compliance Matrix: (Units=1/GPa)
#
#
# Indices 1 2 3 4 5 6 
#
# 1 0.069202 -0.066429 0.002278 0.000000 0.000000 0.000000
# 2 -0.066429 0.109952 -0.005236 0.000000 0.000000 0.000000
# 3 0.002278 -0.005236 0.010723 0.000000 0.000000 0.000000
# 4 0.000000 0.000000 0.000000 0.039771 0.000000 0.000000
# 5 0.000000 0.000000 0.000000 0.000000 0.039948 0.000000
# 6 0.000000 0.000000 0.000000 0.000000 0.000000 -0.078604
#
#
# Mechanical properties :
#
#
# Convention : Reuss Voigt Hill
#
# Bulk Modulus (GPa) = 19.56810 23.63446 21.60128
# Shear Modulus (GPa) = 14.41752 15.62908 15.02330
#
# Velocity S-wave (km/s) = 2.87160 2.98982 2.93131
# Velocity P-wave (km/s) = 4.71028 5.04345 4.87971
#
# Compressibility (1/GPa) = 0.05110359
#
# Stress axis : x y z
#
# Youngs Moduli (GPa) = 14.45043 9.09486 93.25925
#
# Poissons Ratio (x) = 0.60416 -0.21246
# Poissons Ratio (y) = 0.95992 0.48834
# Poissons Ratio (z) = -0.03292 0.04762
#
# Static dielectric constant tensor:
#      x y z
#    x 0.000000 0.000000 0.000000 
#    y 0.000000 0.000000 0.000000 
#    z 0.000000 0.000000 0.000000 
# 
# 
# High freq. dielectric constant tensor:
#      x y z
#    x 1.653280 0.000000 0.000000 
#    y 0.000000 1.630810 0.000000 
#    z 0.000000 0.000000 1.702150 
# 
# From -- ./inp_files/7632.got.cif
#   From: 2010.03.12/outbox.cif.g09.slc.cpg/sg60_4_cif.got.tgz:7632.got - 2010.04.10 18:46:24.
