data_PCOD8248197
_publ_section_title
;
Structure prediction by ZEFSAII (Michael W. Deem and Ramdas Pophale) SiO2 
 PCOD8248197
Probable space group: P B C N
;
_chemical_formula_sum "Si O2"
_cell_formula_units_Z 44
_cell_length_a 8.111617
_cell_length_b 28.088253
_cell_length_c 8.698009
_cell_angle_alpha 90.000000
_cell_angle_beta 90.000000
_cell_angle_gamma 90.000000
_cell_volume 1981.764378
_symmetry_space_group_name_H-M "P B C N"
_symmetry_group_IT_number 60
_symmetry_cell_setting 'orthorhombic'
loop_
_space_group_symop_operation_xyz
x,y,z
1/2-x,1/2-y,1/2+z
1/2+x,1/2-y,-z
-x,y,1/2-z
-x,-y,-z
1/2+x,1/2+y,1/2-z
1/2-x,1/2+y,z
x,-y,1/2+z
loop_
_atom_site_type_symbol
_atom_site_label
_atom_site_fract_x
_atom_site_fract_y
_atom_site_fract_z
Si Si1 0.165011 0.904027 0.807528
Si Si2 0.532520 0.790597 0.075376
Si Si3 0.277761 0.880386 0.477840
Si Si4 0.535482 0.051207 0.068298
Si Si5 0.500000 0.640424 0.750000
Si Si6 0.324653 0.689006 0.488738
O O1 0.262277 0.894948 0.653362
O O2 0.269763 0.933787 0.934713
O O3 0.114424 0.853122 0.878646
O O4 0.000000 0.931468 0.750000
O O5 0.500000 0.803266 0.250000
O O6 0.578482 0.736043 0.057351
O O7 0.682386 0.824258 0.022913
O O8 0.370704 0.802465 0.974790
O O9 0.439467 0.913261 0.448060
O O10 0.117638 0.890787 0.367381
O O11 0.500000 0.052208 0.250000
O O12 0.500000 0.000000 0.000000
O O13 0.373708 0.674594 0.661229
#
# Coordination Sequence:
#
# PCOD8248197 Si02
#       6
#     8   8   8   8   4   8
#     4  11  23  45  71  98 136 179 224 283 350 415
#     4  12  26  41  62  95 134 182 232 280 339 400
#     4  11  24  44  67  98 132 174 231 277 347 412
#     4  10  24  47  71 101 135 173 222 287 354 424
#     4  12  24  42  64  98 132 174 232 280 328 416
#     4  12  26  41  65  94 138 181 229 281 333 405
#
# _framework density 22.202437
#
# number of rings (size 3 to 8) (size 9 to 14) (size 15 to 20)
#    0.000    0.727    5.455    1.636    2.545    2.182 
#    1.636    1.818    0.000    0.000    0.000    0.000 
#    0.000    0.000    0.000    0.000    0.000    0.000 
#
# Total GULP energy -545105.377818 kJ/mol
# GULP energy per Si atom -12388.758587 kJ/mol
# Density = 2.215190 g / cm^3
# Si number density = 22.202437 Si / 1000 Ang^3
#
#
#
# Elastic Constant Matrix: (Units=GPa)
#
#
# Indices 1 2 3 4 5 6 
#
# 1 147.7628 57.9099 38.6097 0.0000 0.0000 0.0000
# 2 57.9099 117.3075 21.9366 0.0000 0.0000 0.0000
# 3 38.6097 21.9366 64.9649 0.0000 0.0000 0.0000
# 4 0.0000 0.0000 0.0000 31.7949 0.0000 0.0000
# 5 0.0000 0.0000 0.0000 0.0000 26.5421 0.0000
# 6 0.0000 0.0000 0.0000 0.0000 0.0000 50.2821
#
#
#
# Elastic Compliance Matrix: (Units=1/GPa)
#
#
# Indices 1 2 3 4 5 6 
#
# 1 0.009390 -0.003834 -0.004286 0.000000 0.000000 0.000000
# 2 -0.003834 0.010665 -0.001322 0.000000 0.000000 0.000000
# 3 -0.004286 -0.001322 0.018387 0.000000 0.000000 0.000000
# 4 0.000000 0.000000 0.000000 0.031452 0.000000 0.000000
# 5 0.000000 0.000000 0.000000 0.000000 0.037676 0.000000
# 6 0.000000 0.000000 0.000000 0.000000 0.000000 0.019888
#
#
# Mechanical properties :
#
#
# Convention : Reuss Voigt Hill
#
# Bulk Modulus (GPa) = 51.13427 62.99417 57.06422
# Shear Modulus (GPa) = 32.70950 35.82910 34.26930
#
# Velocity S-wave (km/s) = 3.84244 4.02150 3.93299
# Velocity P-wave (km/s) = 6.53963 7.07089 6.81044
#
# Compressibility (1/GPa) = 0.01955636
#
# Stress axis : x y z
#
# Youngs Moduli (GPa) = 106.49476 93.76810 54.38692
#
# Poissons Ratio (x) = 0.35951 0.23311
# Poissons Ratio (y) = 0.40830 0.07193
# Poissons Ratio (z) = 0.45644 0.12401
#
# Static dielectric constant tensor:
#      x y z
#    x 4.522010 0.000000 0.000000 
#    y 0.000000 3.731050 0.000000 
#    z 0.000000 0.000000 4.024920 
# 
# 
# High freq. dielectric constant tensor:
#      x y z
#    x 1.894720 0.000000 0.000000 
#    y 0.000000 1.845670 0.000000 
#    z 0.000000 0.000000 1.875850 
# 
# From -- ./inp_files/4125.got.cif
#   From: 2010.03.12/outbox.cif.g09.slc.cpg/sg60_3_cif.got.tgz:4125.got - 2010.04.10 18:46:24.
