data_PCOD8248745
_publ_section_title
;
Structure prediction by ZEFSAII (Michael W. Deem and Ramdas Pophale) SiO2 
 PCOD8248745
Probable space group: P B C A
;
_chemical_formula_sum "Si O2"
_cell_formula_units_Z 56
_cell_length_a 31.630800
_cell_length_b 5.502409
_cell_length_c 13.051433
_cell_angle_alpha 90.000000
_cell_angle_beta 90.000000
_cell_angle_gamma 90.000000
_cell_volume 2271.544469
_symmetry_space_group_name_H-M "P B C A"
_symmetry_group_IT_number 61
_symmetry_cell_setting 'orthorhombic'
loop_
_space_group_symop_operation_xyz
x,y,z
1/2-x,-y,1/2+z
1/2+x,1/2-y,-z
-x,1/2+y,1/2-z
-x,-y,-z
1/2+x,y,1/2-z
1/2-x,1/2+y,z
x,1/2-y,1/2+z
loop_
_atom_site_type_symbol
_atom_site_label
_atom_site_fract_x
_atom_site_fract_y
_atom_site_fract_z
Si Si1 0.475513 0.531163 0.771762
Si Si2 0.645110 0.127555 0.996648
Si Si3 0.076858 0.512727 0.461182
Si Si4 0.268787 0.378753 0.828192
Si Si5 0.236431 0.316986 0.057517
Si Si6 0.641563 0.805005 0.173605
Si Si7 0.093271 0.804737 0.641349
O O1 0.499284 0.776101 0.738358
O O2 0.462969 0.563944 0.891501
O O3 0.434111 0.509274 0.699872
O O4 0.687129 0.255064 0.953675
O O5 0.632767 0.910912 0.921004
O O6 0.603250 0.285397 0.000720
O O7 0.657548 0.042424 0.112404
O O8 0.106372 0.686570 0.396854
O O9 0.062384 0.652040 0.565503
O O10 0.252195 0.634016 0.778729
O O11 0.319132 0.375333 0.808994
O O12 0.259509 0.378170 0.949884
O O13 0.241675 0.583567 0.114706
O O14 0.617233 0.873822 0.278287
#
# Coordination Sequence:
#
# PCOD8248745 Si02
#       7
#     8   8   8   8   8   8   8
#     4  11  28  50  77 105 140 179 225 284 356 433
#     4  11  22  40  70  96 139 190 235 293 345 416
#     4  10  24  43  72 101 138 179 227 282 355 418
#     4  10  18  33  59  89 125 178 233 281 336 390
#     4  10  19  34  61  93 129 182 234 280 342 393
#     4  10  21  40  64  94 136 185 235 282 344 413
#     4  10  26  44  67 106 136 182 234 285 346 431
#
# _framework density 24.652833000000001
#
# number of rings (size 3 to 8) (size 9 to 14) (size 15 to 20)
#    0.000    1.714    2.857    1.714   10.000    2.286 
#    0.000    1.429    0.000    0.000    0.000    0.000 
#    0.000    0.000    0.000    0.000    0.000    0.000 
#
# Total GULP energy -694057.611577 kJ/mol
# GULP energy per Si atom -12393.885921 kJ/mol
# Density = 2.459672 g / cm^3
# Si number density = 24.652833 Si / 1000 Ang^3
#
#
#
# Elastic Constant Matrix: (Units=GPa)
#
#
# Indices 1 2 3 4 5 6 
#
# 1 54.8127 3.5809 14.2395 0.0000 0.0000 0.0000
# 2 3.5809 129.0937 21.5795 0.0000 0.0000 0.0000
# 3 14.2395 21.5795 74.3498 0.0000 0.0000 0.0000
# 4 0.0000 0.0000 0.0000 27.8780 0.0000 0.0000
# 5 0.0000 0.0000 0.0000 0.0000 12.7156 0.0000
# 6 0.0000 0.0000 0.0000 0.0000 0.0000 152.7276
#
#
#
# Elastic Compliance Matrix: (Units=1/GPa)
#
#
# Indices 1 2 3 4 5 6 
#
# 1 0.019200 0.000086 -0.003702 0.000000 0.000000 0.000000
# 2 0.000086 0.008142 -0.002380 0.000000 0.000000 0.000000
# 3 -0.003702 -0.002380 0.014850 0.000000 0.000000 0.000000
# 4 0.000000 0.000000 0.000000 0.035871 0.000000 0.000000
# 5 0.000000 0.000000 0.000000 0.000000 0.078644 0.000000
# 6 0.000000 0.000000 0.000000 0.000000 0.000000 0.006548
#
#
# Mechanical properties :
#
#
# Convention : Reuss Voigt Hill
#
# Bulk Modulus (GPa) = 33.11222 37.45066 35.28144
# Shear Modulus (GPa) = 26.98166 53.25467 40.11816
#
# Velocity S-wave (km/s) = 3.31186 4.65282 4.03839
# Velocity P-wave (km/s) = 5.29954 6.63997 6.00726
#
# Compressibility (1/GPa) = 0.03020033
#
# Stress axis : x y z
#
# Youngs Moduli (GPa) = 52.08309 122.82456 67.34164
#
# Poissons Ratio (x) = -0.01060 0.24932
# Poissons Ratio (y) = -0.00449 0.16025
# Poissons Ratio (z) = 0.19282 0.29227
#
# Static dielectric constant tensor:
#      x y z
#    x 4.255600 0.000000 0.000000 
#    y 0.000000 4.668020 0.000000 
#    z 0.000000 0.000000 4.854420 
# 
# 
# High freq. dielectric constant tensor:
#      x y z
#    x 1.972530 0.000000 0.000000 
#    y 0.000000 1.974410 0.000000 
#    z 0.000000 0.000000 1.991310 
# 
# From -- ./inp_files/606.got.cif
#   From: 2010.03.12/outbox.cif.g09.slc.cpg/sg61_1_cif.got.tgz:606.got - 2010.04.10 19:05:03.
