data_PCOD8248974
_publ_section_title
;
Structure prediction by ZEFSAII (Michael W. Deem and Ramdas Pophale) SiO2 
 PCOD8248974
Probable space group: P B C A
;
_chemical_formula_sum "Si O2"
_cell_formula_units_Z 64
_cell_length_a 11.065111
_cell_length_b 19.380033
_cell_length_c 14.647503
_cell_angle_alpha 90.000000
_cell_angle_beta 90.000000
_cell_angle_gamma 90.000000
_cell_volume 3141.043007
_symmetry_space_group_name_H-M "P B C A"
_symmetry_group_IT_number 61
_symmetry_cell_setting 'orthorhombic'
loop_
_space_group_symop_operation_xyz
x,y,z
1/2-x,-y,1/2+z
1/2+x,1/2-y,-z
-x,1/2+y,1/2-z
-x,-y,-z
1/2+x,y,1/2-z
1/2-x,1/2+y,z
x,1/2-y,1/2+z
loop_
_atom_site_type_symbol
_atom_site_label
_atom_site_fract_x
_atom_site_fract_y
_atom_site_fract_z
Si Si1 0.321722 0.842654 0.925598
Si Si2 0.069028 0.216425 0.603131
Si Si3 0.549595 0.886403 0.354610
Si Si4 0.171361 0.021264 0.329467
Si Si5 0.940251 0.147229 0.058131
Si Si6 0.052834 0.526258 0.307886
Si Si7 0.871730 0.775256 0.198095
Si Si8 0.343610 0.129258 0.829044
O O1 0.342874 0.924000 0.911580
O O2 0.183818 0.823055 0.902134
O O3 0.393162 0.798512 0.849764
O O4 0.352315 0.823702 0.029239
O O5 0.148285 0.233518 0.693121
O O6 0.033786 0.289750 0.558514
O O7 0.961304 0.165805 0.631156
O O8 0.593970 0.880254 0.457615
O O9 0.493969 0.814775 0.321742
O O10 0.655400 0.894313 0.278902
O O11 0.455886 0.949847 0.350557
O O12 0.303883 0.034712 0.279212
O O13 0.049486 0.032336 0.269996
O O14 0.172563 0.945514 0.377185
O O15 0.987021 0.083456 0.118226
O O16 0.765092 0.818921 0.151466
#
# Coordination Sequence:
#
# PCOD8248974 Si02
#       8
#     8   8   8   8   8   8   8   8
#     4  11  23  40  60  87 127 156 204 261 313 364
#     4  11  23  37  61  89 119 162 208 248 313 377
#     4  10  20  36  62  85 117 162 205 251 303 371
#     4  10  22  41  63  90 124 166 202 261 308 369
#     4  11  21  38  58  91 122 158 206 258 311 371
#     4  10  21  39  64  89 125 161 208 253 311 368
#     4  11  20  38  61  86 120 160 200 259 305 366
#     4  10  21  39  61  85 119 160 208 245 311 368
#
# _framework density 20.375398000000001
#
# number of rings (size 3 to 8) (size 9 to 14) (size 15 to 20)
#    0.000    1.500    3.750    1.875    0.000    0.500 
#    0.000    2.500    0.000    0.000    0.000    0.000 
#    0.000    0.000    0.000    0.000    0.000    0.000 
#
# Total GULP energy -792972.653474 kJ/mol
# GULP energy per Si atom -12390.197711 kJ/mol
# Density = 2.032902 g / cm^3
# Si number density = 20.375398 Si / 1000 Ang^3
#
#
#
# Elastic Constant Matrix: (Units=GPa)
#
#
# Indices 1 2 3 4 5 6 
#
# 1 54.4504 8.5235 -1.0015 0.0000 0.0000 0.0000
# 2 8.5235 108.7156 25.9504 0.0000 0.0000 0.0000
# 3 -1.0015 25.9504 72.1122 0.0000 0.0000 0.0000
# 4 0.0000 0.0000 0.0000 31.5665 0.0000 0.0000
# 5 0.0000 0.0000 0.0000 0.0000 23.4026 0.0000
# 6 0.0000 0.0000 0.0000 0.0000 0.0000 25.9390
#
#
#
# Elastic Compliance Matrix: (Units=1/GPa)
#
#
# Indices 1 2 3 4 5 6 
#
# 1 0.018642 -0.001667 0.000859 0.000000 0.000000 0.000000
# 2 -0.001667 0.010212 -0.003698 0.000000 0.000000 0.000000
# 3 0.000859 -0.003698 0.015210 0.000000 0.000000 0.000000
# 4 0.000000 0.000000 0.000000 0.031679 0.000000 0.000000
# 5 0.000000 0.000000 0.000000 0.000000 0.042730 0.000000
# 6 0.000000 0.000000 0.000000 0.000000 0.000000 0.038552
#
#
# Mechanical properties :
#
#
# Convention : Reuss Voigt Hill
#
# Bulk Modulus (GPa) = 28.52908 33.58034 31.05471
# Shear Modulus (GPa) = 28.13404 29.63535 28.88470
#
# Velocity S-wave (km/s) = 3.71992 3.81789 3.76922
# Velocity P-wave (km/s) = 5.69935 5.99597 5.84954
#
# Compressibility (1/GPa) = 0.03505196
#
# Stress axis : x y z
#
# Youngs Moduli (GPa) = 53.64228 97.92714 65.74647
#
# Poissons Ratio (x) = 0.16320 -0.05645
# Poissons Ratio (y) = 0.08940 0.24313
# Poissons Ratio (z) = -0.04606 0.36213
#
# Static dielectric constant tensor:
#      x y z
#    x 3.582670 0.000000 0.000000 
#    y 0.000000 3.895620 0.000000 
#    z 0.000000 0.000000 3.590660 
# 
# 
# High freq. dielectric constant tensor:
#      x y z
#    x 1.789070 0.000000 0.000000 
#    y 0.000000 1.816460 0.000000 
#    z 0.000000 0.000000 1.774550 
# 
# From -- ./inp_files/6290.got.cif
#   From: 2010.03.12/outbox.cif.g09.slc.cpg/sg61_4_cif.got.tgz:6290.got - 2010.04.10 19:05:03.
