data_PCOD8248446
_publ_section_title
;
Structure prediction by ZEFSAII (Michael W. Deem and Ramdas Pophale) SiO2 
 PCOD8248446
Probable space group: P B C N
;
_chemical_formula_sum "Si O2"
_cell_formula_units_Z 32
_cell_length_a 16.332055
_cell_length_b 9.470268
_cell_length_c 8.325263
_cell_angle_alpha 90.000000
_cell_angle_beta 90.000000
_cell_angle_gamma 90.000000
_cell_volume 1287.659585
_symmetry_space_group_name_H-M "P B C N"
_symmetry_group_IT_number 60
_symmetry_cell_setting 'orthorhombic'
loop_
_space_group_symop_operation_xyz
x,y,z
1/2-x,1/2-y,1/2+z
1/2+x,1/2-y,-z
-x,y,1/2-z
-x,-y,-z
1/2+x,1/2+y,1/2-z
1/2-x,1/2+y,z
x,-y,1/2+z
loop_
_atom_site_type_symbol
_atom_site_label
_atom_site_fract_x
_atom_site_fract_y
_atom_site_fract_z
Si Si1 0.822006 0.183758 0.710856
Si Si2 0.094395 0.036213 0.482752
Si Si3 0.916057 0.572867 0.327424
Si Si4 0.870301 0.687950 0.668887
O O1 0.844632 0.348983 0.724148
O O2 0.726059 0.171998 0.690949
O O3 0.859949 0.110073 0.554094
O O4 0.861291 0.107666 0.866380
O O5 0.103519 0.147585 0.333104
O O6 0.000000 0.000000 0.500000
O O7 0.907577 0.610618 0.512826
O O8 0.909221 0.402146 0.314485
O O9 0.000000 0.630038 0.250000
#
# Coordination Sequence:
#
# PCOD8248446 Si02
#       4
#     8   8   8   8
#     4  11  23  42  65  97 136 178 230 287 350 421
#     4  11  24  43  67 100 139 185 234 290 354 425
#     4  11  24  43  65  97 134 175 227 286 346 415
#     4  11  24  42  67  98 133 180 230 289 349 417
#
# _framework density 24.851288
#
# number of rings (size 3 to 8) (size 9 to 14) (size 15 to 20)
#    0.000    1.000    0.000    7.500    0.000    8.000 
#    0.000    0.000    0.000    0.000    0.000    0.000 
#    0.000    0.000    0.000    0.000    0.000    0.000 
#
# Total GULP energy -396681.045613 kJ/mol
# GULP energy per Si atom -12396.282675 kJ/mol
# Density = 2.479473 g / cm^3
# Si number density = 24.851288 Si / 1000 Ang^3
#
#
#
# Elastic Constant Matrix: (Units=GPa)
#
#
# Indices 1 2 3 4 5 6 
#
# 1 92.2670 6.2777 14.2810 0.0000 0.0000 0.0000
# 2 6.2777 89.6522 -5.5409 0.0000 0.0000 0.0000
# 3 14.2810 -5.5409 30.1819 0.0000 0.0000 0.0000
# 4 0.0000 0.0000 0.0000 45.3406 0.0000 0.0000
# 5 0.0000 0.0000 0.0000 0.0000 43.1329 0.0000
# 6 0.0000 0.0000 0.0000 0.0000 0.0000 34.4245
#
#
#
# Elastic Compliance Matrix: (Units=1/GPa)
#
#
# Indices 1 2 3 4 5 6 
#
# 1 0.011818 -0.001187 -0.005810 0.000000 0.000000 0.000000
# 2 -0.001187 0.011401 0.002655 0.000000 0.000000 0.000000
# 3 -0.005810 0.002655 0.036369 0.000000 0.000000 0.000000
# 4 0.000000 0.000000 0.000000 0.022055 0.000000 0.000000
# 5 0.000000 0.000000 0.000000 0.000000 0.023184 0.000000
# 6 0.000000 0.000000 0.000000 0.000000 0.000000 0.029049
#
#
# Mechanical properties :
#
#
# Convention : Reuss Voigt Hill
#
# Bulk Modulus (GPa) = 19.64457 26.90407 23.27432
# Shear Modulus (GPa) = 31.34238 37.71849 34.53044
#
# Velocity S-wave (km/s) = 3.55519 3.90008 3.73162
# Velocity P-wave (km/s) = 4.97740 5.57946 5.28701
#
# Compressibility (1/GPa) = 0.05090465
#
# Stress axis : x y z
#
# Youngs Moduli (GPa) = 84.61619 87.70877 27.49615
#
# Poissons Ratio (x) = 0.10408 0.15975
# Poissons Ratio (y) = 0.10041 -0.07299
# Poissons Ratio (z) = 0.49160 -0.23283
#
# Static dielectric constant tensor:
#      x y z
#    x 4.404140 0.000000 0.000000 
#    y 0.000000 5.196250 0.000000 
#    z 0.000000 0.000000 4.743520 
# 
# 
# High freq. dielectric constant tensor:
#      x y z
#    x 2.002320 0.000000 0.000000 
#    y 0.000000 2.007780 0.000000 
#    z 0.000000 0.000000 1.983010 
# 
# From -- ./inp_files/5448.got.cif
#   From: 2010.03.12/outbox.cif.g09.slc.cpg/sg60_3_cif.got.tgz:5448.got - 2010.04.10 18:46:24.
