data_PCOD8248544
_publ_section_title
;
Structure prediction by ZEFSAII (Michael W. Deem and Ramdas Pophale) SiO2 
 PCOD8248544
Probable space group: P B C N
;
_chemical_formula_sum "Si O2"
_cell_formula_units_Z 40
_cell_length_a 17.271025
_cell_length_b 11.987314
_cell_length_c 8.480487
_cell_angle_alpha 90.000000
_cell_angle_beta 90.000000
_cell_angle_gamma 90.000000
_cell_volume 1755.742359
_symmetry_space_group_name_H-M "P B C N"
_symmetry_group_IT_number 60
_symmetry_cell_setting 'orthorhombic'
loop_
_space_group_symop_operation_xyz
x,y,z
1/2-x,1/2-y,1/2+z
1/2+x,1/2-y,-z
-x,y,1/2-z
-x,-y,-z
1/2+x,1/2+y,1/2-z
1/2-x,1/2+y,z
x,-y,1/2+z
loop_
_atom_site_type_symbol
_atom_site_label
_atom_site_fract_x
_atom_site_fract_y
_atom_site_fract_z
Si Si1 0.114396 0.846700 0.079149
Si Si2 0.919179 0.450120 0.305017
Si Si3 0.651470 0.569814 0.575683
Si Si4 0.327067 0.880443 0.492655
Si Si5 0.964825 0.775191 0.920765
O O1 0.124280 0.896829 0.251400
O O2 0.175383 0.746117 0.055485
O O3 0.027692 0.799630 0.056844
O O4 0.130024 0.941095 0.949177
O O5 0.859541 0.540232 0.369584
O O6 0.938003 0.354174 0.434313
O O7 0.000000 0.507332 0.250000
O O8 0.883036 0.385547 0.156842
O O9 0.742590 0.581429 0.555305
O O10 0.609149 0.646344 0.446757
O O11 0.000000 0.801452 0.750000
#
# Coordination Sequence:
#
# PCOD8248544 Si02
#       5
#     8   8   8   8   8
#     4  12  27  49  74 111 148 206 248 307 377 447
#     4  11  25  48  75 110 151 195 252 307 371 452
#     4  12  29  45  78 109 156 191 261 306 382 445
#     4  12  28  47  79 109 153 196 248 317 379 438
#     4  11  24  49  78 104 154 196 250 308 368 449
#
# _framework density 22.782385999999999
#
# number of rings (size 3 to 8) (size 9 to 14) (size 15 to 20)
#    0.000    0.400    4.000    4.200    8.400    0.000 
#    0.000    0.000    0.000    0.000    0.000    0.000 
#    0.000    0.000    0.000    0.000    0.000    0.000 
#
# Total GULP energy -496263.181786 kJ/mol
# GULP energy per Si atom -12406.579545 kJ/mol
# Density = 2.273053 g / cm^3
# Si number density = 22.782386 Si / 1000 Ang^3
#
#
#
# Elastic Constant Matrix: (Units=GPa)
#
#
# Indices 1 2 3 4 5 6 
#
# 1 95.7297 4.8857 26.6544 0.0000 0.0000 0.0000
# 2 4.8857 132.0916 50.5522 0.0000 0.0000 0.0000
# 3 26.6544 50.5522 120.7769 0.0000 0.0000 0.0000
# 4 0.0000 0.0000 0.0000 27.7660 0.0000 0.0000
# 5 0.0000 0.0000 0.0000 0.0000 31.8021 0.0000
# 6 0.0000 0.0000 0.0000 0.0000 0.0000 15.5887
#
#
#
# Elastic Compliance Matrix: (Units=1/GPa)
#
#
# Indices 1 2 3 4 5 6 
#
# 1 0.011174 0.000632 -0.002730 0.000000 0.000000 0.000000
# 2 0.000632 0.009050 -0.003927 0.000000 0.000000 0.000000
# 3 -0.002730 -0.003927 0.010526 0.000000 0.000000 0.000000
# 4 0.000000 0.000000 0.000000 0.036015 0.000000 0.000000
# 5 0.000000 0.000000 0.000000 0.000000 0.031445 0.000000
# 6 0.000000 0.000000 0.000000 0.000000 0.000000 0.064149
#
#
# Mechanical properties :
#
#
# Convention : Reuss Voigt Hill
#
# Bulk Modulus (GPa) = 53.48152 56.97588 55.22870
# Shear Modulus (GPa) = 27.67873 32.79842 30.23857
#
# Velocity S-wave (km/s) = 3.48935 3.79837 3.64714
# Velocity P-wave (km/s) = 6.30555 6.65582 6.48305
#
# Compressibility (1/GPa) = 0.01869805
#
# Stress axis : x y z
#
# Youngs Moduli (GPa) = 89.49287 110.49485 95.00140
#
# Poissons Ratio (x) = -0.06979 0.25939
# Poissons Ratio (y) = -0.05653 0.37311
# Poissons Ratio (z) = 0.24435 0.43396
#
# Static dielectric constant tensor:
#      x y z
#    x 4.200180 0.000000 0.000000 
#    y 0.000000 4.267420 0.000000 
#    z 0.000000 0.000000 4.025730 
# 
# 
# High freq. dielectric constant tensor:
#      x y z
#    x 1.908420 0.000000 0.000000 
#    y 0.000000 1.910500 0.000000 
#    z 0.000000 0.000000 1.901300 
# 
# From -- ./inp_files/6519.got.cif
#   From: 2010.03.12/outbox.cif.g09.slc.cpg/sg60_4_cif.got.tgz:6519.got - 2010.04.10 18:46:24.
