data_PCOD8248968
_publ_section_title
;
Structure prediction by ZEFSAII (Michael W. Deem and Ramdas Pophale) SiO2 
 PCOD8248968
Probable space group: P B C A
;
_chemical_formula_sum "Si O2"
_cell_formula_units_Z 56
_cell_length_a 4.941221
_cell_length_b 27.221807
_cell_length_c 16.036078
_cell_angle_alpha 90.000000
_cell_angle_beta 90.000000
_cell_angle_gamma 90.000000
_cell_volume 2156.996245
_symmetry_space_group_name_H-M "P B C A"
_symmetry_group_IT_number 61
_symmetry_cell_setting 'orthorhombic'
loop_
_space_group_symop_operation_xyz
x,y,z
1/2-x,-y,1/2+z
1/2+x,1/2-y,-z
-x,1/2+y,1/2-z
-x,-y,-z
1/2+x,y,1/2-z
1/2-x,1/2+y,z
x,1/2-y,1/2+z
loop_
_atom_site_type_symbol
_atom_site_label
_atom_site_fract_x
_atom_site_fract_y
_atom_site_fract_z
Si Si1 0.289858 0.098713 0.499325
Si Si2 0.078528 0.365015 0.196806
Si Si3 0.208599 0.557869 0.068984
Si Si4 0.558502 0.745876 0.804509
Si Si5 0.450455 0.519919 0.698019
Si Si6 0.566288 0.658437 0.400436
Si Si7 0.339561 0.671055 0.928782
O O1 0.999910 0.070421 0.509017
O O2 0.234555 0.144620 0.435301
O O3 0.437916 0.125237 0.578907
O O4 0.487625 0.055706 0.465667
O O5 0.885004 0.348688 0.276457
O O6 0.079019 0.422786 0.180140
O O7 0.949447 0.341374 0.114459
O O8 0.129783 0.507821 0.113746
O O9 0.192701 0.605880 0.130534
O O10 0.860290 0.732472 0.773016
O O11 0.543876 0.803783 0.824502
O O12 0.480729 0.718949 0.890441
O O13 0.249768 0.504919 0.773533
O O14 0.760012 0.679561 0.474948
#
# Coordination Sequence:
#
# PCOD8248968 Si02
#       7
#     8   8   8   8   8   8   8
#     4   9  21  38  61  90 120 160 215 249 315 374
#     4  10  23  40  63  95 132 165 221 274 320 377
#     4   9  19  37  59  88 123 157 211 255 306 375
#     4  12  30  43  66 100 133 164 218 275 331 387
#     4  10  20  36  60  91 126 175 211 256 326 390
#     4   9  25  42  66  91 130 167 220 256 328 387
#     4  11  24  44  72  89 130 175 218 261 334 385
#
# _framework density 25.962029000000001
#
# number of rings (size 3 to 8) (size 9 to 14) (size 15 to 20)
#    0.857    1.143    0.000    1.714   10.000    1.143 
#    0.000    3.571    0.000    0.000    0.000    0.000 
#    0.000    0.000    0.000    0.000    0.000    0.000 
#
# Total GULP energy -693825.009425 kJ/mol
# GULP energy per Si atom -12389.732311 kJ/mol
# Density = 2.590294 g / cm^3
# Si number density = 25.962029 Si / 1000 Ang^3
#
#
#
# Elastic Constant Matrix: (Units=GPa)
#
#
# Indices 1 2 3 4 5 6 
#
# 1 135.8368 12.4321 9.5550 0.0000 0.0000 0.0000
# 2 12.4321 47.8888 1.7263 0.0000 0.0000 0.0000
# 3 9.5550 1.7263 45.5540 0.0000 0.0000 0.0000
# 4 0.0000 0.0000 0.0000 32.5262 0.0000 0.0000
# 5 0.0000 0.0000 0.0000 0.0000 26.7737 0.0000
# 6 0.0000 0.0000 0.0000 0.0000 0.0000 32.0219
#
#
#
# Elastic Compliance Matrix: (Units=1/GPa)
#
#
# Indices 1 2 3 4 5 6 
#
# 1 0.007646 -0.001930 -0.001531 0.000000 0.000000 0.000000
# 2 -0.001930 0.021397 -0.000406 0.000000 0.000000 0.000000
# 3 -0.001531 -0.000406 0.022288 0.000000 0.000000 0.000000
# 4 0.000000 0.000000 0.000000 0.030744 0.000000 0.000000
# 5 0.000000 0.000000 0.000000 0.000000 0.037350 0.000000
# 6 0.000000 0.000000 0.000000 0.000000 0.000000 0.031229
#
#
# Mechanical properties :
#
#
# Convention : Reuss Voigt Hill
#
# Bulk Modulus (GPa) = 22.93640 30.74516 26.84078
# Shear Modulus (GPa) = 28.91495 31.96877 30.44186
#
# Velocity S-wave (km/s) = 3.34090 3.51289 3.42797
# Velocity P-wave (km/s) = 4.87195 5.32183 5.10185
#
# Compressibility (1/GPa) = 0.04359881
#
# Stress axis : x y z
#
# Youngs Moduli (GPa) = 130.78633 46.73479 44.86637
#
# Poissons Ratio (x) = 0.09019 0.06867
# Poissons Ratio (y) = 0.25239 0.01822
# Poissons Ratio (z) = 0.20019 0.01898
#
# Static dielectric constant tensor:
#      x y z
#    x 5.113430 0.000000 0.000000 
#    y 0.000000 4.640550 0.000000 
#    z 0.000000 0.000000 4.189850 
# 
# 
# High freq. dielectric constant tensor:
#      x y z
#    x 2.063060 0.000000 0.000000 
#    y 0.000000 2.040300 0.000000 
#    z 0.000000 0.000000 2.006870 
# 
# From -- ./inp_files/6869.got.cif
#   From: 2010.03.12/outbox.cif.g09.slc.cpg/sg61_4_cif.got.tgz:6869.got - 2010.04.10 19:05:03.
