data_PCOD8248839
_publ_section_title
;
Structure prediction by ZEFSAII (Michael W. Deem and Ramdas Pophale) SiO2 
 PCOD8248839
Probable space group: P B C A
;
_chemical_formula_sum "Si O2"
_cell_formula_units_Z 40
_cell_length_a 16.744093
_cell_length_b 5.136610
_cell_length_c 23.347012
_cell_angle_alpha 90.000000
_cell_angle_beta 90.000000
_cell_angle_gamma 90.000000
_cell_volume 2008.026902
_symmetry_space_group_name_H-M "P B C A"
_symmetry_group_IT_number 61
_symmetry_cell_setting 'orthorhombic'
loop_
_space_group_symop_operation_xyz
x,y,z
1/2-x,-y,1/2+z
1/2+x,1/2-y,-z
-x,1/2+y,1/2-z
-x,-y,-z
1/2+x,y,1/2-z
1/2-x,1/2+y,z
x,1/2-y,1/2+z
loop_
_atom_site_type_symbol
_atom_site_label
_atom_site_fract_x
_atom_site_fract_y
_atom_site_fract_z
Si Si1 0.589973 0.211987 0.958497
Si Si2 0.301184 0.135166 0.840567
Si Si3 0.300468 0.110108 0.709347
Si Si4 0.937558 0.961840 0.576896
Si Si5 0.092724 0.721149 0.606278
O O1 0.493015 0.188096 0.951592
O O2 0.631973 0.983097 0.920739
O O3 0.619340 0.488448 0.935748
O O4 0.611427 0.180807 0.025762
O O5 0.235326 0.916582 0.854460
O O6 0.329396 0.125579 0.774781
O O7 0.378902 0.094893 0.878545
O O8 0.267558 0.822939 0.696226
O O9 0.377091 0.165511 0.670104
O O10 0.996159 0.755085 0.609110
#
# Coordination Sequence:
#
# PCOD8248839 Si02
#       5
#     8   8   8   8   8
#     4   9  20  34  61  80 115 139 183 232 291 310
#     4  10  23  39  57  80 114 154 185 230 286 331
#     4  10  21  40  56  78 117 150 183 234 285 330
#     4   9  21  37  60  81 116 146 188 233 275 343
#     4  10  19  36  58  84 105 151 183 230 278 335
#
# _framework density 19.920052999999999
#
# number of rings (size 3 to 8) (size 9 to 14) (size 15 to 20)
#    1.200    1.200    0.000    1.800    2.800    0.000 
#    3.600    6.000    0.000    0.000    0.000    0.000 
#    0.000    0.000    0.000    0.000    0.000    0.000 
#
# Total GULP energy -495794.918784 kJ/mol
# GULP energy per Si atom -12394.872970 kJ/mol
# Density = 1.987471 g / cm^3
# Si number density = 19.920053 Si / 1000 Ang^3
#
#
#
# Elastic Constant Matrix: (Units=GPa)
#
#
# Indices 1 2 3 4 5 6 
#
# 1 42.0420 12.8017 54.3270 0.0000 0.0000 0.0000
# 2 12.8017 90.9435 21.5592 0.0000 0.0000 0.0000
# 3 54.3270 21.5592 118.7966 0.0000 0.0000 0.0000
# 4 0.0000 0.0000 0.0000 26.7207 0.0000 0.0000
# 5 0.0000 0.0000 0.0000 0.0000 23.6896 0.0000
# 6 0.0000 0.0000 0.0000 0.0000 0.0000 24.1252
#
#
#
# Elastic Compliance Matrix: (Units=1/GPa)
#
#
# Indices 1 2 3 4 5 6 
#
# 1 0.058486 -0.001977 -0.026387 0.000000 0.000000 0.000000
# 2 -0.001977 0.011557 -0.001193 0.000000 0.000000 0.000000
# 3 -0.026387 -0.001193 0.020701 0.000000 0.000000 0.000000
# 4 0.000000 0.000000 0.000000 0.037424 0.000000 0.000000
# 5 0.000000 0.000000 0.000000 0.000000 0.042213 0.000000
# 6 0.000000 0.000000 0.000000 0.000000 0.000000 0.041451
#
#
# Mechanical properties :
#
#
# Convention : Reuss Voigt Hill
#
# Bulk Modulus (GPa) = 31.61688 47.68420 39.65054
# Shear Modulus (GPa) = 17.76262 25.78004 21.77133
#
# Velocity S-wave (km/s) = 2.98937 3.60137 3.30954
# Velocity P-wave (km/s) = 5.27460 6.42518 5.87811
#
# Compressibility (1/GPa) = 0.03162868
#
# Stress axis : x y z
#
# Youngs Moduli (GPa) = 17.09818 86.52748 48.30573
#
# Poissons Ratio (x) = 0.17110 1.27466
# Poissons Ratio (y) = 0.03381 0.05763
# Poissons Ratio (z) = 0.45118 0.10323
#
# Static dielectric constant tensor:
#      x y z
#    x 3.106520 0.000000 0.000000 
#    y 0.000000 3.679020 0.000000 
#    z 0.000000 0.000000 3.614700 
# 
# 
# High freq. dielectric constant tensor:
#      x y z
#    x 1.731060 0.000000 0.000000 
#    y 0.000000 1.787730 0.000000 
#    z 0.000000 0.000000 1.781130 
# 
# From -- ./inp_files/10508.got.cif
#   From: 2010.03.12/outbox.cif.g09.slc.cpg/sg61_6_cif.got.tgz:10508.got - 2010.04.10 19:05:03.
