data_PCOD8248308
_publ_section_title
;
Structure prediction by ZEFSAII (Michael W. Deem and Ramdas Pophale) SiO2 
 PCOD8248308
Probable space group: P B C N
;
_chemical_formula_sum "Si O2"
_cell_formula_units_Z 60
_cell_length_a 12.022313
_cell_length_b 21.843979
_cell_length_c 12.240569
_cell_angle_alpha 90.000000
_cell_angle_beta 90.000000
_cell_angle_gamma 90.000000
_cell_volume 3214.558897
_symmetry_space_group_name_H-M "P B C N"
_symmetry_group_IT_number 60
_symmetry_cell_setting 'orthorhombic'
loop_
_space_group_symop_operation_xyz
x,y,z
1/2-x,1/2-y,1/2+z
1/2+x,1/2-y,-z
-x,y,1/2-z
-x,-y,-z
1/2+x,1/2+y,1/2-z
1/2-x,1/2+y,z
x,-y,1/2+z
loop_
_atom_site_type_symbol
_atom_site_label
_atom_site_fract_x
_atom_site_fract_y
_atom_site_fract_z
Si Si1 0.019684 0.311483 0.126737
Si Si2 0.201062 0.349004 0.782875
Si Si3 0.744822 0.203270 0.982640
Si Si4 0.012719 0.797967 0.033861
Si Si5 0.198814 0.157663 0.062709
Si Si6 0.500000 0.231000 0.250000
Si Si7 0.934078 0.460964 0.647160
Si Si8 0.895761 0.418134 0.024589
O O1 0.000000 0.289206 0.250000
O O2 0.948746 0.372874 0.112975
O O3 0.149109 0.324909 0.095553
O O4 0.974409 0.258405 0.049178
O O5 0.231352 0.312617 0.890988
O O6 0.301938 0.349844 0.695042
O O7 0.102462 0.313143 0.719675
O O8 0.166009 0.417821 0.813400
O O9 0.863817 0.174880 0.946067
O O10 0.745255 0.276292 0.971657
O O11 0.965587 0.773246 0.148223
O O12 0.927479 0.848224 0.983871
O O13 0.274322 0.104422 0.011494
O O14 0.880329 0.515081 0.576793
O O15 0.000000 0.489147 0.750000
O O16 0.021176 0.420456 0.578153
#
# Coordination Sequence:
#
# PCOD8248308 Si02
#       8
#     8   8   8   8   8   4   8   8
#     4  11  22  36  55  89 132 156 199 262 310 363
#     4  12  20  37  61  84 127 166 203 248 310 385
#     4  11  23  36  57  93 124 171 197 244 318 384
#     4  11  24  35  57  91 122 176 198 240 312 388
#     4  11  22  36  58  87 127 163 203 258 297 378
#     4  12  18  36  58  82 124 158 206 242 308 382
#     4  11  21  36  62  90 115 158 208 262 322 364
#     4  11  21  38  58  89 122 151 209 262 315 361
#
# _framework density 18.66508
#
# number of rings (size 3 to 8) (size 9 to 14) (size 15 to 20)
#    0.000    0.800    8.667    0.400    3.733    1.067 
#    0.000    0.000    0.000    0.800    0.000    1.867 
#    0.000    0.000    0.000    0.000    0.000    0.000 
#
# Total GULP energy -743972.032440 kJ/mol
# GULP energy per Si atom -12399.533874 kJ/mol
# Density = 1.862260 g / cm^3
# Si number density = 18.665080 Si / 1000 Ang^3
#
#
#
# Elastic Constant Matrix: (Units=GPa)
#
#
# Indices 1 2 3 4 5 6 
#
# 1 103.1523 21.3893 26.4110 0.0000 0.0000 0.0000
# 2 21.3893 66.4057 31.7875 0.0000 0.0000 0.0000
# 3 26.4110 31.7875 126.2652 0.0000 0.0000 0.0000
# 4 0.0000 0.0000 0.0000 24.2671 0.0000 0.0000
# 5 0.0000 0.0000 0.0000 0.0000 29.4876 0.0000
# 6 0.0000 0.0000 0.0000 0.0000 0.0000 25.4556
#
#
#
# Elastic Compliance Matrix: (Units=1/GPa)
#
#
# Indices 1 2 3 4 5 6 
#
# 1 0.010649 -0.002688 -0.001551 0.000000 0.000000 0.000000
# 2 -0.002688 0.017801 -0.003919 0.000000 0.000000 0.000000
# 3 -0.001551 -0.003919 0.009231 0.000000 0.000000 0.000000
# 4 0.000000 0.000000 0.000000 0.041208 0.000000 0.000000
# 5 0.000000 0.000000 0.000000 0.000000 0.033913 0.000000
# 6 0.000000 0.000000 0.000000 0.000000 0.000000 0.039284
#
#
# Mechanical properties :
#
#
# Convention : Reuss Voigt Hill
#
# Bulk Modulus (GPa) = 46.80522 50.55540 48.68031
# Shear Modulus (GPa) = 28.48647 30.25776 29.37212
#
# Velocity S-wave (km/s) = 3.91089 4.03064 3.97122
# Velocity P-wave (km/s) = 6.74716 6.98611 6.86768
#
# Compressibility (1/GPa) = 0.02136514
#
# Stress axis : x y z
#
# Youngs Moduli (GPa) = 93.90768 56.17760 108.33206
#
# Poissons Ratio (x) = 0.15098 0.16800
# Poissons Ratio (y) = 0.25239 0.42457
# Poissons Ratio (z) = 0.14563 0.22017
#
# Static dielectric constant tensor:
#      x y z
#    x 3.598100 0.000000 0.000000 
#    y 0.000000 3.078800 0.000000 
#    z 0.000000 0.000000 3.613450 
# 
# 
# High freq. dielectric constant tensor:
#      x y z
#    x 1.713690 0.000000 0.000000 
#    y 0.000000 1.687420 0.000000 
#    z 0.000000 0.000000 1.741330 
# 
# From -- ./inp_files/11241.got.cif
#   From: 2010.03.12/outbox.cif.g09.slc.cpg/sg60_6_cif.got.tgz:11241.got - 2010.04.10 18:46:24.
