data_PCOD8248447
_publ_section_title
;
Structure prediction by ZEFSAII (Michael W. Deem and Ramdas Pophale) SiO2 
 PCOD8248447
Probable space group: P B C N
;
_chemical_formula_sum "Si O2"
_cell_formula_units_Z 56
_cell_length_a 19.495150
_cell_length_b 14.394475
_cell_length_c 9.177660
_cell_angle_alpha 90.000000
_cell_angle_beta 90.000000
_cell_angle_gamma 90.000000
_cell_volume 2575.457428
_symmetry_space_group_name_H-M "P B C N"
_symmetry_group_IT_number 60
_symmetry_cell_setting 'orthorhombic'
loop_
_space_group_symop_operation_xyz
x,y,z
1/2-x,1/2-y,1/2+z
1/2+x,1/2-y,-z
-x,y,1/2-z
-x,-y,-z
1/2+x,1/2+y,1/2-z
1/2-x,1/2+y,z
x,-y,1/2+z
loop_
_atom_site_type_symbol
_atom_site_label
_atom_site_fract_x
_atom_site_fract_y
_atom_site_fract_z
Si Si1 0.919428 0.590930 0.096867
Si Si2 0.697206 0.402303 0.678090
Si Si3 0.172072 0.087334 0.988174
Si Si4 0.016343 0.089868 0.910256
Si Si5 0.389791 0.284607 0.040562
Si Si6 0.574995 0.084995 0.438709
Si Si7 0.319727 0.761552 0.837041
O O1 0.915729 0.572586 0.267901
O O2 0.879833 0.687364 0.069543
O O3 0.994656 0.596772 0.027457
O O4 0.886947 0.500953 0.017547
O O5 0.706290 0.498097 0.588820
O O6 0.642677 0.341449 0.590958
O O7 0.766644 0.344187 0.696984
O O8 0.670505 0.427780 0.838830
O O9 0.095932 0.113107 0.931894
O O10 0.213385 0.180996 0.939654
O O11 0.000000 0.056175 0.750000
O O12 0.967718 0.178503 0.942226
O O13 0.000000 0.000000 0.000000
O O14 0.389916 0.176798 0.997194
O O15 0.347098 0.290471 0.191508
#
# Coordination Sequence:
#
# PCOD8248447 Si02
#       7
#     8   8   8   8   8   8   8
#     4   9  19  36  60  91 120 169 213 276 331 390
#     4  12  27  43  65  96 140 179 227 279 338 421
#     4  12  25  45  67 101 135 178 230 285 343 407
#     4  12  23  41  73 100 136 172 224 293 355 410
#     4  11  23  42  66  99 131 179 224 284 349 410
#     4   9  19  36  62  88 125 157 219 274 335 395
#     4  11  24  44  67  93 134 183 231 272 338 414
#
# _framework density 21.743711000000001
#
# number of rings (size 3 to 8) (size 9 to 14) (size 15 to 20)
#    0.000    1.143    2.857    3.429    2.000    4.571 
#    0.000    2.857    0.000    0.000    0.000    0.000 
#    0.000    0.000    0.000    0.000    0.000    0.000 
#
# Total GULP energy -694110.271108 kJ/mol
# GULP energy per Si atom -12394.826270 kJ/mol
# Density = 2.169422 g / cm^3
# Si number density = 21.743711 Si / 1000 Ang^3
#
#
#
# Elastic Constant Matrix: (Units=GPa)
#
#
# Indices 1 2 3 4 5 6 
#
# 1 64.5212 14.2745 23.8764 0.0000 0.0000 0.0000
# 2 14.2745 157.8507 74.6484 0.0000 0.0000 0.0000
# 3 23.8764 74.6484 113.5384 0.0000 0.0000 0.0000
# 4 0.0000 0.0000 0.0000 45.5366 0.0000 0.0000
# 5 0.0000 0.0000 0.0000 0.0000 25.4077 0.0000
# 6 0.0000 0.0000 0.0000 0.0000 0.0000 36.8125
#
#
#
# Elastic Compliance Matrix: (Units=1/GPa)
#
#
# Indices 1 2 3 4 5 6 
#
# 1 0.016812 0.000220 -0.003680 0.000000 0.000000 0.000000
# 2 0.000220 0.009196 -0.006093 0.000000 0.000000 0.000000
# 3 -0.003680 -0.006093 0.013587 0.000000 0.000000 0.000000
# 4 0.000000 0.000000 0.000000 0.021960 0.000000 0.000000
# 5 0.000000 0.000000 0.000000 0.000000 0.039358 0.000000
# 6 0.000000 0.000000 0.000000 0.000000 0.000000 0.027165
#
#
# Mechanical properties :
#
#
# Convention : Reuss Voigt Hill
#
# Bulk Modulus (GPa) = 48.80394 62.38986 55.59690
# Shear Modulus (GPa) = 32.46450 36.42545 34.44498
#
# Velocity S-wave (km/s) = 3.86820 4.09738 3.98444
# Velocity P-wave (km/s) = 6.51494 7.15124 6.84049
#
# Compressibility (1/GPa) = 0.02049015
#
# Stress axis : x y z
#
# Youngs Moduli (GPa) = 59.48153 108.73738 73.59830
#
# Poissons Ratio (x) = -0.02393 0.27085
# Poissons Ratio (y) = -0.01309 0.44841
# Poissons Ratio (z) = 0.21890 0.66250
#
# Static dielectric constant tensor:
#      x y z
#    x 4.238380 0.000000 0.000000 
#    y 0.000000 4.530970 0.000000 
#    z 0.000000 0.000000 3.885870 
# 
# 
# High freq. dielectric constant tensor:
#      x y z
#    x 1.844190 0.000000 0.000000 
#    y 0.000000 1.878470 0.000000 
#    z 0.000000 0.000000 1.847460 
# 
# From -- ./inp_files/7428.got.cif
#   From: 2010.03.12/outbox.cif.g09.slc.cpg/sg60_4_cif.got.tgz:7428.got - 2010.04.10 18:46:24.
