data_PCOD8248216
_publ_section_title
;
Structure prediction by ZEFSAII (Michael W. Deem and Ramdas Pophale) SiO2 
 PCOD8248216
Probable space group: P B C N
;
_chemical_formula_sum "Si O2"
_cell_formula_units_Z 56
_cell_length_a 12.959374
_cell_length_b 8.788693
_cell_length_c 20.599978
_cell_angle_alpha 90.000000
_cell_angle_beta 90.000000
_cell_angle_gamma 90.000000
_cell_volume 2346.254261
_symmetry_space_group_name_H-M "P B C N"
_symmetry_group_IT_number 60
_symmetry_cell_setting 'orthorhombic'
loop_
_space_group_symop_operation_xyz
x,y,z
1/2-x,1/2-y,1/2+z
1/2+x,1/2-y,-z
-x,y,1/2-z
-x,-y,-z
1/2+x,1/2+y,1/2-z
1/2-x,1/2+y,z
x,-y,1/2+z
loop_
_atom_site_type_symbol
_atom_site_label
_atom_site_fract_x
_atom_site_fract_y
_atom_site_fract_z
Si Si1 0.639616 0.435077 0.975298
Si Si2 0.390623 0.929078 0.370762
Si Si3 0.110631 0.519029 0.638266
Si Si4 0.448194 0.587337 0.399528
Si Si5 0.815444 0.969687 0.209228
Si Si6 0.748461 0.225504 0.298935
Si Si7 0.656565 0.909262 0.494861
O O1 0.572966 0.418209 0.908168
O O2 0.588053 0.538457 0.029773
O O3 0.742437 0.525103 0.957698
O O4 0.663628 0.270714 0.006118
O O5 0.493868 0.989047 0.333407
O O6 0.400487 0.750486 0.384436
O O7 0.297262 0.962994 0.322875
O O8 0.365003 0.014685 0.437231
O O9 0.174694 0.365580 0.651358
O O10 0.173178 0.665193 0.663262
O O11 0.076538 0.545499 0.562053
O O12 0.408075 0.474137 0.343256
O O13 0.829111 0.819426 0.252491
O O14 0.820064 0.116223 0.255577
#
# Coordination Sequence:
#
# PCOD8248216 Si02
#       7
#     8   8   8   8   8   8   8
#     4  11  25  42  71 109 153 186 234 298 381 449
#     4  12  25  45  79 109 142 197 252 314 374 454
#     4  11  25  48  70 107 150 194 252 300 385 441
#     4  11  24  45  69 111 144 189 243 302 371 441
#     4  11  23  48  76 102 147 189 257 305 369 432
#     4  10  25  46  73 101 149 202 242 314 356 440
#     4  12  24  45  72 109 152 194 234 310 378 448
#
# _framework density 23.867832
#
# number of rings (size 3 to 8) (size 9 to 14) (size 15 to 20)
#    0.000    0.857    4.286    2.143    2.000    2.286 
#    2.571    1.429    0.000    0.000    0.000    0.000 
#    0.000    0.000    0.000    0.000    0.000    0.000 
#
# Total GULP energy -694215.773173 kJ/mol
# GULP energy per Si atom -12396.710235 kJ/mol
# Density = 2.381351 g / cm^3
# Si number density = 23.867832 Si / 1000 Ang^3
#
#
#
# Elastic Constant Matrix: (Units=GPa)
#
#
# Indices 1 2 3 4 5 6 
#
# 1 106.1435 40.5530 12.5132 0.0000 0.0000 0.0000
# 2 40.5530 74.0673 15.2963 0.0000 0.0000 0.0000
# 3 12.5132 15.2963 70.8536 0.0000 0.0000 0.0000
# 4 0.0000 0.0000 0.0000 35.7072 0.0000 0.0000
# 5 0.0000 0.0000 0.0000 0.0000 19.7612 0.0000
# 6 0.0000 0.0000 0.0000 0.0000 0.0000 25.9071
#
#
#
# Elastic Compliance Matrix: (Units=1/GPa)
#
#
# Indices 1 2 3 4 5 6 
#
# 1 0.011949 -0.006392 -0.000730 0.000000 0.000000 0.000000
# 2 -0.006392 0.017550 -0.002660 0.000000 0.000000 0.000000
# 3 -0.000730 -0.002660 0.014817 0.000000 0.000000 0.000000
# 4 0.000000 0.000000 0.000000 0.028006 0.000000 0.000000
# 5 0.000000 0.000000 0.000000 0.000000 0.050604 0.000000
# 6 0.000000 0.000000 0.000000 0.000000 0.000000 0.038599
#
#
# Mechanical properties :
#
#
# Convention : Reuss Voigt Hill
#
# Bulk Modulus (GPa) = 40.40059 43.08770 41.74414
# Shear Modulus (GPa) = 26.40749 28.45523 27.43136
#
# Velocity S-wave (km/s) = 3.32988 3.45657 3.39381
# Velocity P-wave (km/s) = 5.63450 5.83287 5.73454
#
# Compressibility (1/GPa) = 0.02475211
#
# Stress axis : x y z
#
# Youngs Moduli (GPa) = 83.68713 56.97992 67.49058
#
# Poissons Ratio (x) = 0.36419 0.04930
# Poissons Ratio (y) = 0.53489 0.17953
# Poissons Ratio (z) = 0.06113 0.15157
#
# Static dielectric constant tensor:
#      x y z
#    x 4.967630 0.000000 0.000000 
#    y 0.000000 4.395530 0.000000 
#    z 0.000000 0.000000 4.354120 
# 
# 
# High freq. dielectric constant tensor:
#      x y z
#    x 1.948560 0.000000 0.000000 
#    y 0.000000 1.953910 0.000000 
#    z 0.000000 0.000000 1.954180 
# 
# From -- ./inp_files/22926.got.cif
#   From: 2010.03.12/outbox.cif.g09.slc.cpg/sg60_12_cif.got.tgz:22926.got - 2010.04.10 18:46:24.
