data_PCOD8248747
_publ_section_title
;
Structure prediction by ZEFSAII (Michael W. Deem and Ramdas Pophale) SiO2 
 PCOD8248747
Probable space group: P B C A
;
_chemical_formula_sum "Si O2"
_cell_formula_units_Z 56
_cell_length_a 19.945414
_cell_length_b 7.795549
_cell_length_c 19.374514
_cell_angle_alpha 90.000000
_cell_angle_beta 90.000000
_cell_angle_gamma 90.000000
_cell_volume 3012.455070
_symmetry_space_group_name_H-M "P B C A"
_symmetry_group_IT_number 61
_symmetry_cell_setting 'orthorhombic'
loop_
_space_group_symop_operation_xyz
x,y,z
1/2-x,-y,1/2+z
1/2+x,1/2-y,-z
-x,1/2+y,1/2-z
-x,-y,-z
1/2+x,y,1/2-z
1/2-x,1/2+y,z
x,1/2-y,1/2+z
loop_
_atom_site_type_symbol
_atom_site_label
_atom_site_fract_x
_atom_site_fract_y
_atom_site_fract_z
Si Si1 0.909933 0.734714 0.727338
Si Si2 0.449180 0.117708 0.767105
Si Si3 0.915000 0.076537 0.134464
Si Si4 0.562957 0.978681 0.386591
Si Si5 0.670442 0.246159 0.356196
Si Si6 0.845965 0.158111 0.996060
Si Si7 0.774569 0.048057 0.431824
O O1 0.892458 0.608391 0.664460
O O2 0.843302 0.738312 0.774480
O O3 0.970981 0.650952 0.771535
O O4 0.930667 0.928026 0.702628
O O5 0.412745 0.270401 0.808779
O O6 0.428337 0.121854 0.686241
O O7 0.863157 0.126380 0.075390
O O8 0.988305 0.048244 0.102161
O O9 0.587116 0.857338 0.448814
O O10 0.609857 0.143573 0.390041
O O11 0.743149 0.160440 0.369246
O O12 0.672105 0.425746 0.395440
O O13 0.817794 0.348782 0.987612
O O14 0.786664 0.032491 0.973590
#
# Coordination Sequence:
#
# PCOD8248747 Si02
#       7
#     8   8   8   8   8   8   8
#     4  10  19  34  58  85 116 144 185 230 284 354
#     4  10  18  34  57  87 119 146 176 225 299 342
#     4  11  21  36  58  89 122 150 177 241 310 337
#     4   9  19  35  60  86 115 142 192 234 285 362
#     4   9  17  35  57  81 102 142 200 233 273 338
#     4  10  21  39  58  81 114 155 196 240 287 341
#     4   9  20  37  59  73 109 157 195 238 280 327
#
# _framework density 18.589489
#
# number of rings (size 3 to 8) (size 9 to 14) (size 15 to 20)
#    0.000    2.286    4.286    0.429    2.000    0.000 
#    7.714    2.143    0.000    0.000    0.000    0.000 
#    0.000    0.000    0.000    0.000    0.000    0.000 
#
# Total GULP energy -693995.882378 kJ/mol
# GULP energy per Si atom -12392.783614 kJ/mol
# Density = 1.854718 g / cm^3
# Si number density = 18.589489 Si / 1000 Ang^3
#
#
#
# Elastic Constant Matrix: (Units=GPa)
#
#
# Indices 1 2 3 4 5 6 
#
# 1 51.2537 20.5524 26.4558 0.0000 0.0000 0.0000
# 2 20.5524 102.9583 36.5103 0.0000 0.0000 0.0000
# 3 26.4558 36.5103 77.5398 0.0000 0.0000 0.0000
# 4 0.0000 0.0000 0.0000 27.4457 0.0000 0.0000
# 5 0.0000 0.0000 0.0000 0.0000 30.0336 0.0000
# 6 0.0000 0.0000 0.0000 0.0000 0.0000 14.6148
#
#
#
# Elastic Compliance Matrix: (Units=1/GPa)
#
#
# Indices 1 2 3 4 5 6 
#
# 1 0.024118 -0.002276 -0.007157 0.000000 0.000000 0.000000
# 2 -0.002276 0.011874 -0.004814 0.000000 0.000000 0.000000
# 3 -0.007157 -0.004814 0.017605 0.000000 0.000000 0.000000
# 4 0.000000 0.000000 0.000000 0.036436 0.000000 0.000000
# 5 0.000000 0.000000 0.000000 0.000000 0.033296 0.000000
# 6 0.000000 0.000000 0.000000 0.000000 0.000000 0.068424
#
#
# Mechanical properties :
#
#
# Convention : Reuss Voigt Hill
#
# Bulk Modulus (GPa) = 39.83744 44.30988 42.07366
# Shear Modulus (GPa) = 21.87076 24.30104 23.08590
#
# Velocity S-wave (km/s) = 3.43375 3.61951 3.52785
# Velocity P-wave (km/s) = 6.09897 6.43083 6.26710
#
# Compressibility (1/GPa) = 0.02510201
#
# Stress axis : x y z
#
# Youngs Moduli (GPa) = 41.46311 84.21514 56.80078
#
# Poissons Ratio (x) = 0.19171 0.40652
# Poissons Ratio (y) = 0.09439 0.27346
# Poissons Ratio (z) = 0.29675 0.40545
#
# Static dielectric constant tensor:
#      x y z
#    x 3.389200 0.000000 0.000000 
#    y 0.000000 3.660460 0.000000 
#    z 0.000000 0.000000 3.260020 
# 
# 
# High freq. dielectric constant tensor:
#      x y z
#    x 1.709550 0.000000 0.000000 
#    y 0.000000 1.730770 0.000000 
#    z 0.000000 0.000000 1.698340 
# 
# From -- ./inp_files/9756.got.cif
#   From: 2010.03.12/outbox.cif.g09.slc.cpg/sg61_5_cif.got.tgz:9756.got - 2010.04.10 19:05:03.
