data_PCOD8248880
_publ_section_title
;
Structure prediction by ZEFSAII (Michael W. Deem and Ramdas Pophale) SiO2 
 PCOD8248880
Probable space group: P B C A
;
_chemical_formula_sum "Si O2"
_cell_formula_units_Z 56
_cell_length_a 9.146988
_cell_length_b 16.557687
_cell_length_c 17.557730
_cell_angle_alpha 90.000000
_cell_angle_beta 90.000000
_cell_angle_gamma 90.000000
_cell_volume 2659.170255
_symmetry_space_group_name_H-M "P B C A"
_symmetry_group_IT_number 61
_symmetry_cell_setting 'orthorhombic'
loop_
_space_group_symop_operation_xyz
x,y,z
1/2-x,-y,1/2+z
1/2+x,1/2-y,-z
-x,1/2+y,1/2-z
-x,-y,-z
1/2+x,y,1/2-z
1/2-x,1/2+y,z
x,1/2-y,1/2+z
loop_
_atom_site_type_symbol
_atom_site_label
_atom_site_fract_x
_atom_site_fract_y
_atom_site_fract_z
Si Si1 0.682194 0.565605 0.973440
Si Si2 0.648410 0.562942 0.214980
Si Si3 0.985827 0.910476 0.284180
Si Si4 0.553910 0.403593 0.914047
Si Si5 0.595937 0.040193 0.102624
Si Si6 0.213318 0.833393 0.172018
Si Si7 0.156453 0.843372 0.632418
O O1 0.596106 0.495309 0.931187
O O2 0.736615 0.623062 0.907953
O O3 0.571882 0.619286 0.025266
O O4 0.818729 0.528534 0.022375
O O5 0.609152 0.470605 0.232199
O O6 0.512726 0.603499 0.170704
O O7 0.793379 0.571185 0.165936
O O8 0.687030 0.607803 0.291613
O O9 0.882223 0.832007 0.299306
O O10 0.123973 0.881868 0.235915
O O11 0.028781 0.956332 0.364054
O O12 0.697188 0.347269 0.920027
O O13 0.478361 0.112702 0.089948
O O14 0.132041 0.749140 0.155884
#
# Coordination Sequence:
#
# PCOD8248880 Si02
#       7
#     8   8   8   8   8   8   8
#     4  10  22  43  66  94 123 168 218 262 319 373
#     4  10  19  39  64  89 120 166 216 263 308 380
#     4  11  22  41  63  95 123 166 221 267 315 367
#     4  10  21  39  64  87 123 169 208 260 314 383
#     4  10  22  40  68  94 122 171 220 262 309 393
#     4  12  26  39  63  96 134 165 208 274 325 384
#     4  11  24  37  61  95 131 169 206 260 329 382
#
# _framework density 21.059201999999999
#
# number of rings (size 3 to 8) (size 9 to 14) (size 15 to 20)
#    0.000    1.429    2.857    3.429    4.000    3.429 
#    0.000    0.000    0.000    0.000    0.000    0.000 
#    0.000    0.000    0.000    0.000    0.000    0.000 
#
# Total GULP energy -693947.881979 kJ/mol
# GULP energy per Si atom -12391.926464 kJ/mol
# Density = 2.101127 g / cm^3
# Si number density = 21.059202 Si / 1000 Ang^3
#
#
#
# Elastic Constant Matrix: (Units=GPa)
#
#
# Indices 1 2 3 4 5 6 
#
# 1 120.0472 18.1215 30.9312 0.0000 0.0000 0.0000
# 2 18.1215 58.6722 8.0963 0.0000 0.0000 0.0000
# 3 30.9312 8.0963 67.5234 0.0000 0.0000 0.0000
# 4 0.0000 0.0000 0.0000 9.3331 0.0000 0.0000
# 5 0.0000 0.0000 0.0000 0.0000 19.1883 0.0000
# 6 0.0000 0.0000 0.0000 0.0000 0.0000 23.1920
#
#
#
# Elastic Compliance Matrix: (Units=1/GPa)
#
#
# Indices 1 2 3 4 5 6 
#
# 1 0.009777 -0.002442 -0.004186 0.000000 0.000000 0.000000
# 2 -0.002442 0.017941 -0.001032 0.000000 0.000000 0.000000
# 3 -0.004186 -0.001032 0.016851 0.000000 0.000000 0.000000
# 4 0.000000 0.000000 0.000000 0.107146 0.000000 0.000000
# 5 0.000000 0.000000 0.000000 0.000000 0.052115 0.000000
# 6 0.000000 0.000000 0.000000 0.000000 0.000000 0.043118
#
#
# Mechanical properties :
#
#
# Convention : Reuss Voigt Hill
#
# Bulk Modulus (GPa) = 34.19066 40.06007 37.12537
# Shear Modulus (GPa) = 18.38110 22.94893 20.66502
#
# Velocity S-wave (km/s) = 2.95757 3.30469 3.13594
# Velocity P-wave (km/s) = 5.28524 5.79873 5.54793
#
# Compressibility (1/GPa) = 0.02924775
#
# Stress axis : x y z
#
# Youngs Moduli (GPa) = 102.27815 55.73945 59.34373
#
# Poissons Ratio (x) = 0.13613 0.24841
# Poissons Ratio (y) = 0.24978 0.06127
# Poissons Ratio (z) = 0.42813 0.05755
#
# Static dielectric constant tensor:
#      x y z
#    x 4.175150 0.000000 0.000000 
#    y 0.000000 3.550170 0.000000 
#    z 0.000000 0.000000 4.006960 
# 
# 
# High freq. dielectric constant tensor:
#      x y z
#    x 1.848490 0.000000 0.000000 
#    y 0.000000 1.783170 0.000000 
#    z 0.000000 0.000000 1.830280 
# 
# From -- ./inp_files/10135.got.cif
#   From: 2010.03.12/outbox.cif.g09.slc.cpg/sg61_6_cif.got.tgz:10135.got - 2010.04.10 19:05:03.
