data_PCOD8248573
_publ_section_title
;
Structure prediction by ZEFSAII (Michael W. Deem and Ramdas Pophale) SiO2 
 PCOD8248573
Probable space group: P B C N
;
_chemical_formula_sum "Si O2"
_cell_formula_units_Z 40
_cell_length_a 7.637027
_cell_length_b 14.179168
_cell_length_c 13.375936
_cell_angle_alpha 90.000000
_cell_angle_beta 90.000000
_cell_angle_gamma 90.000000
_cell_volume 1448.435820
_symmetry_space_group_name_H-M "P B C N"
_symmetry_group_IT_number 60
_symmetry_cell_setting 'orthorhombic'
loop_
_space_group_symop_operation_xyz
x,y,z
1/2-x,1/2-y,1/2+z
1/2+x,1/2-y,-z
-x,y,1/2-z
-x,-y,-z
1/2+x,1/2+y,1/2-z
1/2-x,1/2+y,z
x,-y,1/2+z
loop_
_atom_site_type_symbol
_atom_site_label
_atom_site_fract_x
_atom_site_fract_y
_atom_site_fract_z
Si Si1 0.234245 0.538806 0.467557
Si Si2 0.189110 0.773619 0.703802
Si Si3 0.403691 0.955444 0.656970
Si Si4 0.376293 0.724065 0.519148
Si Si5 0.705202 0.655787 0.623233
O O1 0.229048 0.515324 0.587599
O O2 0.366593 0.626010 0.457985
O O3 0.315720 0.455114 0.398849
O O4 0.048741 0.574722 0.425070
O O5 0.308419 0.867922 0.711237
O O6 0.199214 0.742784 0.587257
O O7 0.269779 0.682330 0.761236
O O8 0.000000 0.797831 0.750000
O O9 0.500000 0.011646 0.750000
O O10 0.544358 0.721779 0.589198
O O11 0.377216 0.808902 0.438454
#
# Coordination Sequence:
#
# PCOD8248573 Si02
#       5
#     8   8   8   8   8
#     4  11  27  45  81 111 153 198 260 317 385 460
#     4  12  27  46  76 108 150 203 250 309 384 459
#     4  11  25  49  75 109 150 195 252 314 385 451
#     4  12  25  48  74 108 154 194 261 309 388 449
#     4  12  27  48  76 109 150 203 249 322 380 458
#
# _framework density 27.615995000000002
#
# number of rings (size 3 to 8) (size 9 to 14) (size 15 to 20)
#    0.000    0.400    2.000    6.000   11.200    0.000 
#    3.600    0.000    0.000    0.000    0.000    0.000 
#    0.000    0.000    0.000    0.000    0.000    0.000 
#
# Total GULP energy -495685.554015 kJ/mol
# GULP energy per Si atom -12392.138850 kJ/mol
# Density = 2.755314 g / cm^3
# Si number density = 27.615995 Si / 1000 Ang^3
#
#
#
# Elastic Constant Matrix: (Units=GPa)
#
#
# Indices 1 2 3 4 5 6 
#
# 1 47.9593 -8.9076 -15.1871 0.0000 0.0000 0.0000
# 2 -8.9076 85.0331 2.2578 0.0000 0.0000 0.0000
# 3 -15.1871 2.2578 121.6822 0.0000 0.0000 0.0000
# 4 0.0000 0.0000 0.0000 42.7031 0.0000 0.0000
# 5 0.0000 0.0000 0.0000 0.0000 38.6692 0.0000
# 6 0.0000 0.0000 0.0000 0.0000 0.0000 27.5537
#
#
#
# Elastic Compliance Matrix: (Units=1/GPa)
#
#
# Indices 1 2 3 4 5 6 
#
# 1 0.022130 0.002246 0.002720 0.000000 0.000000 0.000000
# 2 0.002246 0.011994 0.000058 0.000000 0.000000 0.000000
# 3 0.002720 0.000058 0.008557 0.000000 0.000000 0.000000
# 4 0.000000 0.000000 0.000000 0.023418 0.000000 0.000000
# 5 0.000000 0.000000 0.000000 0.000000 0.025860 0.000000
# 6 0.000000 0.000000 0.000000 0.000000 0.000000 0.036293
#
#
# Mechanical properties :
#
#
# Convention : Reuss Voigt Hill
#
# Bulk Modulus (GPa) = 18.96524 23.44454 21.20489
# Shear Modulus (GPa) = 36.82463 40.21928 38.52196
#
# Velocity S-wave (km/s) = 3.65561 3.82039 3.73891
# Velocity P-wave (km/s) = 4.96995 5.28852 5.13170
#
# Compressibility (1/GPa) = 0.05272805
#
# Stress axis : x y z
#
# Youngs Moduli (GPa) = 45.18839 83.37595 116.86914
#
# Poissons Ratio (x) = -0.18726 -0.31792
# Poissons Ratio (y) = -0.10149 -0.00675
# Poissons Ratio (z) = -0.12293 -0.00482
#
# Static dielectric constant tensor:
#      x y z
#    x 4.873900 0.000000 0.000000 
#    y 0.000000 4.675930 0.000000 
#    z 0.000000 0.000000 5.306870 
# 
# 
# High freq. dielectric constant tensor:
#      x y z
#    x 2.105990 0.000000 0.000000 
#    y 0.000000 2.103450 0.000000 
#    z 0.000000 0.000000 2.128920 
# 
# From -- ./inp_files/14628.got.cif
#   From: 2010.03.12/outbox.cif.g09.slc.cpg/sg60_8_cif.got.tgz:14628.got - 2010.04.10 18:46:24.
