data_PCOD8248513
_publ_section_title
;
Structure prediction by ZEFSAII (Michael W. Deem and Ramdas Pophale) SiO2 
 PCOD8248513
Probable space group: P B C N
;
_chemical_formula_sum "Si O2"
_cell_formula_units_Z 48
_cell_length_a 26.158860
_cell_length_b 9.617958
_cell_length_c 9.275004
_cell_angle_alpha 90.000000
_cell_angle_beta 90.000000
_cell_angle_gamma 90.000000
_cell_volume 2333.542932
_symmetry_space_group_name_H-M "P B C N"
_symmetry_group_IT_number 60
_symmetry_cell_setting 'orthorhombic'
loop_
_space_group_symop_operation_xyz
x,y,z
1/2-x,1/2-y,1/2+z
1/2+x,1/2-y,-z
-x,y,1/2-z
-x,-y,-z
1/2+x,1/2+y,1/2-z
1/2-x,1/2+y,z
x,-y,1/2+z
loop_
_atom_site_type_symbol
_atom_site_label
_atom_site_fract_x
_atom_site_fract_y
_atom_site_fract_z
Si Si1 0.707486 0.865591 0.311314
Si Si2 0.717161 0.160390 0.467657
Si Si3 0.039771 0.987853 0.624118
Si Si4 0.405983 0.771224 0.215006
Si Si5 0.106849 0.233947 0.539839
Si Si6 0.465116 0.033759 0.132988
O O1 0.736810 0.750201 0.404211
O O2 0.648583 0.827587 0.334466
O O3 0.717391 0.015570 0.381572
O O4 0.722645 0.865564 0.140756
O O5 0.667094 0.252341 0.432367
O O6 0.073667 0.848570 0.608869
O O7 0.000000 0.984599 0.750000
O O8 0.080960 0.112714 0.633310
O O9 0.000000 0.000000 0.500000
O O10 0.403962 0.703356 0.372893
O O11 0.446232 0.895464 0.212789
O O12 0.083754 0.380691 0.585538
O O13 0.500000 0.115920 0.250000
O O14 0.500000 0.000000 0.000000
#
# Coordination Sequence:
#
# PCOD8248513 Si02
#       6
#     8   8   8   8   8   8
#     4  11  25  48  74 102 136 177 224 289 345 414
#     4  11  25  48  73 103 136 174 229 283 350 410
#     4  12  24  45  66  96 140 183 227 273 328 395
#     4  11  24  45  66  98 139 172 222 280 332 398
#     4  11  24  44  67 100 133 175 225 274 335 403
#     4  12  22  39  68  96 132 173 217 271 330 393
#
# _framework density 20.569580999999999
#
# number of rings (size 3 to 8) (size 9 to 14) (size 15 to 20)
#    0.000    0.667    5.000    3.000    2.333    0.000 
#    9.000    0.000    0.000    0.000    0.000    0.000 
#    0.000    0.000    0.000    0.000    0.000    0.000 
#
# Total GULP energy -595059.590228 kJ/mol
# GULP energy per Si atom -12397.074796 kJ/mol
# Density = 2.052276 g / cm^3
# Si number density = 20.569581 Si / 1000 Ang^3
#
#
#
# Elastic Constant Matrix: (Units=GPa)
#
#
# Indices 1 2 3 4 5 6 
#
# 1 110.6923 44.3069 47.2443 0.0000 0.0000 0.0000
# 2 44.3069 117.7103 22.4745 0.0000 0.0000 0.0000
# 3 47.2443 22.4745 93.6371 0.0000 0.0000 0.0000
# 4 0.0000 0.0000 0.0000 33.7470 0.0000 0.0000
# 5 0.0000 0.0000 0.0000 0.0000 30.9878 0.0000
# 6 0.0000 0.0000 0.0000 0.0000 0.0000 43.4797
#
#
#
# Elastic Compliance Matrix: (Units=1/GPa)
#
#
# Indices 1 2 3 4 5 6 
#
# 1 0.012957 -0.003803 -0.005625 0.000000 0.000000 0.000000
# 2 -0.003803 0.010020 -0.000486 0.000000 0.000000 0.000000
# 3 -0.005625 -0.000486 0.013634 0.000000 0.000000 0.000000
# 4 0.000000 0.000000 0.000000 0.029632 0.000000 0.000000
# 5 0.000000 0.000000 0.000000 0.000000 0.032271 0.000000
# 6 0.000000 0.000000 0.000000 0.000000 0.000000 0.022999
#
#
# Mechanical properties :
#
#
# Convention : Reuss Voigt Hill
#
# Bulk Modulus (GPa) = 59.58331 61.12121 60.35226
# Shear Modulus (GPa) = 34.02866 35.51050 34.76958
#
# Velocity S-wave (km/s) = 4.07174 4.15946 4.11583
# Velocity P-wave (km/s) = 7.15088 7.26959 7.21048
#
# Compressibility (1/GPa) = 0.01678322
#
# Stress axis : x y z
#
# Youngs Moduli (GPa) = 77.17862 99.80267 73.34580
#
# Poissons Ratio (x) = 0.37957 0.41254
# Poissons Ratio (y) = 0.29352 0.03565
# Poissons Ratio (z) = 0.43410 0.04851
#
# Static dielectric constant tensor:
#      x y z
#    x 3.867730 0.000000 0.000000 
#    y 0.000000 3.633980 0.000000 
#    z 0.000000 0.000000 3.859260 
# 
# 
# High freq. dielectric constant tensor:
#      x y z
#    x 1.822870 0.000000 0.000000 
#    y 0.000000 1.808270 0.000000 
#    z 0.000000 0.000000 1.812040 
# 
# From -- ./inp_files/7837.got.cif
#   From: 2010.03.12/outbox.cif.g09.slc.cpg/sg60_4_cif.got.tgz:7837.got - 2010.04.10 18:46:24.
