data_PCOD8248509
_publ_section_title
;
Structure prediction by ZEFSAII (Michael W. Deem and Ramdas Pophale) SiO2 
 PCOD8248509
Probable space group: P B C N
;
_chemical_formula_sum "Si O2"
_cell_formula_units_Z 48
_cell_length_a 8.445874
_cell_length_b 14.405438
_cell_length_c 17.690480
_cell_angle_alpha 90.000000
_cell_angle_beta 90.000000
_cell_angle_gamma 90.000000
_cell_volume 2152.339037
_symmetry_space_group_name_H-M "P B C N"
_symmetry_group_IT_number 60
_symmetry_cell_setting 'orthorhombic'
loop_
_space_group_symop_operation_xyz
x,y,z
1/2-x,1/2-y,1/2+z
1/2+x,1/2-y,-z
-x,y,1/2-z
-x,-y,-z
1/2+x,1/2+y,1/2-z
1/2-x,1/2+y,z
x,-y,1/2+z
loop_
_atom_site_type_symbol
_atom_site_label
_atom_site_fract_x
_atom_site_fract_y
_atom_site_fract_z
Si Si1 0.182331 0.428420 0.926991
Si Si2 0.843148 0.604756 0.484046
Si Si3 0.177497 0.177909 0.153884
Si Si4 0.318787 0.669555 0.750806
Si Si5 0.182811 0.474140 0.758031
Si Si6 0.348153 0.252044 0.890861
O O1 0.235885 0.459461 0.843921
O O2 0.274029 0.332629 0.944049
O O3 0.993518 0.415024 0.930957
O O4 0.231886 0.507865 0.986639
O O5 0.712316 0.655911 0.433850
O O6 0.896325 0.666761 0.555424
O O7 0.291400 0.259784 0.182149
O O8 0.204659 0.086940 0.204588
O O9 0.996632 0.211532 0.157662
O O10 0.500000 0.637148 0.750000
O O11 0.206353 0.581447 0.736741
O O12 0.281943 0.719862 0.830139
O O13 0.000000 0.445444 0.750000
#
# Coordination Sequence:
#
# PCOD8248509 Si02
#       6
#     8   8   8   8   8   8
#     4  11  24  43  72  99 148 189 235 297 361 430
#     4  11  25  46  69 103 145 197 232 294 369 424
#     4  12  26  44  74 105 141 187 241 298 356 426
#     4  12  27  43  72 105 139 185 238 293 360 422
#     4  12  24  45  73 103 143 184 238 296 360 425
#     4  12  25  45  73 105 144 186 243 298 356 437
#
# _framework density 22.301317999999998
#
# number of rings (size 3 to 8) (size 9 to 14) (size 15 to 20)
#    0.000    0.333    5.000    4.000    2.333    2.000 
#    0.000    0.000    0.000    0.000    0.000    0.000 
#    0.000    0.000    0.000    0.000    0.000    0.000 
#
# Total GULP energy -595590.768345 kJ/mol
# GULP energy per Si atom -12408.141007 kJ/mol
# Density = 2.225056 g / cm^3
# Si number density = 22.301318 Si / 1000 Ang^3
#
#
#
# Elastic Constant Matrix: (Units=GPa)
#
#
# Indices 1 2 3 4 5 6 
#
# 1 77.4782 24.9511 29.0254 0.0000 0.0000 0.0000
# 2 24.9511 132.6039 34.9157 0.0000 0.0000 0.0000
# 3 29.0254 34.9157 103.1843 0.0000 0.0000 0.0000
# 4 0.0000 0.0000 0.0000 33.8952 0.0000 0.0000
# 5 0.0000 0.0000 0.0000 0.0000 27.9407 0.0000
# 6 0.0000 0.0000 0.0000 0.0000 0.0000 37.4068
#
#
#
# Elastic Compliance Matrix: (Units=1/GPa)
#
#
# Indices 1 2 3 4 5 6 
#
# 1 0.014833 -0.001858 -0.003544 0.000000 0.000000 0.000000
# 2 -0.001858 0.008512 -0.002358 0.000000 0.000000 0.000000
# 3 -0.003544 -0.002358 0.011486 0.000000 0.000000 0.000000
# 4 0.000000 0.000000 0.000000 0.029503 0.000000 0.000000
# 5 0.000000 0.000000 0.000000 0.000000 0.035790 0.000000
# 6 0.000000 0.000000 0.000000 0.000000 0.000000 0.026733
#
#
# Mechanical properties :
#
#
# Convention : Reuss Voigt Hill
#
# Bulk Modulus (GPa) = 51.78122 54.56118 53.17120
# Shear Modulus (GPa) = 33.59947 34.80682 34.20314
#
# Velocity S-wave (km/s) = 3.88572 3.95492 3.92047
# Velocity P-wave (km/s) = 6.58795 6.73601 6.66239
#
# Compressibility (1/GPa) = 0.01931202
#
# Stress axis : x y z
#
# Youngs Moduli (GPa) = 67.41841 117.48664 87.06259
#
# Poissons Ratio (x) = 0.21828 0.30853
# Poissons Ratio (y) = 0.12525 0.20526
# Poissons Ratio (z) = 0.23891 0.27698
#
# Static dielectric constant tensor:
#      x y z
#    x 3.729290 0.000000 0.000000 
#    y 0.000000 4.217440 0.000000 
#    z 0.000000 0.000000 3.932550 
# 
# 
# High freq. dielectric constant tensor:
#      x y z
#    x 1.865530 0.000000 0.000000 
#    y 0.000000 1.896810 0.000000 
#    z 0.000000 0.000000 1.880530 
# 
# From -- ./inp_files/19305.got.cif
#   From: 2010.03.12/outbox.cif.g09.slc.cpg/sg60_10_cif.got.tgz:19305.got - 2010.04.10 18:46:24.
