data_PCOD8248864
_publ_section_title
;
Structure prediction by ZEFSAII (Michael W. Deem and Ramdas Pophale) SiO2 
 PCOD8248864
Probable space group: P B C A
;
_chemical_formula_sum "Si O2"
_cell_formula_units_Z 64
_cell_length_a 17.407652
_cell_length_b 22.462431
_cell_length_c 8.760836
_cell_angle_alpha 90.000000
_cell_angle_beta 90.000000
_cell_angle_gamma 90.000000
_cell_volume 3425.646165
_symmetry_space_group_name_H-M "P B C A"
_symmetry_group_IT_number 61
_symmetry_cell_setting 'orthorhombic'
loop_
_space_group_symop_operation_xyz
x,y,z
1/2-x,-y,1/2+z
1/2+x,1/2-y,-z
-x,1/2+y,1/2-z
-x,-y,-z
1/2+x,y,1/2-z
1/2-x,1/2+y,z
x,1/2-y,1/2+z
loop_
_atom_site_type_symbol
_atom_site_label
_atom_site_fract_x
_atom_site_fract_y
_atom_site_fract_z
Si Si1 0.659707 0.903704 0.935018
Si Si2 0.890457 0.680920 0.273561
Si Si3 0.152377 0.787419 0.031688
Si Si4 0.797522 0.928665 0.763153
Si Si5 0.807676 0.769710 0.062377
Si Si6 0.221754 0.476077 0.070861
Si Si7 0.735418 0.631053 0.743596
Si Si8 0.568437 0.808301 0.779262
O O1 0.731797 0.883245 0.827798
O O2 0.585278 0.867643 0.879600
O O3 0.650517 0.976213 0.917972
O O4 0.679025 0.889638 0.109807
O O5 0.875966 0.609329 0.263138
O O6 0.843128 0.710598 0.135986
O O7 0.865670 0.706894 0.435537
O O8 0.979267 0.693939 0.255279
O O9 0.179770 0.845041 0.124051
O O10 0.089551 0.750828 0.127268
O O11 0.223582 0.743194 0.004543
O O12 0.115987 0.810740 0.876315
O O13 0.771338 0.950601 0.597595
O O14 0.798712 0.985536 0.879942
O O15 0.797402 0.819836 0.192242
O O16 0.212678 0.422875 0.191750
#
# Coordination Sequence:
#
# PCOD8248864 Si02
#       8
#     8   8   8   8   8   8   8   8
#     4  10  19  38  60  84 119 157 205 253 296 367
#     4  12  25  37  60  92 132 160 196 259 323 360
#     4  12  22  38  64  86 122 166 210 247 303 375
#     4  10  20  38  63  89 119 156 207 263 304 354
#     4  12  21  39  60  92 119 157 212 256 291 365
#     4  10  20  36  63  93 113 150 216 269 297 342
#     4  12  20  34  67  90 113 150 213 260 291 349
#     4  12  23  40  56  90 130 166 195 248 324 382
#
# _framework density 18.682606
#
# number of rings (size 3 to 8) (size 9 to 14) (size 15 to 20)
#    0.750    0.000    6.250    3.000    0.000    0.000 
#    0.000    0.625    0.000    5.250    0.000    0.000 
#    0.000    0.000    0.000    0.000    0.000    0.000 
#
# Total GULP energy -793277.250718 kJ/mol
# GULP energy per Si atom -12394.957042 kJ/mol
# Density = 1.864008 g / cm^3
# Si number density = 18.682606 Si / 1000 Ang^3
#
#
#
# Elastic Constant Matrix: (Units=GPa)
#
#
# Indices 1 2 3 4 5 6 
#
# 1 58.9369 23.3465 18.9693 0.0000 0.0000 0.0000
# 2 23.3465 104.5355 40.1210 0.0000 0.0000 0.0000
# 3 18.9693 40.1210 115.2472 0.0000 0.0000 0.0000
# 4 0.0000 0.0000 0.0000 40.2239 0.0000 0.0000
# 5 0.0000 0.0000 0.0000 0.0000 18.9352 0.0000
# 6 0.0000 0.0000 0.0000 0.0000 0.0000 23.4841
#
#
#
# Elastic Compliance Matrix: (Units=1/GPa)
#
#
# Indices 1 2 3 4 5 6 
#
# 1 0.018968 -0.003507 -0.001901 0.000000 0.000000 0.000000
# 2 -0.003507 0.011690 -0.003492 0.000000 0.000000 0.000000
# 3 -0.001901 -0.003492 0.010206 0.000000 0.000000 0.000000
# 4 0.000000 0.000000 0.000000 0.024861 0.000000 0.000000
# 5 0.000000 0.000000 0.000000 0.000000 0.052812 0.000000
# 6 0.000000 0.000000 0.000000 0.000000 0.000000 0.042582
#
#
# Mechanical properties :
#
#
# Convention : Reuss Voigt Hill
#
# Bulk Modulus (GPa) = 43.35922 49.28812 46.32367
# Shear Modulus (GPa) = 26.79436 29.61416 28.20426
#
# Velocity S-wave (km/s) = 3.79117 3.98567 3.88964
# Velocity P-wave (km/s) = 6.51327 6.90072 6.70979
#
# Compressibility (1/GPa) = 0.02306315
#
# Stress axis : x y z
#
# Youngs Moduli (GPa) = 52.71950 85.54588 97.98393
#
# Poissons Ratio (x) = 0.29997 0.18631
# Poissons Ratio (y) = 0.18486 0.34219
# Poissons Ratio (z) = 0.10024 0.29876
#
# Static dielectric constant tensor:
#      x y z
#    x 3.036730 0.000000 0.000000 
#    y 0.000000 3.611020 0.000000 
#    z 0.000000 0.000000 3.612440 
# 
# 
# High freq. dielectric constant tensor:
#      x y z
#    x 1.672980 0.000000 0.000000 
#    y 0.000000 1.737940 0.000000 
#    z 0.000000 0.000000 1.748740 
# 
# From -- ./inp_files/3701.got.cif
#   From: 2010.03.12/outbox.cif.g09.slc.cpg/sg61_2_cif.got.tgz:3701.got - 2010.04.10 19:05:03.
