data_PCOD8248433
_publ_section_title
;
Structure prediction by ZEFSAII (Michael W. Deem and Ramdas Pophale) SiO2 
 PCOD8248433
Probable space group: P B C N
;
_chemical_formula_sum "Si O2"
_cell_formula_units_Z 40
_cell_length_a 7.479075
_cell_length_b 9.518997
_cell_length_c 25.075199
_cell_angle_alpha 90.000000
_cell_angle_beta 90.000000
_cell_angle_gamma 90.000000
_cell_volume 1785.185977
_symmetry_space_group_name_H-M "P B C N"
_symmetry_group_IT_number 60
_symmetry_cell_setting 'orthorhombic'
loop_
_space_group_symop_operation_xyz
x,y,z
1/2-x,1/2-y,1/2+z
1/2+x,1/2-y,-z
-x,y,1/2-z
-x,-y,-z
1/2+x,1/2+y,1/2-z
1/2-x,1/2+y,z
x,-y,1/2+z
loop_
_atom_site_type_symbol
_atom_site_label
_atom_site_fract_x
_atom_site_fract_y
_atom_site_fract_z
Si Si1 0.081779 0.616238 0.039175
Si Si2 0.404859 0.403474 0.193703
Si Si3 0.754613 0.795721 0.060306
Si Si4 0.895914 0.407195 0.844865
Si Si5 0.790854 0.945719 0.628267
O O1 0.168962 0.554780 0.093685
O O2 0.947190 0.726242 0.066165
O O3 0.209257 0.712284 0.002512
O O4 0.000000 0.500000 0.000000
O O5 0.500000 0.381593 0.250000
O O6 0.354495 0.253876 0.169137
O O7 0.220753 0.493833 0.194625
O O8 0.548493 0.489677 0.160232
O O9 0.638485 0.701068 0.101966
O O10 0.742655 0.956582 0.077682
O O11 0.109590 0.433054 0.836268
#
# Coordination Sequence:
#
# PCOD8248433 Si02
#       5
#     8   8   8   8   8
#     4  11  23  40  66 105 142 186 231 283 360 431
#     4  12  30  49  76 104 137 197 243 306 367 409
#     4  11  23  40  68 101 147 190 228 291 358 437
#     4  11  28  49  72 110 145 183 250 294 355 443
#     4  11  24  48  69 106 148 185 237 300 359 431
#
# _framework density 22.406631000000001
#
# number of rings (size 3 to 8) (size 9 to 14) (size 15 to 20)
#    0.000    0.800    8.000    0.000   11.200    0.800 
#    0.000    0.000    0.000    0.000    0.000    0.000 
#    0.000    0.000    0.000    0.000    0.000    0.000 
#
# Total GULP energy -495632.382689 kJ/mol
# GULP energy per Si atom -12390.809567 kJ/mol
# Density = 2.235563 g / cm^3
# Si number density = 22.406631 Si / 1000 Ang^3
#
#
#
# Elastic Constant Matrix: (Units=GPa)
#
#
# Indices 1 2 3 4 5 6 
#
# 1 59.8806 21.5146 4.3443 0.0000 0.0000 0.0000
# 2 21.5146 78.1659 6.5620 0.0000 0.0000 0.0000
# 3 4.3443 6.5620 98.0237 0.0000 0.0000 0.0000
# 4 0.0000 0.0000 0.0000 22.3533 0.0000 0.0000
# 5 0.0000 0.0000 0.0000 0.0000 38.6000 0.0000
# 6 0.0000 0.0000 0.0000 0.0000 0.0000 30.8732
#
#
#
# Elastic Compliance Matrix: (Units=1/GPa)
#
#
# Indices 1 2 3 4 5 6 
#
# 1 0.018555 -0.005067 -0.000483 0.000000 0.000000 0.000000
# 2 -0.005067 0.014249 -0.000729 0.000000 0.000000 0.000000
# 3 -0.000483 -0.000729 0.010272 0.000000 0.000000 0.000000
# 4 0.000000 0.000000 0.000000 0.044736 0.000000 0.000000
# 5 0.000000 0.000000 0.000000 0.000000 0.025907 0.000000
# 6 0.000000 0.000000 0.000000 0.000000 0.000000 0.032391
#
#
# Mechanical properties :
#
#
# Convention : Reuss Voigt Hill
#
# Bulk Modulus (GPa) = 32.76758 33.43467 33.10113
# Shear Modulus (GPa) = 29.61373 31.94193 30.77783
#
# Velocity S-wave (km/s) = 3.63939 3.77975 3.71024
# Velocity P-wave (km/s) = 5.68472 5.83120 5.75843
#
# Compressibility (1/GPa) = 0.03051797
#
# Stress axis : x y z
#
# Youngs Moduli (GPa) = 53.89281 70.17996 97.35347
#
# Poissons Ratio (x) = 0.35558 0.04704
# Poissons Ratio (y) = 0.27306 0.07100
# Poissons Ratio (z) = 0.02604 0.05118
#
# Static dielectric constant tensor:
#      x y z
#    x 3.983130 0.000000 0.000000 
#    y 0.000000 4.314310 0.000000 
#    z 0.000000 0.000000 4.793790 
# 
# 
# High freq. dielectric constant tensor:
#      x y z
#    x 1.867640 0.000000 0.000000 
#    y 0.000000 1.894090 0.000000 
#    z 0.000000 0.000000 1.884900 
# 
# From -- ./inp_files/23837.got.cif
#   From: 2010.03.12/outbox.cif.g09.slc.cpg/sg60_12_cif.got.tgz:23837.got - 2010.04.10 18:46:24.
