data_PCOD8248850
_publ_section_title
;
Structure prediction by ZEFSAII (Michael W. Deem and Ramdas Pophale) SiO2 
 PCOD8248850
Probable space group: P B C A
;
_chemical_formula_sum "Si O2"
_cell_formula_units_Z 48
_cell_length_a 18.908665
_cell_length_b 22.005102
_cell_length_c 5.194742
_cell_angle_alpha 90.000000
_cell_angle_beta 90.000000
_cell_angle_gamma 90.000000
_cell_volume 2161.465144
_symmetry_space_group_name_H-M "P B C A"
_symmetry_group_IT_number 61
_symmetry_cell_setting 'orthorhombic'
loop_
_space_group_symop_operation_xyz
x,y,z
1/2-x,-y,1/2+z
1/2+x,1/2-y,-z
-x,1/2+y,1/2-z
-x,-y,-z
1/2+x,y,1/2-z
1/2-x,1/2+y,z
x,1/2-y,1/2+z
loop_
_atom_site_type_symbol
_atom_site_label
_atom_site_fract_x
_atom_site_fract_y
_atom_site_fract_z
Si Si1 0.938267 0.272998 0.508293
Si Si2 0.905217 0.779764 0.449651
Si Si3 0.591854 0.961168 0.015096
Si Si4 0.023265 0.910618 0.989244
Si Si5 0.883954 0.588952 0.765729
Si Si6 0.244947 0.539291 0.929830
O O1 0.895979 0.242067 0.271256
O O2 0.946431 0.344015 0.462208
O O3 0.011663 0.236123 0.555084
O O4 0.868718 0.752978 0.705033
O O5 0.893858 0.851810 0.441483
O O6 0.541776 0.931651 0.798442
O O7 0.603319 0.031780 0.951476
O O8 0.555783 0.955700 0.295026
O O9 0.668952 0.928516 0.018108
O O10 0.938905 0.909779 0.027282
O O11 0.805421 0.587634 0.643730
O O12 0.231213 0.494410 0.689353
#
# Coordination Sequence:
#
# PCOD8248850 Si02
#       6
#     8   8   8   8   8   8
#     4  10  19  37  58  86 122 162 206 256 321 365
#     4  10  21  36  60  91 120 154 217 266 313 353
#     4  11  25  40  59  99 137 165 202 260 339 393
#     4  12  23  38  65  96 130 158 215 273 314 376
#     4  11  23  41  69  93 126 171 217 271 313 384
#     4  10  23  44  63  87 129 174 202 243 327 401
#
# _framework density 22.207159999999998
#
# number of rings (size 3 to 8) (size 9 to 14) (size 15 to 20)
#    0.000    1.333    3.333    4.000    2.333    6.667 
#    0.000    0.000    0.000    6.000    0.000    0.000 
#    0.000    0.000    0.000    0.000    0.000    0.000 
#
# Total GULP energy -594964.143918 kJ/mol
# GULP energy per Si atom -12395.086332 kJ/mol
# Density = 2.215662 g / cm^3
# Si number density = 22.207160 Si / 1000 Ang^3
#
#
#
# Elastic Constant Matrix: (Units=GPa)
#
#
# Indices 1 2 3 4 5 6 
#
# 1 71.2954 11.8938 5.6772 0.0000 0.0000 0.0000
# 2 11.8938 99.9101 10.1744 0.0000 0.0000 0.0000
# 3 5.6772 10.1744 127.6666 0.0000 0.0000 0.0000
# 4 0.0000 0.0000 0.0000 18.2155 0.0000 0.0000
# 5 0.0000 0.0000 0.0000 0.0000 20.0402 0.0000
# 6 0.0000 0.0000 0.0000 0.0000 0.0000 7.8358
#
#
#
# Elastic Compliance Matrix: (Units=1/GPa)
#
#
# Indices 1 2 3 4 5 6 
#
# 1 0.014343 -0.001656 -0.000506 0.000000 0.000000 0.000000
# 2 -0.001656 0.010282 -0.000746 0.000000 0.000000 0.000000
# 3 -0.000506 -0.000746 0.007915 0.000000 0.000000 0.000000
# 4 0.000000 0.000000 0.000000 0.054898 0.000000 0.000000
# 5 0.000000 0.000000 0.000000 0.000000 0.049900 0.000000
# 6 0.000000 0.000000 0.000000 0.000000 0.000000 0.127619
#
#
# Mechanical properties :
#
#
# Convention : Reuss Voigt Hill
#
# Bulk Modulus (GPa) = 37.41887 39.37367 38.39627
# Shear Modulus (GPa) = 17.87761 27.29343 22.58552
#
# Velocity S-wave (km/s) = 2.84040 3.50957 3.19256
# Velocity P-wave (km/s) = 5.25772 5.84734 5.56035
#
# Compressibility (1/GPa) = 0.02672448
#
# Stress axis : x y z
#
# Youngs Moduli (GPa) = 69.72204 97.25659 126.34509
#
# Poissons Ratio (x) = 0.16105 0.06391
# Poissons Ratio (y) = 0.11545 0.09423
# Poissons Ratio (z) = 0.03527 0.07253
#
# Static dielectric constant tensor:
#      x y z
#    x 3.945430 0.000000 0.000000 
#    y 0.000000 3.905050 0.000000 
#    z 0.000000 0.000000 5.349950 
# 
# 
# High freq. dielectric constant tensor:
#      x y z
#    x 1.831100 0.000000 0.000000 
#    y 0.000000 1.863970 0.000000 
#    z 0.000000 0.000000 1.906130 
# 
# From -- ./inp_files/973.got.cif
#   From: 2010.03.12/outbox.cif.g09.slc.cpg/sg61_1_cif.got.tgz:973.got - 2010.04.10 19:05:03.
