data_PCOD8248568
_publ_section_title
;
Structure prediction by ZEFSAII (Michael W. Deem and Ramdas Pophale) SiO2 
 PCOD8248568
Probable space group: P B C N
;
_chemical_formula_sum "Si O2"
_cell_formula_units_Z 40
_cell_length_a 9.146512
_cell_length_b 8.551897
_cell_length_c 22.835650
_cell_angle_alpha 90.000000
_cell_angle_beta 90.000000
_cell_angle_gamma 90.000000
_cell_volume 1786.205195
_symmetry_space_group_name_H-M "P B C N"
_symmetry_group_IT_number 60
_symmetry_cell_setting 'orthorhombic'
loop_
_space_group_symop_operation_xyz
x,y,z
1/2-x,1/2-y,1/2+z
1/2+x,1/2-y,-z
-x,y,1/2-z
-x,-y,-z
1/2+x,1/2+y,1/2-z
1/2-x,1/2+y,z
x,-y,1/2+z
loop_
_atom_site_type_symbol
_atom_site_label
_atom_site_fract_x
_atom_site_fract_y
_atom_site_fract_z
Si Si1 0.943357 0.188658 0.815440
Si Si2 0.267483 0.958356 0.633911
Si Si3 0.045627 0.625070 0.906824
Si Si4 0.394587 0.641781 0.017368
Si Si5 0.311018 0.794179 0.901786
O O1 0.818789 0.316283 0.826078
O O2 0.000000 0.192017 0.750000
O O3 0.076752 0.216152 0.858193
O O4 0.871206 0.023763 0.831261
O O5 0.218428 0.905575 0.568875
O O6 0.401943 0.081867 0.630606
O O7 0.147002 0.760958 0.875801
O O8 0.149072 0.472916 0.915186
O O9 0.990226 0.704873 0.966728
O O10 0.500000 0.500000 0.000000
O O11 0.301912 0.694850 0.961722
#
# Coordination Sequence:
#
# PCOD8248568 Si02
#       5
#     8   8   8   8   8
#     4  11  26  49  72 101 142 189 253 295 358 436
#     4  11  25  48  72 104 142 192 241 305 367 428
#     4  11  26  43  68 102 146 183 235 288 361 438
#     4  12  24  41  72 106 150 187 233 300 371 443
#     4  11  26  41  68 108 141 191 235 293 366 434
#
# _framework density 22.393843
#
# number of rings (size 3 to 8) (size 9 to 14) (size 15 to 20)
#    0.000    0.800    4.000    1.800   11.200    3.200 
#    0.000    1.000    0.000    0.000    0.000    0.000 
#    0.000    0.000    0.000    0.000    0.000    0.000 
#
# Total GULP energy -495718.841060 kJ/mol
# GULP energy per Si atom -12392.971027 kJ/mol
# Density = 2.234287 g / cm^3
# Si number density = 22.393843 Si / 1000 Ang^3
#
#
#
# Elastic Constant Matrix: (Units=GPa)
#
#
# Indices 1 2 3 4 5 6 
#
# 1 120.5387 59.4741 56.5190 0.0000 0.0000 0.0000
# 2 59.4741 78.9359 55.1237 0.0000 0.0000 0.0000
# 3 56.5190 55.1237 132.1905 0.0000 0.0000 0.0000
# 4 0.0000 0.0000 0.0000 29.9409 0.0000 0.0000
# 5 0.0000 0.0000 0.0000 0.0000 31.0577 0.0000
# 6 0.0000 0.0000 0.0000 0.0000 0.0000 45.5630
#
#
#
# Elastic Compliance Matrix: (Units=1/GPa)
#
#
# Indices 1 2 3 4 5 6 
#
# 1 0.013637 -0.008751 -0.002181 0.000000 0.000000 0.000000
# 2 -0.008751 0.023490 -0.006053 0.000000 0.000000 0.000000
# 3 -0.002181 -0.006053 0.011022 0.000000 0.000000 0.000000
# 4 0.000000 0.000000 0.000000 0.033399 0.000000 0.000000
# 5 0.000000 0.000000 0.000000 0.000000 0.032198 0.000000
# 6 0.000000 0.000000 0.000000 0.000000 0.000000 0.021948
#
#
# Mechanical properties :
#
#
# Convention : Reuss Voigt Hill
#
# Bulk Modulus (GPa) = 70.54173 74.87765 72.70969
# Shear Modulus (GPa) = 28.67128 32.01553 30.34340
#
# Velocity S-wave (km/s) = 3.58204 3.78518 3.68501
# Velocity P-wave (km/s) = 6.97688 7.25347 7.11652
#
# Compressibility (1/GPa) = 0.01417601
#
# Stress axis : x y z
#
# Youngs Moduli (GPa) = 73.33107 42.57193 90.72996
#
# Poissons Ratio (x) = 0.37257 0.19789
# Poissons Ratio (y) = 0.64175 0.54923
# Poissons Ratio (z) = 0.15994 0.25771
#
# Static dielectric constant tensor:
#      x y z
#    x 4.275740 0.000000 0.000000 
#    y 0.000000 4.347180 0.000000 
#    z 0.000000 0.000000 4.507150 
# 
# 
# High freq. dielectric constant tensor:
#      x y z
#    x 1.912830 0.000000 0.000000 
#    y 0.000000 1.900830 0.000000 
#    z 0.000000 0.000000 1.839670 
# 
# From -- ./inp_files/23813.got.cif
#   From: 2010.03.12/outbox.cif.g09.slc.cpg/sg60_12_cif.got.tgz:23813.got - 2010.04.10 18:46:24.
