data_PCOD8248478
_publ_section_title
;
Structure prediction by ZEFSAII (Michael W. Deem and Ramdas Pophale) SiO2 
 PCOD8248478
Probable space group: P B C N
;
_chemical_formula_sum "Si O2"
_cell_formula_units_Z 32
_cell_length_a 8.280062
_cell_length_b 10.006734
_cell_length_c 16.785254
_cell_angle_alpha 90.000000
_cell_angle_beta 90.000000
_cell_angle_gamma 90.000000
_cell_volume 1390.765349
_symmetry_space_group_name_H-M "P B C N"
_symmetry_group_IT_number 60
_symmetry_cell_setting 'orthorhombic'
loop_
_space_group_symop_operation_xyz
x,y,z
1/2-x,1/2-y,1/2+z
1/2+x,1/2-y,-z
-x,y,1/2-z
-x,-y,-z
1/2+x,1/2+y,1/2-z
1/2-x,1/2+y,z
x,-y,1/2+z
loop_
_atom_site_type_symbol
_atom_site_label
_atom_site_fract_x
_atom_site_fract_y
_atom_site_fract_z
Si Si1 0.377676 0.821861 0.047746
Si Si2 0.828429 0.040208 0.712709
Si Si3 0.760017 0.424002 0.040413
Si Si4 0.325363 0.718015 0.219807
O O1 0.564339 0.860303 0.056351
O O2 0.305034 0.771752 0.131343
O O3 0.357243 0.694517 0.989715
O O4 0.275881 0.952218 0.021138
O O5 0.825913 0.010778 0.618001
O O6 0.721848 0.171788 0.717204
O O7 0.000000 0.080226 0.750000
O O8 0.734582 0.923013 0.763142
O O9 0.500000 0.669299 0.250000
#
# Coordination Sequence:
#
# PCOD8248478 Si02
#       4
#     8   8   8   8
#     4  11  25  44  71 102 143 185 231 295 346 424
#     4  11  25  43  71  99 137 184 233 289 347 419
#     4  11  25  45  69 105 141 184 235 287 357 417
#     4  11  23  45  65  99 137 183 230 289 345 414
#
# _framework density 23.008913
#
# number of rings (size 3 to 8) (size 9 to 14) (size 15 to 20)
#    0.000    1.000    2.500    3.000    7.000    2.000 
#    0.000    0.000    0.000    0.000    0.000    0.000 
#    0.000    0.000    0.000    0.000    0.000    0.000 
#
# Total GULP energy -396598.780365 kJ/mol
# GULP energy per Si atom -12393.711886 kJ/mol
# Density = 2.295654 g / cm^3
# Si number density = 23.008913 Si / 1000 Ang^3
#
#
#
# Elastic Constant Matrix: (Units=GPa)
#
#
# Indices 1 2 3 4 5 6 
#
# 1 49.7134 27.7111 30.7573 0.0000 0.0000 0.0000
# 2 27.7111 164.4188 47.6913 0.0000 0.0000 0.0000
# 3 30.7573 47.6913 131.0331 0.0000 0.0000 0.0000
# 4 0.0000 0.0000 0.0000 54.9921 0.0000 0.0000
# 5 0.0000 0.0000 0.0000 0.0000 33.6274 0.0000
# 6 0.0000 0.0000 0.0000 0.0000 0.0000 25.5558
#
#
#
# Elastic Compliance Matrix: (Units=1/GPa)
#
#
# Indices 1 2 3 4 5 6 
#
# 1 0.024607 -0.002764 -0.004770 0.000000 0.000000 0.000000
# 2 -0.002764 0.007110 -0.001939 0.000000 0.000000 0.000000
# 3 -0.004770 -0.001939 0.009457 0.000000 0.000000 0.000000
# 4 0.000000 0.000000 0.000000 0.018184 0.000000 0.000000
# 5 0.000000 0.000000 0.000000 0.000000 0.029738 0.000000
# 6 0.000000 0.000000 0.000000 0.000000 0.000000 0.039130
#
#
# Mechanical properties :
#
#
# Convention : Reuss Voigt Hill
#
# Bulk Modulus (GPa) = 44.98718 61.94275 53.46496
# Shear Modulus (GPa) = 32.34528 38.76875 35.55701
#
# Velocity S-wave (km/s) = 3.75343 4.10926 3.93537
# Velocity P-wave (km/s) = 6.19506 7.03522 6.62847
#
# Compressibility (1/GPa) = 0.02222856
#
# Stress axis : x y z
#
# Youngs Moduli (GPa) = 40.63880 140.64120 105.74016
#
# Poissons Ratio (x) = 0.38868 0.50439
# Poissons Ratio (y) = 0.11231 0.20505
# Poissons Ratio (z) = 0.19385 0.27273
#
# Static dielectric constant tensor:
#      x y z
#    x 3.816470 0.000000 0.000000 
#    y 0.000000 4.463540 0.000000 
#    z 0.000000 0.000000 4.044810 
# 
# 
# High freq. dielectric constant tensor:
#      x y z
#    x 1.884230 0.000000 0.000000 
#    y 0.000000 1.944430 0.000000 
#    z 0.000000 0.000000 1.914170 
# 
# From -- ./inp_files/14321.got.cif
#   From: 2010.03.12/outbox.cif.g09.slc.cpg/sg60_8_cif.got.tgz:14321.got - 2010.04.10 18:46:24.
