data_PCOD8248473
_publ_section_title
;
Structure prediction by ZEFSAII (Michael W. Deem and Ramdas Pophale) SiO2 
 PCOD8248473
Probable space group: P B C N
;
_chemical_formula_sum "Si O2"
_cell_formula_units_Z 40
_cell_length_a 9.249988
_cell_length_b 27.032854
_cell_length_c 7.254846
_cell_angle_alpha 90.000000
_cell_angle_beta 90.000000
_cell_angle_gamma 90.000000
_cell_volume 1814.100179
_symmetry_space_group_name_H-M "P B C N"
_symmetry_group_IT_number 60
_symmetry_cell_setting 'orthorhombic'
loop_
_space_group_symop_operation_xyz
x,y,z
1/2-x,1/2-y,1/2+z
1/2+x,1/2-y,-z
-x,y,1/2-z
-x,-y,-z
1/2+x,1/2+y,1/2-z
1/2-x,1/2+y,z
x,-y,1/2+z
loop_
_atom_site_type_symbol
_atom_site_label
_atom_site_fract_x
_atom_site_fract_y
_atom_site_fract_z
Si Si1 0.575831 0.302681 0.936136
Si Si2 0.500000 0.865363 0.250000
Si Si3 0.608336 0.034018 0.390535
Si Si4 0.000000 0.878182 0.250000
Si Si5 0.729717 0.062357 0.748863
Si Si6 0.586623 0.794414 0.929281
O O1 0.500000 0.321680 0.750000
O O2 0.741804 0.287188 0.892187
O O3 0.566323 0.346029 0.085650
O O4 0.485567 0.256993 0.014202
O O5 0.386572 0.902237 0.149645
O O6 0.425525 0.832143 0.403475
O O7 0.500000 0.063562 0.250000
O O8 0.699353 0.069665 0.526241
O O9 0.500000 0.000000 0.500000
O O10 0.719640 0.996061 0.290387
O O11 0.879483 0.916168 0.320069
O O12 0.500000 0.814072 0.750000
#
# Coordination Sequence:
#
# PCOD8248473 Si02
#       6
#     8   4   8   4   8   8
#     4  12  27  47  70 102 142 189 233 289 352 406
#     4  12  24  44  70 104 136 182 244 274 342 416
#     4   9  18  40  69  97 129 171 224 283 348 409
#     4  12  28  48  66 102 150 176 238 288 344 422
#     4  11  23  44  70 101 135 182 224 297 345 417
#     4  12  27  44  73 102 141 189 231 290 351 411
#
# _framework density 22.049498
#
# number of rings (size 3 to 8) (size 9 to 14) (size 15 to 20)
#    0.000    0.800    7.000    1.200    5.600    1.600 
#    7.200    0.000    0.000    0.000    0.000    0.000 
#    0.000    0.000    0.000    0.000    0.000    0.000 
#
# Total GULP energy -495650.870794 kJ/mol
# GULP energy per Si atom -12391.271770 kJ/mol
# Density = 2.199931 g / cm^3
# Si number density = 22.049498 Si / 1000 Ang^3
#
#
#
# Elastic Constant Matrix: (Units=GPa)
#
#
# Indices 1 2 3 4 5 6 
#
# 1 165.7933 28.1260 18.4631 0.0000 0.0000 0.0000
# 2 28.1260 71.5224 4.1447 0.0000 0.0000 0.0000
# 3 18.4631 4.1447 83.3364 0.0000 0.0000 0.0000
# 4 0.0000 0.0000 0.0000 22.8081 0.0000 0.0000
# 5 0.0000 0.0000 0.0000 0.0000 34.4491 0.0000
# 6 0.0000 0.0000 0.0000 0.0000 0.0000 53.2331
#
#
#
# Elastic Compliance Matrix: (Units=1/GPa)
#
#
# Indices 1 2 3 4 5 6 
#
# 1 0.006608 -0.002521 -0.001339 0.000000 0.000000 0.000000
# 2 -0.002521 0.014984 -0.000187 0.000000 0.000000 0.000000
# 3 -0.001339 -0.000187 0.012305 0.000000 0.000000 0.000000
# 4 0.000000 0.000000 0.000000 0.043844 0.000000 0.000000
# 5 0.000000 0.000000 0.000000 0.000000 0.029028 0.000000
# 6 0.000000 0.000000 0.000000 0.000000 0.000000 0.018785
#
#
# Mechanical properties :
#
#
# Convention : Reuss Voigt Hill
#
# Bulk Modulus (GPa) = 38.75263 46.90218 42.82740
# Shear Modulus (GPa) = 35.14940 40.09263 37.62102
#
# Velocity S-wave (km/s) = 3.99697 4.26878 4.13511
# Velocity P-wave (km/s) = 6.23814 6.75382 6.50110
#
# Compressibility (1/GPa) = 0.02580470
#
# Stress axis : x y z
#
# Youngs Moduli (GPa) = 151.32285 66.73836 81.26492
#
# Poissons Ratio (x) = 0.16826 0.10879
# Poissons Ratio (y) = 0.38151 0.01517
# Poissons Ratio (z) = 0.20258 0.01246
#
# Static dielectric constant tensor:
#      x y z
#    x 3.884680 0.000000 0.000000 
#    y 0.000000 4.263370 0.000000 
#    z 0.000000 0.000000 4.601680 
# 
# 
# High freq. dielectric constant tensor:
#      x y z
#    x 1.866840 0.000000 0.000000 
#    y 0.000000 1.862560 0.000000 
#    z 0.000000 0.000000 1.868960 
# 
# From -- ./inp_files/4039.got.cif
#   From: 2010.03.12/outbox.cif.g09.slc.cpg/sg60_3_cif.got.tgz:4039.got - 2010.04.10 18:46:24.
