data_PCOD8248358
_publ_section_title
;
Structure prediction by ZEFSAII (Michael W. Deem and Ramdas Pophale) SiO2 
 PCOD8248358
Probable space group: P B C N
;
_chemical_formula_sum "Si O2"
_cell_formula_units_Z 64
_cell_length_a 24.104531
_cell_length_b 14.048872
_cell_length_c 8.935466
_cell_angle_alpha 90.000000
_cell_angle_beta 90.000000
_cell_angle_gamma 90.000000
_cell_volume 3025.919347
_symmetry_space_group_name_H-M "P B C N"
_symmetry_group_IT_number 60
_symmetry_cell_setting 'orthorhombic'
loop_
_space_group_symop_operation_xyz
x,y,z
1/2-x,1/2-y,1/2+z
1/2+x,1/2-y,-z
-x,y,1/2-z
-x,-y,-z
1/2+x,1/2+y,1/2-z
1/2-x,1/2+y,z
x,-y,1/2+z
loop_
_atom_site_type_symbol
_atom_site_label
_atom_site_fract_x
_atom_site_fract_y
_atom_site_fract_z
Si Si1 0.155112 0.094171 0.837008
Si Si2 0.773257 0.405150 0.311410
Si Si3 0.772754 0.598618 0.167585
Si Si4 0.378658 0.202359 0.783098
Si Si5 0.845944 0.100542 0.306399
Si Si6 0.441566 0.107488 0.549555
Si Si7 0.119973 0.705768 0.306408
Si Si8 0.564961 0.885107 0.959439
O O1 0.215299 0.116501 0.769016
O O2 0.114172 0.180311 0.789472
O O3 0.130890 0.996705 0.767833
O O4 0.158647 0.087163 0.016077
O O5 0.796971 0.502948 0.242658
O O6 0.765278 0.413241 0.489517
O O7 0.817091 0.323862 0.270919
O O8 0.714085 0.624778 0.239253
O O9 0.815498 0.680332 0.216388
O O10 0.386978 0.313778 0.742824
O O11 0.428789 0.134744 0.720782
O O12 0.388242 0.179251 0.957749
O O13 0.395030 0.173605 0.473373
O O14 0.502405 0.140724 0.503088
O O15 0.427551 0.997705 0.518413
O O16 0.075354 0.646095 0.210626
#
# Coordination Sequence:
#
# PCOD8248358 Si02
#       8
#     8   8   8   8   8   8   8   8
#     4  11  24  42  63  91 130 165 211 258 302 363
#     4  11  22  37  61  94 132 164 204 250 307 374
#     4  11  22  37  61  94 132 164 204 250 307 374
#     4  12  24  39  66  94 126 167 208 253 308 374
#     4  11  24  42  63  91 130 165 211 258 302 363
#     4  11  22  48  60  99 125 161 202 260 318 365
#     4  12  24  39  66  94 126 167 208 253 308 374
#     4  11  26  38  72  91 129 161 204 254 316 385
#
# _framework density 21.150597000000001
#
# number of rings (size 3 to 8) (size 9 to 14) (size 15 to 20)
#    0.000    0.750    2.500    6.750    7.000    2.000 
#    0.000    0.000    0.000    4.500    0.000    0.000 
#    0.000    0.000    0.000    0.000    0.000    0.000 
#
# Total GULP energy -793509.512223 kJ/mol
# GULP energy per Si atom -12398.586128 kJ/mol
# Density = 2.110246 g / cm^3
# Si number density = 21.150597 Si / 1000 Ang^3
#
#
#
# Elastic Constant Matrix: (Units=GPa)
#
#
# Indices 1 2 3 4 5 6 
#
# 1 51.4940 40.9330 19.5958 0.0000 0.0000 0.0000
# 2 40.9330 148.8303 39.1233 0.0000 0.0000 0.0000
# 3 19.5958 39.1233 105.1462 0.0000 0.0000 0.0000
# 4 0.0000 0.0000 0.0000 32.5368 0.0000 0.0000
# 5 0.0000 0.0000 0.0000 0.0000 25.9830 0.0000
# 6 0.0000 0.0000 0.0000 0.0000 0.0000 24.7089
#
#
#
# Elastic Compliance Matrix: (Units=1/GPa)
#
#
# Indices 1 2 3 4 5 6 
#
# 1 0.025372 -0.006357 -0.002363 0.000000 0.000000 0.000000
# 2 -0.006357 0.009040 -0.002179 0.000000 0.000000 0.000000
# 3 -0.002363 -0.002179 0.010762 0.000000 0.000000 0.000000
# 4 0.000000 0.000000 0.000000 0.030734 0.000000 0.000000
# 5 0.000000 0.000000 0.000000 0.000000 0.038487 0.000000
# 6 0.000000 0.000000 0.000000 0.000000 0.000000 0.040471
#
#
# Mechanical properties :
#
#
# Convention : Reuss Voigt Hill
#
# Bulk Modulus (GPa) = 42.77914 56.08608 49.43261
# Shear Modulus (GPa) = 27.10660 30.36697 28.73679
#
# Velocity S-wave (km/s) = 3.58383 3.79324 3.69002
# Velocity P-wave (km/s) = 6.11514 6.76461 6.44806
#
# Compressibility (1/GPa) = 0.02337588
#
# Stress axis : x y z
#
# Youngs Moduli (GPa) = 39.41318 110.61679 92.92157
#
# Poissons Ratio (x) = 0.70318 0.21959
# Poissons Ratio (y) = 0.25055 0.20248
# Poissons Ratio (z) = 0.09314 0.24103
#
# Static dielectric constant tensor:
#      x y z
#    x 3.462110 0.000000 0.000000 
#    y 0.000000 3.920940 0.000000 
#    z 0.000000 0.000000 3.937900 
# 
# 
# High freq. dielectric constant tensor:
#      x y z
#    x 1.801760 0.000000 0.000000 
#    y 0.000000 1.832290 0.000000 
#    z 0.000000 0.000000 1.851080 
# 
# From -- ./inp_files/7962.got.cif
#   From: 2010.03.12/outbox.cif.g09.slc.cpg/sg60_4_cif.got.tgz:7962.got - 2010.04.10 18:46:24.
