data_PCOD8248622
_publ_section_title
;
Structure prediction by ZEFSAII (Michael W. Deem and Ramdas Pophale) SiO2 
 PCOD8248622
Probable space group: P B C N
;
_chemical_formula_sum "Si O2"
_cell_formula_units_Z 24
_cell_length_a 12.910363
_cell_length_b 12.134862
_cell_length_c 6.912972
_cell_angle_alpha 90.000000
_cell_angle_beta 90.000000
_cell_angle_gamma 90.000000
_cell_volume 1083.024031
_symmetry_space_group_name_H-M "P B C N"
_symmetry_group_IT_number 60
_symmetry_cell_setting 'orthorhombic'
loop_
_space_group_symop_operation_xyz
x,y,z
1/2-x,1/2-y,1/2+z
1/2+x,1/2-y,-z
-x,y,1/2-z
-x,-y,-z
1/2+x,1/2+y,1/2-z
1/2-x,1/2+y,z
x,-y,1/2+z
loop_
_atom_site_type_symbol
_atom_site_label
_atom_site_fract_x
_atom_site_fract_y
_atom_site_fract_z
Si Si1 0.604072 0.761226 0.152853
Si Si2 0.785633 0.867786 0.974421
Si Si3 0.604468 0.581613 0.839328
O O1 0.500000 0.810307 0.250000
O O2 0.662896 0.853629 0.023561
O O3 0.683166 0.723668 0.319425
O O4 0.573599 0.656167 0.021815
O O5 0.847623 0.843036 0.171674
O O6 0.810925 0.990481 0.900161
O O7 0.500000 0.525605 0.750000
#
# Coordination Sequence:
#
# PCOD8248622 Si02
#       3
#     8   8   8
#     4  12  25  42  68 103 137 179 229 282 343 405
#     4  12  24  40  68 101 138 173 229 289 337 396
#     4  12  23  41  71 102 132 177 235 282 333 406
#
# _framework density 22.160174999999999
#
# number of rings (size 3 to 8) (size 9 to 14) (size 15 to 20)
#    0.000    0.000   10.000    2.000    0.000    0.000 
#    0.000    1.667    0.000    0.000    0.000    0.000 
#    0.000    0.000    0.000    0.000    0.000    0.000 
#
# Total GULP energy -297537.055846 kJ/mol
# GULP energy per Si atom -12397.377327 kJ/mol
# Density = 2.210974 g / cm^3
# Si number density = 22.160175 Si / 1000 Ang^3
#
#
#
# Elastic Constant Matrix: (Units=GPa)
#
#
# Indices 1 2 3 4 5 6 
#
# 1 159.9094 63.1151 57.7345 0.0000 0.0000 0.0000
# 2 63.1151 72.1526 30.4624 0.0000 0.0000 0.0000
# 3 57.7345 30.4624 122.7084 0.0000 0.0000 0.0000
# 4 0.0000 0.0000 0.0000 18.5637 0.0000 0.0000
# 5 0.0000 0.0000 0.0000 0.0000 54.1727 0.0000
# 6 0.0000 0.0000 0.0000 0.0000 0.0000 34.3546
#
#
#
# Elastic Compliance Matrix: (Units=1/GPa)
#
#
# Indices 1 2 3 4 5 6 
#
# 1 0.010427 -0.007875 -0.002951 0.000000 0.000000 0.000000
# 2 -0.007875 0.021430 -0.001615 0.000000 0.000000 0.000000
# 3 -0.002951 -0.001615 0.009939 0.000000 0.000000 0.000000
# 4 0.000000 0.000000 0.000000 0.053869 0.000000 0.000000
# 5 0.000000 0.000000 0.000000 0.000000 0.018459 0.000000
# 6 0.000000 0.000000 0.000000 0.000000 0.000000 0.029108
#
#
# Mechanical properties :
#
#
# Convention : Reuss Voigt Hill
#
# Bulk Modulus (GPa) = 59.12227 73.04380 66.08303
# Shear Modulus (GPa) = 28.77656 34.98211 31.87933
#
# Velocity S-wave (km/s) = 3.60748 3.97747 3.79699
# Velocity P-wave (km/s) = 6.63998 7.35711 7.00772
#
# Compressibility (1/GPa) = 0.01691410
#
# Stress axis : x y z
#
# Youngs Moduli (GPa) = 95.90179 46.66322 100.61677
#
# Poissons Ratio (x) = 0.36749 0.29692
# Poissons Ratio (y) = 0.75526 0.16246
# Poissons Ratio (z) = 0.28301 0.07535
#
# Static dielectric constant tensor:
#      x y z
#    x 4.061640 0.000000 0.000000 
#    y 0.000000 3.416930 0.000000 
#    z 0.000000 0.000000 4.593120 
# 
# 
# High freq. dielectric constant tensor:
#      x y z
#    x 1.867670 0.000000 0.000000 
#    y 0.000000 1.822490 0.000000 
#    z 0.000000 0.000000 1.908800 
# 
# From -- ./inp_files/998.got.cif
#   From: 2010.03.12/outbox.cif.g09.slc.cpg/sg60_1_cif.got.tgz:998.got - 2010.04.10 18:46:24.
