data_PCOD8248275
_publ_section_title
;
Structure prediction by ZEFSAII (Michael W. Deem and Ramdas Pophale) SiO2 
 PCOD8248275
Probable space group: P B C N
;
_chemical_formula_sum "Si O2"
_cell_formula_units_Z 64
_cell_length_a 18.992272
_cell_length_b 20.095741
_cell_length_c 8.729071
_cell_angle_alpha 90.000000
_cell_angle_beta 90.000000
_cell_angle_gamma 90.000000
_cell_volume 3331.570226
_symmetry_space_group_name_H-M "P B C N"
_symmetry_group_IT_number 60
_symmetry_cell_setting 'orthorhombic'
loop_
_space_group_symop_operation_xyz
x,y,z
1/2-x,1/2-y,1/2+z
1/2+x,1/2-y,-z
-x,y,1/2-z
-x,-y,-z
1/2+x,1/2+y,1/2-z
1/2-x,1/2+y,z
x,-y,1/2+z
loop_
_atom_site_type_symbol
_atom_site_label
_atom_site_fract_x
_atom_site_fract_y
_atom_site_fract_z
Si Si1 0.216599 0.824200 0.357192
Si Si2 0.047454 0.622445 0.875941
Si Si3 0.444074 0.853724 0.857566
Si Si4 0.190846 0.442236 0.445217
Si Si5 0.069130 0.767878 0.843971
Si Si6 0.925542 0.209830 0.793000
Si Si7 0.198491 0.420119 0.801045
Si Si8 0.789695 0.198001 0.282237
O O1 0.261362 0.892146 0.344963
O O2 0.139232 0.832530 0.278838
O O3 0.215561 0.806736 0.535765
O O4 0.256234 0.767819 0.263288
O O5 0.106888 0.570469 0.925490
O O6 0.085488 0.689582 0.818062
O O7 0.000000 0.584930 0.750000
O O8 0.987719 0.653346 0.987574
O O9 0.500000 0.891693 0.750000
O O10 0.421965 0.783020 0.783914
O O11 0.375882 0.898566 0.871941
O O12 0.200528 0.437597 0.624132
O O13 0.217900 0.514649 0.396049
O O14 0.129445 0.808732 0.760111
O O15 0.000000 0.790018 0.750000
O O16 0.074400 0.785516 0.023585
O O17 0.000000 0.175201 0.750000
O O18 0.252587 0.359627 0.818256
#
# Coordination Sequence:
#
# PCOD8248275 Si02
#       8
#     8   8   8   8   8   8   8   8
#     4  11  23  38  63  89 121 158 205 256 307 364
#     4  11  23  36  57  89 123 162 206 247 290 364
#     4  11  20  37  58  84 125 163 202 245 297 352
#     4  11  25  43  57  86 122 164 209 249 297 363
#     4  11  21  36  59  91 124 151 199 252 304 364
#     4  11  20  36  61  89 121 156 195 250 312 359
#     4  11  25  41  60  83 122 166 206 249 300 358
#     4  11  23  38  61  90 120 158 204 257 307 360
#
# _framework density 19.210162
#
# number of rings (size 3 to 8) (size 9 to 14) (size 15 to 20)
#    0.000    1.000    6.250    1.500    3.500    3.000 
#    0.000    0.000    0.000    0.750    0.000    5.250 
#    0.000    0.000    0.000    0.000    0.000    0.000 
#
# Total GULP energy -792959.912270 kJ/mol
# GULP energy per Si atom -12389.998629 kJ/mol
# Density = 1.916644 g / cm^3
# Si number density = 19.210162 Si / 1000 Ang^3
#
#
#
# Elastic Constant Matrix: (Units=GPa)
#
#
# Indices 1 2 3 4 5 6 
#
# 1 117.9615 37.1125 15.6933 0.0000 0.0000 0.0000
# 2 37.1125 68.4092 6.8973 0.0000 0.0000 0.0000
# 3 15.6933 6.8973 52.5695 0.0000 0.0000 0.0000
# 4 0.0000 0.0000 0.0000 75.0818 0.0000 0.0000
# 5 0.0000 0.0000 0.0000 0.0000 38.0258 0.0000
# 6 0.0000 0.0000 0.0000 0.0000 0.0000 17.5962
#
#
#
# Elastic Compliance Matrix: (Units=1/GPa)
#
#
# Indices 1 2 3 4 5 6 
#
# 1 0.010518 -0.005462 -0.002423 0.000000 0.000000 0.000000
# 2 -0.005462 0.017650 -0.000685 0.000000 0.000000 0.000000
# 3 -0.002423 -0.000685 0.019836 0.000000 0.000000 0.000000
# 4 0.000000 0.000000 0.000000 0.013319 0.000000 0.000000
# 5 0.000000 0.000000 0.000000 0.000000 0.026298 0.000000
# 6 0.000000 0.000000 0.000000 0.000000 0.000000 0.056831
#
#
# Mechanical properties :
#
#
# Convention : Reuss Voigt Hill
#
# Bulk Modulus (GPa) = 32.40106 39.81627 36.10867
# Shear Modulus (GPa) = 29.09009 38.08989 33.58999
#
# Velocity S-wave (km/s) = 3.89563 4.45769 4.18611
# Velocity P-wave (km/s) = 6.09408 6.87505 6.49631
#
# Compressibility (1/GPa) = 0.03086318
#
# Stress axis : x y z
#
# Youngs Moduli (GPa) = 95.07409 56.65689 50.41398
#
# Poissons Ratio (x) = 0.30945 0.12217
# Poissons Ratio (y) = 0.51928 0.03455
# Poissons Ratio (z) = 0.23039 0.03882
#
# Static dielectric constant tensor:
#      x y z
#    x 4.400610 0.000000 0.000000 
#    y 0.000000 3.355170 0.000000 
#    z 0.000000 0.000000 3.570310 
# 
# 
# High freq. dielectric constant tensor:
#      x y z
#    x 1.758990 0.000000 0.000000 
#    y 0.000000 1.707810 0.000000 
#    z 0.000000 0.000000 1.763280 
# 
# From -- ./inp_files/7047.got.cif
#   From: 2010.03.12/outbox.cif.g09.slc.cpg/sg60_4_cif.got.tgz:7047.got - 2010.04.10 18:46:24.
