data_PCOD8248980
_publ_section_title
;
Structure prediction by ZEFSAII (Michael W. Deem and Ramdas Pophale) SiO2 
 PCOD8248980
Probable space group: P B C A
;
_chemical_formula_sum "Si O2"
_cell_formula_units_Z 64
_cell_length_a 22.520113
_cell_length_b 5.453070
_cell_length_c 23.258010
_cell_angle_alpha 90.000000
_cell_angle_beta 90.000000
_cell_angle_gamma 90.000000
_cell_volume 2856.170906
_symmetry_space_group_name_H-M "P B C A"
_symmetry_group_IT_number 61
_symmetry_cell_setting 'orthorhombic'
loop_
_space_group_symop_operation_xyz
x,y,z
1/2-x,-y,1/2+z
1/2+x,1/2-y,-z
-x,1/2+y,1/2-z
-x,-y,-z
1/2+x,y,1/2-z
1/2-x,1/2+y,z
x,1/2-y,1/2+z
loop_
_atom_site_type_symbol
_atom_site_label
_atom_site_fract_x
_atom_site_fract_y
_atom_site_fract_z
Si Si1 0.890283 0.649110 0.962063
Si Si2 0.999677 0.306106 0.113049
Si Si3 0.528809 0.384152 0.769376
Si Si4 0.197594 0.799804 0.480296
Si Si5 0.900719 0.619486 0.167603
Si Si6 0.726794 0.242081 0.412455
Si Si7 0.778865 0.041115 0.637571
Si Si8 0.398689 0.978896 0.430653
O O1 0.948183 0.578549 0.925564
O O2 0.843679 0.802426 0.921431
O O3 0.855377 0.405782 0.980150
O O4 0.912605 0.786382 0.019045
O O5 0.031178 0.135311 0.161546
O O6 0.963664 0.521286 0.143794
O O7 0.954657 0.160343 0.071650
O O8 0.512856 0.665850 0.754834
O O9 0.591673 0.334141 0.736275
O O10 0.247219 0.688812 0.523305
O O11 0.165780 0.592330 0.442318
O O12 0.224573 0.986955 0.432504
O O13 0.847295 0.429758 0.157301
O O14 0.888359 0.866614 0.132566
O O15 0.743396 0.504090 0.381111
O O16 0.753501 0.783912 0.662303
#
# Coordination Sequence:
#
# PCOD8248980 Si02
#       8
#     8   8   8   8   8   8   8   8
#     4  11  23  36  57  91 132 166 207 259 317 392
#     4  11  24  40  62  92 127 174 211 259 324 384
#     4  10  22  44  68  89 118 164 214 256 308 379
#     4  11  22  35  57  86 129 170 211 254 317 386
#     4  11  24  40  64  91 129 165 217 271 327 383
#     4  10  20  37  56  80 120 167 212 244 298 369
#     4  12  24  37  63  93 127 163 211 267 328 382
#     4  12  20  39  56  92 130 165 203 263 327 385
#
# _framework density 22.407623999999998
#
# number of rings (size 3 to 8) (size 9 to 14) (size 15 to 20)
#    0.000    1.000    5.000    2.625    0.000    3.000 
#    0.000    0.000    0.000    3.000    0.000    0.000 
#    0.000    0.000    0.000    0.000    0.000    0.000 
#
# Total GULP energy -793224.898778 kJ/mol
# GULP energy per Si atom -12394.139043 kJ/mol
# Density = 2.235662 g / cm^3
# Si number density = 22.407624 Si / 1000 Ang^3
#
#
#
# Elastic Constant Matrix: (Units=GPa)
#
#
# Indices 1 2 3 4 5 6 
#
# 1 124.8980 23.3231 28.3744 0.0000 0.0000 0.0000
# 2 23.3231 95.9503 1.3116 0.0000 0.0000 0.0000
# 3 28.3744 1.3116 35.2853 0.0000 0.0000 0.0000
# 4 0.0000 0.0000 0.0000 17.2889 0.0000 0.0000
# 5 0.0000 0.0000 0.0000 0.0000 19.5120 0.0000
# 6 0.0000 0.0000 0.0000 0.0000 0.0000 29.7138
#
#
#
# Elastic Compliance Matrix: (Units=1/GPa)
#
#
# Indices 1 2 3 4 5 6 
#
# 1 0.010319 -0.002396 -0.008209 0.000000 0.000000 0.000000
# 2 -0.002396 0.010984 0.001518 0.000000 0.000000 0.000000
# 3 -0.008209 0.001518 0.034885 0.000000 0.000000 0.000000
# 4 0.000000 0.000000 0.000000 0.057840 0.000000 0.000000
# 5 0.000000 0.000000 0.000000 0.000000 0.051251 0.000000
# 6 0.000000 0.000000 0.000000 0.000000 0.000000 0.033654
#
#
# Mechanical properties :
#
#
# Convention : Reuss Voigt Hill
#
# Bulk Modulus (GPa) = 26.30546 40.23907 33.27227
# Shear Modulus (GPa) = 21.76022 26.84458 24.30240
#
# Velocity S-wave (km/s) = 3.11964 3.46498 3.29684
# Velocity P-wave (km/s) = 4.97405 5.83137 5.41969
#
# Compressibility (1/GPa) = 0.03801492
#
# Stress axis : x y z
#
# Youngs Moduli (GPa) = 96.91032 91.04381 28.66568
#
# Poissons Ratio (x) = 0.21814 0.23531
# Poissons Ratio (y) = 0.23220 -0.04353
# Poissons Ratio (z) = 0.79551 -0.13825
#
# Static dielectric constant tensor:
#      x y z
#    x 4.219470 0.000000 0.000000 
#    y 0.000000 4.046120 0.000000 
#    z 0.000000 0.000000 3.851930 
# 
# 
# High freq. dielectric constant tensor:
#      x y z
#    x 1.885690 0.000000 0.000000 
#    y 0.000000 1.892070 0.000000 
#    z 0.000000 0.000000 1.833500 
# 
# From -- ./inp_files/11173.got.cif
#   From: 2010.03.12/outbox.cif.g09.slc.cpg/sg61_6_cif.got.tgz:11173.got - 2010.04.10 19:05:03.
