data_PCOD8248721
_publ_section_title
;
Structure prediction by ZEFSAII (Michael W. Deem and Ramdas Pophale) SiO2 
 PCOD8248721
Probable space group: P B C A
;
_chemical_formula_sum "Si O2"
_cell_formula_units_Z 64
_cell_length_a 22.086393
_cell_length_b 5.186905
_cell_length_c 32.865638
_cell_angle_alpha 90.000000
_cell_angle_beta 90.000000
_cell_angle_gamma 90.000000
_cell_volume 3765.088222
_symmetry_space_group_name_H-M "P B C A"
_symmetry_group_IT_number 61
_symmetry_cell_setting 'orthorhombic'
loop_
_space_group_symop_operation_xyz
x,y,z
1/2-x,-y,1/2+z
1/2+x,1/2-y,-z
-x,1/2+y,1/2-z
-x,-y,-z
1/2+x,y,1/2-z
1/2-x,1/2+y,z
x,1/2-y,1/2+z
loop_
_atom_site_type_symbol
_atom_site_label
_atom_site_fract_x
_atom_site_fract_y
_atom_site_fract_z
Si Si1 0.212989 0.965180 0.364538
Si Si2 0.973997 0.963865 0.300193
Si Si3 0.888504 0.497768 0.070853
Si Si4 0.910124 0.997913 0.026989
Si Si5 0.078201 0.536351 0.738441
Si Si6 0.954034 0.496496 0.439980
Si Si7 0.523221 0.496165 0.396047
Si Si8 0.211555 0.518347 0.770011
O O1 0.238777 0.685278 0.375695
O O2 0.152554 0.010259 0.389542
O O3 0.195236 0.984323 0.317483
O O4 0.943753 0.688584 0.291564
O O5 0.980539 0.001020 0.347858
O O6 0.040966 0.980105 0.280648
O O7 0.931861 0.187606 0.282219
O O8 0.875591 0.744070 0.042494
O O9 0.956542 0.495859 0.086070
O O10 0.874555 0.245681 0.043999
O O11 0.978197 0.998088 0.043233
O O12 0.908293 0.003302 0.978058
O O13 0.149136 0.503707 0.745787
O O14 0.941283 0.745321 0.412075
O O15 0.941362 0.246471 0.412362
O O16 0.252281 0.274634 0.757750
#
# Coordination Sequence:
#
# PCOD8248721 Si02
#       8
#     8   8   8   8   8   8   8   8
#     4  10  20  32  46  67  94 122 156 196 228 261
#     4  10  20  32  49  71 100 133 158 194 241 293
#     4  10  18  29  46  65  93 127 157 184 222 279
#     4   9  17  28  43  65  91 123 151 179 220 261
#     4  10  20  34  49  70 100 129 162 197 238 292
#     4   9  17  28  43  65  95 120 148 186 216 263
#     4  10  18  29  46  68  94 126 156 184 228 279
#     4  10  20  34  52  71  95 128 164 202 239 278
#
# _framework density 16.998275
#
# number of rings (size 3 to 8) (size 9 to 14) (size 15 to 20)
#    0.000    2.250    0.000    3.750    0.000    3.000 
#    0.000    7.500    0.000    0.000    0.000    0.000 
#    0.000   70.000    0.000    0.000    0.000    0.000 
#
# Total GULP energy -793685.881137 kJ/mol
# GULP energy per Si atom -12401.341893 kJ/mol
# Density = 1.695959 g / cm^3
# Si number density = 16.998275 Si / 1000 Ang^3
#
#
#
# Elastic Constant Matrix: (Units=GPa)
#
#
# Indices 1 2 3 4 5 6 
#
# 1 45.9130 19.4507 6.4174 0.0000 0.0000 0.0000
# 2 19.4507 120.3824 39.3850 0.0000 0.0000 0.0000
# 3 6.4174 39.3850 86.7450 0.0000 0.0000 0.0000
# 4 0.0000 0.0000 0.0000 21.9031 0.0000 0.0000
# 5 0.0000 0.0000 0.0000 0.0000 24.2702 0.0000
# 6 0.0000 0.0000 0.0000 0.0000 0.0000 13.3779
#
#
#
# Elastic Compliance Matrix: (Units=1/GPa)
#
#
# Indices 1 2 3 4 5 6 
#
# 1 0.023381 -0.003772 -0.000017 0.000000 0.000000 0.000000
# 2 -0.003772 0.010365 -0.004427 0.000000 0.000000 0.000000
# 3 -0.000017 -0.004427 0.013539 0.000000 0.000000 0.000000
# 4 0.000000 0.000000 0.000000 0.045656 0.000000 0.000000
# 5 0.000000 0.000000 0.000000 0.000000 0.041203 0.000000
# 6 0.000000 0.000000 0.000000 0.000000 0.000000 0.074750
#
#
# Mechanical properties :
#
#
# Convention : Reuss Voigt Hill
#
# Bulk Modulus (GPa) = 32.41214 42.61629 37.51421
# Shear Modulus (GPa) = 21.22154 24.42939 22.82547
#
# Velocity S-wave (km/s) = 3.53718 3.79511 3.66841
# Velocity P-wave (km/s) = 5.98260 6.65802 6.32932
#
# Compressibility (1/GPa) = 0.03085264
#
# Stress axis : x y z
#
# Youngs Moduli (GPa) = 42.77020 96.48180 73.85953
#
# Poissons Ratio (x) = 0.36394 0.00126
# Poissons Ratio (y) = 0.16134 0.32696
# Poissons Ratio (z) = 0.00073 0.42711
#
# Static dielectric constant tensor:
#      x y z
#    x 2.766650 0.000000 0.000000 
#    y 0.000000 3.589090 0.000000 
#    z 0.000000 0.000000 3.123180 
# 
# 
# High freq. dielectric constant tensor:
#      x y z
#    x 1.611280 0.000000 0.000000 
#    y 0.000000 1.682590 0.000000 
#    z 0.000000 0.000000 1.650250 
# 
# From -- ./inp_files/11840.got.cif
#   From: 2010.03.12/outbox.cif.g09.slc.cpg/sg61_6_cif.got.tgz:11840.got - 2010.04.10 19:05:03.
