data_PCOD8248097
_publ_section_title
;
Structure prediction by ZEFSAII (Michael W. Deem and Ramdas Pophale) SiO2 
 PCOD8248097
Probable space group: P B C N
;
_chemical_formula_sum "Si O2"
_cell_formula_units_Z 48
_cell_length_a 7.977759
_cell_length_b 16.850510
_cell_length_c 16.565334
_cell_angle_alpha 90.000000
_cell_angle_beta 90.000000
_cell_angle_gamma 90.000000
_cell_volume 2226.866383
_symmetry_space_group_name_H-M "P B C N"
_symmetry_group_IT_number 60
_symmetry_cell_setting 'orthorhombic'
loop_
_space_group_symop_operation_xyz
x,y,z
1/2-x,1/2-y,1/2+z
1/2+x,1/2-y,-z
-x,y,1/2-z
-x,-y,-z
1/2+x,1/2+y,1/2-z
1/2-x,1/2+y,z
x,-y,1/2+z
loop_
_atom_site_type_symbol
_atom_site_label
_atom_site_fract_x
_atom_site_fract_y
_atom_site_fract_z
Si Si1 0.608636 0.079775 0.990695
Si Si2 0.936905 0.046565 0.078782
Si Si3 0.729344 0.347681 0.331860
Si Si4 0.090316 0.791918 0.604199
Si Si5 0.832704 0.308521 0.033152
Si Si6 0.635856 0.395583 0.160992
O O1 0.758557 0.083591 0.055015
O O2 0.678925 0.096419 0.898779
O O3 0.485128 0.151140 0.015657
O O4 0.500000 0.000000 0.000000
O O5 0.070788 0.112861 0.111310
O O6 0.921231 0.987169 0.154234
O O7 0.000000 0.000000 0.000000
O O8 0.815235 0.259084 0.326067
O O9 0.742706 0.385762 0.242793
O O10 0.529309 0.339897 0.347687
O O11 0.201319 0.769099 0.526427
O O12 0.902092 0.760202 0.591507
O O13 0.752848 0.378472 0.085568
#
# Coordination Sequence:
#
# PCOD8248097 Si02
#       6
#     8   8   8   8   8   8
#     4  11  20  36  63 102 130 170 224 279 337 412
#     4  12  21  40  68  99 130 172 233 290 337 407
#     4  10  24  40  65  93 133 179 219 276 354 411
#     4  11  22  38  64  98 130 172 229 277 341 415
#     4  11  21  37  65  95 130 167 223 280 327 409
#     4  11  22  43  65  96 136 177 225 282 352 407
#
# _framework density 21.554952
#
# number of rings (size 3 to 8) (size 9 to 14) (size 15 to 20)
#    0.000    1.000    5.000    3.000    0.000    2.667 
#    0.000    3.333    0.000    0.000    0.000    0.000 
#    0.000    0.000    0.000    0.000    0.000    0.000 
#
# Total GULP energy -594705.355732 kJ/mol
# GULP energy per Si atom -12389.694911 kJ/mol
# Density = 2.150589 g / cm^3
# Si number density = 21.554952 Si / 1000 Ang^3
#
#
#
# Elastic Constant Matrix: (Units=GPa)
#
#
# Indices 1 2 3 4 5 6 
#
# 1 89.3600 35.3879 24.8145 0.0000 0.0000 0.0000
# 2 35.3879 129.8870 37.4959 0.0000 0.0000 0.0000
# 3 24.8145 37.4959 80.5573 0.0000 0.0000 0.0000
# 4 0.0000 0.0000 0.0000 30.1200 0.0000 0.0000
# 5 0.0000 0.0000 0.0000 0.0000 34.5663 0.0000
# 6 0.0000 0.0000 0.0000 0.0000 0.0000 44.5204
#
#
#
# Elastic Compliance Matrix: (Units=1/GPa)
#
#
# Indices 1 2 3 4 5 6 
#
# 1 0.013044 -0.002766 -0.002731 0.000000 0.000000 0.000000
# 2 -0.002766 0.009480 -0.003561 0.000000 0.000000 0.000000
# 3 -0.002731 -0.003561 0.014912 0.000000 0.000000 0.000000
# 4 0.000000 0.000000 0.000000 0.033200 0.000000 0.000000
# 5 0.000000 0.000000 0.000000 0.000000 0.028930 0.000000
# 6 0.000000 0.000000 0.000000 0.000000 0.000000 0.022462
#
#
# Mechanical properties :
#
#
# Convention : Reuss Voigt Hill
#
# Bulk Modulus (GPa) = 51.75364 55.02231 53.38798
# Shear Modulus (GPa) = 34.11014 35.31509 34.71262
#
# Velocity S-wave (km/s) = 3.98235 4.05208 4.01736
# Velocity P-wave (km/s) = 6.72366 6.89016 6.80742
#
# Compressibility (1/GPa) = 0.01932231
#
# Stress axis : x y z
#
# Youngs Moduli (GPa) = 76.66231 105.48052 67.05951
#
# Poissons Ratio (x) = 0.29171 0.18313
# Poissons Ratio (y) = 0.21202 0.23879
# Poissons Ratio (z) = 0.20935 0.37560
#
# Static dielectric constant tensor:
#      x y z
#    x 4.246090 0.000000 0.000000 
#    y 0.000000 4.004410 0.000000 
#    z 0.000000 0.000000 3.615500 
# 
# 
# High freq. dielectric constant tensor:
#      x y z
#    x 1.866710 0.000000 0.000000 
#    y 0.000000 1.850450 0.000000 
#    z 0.000000 0.000000 1.806520 
# 
# From -- ./inp_files/14982.got.cif
#   From: 2010.03.12/outbox.cif.g09.slc.cpg/sg60_8_cif.got.tgz:14982.got - 2010.04.10 18:46:24.
