data_PCOD8248901
_publ_section_title
;
Structure prediction by ZEFSAII (Michael W. Deem and Ramdas Pophale) SiO2 
 PCOD8248901
Probable space group: P B C A
;
_chemical_formula_sum "Si O2"
_cell_formula_units_Z 48
_cell_length_a 24.876124
_cell_length_b 20.854784
_cell_length_c 4.986483
_cell_angle_alpha 90.000000
_cell_angle_beta 90.000000
_cell_angle_gamma 90.000000
_cell_volume 2586.918531
_symmetry_space_group_name_H-M "P B C A"
_symmetry_group_IT_number 61
_symmetry_cell_setting 'orthorhombic'
loop_
_space_group_symop_operation_xyz
x,y,z
1/2-x,-y,1/2+z
1/2+x,1/2-y,-z
-x,1/2+y,1/2-z
-x,-y,-z
1/2+x,y,1/2-z
1/2-x,1/2+y,z
x,1/2-y,1/2+z
loop_
_atom_site_type_symbol
_atom_site_label
_atom_site_fract_x
_atom_site_fract_y
_atom_site_fract_z
Si Si1 0.320863 0.497839 0.063743
Si Si2 0.547673 0.290204 0.537595
Si Si3 0.436290 0.037443 0.743733
Si Si4 0.672435 0.209327 0.023658
Si Si5 0.212325 0.072435 0.558496
Si Si6 0.991707 0.416135 0.755110
O O1 0.375454 0.462490 0.142592
O O2 0.309085 0.555189 0.266456
O O3 0.275187 0.443569 0.088235
O O4 0.322617 0.531552 0.772812
O O5 0.533981 0.269214 0.234983
O O6 0.609940 0.309902 0.533743
O O7 0.512616 0.348808 0.640434
O O8 0.468272 0.085616 0.545297
O O9 0.458813 0.965371 0.743991
O O10 0.443428 0.062770 0.045954
O O11 0.687181 0.232911 0.321080
O O12 0.705931 0.148546 0.918852
#
# Coordination Sequence:
#
# PCOD8248901 Si02
#       6
#     8   8   8   8   8   8
#     4  10  20  34  54  79 104 134 168 211 262 308
#     4  10  20  33  51  74 101 134 169 208 253 301
#     4  10  20  33  52  77 103 133 167 209 257 303
#     4  10  20  33  52  76 102 134 168 208 255 302
#     4  10  20  34  54  78 105 134 168 212 260 309
#     4  10  20  33  51  75 103 134 168 209 255 302
#
# _framework density 18.554894000000001
#
# number of rings (size 3 to 8) (size 9 to 14) (size 15 to 20)
#    0.000    2.000    0.000    4.000    0.000    5.333 
#    0.000    0.000    0.000    6.000    0.000    0.000 
#    0.000    0.000    0.000    0.000    0.000    0.000 
#
# Total GULP energy -595121.982943 kJ/mol
# GULP energy per Si atom -12398.374645 kJ/mol
# Density = 1.851266 g / cm^3
# Si number density = 18.554894 Si / 1000 Ang^3
#
#
#
# Elastic Constant Matrix: (Units=GPa)
#
#
# Indices 1 2 3 4 5 6 
#
# 1 72.4464 43.7835 16.4463 0.0000 0.0000 0.0000
# 2 43.7835 82.4471 9.0656 0.0000 0.0000 0.0000
# 3 16.4463 9.0656 68.1193 0.0000 0.0000 0.0000
# 4 0.0000 0.0000 0.0000 18.0110 0.0000 0.0000
# 5 0.0000 0.0000 0.0000 0.0000 19.2633 0.0000
# 6 0.0000 0.0000 0.0000 0.0000 0.0000 17.4258
#
#
#
# Elastic Compliance Matrix: (Units=1/GPa)
#
#
# Indices 1 2 3 4 5 6 
#
# 1 0.021196 -0.010852 -0.003673 0.000000 0.000000 0.000000
# 2 -0.010852 0.017865 0.000242 0.000000 0.000000 0.000000
# 3 -0.003673 0.000242 0.015535 0.000000 0.000000 0.000000
# 4 0.000000 0.000000 0.000000 0.055522 0.000000 0.000000
# 5 0.000000 0.000000 0.000000 0.000000 0.051912 0.000000
# 6 0.000000 0.000000 0.000000 0.000000 0.000000 0.057386
#
#
# Mechanical properties :
#
#
# Convention : Reuss Voigt Hill
#
# Bulk Modulus (GPa) = 38.41689 40.17819 39.29754
# Shear Modulus (GPa) = 19.48120 21.18786 20.33453
#
# Velocity S-wave (km/s) = 3.24377 3.38287 3.31405
# Velocity P-wave (km/s) = 5.89735 6.07940 5.98907
#
# Compressibility (1/GPa) = 0.02603022
#
# Stress axis : x y z
#
# Youngs Moduli (GPa) = 47.17946 55.97441 64.37213
#
# Poissons Ratio (x) = 0.60744 0.23645
# Poissons Ratio (y) = 0.51199 -0.01561
# Poissons Ratio (z) = 0.17330 -0.01357
#
# Static dielectric constant tensor:
#      x y z
#    x 3.242250 0.000000 0.000000 
#    y 0.000000 3.121960 0.000000 
#    z 0.000000 0.000000 3.734130 
# 
# 
# High freq. dielectric constant tensor:
#      x y z
#    x 1.696810 0.000000 0.000000 
#    y 0.000000 1.703390 0.000000 
#    z 0.000000 0.000000 1.746500 
# 
# From -- ./inp_files/1183.got.cif
#   From: 2010.03.12/outbox.cif.g09.slc.cpg/sg61_1_cif.got.tgz:1183.got - 2010.04.10 19:05:03.
