data_PCOD8248608
_publ_section_title
;
Structure prediction by ZEFSAII (Michael W. Deem and Ramdas Pophale) SiO2 
 PCOD8248608
Probable space group: P B C N
;
_chemical_formula_sum "Si O2"
_cell_formula_units_Z 28
_cell_length_a 5.363642
_cell_length_b 23.264429
_cell_length_c 9.260629
_cell_angle_alpha 90.000000
_cell_angle_beta 90.000000
_cell_angle_gamma 90.000000
_cell_volume 1155.560442
_symmetry_space_group_name_H-M "P B C N"
_symmetry_group_IT_number 60
_symmetry_cell_setting 'orthorhombic'
loop_
_space_group_symop_operation_xyz
x,y,z
1/2-x,1/2-y,1/2+z
1/2+x,1/2-y,-z
-x,y,1/2-z
-x,-y,-z
1/2+x,1/2+y,1/2-z
1/2-x,1/2+y,z
x,-y,1/2+z
loop_
_atom_site_type_symbol
_atom_site_label
_atom_site_fract_x
_atom_site_fract_y
_atom_site_fract_z
Si Si1 0.623921 0.547297 0.403022
Si Si2 0.500000 0.981751 0.250000
Si Si3 0.525373 0.235031 0.589456
Si Si4 0.792849 0.123435 0.641001
O O1 0.500000 0.555860 0.250000
O O2 0.500000 0.500000 0.500000
O O3 0.605060 0.609986 0.480195
O O4 0.904618 0.523975 0.376514
O O5 0.282041 0.939923 0.304902
O O6 0.273855 0.242930 0.495151
O O7 0.500000 0.264297 0.750000
O O8 0.562893 0.167008 0.620855
O O9 0.000000 0.150078 0.750000
#
# Coordination Sequence:
#
# PCOD8248608 Si02
#       4
#     8   4   8   8
#     4  12  24  42  65 108 150 192 246 300 359 455
#     4  12  22  42  74  96 150 190 242 284 376 442
#     4  12  28  54  83 113 152 200 264 331 396 465
#     4  12  25  46  76 104 145 199 245 306 389 451
#
# _framework density 24.230668000000001
#
# number of rings (size 3 to 8) (size 9 to 14) (size 15 to 20)
#    0.000    0.000    7.143    3.429    0.000    1.143 
#    5.143    0.000    0.000    0.000    0.000    0.000 
#    0.000    0.000    0.000    0.000    0.000    0.000 
#
# Total GULP energy -346882.517397 kJ/mol
# GULP energy per Si atom -12388.661336 kJ/mol
# Density = 2.417552 g / cm^3
# Si number density = 24.230668 Si / 1000 Ang^3
#
#
#
# Elastic Constant Matrix: (Units=GPa)
#
#
# Indices 1 2 3 4 5 6 
#
# 1 140.2017 28.2618 81.3619 0.0000 0.0000 0.0000
# 2 28.2618 66.9663 44.6771 0.0000 0.0000 0.0000
# 3 81.3619 44.6771 205.5766 0.0000 0.0000 0.0000
# 4 0.0000 0.0000 0.0000 24.7198 0.0000 0.0000
# 5 0.0000 0.0000 0.0000 0.0000 65.6416 0.0000
# 6 0.0000 0.0000 0.0000 0.0000 0.0000 37.2426
#
#
#
# Elastic Compliance Matrix: (Units=1/GPa)
#
#
# Indices 1 2 3 4 5 6 
#
# 1 0.009430 -0.001742 -0.003353 0.000000 0.000000 0.000000
# 2 -0.001742 0.017787 -0.003176 0.000000 0.000000 0.000000
# 3 -0.003353 -0.003176 0.006882 0.000000 0.000000 0.000000
# 4 0.000000 0.000000 0.000000 0.040453 0.000000 0.000000
# 5 0.000000 0.000000 0.000000 0.000000 0.015234 0.000000
# 6 0.000000 0.000000 0.000000 0.000000 0.000000 0.026851
#
#
# Mechanical properties :
#
#
# Convention : Reuss Voigt Hill
#
# Bulk Modulus (GPa) = 56.96352 80.14958 68.55655
# Shear Modulus (GPa) = 35.96275 42.75040 39.35658
#
# Velocity S-wave (km/s) = 3.85669 4.20493 4.03457
# Velocity P-wave (km/s) = 6.58726 7.53158 7.07519
#
# Compressibility (1/GPa) = 0.01755510
#
# Stress axis : x y z
#
# Youngs Moduli (GPa) = 106.04592 56.22044 145.31094
#
# Poissons Ratio (x) = 0.09796 0.48729
# Poissons Ratio (y) = 0.18478 0.46151
# Poissons Ratio (z) = 0.35562 0.17856
#
# Static dielectric constant tensor:
#      x y z
#    x 4.498950 0.000000 0.000000 
#    y 0.000000 4.397510 0.000000 
#    z 0.000000 0.000000 7.130660 
# 
# 
# High freq. dielectric constant tensor:
#      x y z
#    x 1.967450 0.000000 0.000000 
#    y 0.000000 1.939060 0.000000 
#    z 0.000000 0.000000 1.995820 
# 
# From -- ./inp_files/2977.got.cif
#   From: 2010.03.12/outbox.cif.g09.slc.cpg/sg60_2_cif.got.tgz:2977.got - 2010.04.10 18:46:24.
