data_PCOD8248153
_publ_section_title
;
Structure prediction by ZEFSAII (Michael W. Deem and Ramdas Pophale) SiO2 
 PCOD8248153
Probable space group: P B C N
;
_chemical_formula_sum "Si O2"
_cell_formula_units_Z 40
_cell_length_a 8.022967
_cell_length_b 17.878955
_cell_length_c 11.152636
_cell_angle_alpha 90.000000
_cell_angle_beta 90.000000
_cell_angle_gamma 90.000000
_cell_volume 1599.759379
_symmetry_space_group_name_H-M "P B C N"
_symmetry_group_IT_number 60
_symmetry_cell_setting 'orthorhombic'
loop_
_space_group_symop_operation_xyz
x,y,z
1/2-x,1/2-y,1/2+z
1/2+x,1/2-y,-z
-x,y,1/2-z
-x,-y,-z
1/2+x,1/2+y,1/2-z
1/2-x,1/2+y,z
x,-y,1/2+z
loop_
_atom_site_type_symbol
_atom_site_label
_atom_site_fract_x
_atom_site_fract_y
_atom_site_fract_z
Si Si1 0.742898 0.807040 0.077688
Si Si2 0.949569 0.578496 0.441886
Si Si3 0.683013 0.597323 0.783901
Si Si4 0.406035 0.648390 0.465085
Si Si5 0.244243 0.439534 0.778292
O O1 0.770152 0.824793 0.218896
O O2 0.700537 0.721018 0.067720
O O3 0.583725 0.856894 0.038473
O O4 0.909341 0.828854 0.004465
O O5 0.777413 0.579719 0.362420
O O6 0.000000 0.500000 0.500000
O O7 0.099737 0.601068 0.354847
O O8 0.500000 0.571263 0.750000
O O9 0.785579 0.529436 0.722617
O O10 0.696123 0.606580 0.927484
O O11 0.409975 0.592498 0.347733
#
# Coordination Sequence:
#
# PCOD8248153 Si02
#       5
#     8   8   8   8   8
#     4  11  25  47  73 101 149 191 243 302 370 440
#     4  11  23  43  68 103 139 186 238 295 360 435
#     4  10  24  43  70  99 144 185 238 297 364 437
#     4  11  26  46  71 107 146 192 244 302 370 442
#     4  11  24  42  71 102 143 182 239 300 363 436
#
# _framework density 25.003761999999998
#
# number of rings (size 3 to 8) (size 9 to 14) (size 15 to 20)
#    0.000    1.200    2.000    2.400    5.600    1.600 
#    0.000    0.000    0.000    0.000    0.000    0.000 
#    0.000    0.000    0.000    0.000    0.000    0.000 
#
# Total GULP energy -495549.667602 kJ/mol
# GULP energy per Si atom -12388.741690 kJ/mol
# Density = 2.494685 g / cm^3
# Si number density = 25.003762 Si / 1000 Ang^3
#
#
#
# Elastic Constant Matrix: (Units=GPa)
#
#
# Indices 1 2 3 4 5 6 
#
# 1 28.3490 12.4518 6.7843 0.0000 0.0000 0.0000
# 2 12.4518 149.9916 57.5394 0.0000 0.0000 0.0000
# 3 6.7843 57.5394 139.5987 0.0000 0.0000 0.0000
# 4 0.0000 0.0000 0.0000 37.5821 0.0000 0.0000
# 5 0.0000 0.0000 0.0000 0.0000 36.3028 0.0000
# 6 0.0000 0.0000 0.0000 0.0000 0.0000 34.5444
#
#
#
# Elastic Compliance Matrix: (Units=1/GPa)
#
#
# Indices 1 2 3 4 5 6 
#
# 1 0.036656 -0.002803 -0.000626 0.000000 0.000000 0.000000
# 2 -0.002803 0.008134 -0.003216 0.000000 0.000000 0.000000
# 3 -0.000626 -0.003216 0.008519 0.000000 0.000000 0.000000
# 4 0.000000 0.000000 0.000000 0.026608 0.000000 0.000000
# 5 0.000000 0.000000 0.000000 0.000000 0.027546 0.000000
# 6 0.000000 0.000000 0.000000 0.000000 0.000000 0.028948
#
#
# Mechanical properties :
#
#
# Convention : Reuss Voigt Hill
#
# Bulk Modulus (GPa) = 24.98867 52.38780 38.68824
# Shear Modulus (GPa) = 30.66712 37.76344 34.21528
#
# Velocity S-wave (km/s) = 3.50594 3.89049 3.70321
# Velocity P-wave (km/s) = 5.13853 6.41706 5.81305
#
# Compressibility (1/GPa) = 0.04001813
#
# Stress axis : x y z
#
# Youngs Moduli (GPa) = 27.28101 122.94789 117.37799
#
# Poissons Ratio (x) = 0.34460 0.07350
# Poissons Ratio (y) = 0.07646 0.37752
# Poissons Ratio (z) = 0.01708 0.39543
#
# Static dielectric constant tensor:
#      x y z
#    x 4.528490 0.000000 0.000000 
#    y 0.000000 4.209910 0.000000 
#    z 0.000000 0.000000 4.885700 
# 
# 
# High freq. dielectric constant tensor:
#      x y z
#    x 2.000240 0.000000 0.000000 
#    y 0.000000 1.983320 0.000000 
#    z 0.000000 0.000000 2.007630 
# 
# From -- ./inp_files/9765.got.cif
#   From: 2010.03.12/outbox.cif.g09.slc.cpg/sg60_5_cif.got.tgz:9765.got - 2010.04.10 18:46:24.
