data_PCOD8248383
_publ_section_title
;
Structure prediction by ZEFSAII (Michael W. Deem and Ramdas Pophale) SiO2 
 PCOD8248383
Probable space group: P B C N
;
_chemical_formula_sum "Si O2"
_cell_formula_units_Z 44
_cell_length_a 8.921099
_cell_length_b 16.488329
_cell_length_c 13.772181
_cell_angle_alpha 90.000000
_cell_angle_beta 90.000000
_cell_angle_gamma 90.000000
_cell_volume 2025.805403
_symmetry_space_group_name_H-M "P B C N"
_symmetry_group_IT_number 60
_symmetry_cell_setting 'orthorhombic'
loop_
_space_group_symop_operation_xyz
x,y,z
1/2-x,1/2-y,1/2+z
1/2+x,1/2-y,-z
-x,y,1/2-z
-x,-y,-z
1/2+x,1/2+y,1/2-z
1/2-x,1/2+y,z
x,-y,1/2+z
loop_
_atom_site_type_symbol
_atom_site_label
_atom_site_fract_x
_atom_site_fract_y
_atom_site_fract_z
Si Si1 0.000000 0.313946 0.250000
Si Si2 0.190306 0.411075 0.401651
Si Si3 0.969698 0.317152 0.934125
Si Si4 0.696457 0.672698 0.312484
Si Si5 0.758290 0.907709 0.612841
Si Si6 0.528261 0.640357 0.497594
O O1 0.886652 0.368182 0.188741
O O2 0.890060 0.258246 0.313224
O O3 0.098487 0.386507 0.496907
O O4 0.176611 0.506388 0.380137
O O5 0.368500 0.387851 0.411272
O O6 0.872526 0.312107 0.834738
O O7 0.139370 0.337728 0.909040
O O8 0.969872 0.231586 0.988966
O O9 0.667335 0.620541 0.214814
O O10 0.630362 0.624815 0.403601
O O11 0.878877 0.912367 0.524431
#
# Coordination Sequence:
#
# PCOD8248383 Si02
#       6
#     4   8   8   8   8   8
#     4  12  22  46  68  96 140 182 240 284 340 416
#     4  11  26  40  67 100 136 180 224 293 351 408
#     4  11  23  42  69  97 129 182 231 277 342 422
#     4  11  22  41  68  96 130 186 227 279 338 413
#     4  12  23  42  66 101 142 169 228 291 351 409
#     4  11  22  45  68  96 134 184 230 274 351 427
#
# _framework density 21.719757000000001
#
# number of rings (size 3 to 8) (size 9 to 14) (size 15 to 20)
#    0.000    0.727    3.636    4.909    2.545    0.000 
#    0.000    3.636    0.000    0.000    0.000    0.000 
#    0.000    0.000    0.000    0.000    0.000    0.000 
#
# Total GULP energy -545496.760260 kJ/mol
# GULP energy per Si atom -12397.653642 kJ/mol
# Density = 2.167032 g / cm^3
# Si number density = 21.719757 Si / 1000 Ang^3
#
#
#
# Elastic Constant Matrix: (Units=GPa)
#
#
# Indices 1 2 3 4 5 6 
#
# 1 121.0820 9.0302 34.5434 0.0000 0.0000 0.0000
# 2 9.0302 84.7185 24.4319 0.0000 0.0000 0.0000
# 3 34.5434 24.4319 73.5148 0.0000 0.0000 0.0000
# 4 0.0000 0.0000 0.0000 20.1860 0.0000 0.0000
# 5 0.0000 0.0000 0.0000 0.0000 48.2478 0.0000
# 6 0.0000 0.0000 0.0000 0.0000 0.0000 36.9294
#
#
#
# Elastic Compliance Matrix: (Units=1/GPa)
#
#
# Indices 1 2 3 4 5 6 
#
# 1 0.009545 0.000305 -0.004586 0.000000 0.000000 0.000000
# 2 0.000305 0.013065 -0.004485 0.000000 0.000000 0.000000
# 3 -0.004586 -0.004485 0.017248 0.000000 0.000000 0.000000
# 4 0.000000 0.000000 0.000000 0.049539 0.000000 0.000000
# 5 0.000000 0.000000 0.000000 0.000000 0.020726 0.000000
# 6 0.000000 0.000000 0.000000 0.000000 0.000000 0.027079
#
#
# Mechanical properties :
#
#
# Convention : Reuss Voigt Hill
#
# Bulk Modulus (GPa) = 44.79300 46.14739 45.47020
# Shear Modulus (GPa) = 30.83061 35.15996 32.99529
#
# Velocity S-wave (km/s) = 3.77168 4.02780 3.90184
# Velocity P-wave (km/s) = 6.29566 6.55162 6.42491
#
# Compressibility (1/GPa) = 0.02232491
#
# Stress axis : x y z
#
# Youngs Moduli (GPa) = 104.77222 76.54161 57.97643
#
# Poissons Ratio (x) = -0.02337 0.26590
# Poissons Ratio (y) = -0.03198 0.26005
# Poissons Ratio (z) = 0.48051 0.34332
#
# Static dielectric constant tensor:
#      x y z
#    x 4.217870 0.000000 0.000000 
#    y 0.000000 3.650340 0.000000 
#    z 0.000000 0.000000 3.895730 
# 
# 
# High freq. dielectric constant tensor:
#      x y z
#    x 1.874940 0.000000 0.000000 
#    y 0.000000 1.839180 0.000000 
#    z 0.000000 0.000000 1.844280 
# 
# From -- ./inp_files/14931.got.cif
#   From: 2010.03.12/outbox.cif.g09.slc.cpg/sg60_8_cif.got.tgz:14931.got - 2010.04.10 18:46:24.
