data_PCOD8248024
_publ_section_title
;
Structure prediction by ZEFSAII (Michael W. Deem and Ramdas Pophale) SiO2 
 PCOD8248024
Probable space group: P B C N
;
_chemical_formula_sum "Si O2"
_cell_formula_units_Z 48
_cell_length_a 7.756436
_cell_length_b 25.718244
_cell_length_c 10.840701
_cell_angle_alpha 90.000000
_cell_angle_beta 90.000000
_cell_angle_gamma 90.000000
_cell_volume 2162.523780
_symmetry_space_group_name_H-M "P B C N"
_symmetry_group_IT_number 60
_symmetry_cell_setting 'orthorhombic'
loop_
_space_group_symop_operation_xyz
x,y,z
1/2-x,1/2-y,1/2+z
1/2+x,1/2-y,-z
-x,y,1/2-z
-x,-y,-z
1/2+x,1/2+y,1/2-z
1/2-x,1/2+y,z
x,-y,1/2+z
loop_
_atom_site_type_symbol
_atom_site_label
_atom_site_fract_x
_atom_site_fract_y
_atom_site_fract_z
Si Si1 0.850548 0.193430 0.515774
Si Si2 0.500000 0.340481 0.250000
Si Si3 0.500000 0.158805 0.250000
Si Si4 0.889017 0.496550 0.875894
Si Si5 0.170847 0.390997 0.170867
Si Si6 0.030955 0.697789 0.515806
Si Si7 0.328410 0.601275 0.172296
O O1 0.659285 0.193763 0.575110
O O2 0.881347 0.143508 0.430135
O O3 0.990442 0.193521 0.625944
O O4 0.883515 0.247592 0.442967
O O5 0.331661 0.376250 0.254812
O O6 0.505245 0.195509 0.131296
O O7 0.672321 0.123748 0.245420
O O8 0.789380 0.551288 0.876652
O O9 0.745264 0.451400 0.889698
O O10 0.000000 0.488562 0.750000
O O11 0.000000 0.500000 0.000000
O O12 0.000000 0.390998 0.250000
O O13 0.148897 0.350086 0.059197
O O14 0.500000 0.588463 0.250000
#
# Coordination Sequence:
#
# PCOD8248024 Si02
#       7
#     8   4   4   8   8   8   8
#     4  11  25  43  69 102 145 184 239 285 356 417
#     4  12  25  44  66 104 140 186 235 290 346 422
#     4  10  23  44  66  98 142 182 233 288 358 410
#     4  11  25  47  78 105 146 188 236 303 366 426
#     4  11  25  45  71 100 141 181 236 288 353 418
#     4  11  23  44  69 101 141 187 231 294 347 425
#     4  11  26  45  72 106 139 183 242 291 355 431
#
# _framework density 22.196287999999999
#
# number of rings (size 3 to 8) (size 9 to 14) (size 15 to 20)
#    0.000    1.000    2.500    3.500    8.167    2.000 
#    0.000    1.667    0.000    0.000    0.000    0.000 
#    0.000    0.000    0.000    0.000    0.000    0.000 
#
# Total GULP energy -595112.959127 kJ/mol
# GULP energy per Si atom -12398.186648 kJ/mol
# Density = 2.214577 g / cm^3
# Si number density = 22.196288 Si / 1000 Ang^3
#
#
#
# Elastic Constant Matrix: (Units=GPa)
#
#
# Indices 1 2 3 4 5 6 
#
# 1 130.9349 47.4628 31.2925 0.0000 0.0000 0.0000
# 2 47.4628 196.6045 48.3847 0.0000 0.0000 0.0000
# 3 31.2925 48.3847 98.8978 0.0000 0.0000 0.0000
# 4 0.0000 0.0000 0.0000 28.6645 0.0000 0.0000
# 5 0.0000 0.0000 0.0000 0.0000 35.7201 0.0000
# 6 0.0000 0.0000 0.0000 0.0000 0.0000 38.8746
#
#
#
# Elastic Compliance Matrix: (Units=1/GPa)
#
#
# Indices 1 2 3 4 5 6 
#
# 1 0.008691 -0.001616 -0.001959 0.000000 0.000000 0.000000
# 2 -0.001616 0.006083 -0.002465 0.000000 0.000000 0.000000
# 3 -0.001959 -0.002465 0.011937 0.000000 0.000000 0.000000
# 4 0.000000 0.000000 0.000000 0.034886 0.000000 0.000000
# 5 0.000000 0.000000 0.000000 0.000000 0.027995 0.000000
# 6 0.000000 0.000000 0.000000 0.000000 0.000000 0.025724
#
#
# Mechanical properties :
#
#
# Convention : Reuss Voigt Hill
#
# Bulk Modulus (GPa) = 68.34627 75.63524 71.99075
# Shear Modulus (GPa) = 37.80002 40.60496 39.20249
#
# Velocity S-wave (km/s) = 4.13121 4.28174 4.20715
# Velocity P-wave (km/s) = 7.32219 7.65467 7.49027
#
# Compressibility (1/GPa) = 0.01463138
#
# Stress axis : x y z
#
# Youngs Moduli (GPa) = 115.05532 164.39109 83.77108
#
# Poissons Ratio (x) = 0.26566 0.16415
# Poissons Ratio (y) = 0.18593 0.20647
# Poissons Ratio (z) = 0.22545 0.40518
#
# Static dielectric constant tensor:
#      x y z
#    x 4.094680 0.000000 0.000000 
#    y 0.000000 4.324280 0.000000 
#    z 0.000000 0.000000 3.830800 
# 
# 
# High freq. dielectric constant tensor:
#      x y z
#    x 1.876580 0.000000 0.000000 
#    y 0.000000 1.888440 0.000000 
#    z 0.000000 0.000000 1.862790 
# 
# From -- ./inp_files/10164.got.cif
#   From: 2010.03.12/outbox.cif.g09.slc.cpg/sg60_6_cif.got.tgz:10164.got - 2010.04.10 18:46:24.
