data_PCOD8248645
_publ_section_title
;
Structure prediction by ZEFSAII (Michael W. Deem and Ramdas Pophale) SiO2 
 PCOD8248645
Probable space group: P B C N
;
_chemical_formula_sum "Si O2"
_cell_formula_units_Z 64
_cell_length_a 13.460493
_cell_length_b 17.443253
_cell_length_c 11.820242
_cell_angle_alpha 90.000000
_cell_angle_beta 90.000000
_cell_angle_gamma 90.000000
_cell_volume 2775.331178
_symmetry_space_group_name_H-M "P B C N"
_symmetry_group_IT_number 60
_symmetry_cell_setting 'orthorhombic'
loop_
_space_group_symop_operation_xyz
x,y,z
1/2-x,1/2-y,1/2+z
1/2+x,1/2-y,-z
-x,y,1/2-z
-x,-y,-z
1/2+x,1/2+y,1/2-z
1/2-x,1/2+y,z
x,-y,1/2+z
loop_
_atom_site_type_symbol
_atom_site_label
_atom_site_fract_x
_atom_site_fract_y
_atom_site_fract_z
Si Si1 0.322047 0.645269 0.299839
Si Si2 0.857720 0.325643 0.551337
Si Si3 0.918504 0.064415 0.002457
Si Si4 0.264276 0.493084 0.667676
Si Si5 0.542281 0.681414 0.625840
Si Si6 0.251271 0.603950 0.858874
Si Si7 0.384284 0.007295 0.497473
Si Si8 0.391941 0.797324 0.212322
O O1 0.245882 0.691037 0.383648
O O2 0.387788 0.584962 0.370478
O O3 0.274098 0.597272 0.195471
O O4 0.391359 0.706900 0.237906
O O5 0.945463 0.272751 0.603677
O O6 0.868989 0.416111 0.576697
O O7 0.859980 0.312055 0.416878
O O8 0.957525 0.144668 0.951964
O O9 0.827175 0.025984 0.937345
O O10 0.000000 0.000000 0.000000
O O11 0.293413 0.537232 0.780218
O O12 0.151548 0.513297 0.628424
O O13 0.500000 0.667074 0.750000
O O14 0.648872 0.643457 0.592983
O O15 0.177427 0.566047 0.950845
O O16 0.191738 0.665645 0.788588
O O17 0.500000 0.000000 0.500000
O O18 0.500000 0.829900 0.250000
#
# Coordination Sequence:
#
# PCOD8248645 Si02
#       8
#     8   8   8   8   8   8   8   8
#     4  12  27  46  75 109 150 198 246 312 386 459
#     4  12  26  50  67 108 151 188 250 312 374 457
#     4  12  26  45  74 110 153 190 256 312 376 459
#     4  12  24  46  73 105 146 189 246 314 367 440
#     4  12  27  47  76 111 148 198 244 314 392 452
#     4  12  24  48  73 104 146 193 246 307 370 442
#     4  12  27  47  74 107 144 198 254 302 376 452
#     4  12  27  48  75 104 147 199 245 305 382 451
#
# _framework density 23.060312
#
# number of rings (size 3 to 8) (size 9 to 14) (size 15 to 20)
#    0.000    0.000    6.250    3.000    5.250    1.000 
#    0.000    0.000    0.000    0.000    0.000    0.000 
#    0.000    0.000    0.000    0.000    0.000    0.000 
#
# Total GULP energy -793236.999803 kJ/mol
# GULP energy per Si atom -12394.328122 kJ/mol
# Density = 2.300783 g / cm^3
# Si number density = 23.060312 Si / 1000 Ang^3
#
#
#
# Elastic Constant Matrix: (Units=GPa)
#
#
# Indices 1 2 3 4 5 6 
#
# 1 115.9657 31.8632 31.4742 0.0000 0.0000 0.0000
# 2 31.8632 94.1530 26.5351 0.0000 0.0000 0.0000
# 3 31.4742 26.5351 56.0038 0.0000 0.0000 0.0000
# 4 0.0000 0.0000 0.0000 41.5808 0.0000 0.0000
# 5 0.0000 0.0000 0.0000 0.0000 30.0953 0.0000
# 6 0.0000 0.0000 0.0000 0.0000 0.0000 40.1016
#
#
#
# Elastic Compliance Matrix: (Units=1/GPa)
#
#
# Indices 1 2 3 4 5 6 
#
# 1 0.010554 -0.002193 -0.004892 0.000000 0.000000 0.000000
# 2 -0.002193 0.012713 -0.004791 0.000000 0.000000 0.000000
# 3 -0.004892 -0.004791 0.022876 0.000000 0.000000 0.000000
# 4 0.000000 0.000000 0.000000 0.024050 0.000000 0.000000
# 5 0.000000 0.000000 0.000000 0.000000 0.033228 0.000000
# 6 0.000000 0.000000 0.000000 0.000000 0.000000 0.024937
#
#
# Mechanical properties :
#
#
# Convention : Reuss Voigt Hill
#
# Bulk Modulus (GPa) = 44.66304 49.54082 47.10193
# Shear Modulus (GPa) = 31.33376 34.10556 32.71966
#
# Velocity S-wave (km/s) = 3.69015 3.84991 3.77088
# Velocity P-wave (km/s) = 6.12913 6.42590 6.27927
#
# Compressibility (1/GPa) = 0.02238988
#
# Stress axis : x y z
#
# Youngs Moduli (GPa) = 94.75525 78.65693 43.71486
#
# Poissons Ratio (x) = 0.17248 0.21386
# Poissons Ratio (y) = 0.20778 0.20946
# Poissons Ratio (z) = 0.46356 0.37688
#
# Static dielectric constant tensor:
#      x y z
#    x 3.936320 0.000000 0.000000 
#    y 0.000000 4.383010 0.000000 
#    z 0.000000 0.000000 5.159650 
# 
# 
# High freq. dielectric constant tensor:
#      x y z
#    x 1.911090 0.000000 0.000000 
#    y 0.000000 1.928460 0.000000 
#    z 0.000000 0.000000 1.910590 
# 
# From -- ./inp_files/12132.got.cif
#   From: 2010.03.12/outbox.cif.g09.slc.cpg/sg60_7_cif.got.tgz:12132.got - 2010.04.10 18:46:24.
