data_PCOD8248950
_publ_section_title
;
Structure prediction by ZEFSAII (Michael W. Deem and Ramdas Pophale) SiO2 
 PCOD8248950
Probable space group: P B C A
;
_chemical_formula_sum "Si O2"
_cell_formula_units_Z 56
_cell_length_a 15.792724
_cell_length_b 18.579315
_cell_length_c 9.478500
_cell_angle_alpha 90.000000
_cell_angle_beta 90.000000
_cell_angle_gamma 90.000000
_cell_volume 2781.162455
_symmetry_space_group_name_H-M "P B C A"
_symmetry_group_IT_number 61
_symmetry_cell_setting 'orthorhombic'
loop_
_space_group_symop_operation_xyz
x,y,z
1/2-x,-y,1/2+z
1/2+x,1/2-y,-z
-x,1/2+y,1/2-z
-x,-y,-z
1/2+x,y,1/2-z
1/2-x,1/2+y,z
x,1/2-y,1/2+z
loop_
_atom_site_type_symbol
_atom_site_label
_atom_site_fract_x
_atom_site_fract_y
_atom_site_fract_z
Si Si1 0.224067 0.127522 0.995916
Si Si2 0.385542 0.440408 0.419283
Si Si3 0.912369 0.321644 0.296982
Si Si4 0.396056 0.661260 0.753629
Si Si5 0.178298 0.729958 0.427918
Si Si6 0.665567 0.316562 0.730681
Si Si7 0.442412 0.597097 0.465133
O O1 0.293260 0.063749 0.991798
O O2 0.159026 0.118261 0.867667
O O3 0.274450 0.202347 0.994879
O O4 0.171574 0.127048 0.140834
O O5 0.382848 0.398117 0.269867
O O6 0.409078 0.523223 0.396913
O O7 0.455825 0.402967 0.520981
O O8 0.887304 0.256597 0.191744
O O9 0.869829 0.313508 0.449762
O O10 0.012789 0.320687 0.318854
O O11 0.348508 0.735426 0.713020
O O12 0.401784 0.609597 0.618846
O O13 0.248086 0.677335 0.359473
O O14 0.584557 0.338301 0.636915
#
# Coordination Sequence:
#
# PCOD8248950 Si02
#       7
#     8   8   8   8   8   8   8
#     4  10  21  37  55  88 123 151 201 257 295 359
#     4   9  22  42  61  81 119 165 207 236 312 374
#     4  10  21  36  62  87 121 164 200 254 304 368
#     4  10  22  36  61  91 120 156 202 255 305 362
#     4  10  20  36  56  88 124 158 201 250 312 356
#     4  11  22  34  57  93 120 153 201 257 307 352
#     4  10  22  41  64  83 117 167 203 245 308 377
#
# _framework density 20.135466000000001
#
# number of rings (size 3 to 8) (size 9 to 14) (size 15 to 20)
#    0.000    2.000    1.429    1.714   12.000    1.143 
#    0.000    0.000    0.000    2.571    0.000    0.000 
#    0.000    0.000    0.000    0.000    0.000    0.000 
#
# Total GULP energy -694457.104808 kJ/mol
# GULP energy per Si atom -12401.019729 kJ/mol
# Density = 2.008964 g / cm^3
# Si number density = 20.135466 Si / 1000 Ang^3
#
#
#
# Elastic Constant Matrix: (Units=GPa)
#
#
# Indices 1 2 3 4 5 6 
#
# 1 106.2488 19.2164 39.8611 0.0000 0.0000 0.0000
# 2 19.2164 54.1270 25.9735 0.0000 0.0000 0.0000
# 3 39.8611 25.9735 94.1737 0.0000 0.0000 0.0000
# 4 0.0000 0.0000 0.0000 18.6618 0.0000 0.0000
# 5 0.0000 0.0000 0.0000 0.0000 31.1667 0.0000
# 6 0.0000 0.0000 0.0000 0.0000 0.0000 25.3999
#
#
#
# Elastic Compliance Matrix: (Units=1/GPa)
#
#
# Indices 1 2 3 4 5 6 
#
# 1 0.011372 -0.001991 -0.004264 0.000000 0.000000 0.000000
# 2 -0.001991 0.021642 -0.005126 0.000000 0.000000 0.000000
# 3 -0.004264 -0.005126 0.013837 0.000000 0.000000 0.000000
# 4 0.000000 0.000000 0.000000 0.053586 0.000000 0.000000
# 5 0.000000 0.000000 0.000000 0.000000 0.032086 0.000000
# 6 0.000000 0.000000 0.000000 0.000000 0.000000 0.039370
#
#
# Mechanical properties :
#
#
# Convention : Reuss Voigt Hill
#
# Bulk Modulus (GPa) = 41.51412 47.18348 44.34880
# Shear Modulus (GPa) = 24.66889 26.34556 25.50722
#
# Velocity S-wave (km/s) = 3.50401 3.62113 3.56305
# Velocity P-wave (km/s) = 6.08547 6.40057 6.24501
#
# Compressibility (1/GPa) = 0.02408819
#
# Stress axis : x y z
#
# Youngs Moduli (GPa) = 87.93706 46.20693 72.26780
#
# Poissons Ratio (x) = 0.09200 0.30817
# Poissons Ratio (y) = 0.17508 0.37046
# Poissons Ratio (z) = 0.37498 0.23686
#
# Static dielectric constant tensor:
#      x y z
#    x 3.882120 0.000000 0.000000 
#    y 0.000000 3.331580 0.000000 
#    z 0.000000 0.000000 3.553150 
# 
# 
# High freq. dielectric constant tensor:
#      x y z
#    x 1.800490 0.000000 0.000000 
#    y 0.000000 1.752740 0.000000 
#    z 0.000000 0.000000 1.780950 
# 
# From -- ./inp_files/3062.got.cif
#   From: 2010.03.12/outbox.cif.g09.slc.cpg/sg61_2_cif.got.tgz:3062.got - 2010.04.10 19:05:03.
