data_PCOD8248227
_publ_section_title
;
Structure prediction by ZEFSAII (Michael W. Deem and Ramdas Pophale) SiO2 
 PCOD8248227
Probable space group: P B C N
;
_chemical_formula_sum "Si O2"
_cell_formula_units_Z 32
_cell_length_a 9.693090
_cell_length_b 17.191393
_cell_length_c 7.541510
_cell_angle_alpha 90.000000
_cell_angle_beta 90.000000
_cell_angle_gamma 90.000000
_cell_volume 1256.700029
_symmetry_space_group_name_H-M "P B C N"
_symmetry_group_IT_number 60
_symmetry_cell_setting 'orthorhombic'
loop_
_space_group_symop_operation_xyz
x,y,z
1/2-x,1/2-y,1/2+z
1/2+x,1/2-y,-z
-x,y,1/2-z
-x,-y,-z
1/2+x,1/2+y,1/2-z
1/2-x,1/2+y,z
x,-y,1/2+z
loop_
_atom_site_type_symbol
_atom_site_label
_atom_site_fract_x
_atom_site_fract_y
_atom_site_fract_z
Si Si1 0.845260 0.111787 0.252775
Si Si2 0.215312 0.053829 0.635696
Si Si3 0.088870 0.312896 0.595014
Si Si4 0.500000 0.899367 0.250000
Si Si5 0.500000 0.664001 0.750000
O O1 0.749124 0.176512 0.348114
O O2 0.000000 0.144915 0.250000
O O3 0.844981 0.032834 0.369826
O O4 0.794082 0.092694 0.055969
O O5 0.375703 0.045949 0.687061
O O6 0.131982 0.107396 0.779302
O O7 0.058117 0.345374 0.403769
O O8 0.043039 0.221329 0.587087
O O9 0.000000 0.355723 0.750000
#
# Coordination Sequence:
#
# PCOD8248227 Si02
#       5
#     8   8   8   4   4
#     4  12  26  48  78 109 155 201 253 314 376 454
#     4  12  26  47  75 116 150 202 254 315 380 451
#     4  10  25  52  71 111 151 197 253 306 375 452
#     4  12  26  45  82 109 150 202 250 316 374 455
#     4  10  26  51  70 113 156 188 260 304 386 447
#
# _framework density 25.463515000000001
#
# number of rings (size 3 to 8) (size 9 to 14) (size 15 to 20)
#    0.750    0.000    3.750    2.250    5.250    6.000 
#    4.500    0.000    0.000    0.000    0.000    0.000 
#    0.000    0.000    0.000    0.000    0.000    0.000 
#
# Total GULP energy -396611.328013 kJ/mol
# GULP energy per Si atom -12394.104000 kJ/mol
# Density = 2.540556 g / cm^3
# Si number density = 25.463515 Si / 1000 Ang^3
#
#
#
# Elastic Constant Matrix: (Units=GPa)
#
#
# Indices 1 2 3 4 5 6 
#
# 1 187.3002 15.8854 48.6417 0.0000 0.0000 0.0000
# 2 15.8854 56.4836 11.8217 0.0000 0.0000 0.0000
# 3 48.6417 11.8217 110.2385 0.0000 0.0000 0.0000
# 4 0.0000 0.0000 0.0000 6.7471 0.0000 0.0000
# 5 0.0000 0.0000 0.0000 0.0000 32.5686 0.0000
# 6 0.0000 0.0000 0.0000 0.0000 0.0000 15.5340
#
#
#
# Elastic Compliance Matrix: (Units=1/GPa)
#
#
# Indices 1 2 3 4 5 6 
#
# 1 0.006106 -0.001180 -0.002568 0.000000 0.000000 0.000000
# 2 -0.001180 0.018339 -0.001446 0.000000 0.000000 0.000000
# 3 -0.002568 -0.001446 0.010359 0.000000 0.000000 0.000000
# 4 0.000000 0.000000 0.000000 0.148212 0.000000 0.000000
# 5 0.000000 0.000000 0.000000 0.000000 0.030704 0.000000
# 6 0.000000 0.000000 0.000000 0.000000 0.000000 0.064375
#
#
# Mechanical properties :
#
#
# Convention : Reuss Voigt Hill
#
# Bulk Modulus (GPa) = 40.95522 56.30220 48.62871
# Shear Modulus (GPa) = 16.85651 29.48151 23.16901
#
# Velocity S-wave (km/s) = 2.57570 3.40633 3.01971
# Velocity P-wave (km/s) = 4.99644 6.13431 5.59438
#
# Compressibility (1/GPa) = 0.02441691
#
# Stress axis : x y z
#
# Youngs Moduli (GPa) = 163.77596 54.52942 96.53197
#
# Poissons Ratio (x) = 0.06434 0.24786
# Poissons Ratio (y) = 0.19323 0.13959
# Poissons Ratio (z) = 0.42052 0.07885
#
# Static dielectric constant tensor:
#      x y z
#    x 4.895160 0.000000 0.000000 
#    y 0.000000 4.340550 0.000000 
#    z 0.000000 0.000000 4.467180 
# 
# 
# High freq. dielectric constant tensor:
#      x y z
#    x 2.029210 0.000000 0.000000 
#    y 0.000000 2.002410 0.000000 
#    z 0.000000 0.000000 2.018660 
# 
# From -- ./inp_files/3652.got.cif
#   From: 2010.03.12/outbox.cif.g09.slc.cpg/sg60_2_cif.got.tgz:3652.got - 2010.04.10 18:46:24.
