data_PCOD8248483
_publ_section_title
;
Structure prediction by ZEFSAII (Michael W. Deem and Ramdas Pophale) SiO2 
 PCOD8248483
Probable space group: P B C N
;
_chemical_formula_sum "Si O2"
_cell_formula_units_Z 36
_cell_length_a 5.624401
_cell_length_b 20.249762
_cell_length_c 13.549633
_cell_angle_alpha 90.000000
_cell_angle_beta 90.000000
_cell_angle_gamma 90.000000
_cell_volume 1543.205393
_symmetry_space_group_name_H-M "P B C N"
_symmetry_group_IT_number 60
_symmetry_cell_setting 'orthorhombic'
loop_
_space_group_symop_operation_xyz
x,y,z
1/2-x,1/2-y,1/2+z
1/2+x,1/2-y,-z
-x,y,1/2-z
-x,-y,-z
1/2+x,1/2+y,1/2-z
1/2-x,1/2+y,z
x,-y,1/2+z
loop_
_atom_site_type_symbol
_atom_site_label
_atom_site_fract_x
_atom_site_fract_y
_atom_site_fract_z
Si Si1 0.472629 0.889248 0.477976
Si Si2 0.245011 0.679329 0.804832
Si Si3 0.000000 0.067516 0.250000
Si Si4 0.176564 0.671839 0.339469
Si Si5 0.289281 0.496017 0.077379
O O1 0.262444 0.862158 0.407084
O O2 0.555073 0.831371 0.552584
O O3 0.402662 0.950209 0.545802
O O4 0.690883 0.920689 0.415237
O O5 0.500000 0.666337 0.750000
O O6 0.211515 0.756040 0.830402
O O7 0.000000 0.658845 0.750000
O O8 0.127074 0.114440 0.330624
O O9 0.157207 0.016342 0.189121
O O10 0.000000 0.658636 0.250000
O O11 0.500000 0.500000 0.000000
#
# Coordination Sequence:
#
# PCOD8248483 Si02
#       5
#     8   8   4   8   8
#     4  11  26  47  71 107 147 195 252 309 376 452
#     4  11  28  49  75 113 154 199 251 318 384 448
#     4  12  22  42  76 102 146 194 240 314 364 456
#     4  11  23  45  74 106 147 192 252 305 376 451
#     4  11  25  43  70 107 143 194 249 303 373 448
#
# _framework density 23.328068999999999
#
# number of rings (size 3 to 8) (size 9 to 14) (size 15 to 20)
#    0.000    0.889    5.556    0.000    3.111    7.111 
#    0.000    0.000    0.000    0.000    0.000    0.000 
#    0.000    0.000    0.000    0.000    0.000    0.000 
#
# Total GULP energy -446148.275631 kJ/mol
# GULP energy per Si atom -12393.007656 kJ/mol
# Density = 2.327497 g / cm^3
# Si number density = 23.328069 Si / 1000 Ang^3
#
#
#
# Elastic Constant Matrix: (Units=GPa)
#
#
# Indices 1 2 3 4 5 6 
#
# 1 109.2500 28.7284 50.8610 0.0000 0.0000 0.0000
# 2 28.7284 71.6020 58.5342 0.0000 0.0000 0.0000
# 3 50.8610 58.5342 139.9439 0.0000 0.0000 0.0000
# 4 0.0000 0.0000 0.0000 31.1616 0.0000 0.0000
# 5 0.0000 0.0000 0.0000 0.0000 47.5444 0.0000
# 6 0.0000 0.0000 0.0000 0.0000 0.0000 15.8791
#
#
#
# Elastic Compliance Matrix: (Units=1/GPa)
#
#
# Indices 1 2 3 4 5 6 
#
# 1 0.011162 -0.001766 -0.003318 0.000000 0.000000 0.000000
# 2 -0.001766 0.021502 -0.008352 0.000000 0.000000 0.000000
# 3 -0.003318 -0.008352 0.011845 0.000000 0.000000 0.000000
# 4 0.000000 0.000000 0.000000 0.032091 0.000000 0.000000
# 5 0.000000 0.000000 0.000000 0.000000 0.021033 0.000000
# 6 0.000000 0.000000 0.000000 0.000000 0.000000 0.062976
#
#
# Mechanical properties :
#
#
# Convention : Reuss Voigt Hill
#
# Bulk Modulus (GPa) = 56.69730 66.33814 61.51772
# Shear Modulus (GPa) = 25.85838 31.09519 28.47678
#
# Velocity S-wave (km/s) = 3.33298 3.65492 3.49765
# Velocity P-wave (km/s) = 6.25849 6.80515 6.53754
#
# Compressibility (1/GPa) = 0.01763752
#
# Stress axis : x y z
#
# Youngs Moduli (GPa) = 89.58571 46.50667 84.42367
#
# Poissons Ratio (x) = 0.08213 0.28013
# Poissons Ratio (y) = 0.15821 0.70510
# Poissons Ratio (z) = 0.29726 0.38842
#
# Static dielectric constant tensor:
#      x y z
#    x 4.317410 0.000000 0.000000 
#    y 0.000000 4.475500 0.000000 
#    z 0.000000 0.000000 3.950080 
# 
# 
# High freq. dielectric constant tensor:
#      x y z
#    x 1.918810 0.000000 0.000000 
#    y 0.000000 1.930660 0.000000 
#    z 0.000000 0.000000 1.926750 
# 
# From -- ./inp_files/13733.got.cif
#   From: 2010.03.12/outbox.cif.g09.slc.cpg/sg60_7_cif.got.tgz:13733.got - 2010.04.10 18:46:24.
