data_PCOD8248904
_publ_section_title
;
Structure prediction by ZEFSAII (Michael W. Deem and Ramdas Pophale) SiO2 
 PCOD8248904
Probable space group: P B C A
;
_chemical_formula_sum "Si O2"
_cell_formula_units_Z 64
_cell_length_a 8.408546
_cell_length_b 22.363289
_cell_length_c 16.931595
_cell_angle_alpha 90.000000
_cell_angle_beta 90.000000
_cell_angle_gamma 90.000000
_cell_volume 3183.863589
_symmetry_space_group_name_H-M "P B C A"
_symmetry_group_IT_number 61
_symmetry_cell_setting 'orthorhombic'
loop_
_space_group_symop_operation_xyz
x,y,z
1/2-x,-y,1/2+z
1/2+x,1/2-y,-z
-x,1/2+y,1/2-z
-x,-y,-z
1/2+x,y,1/2-z
1/2-x,1/2+y,z
x,1/2-y,1/2+z
loop_
_atom_site_type_symbol
_atom_site_label
_atom_site_fract_x
_atom_site_fract_y
_atom_site_fract_z
Si Si1 0.278906 0.030644 0.878570
Si Si2 0.768933 0.609782 0.765120
Si Si3 0.580800 0.084568 0.921870
Si Si4 0.889377 0.308442 0.025582
Si Si5 0.710559 0.594915 0.076590
Si Si6 0.410599 0.880419 0.480865
Si Si7 0.652429 0.218321 0.101278
Si Si8 0.009903 0.818524 0.170770
O O1 0.315358 0.062811 0.794269
O O2 0.447514 0.032700 0.924863
O O3 0.226987 0.961819 0.865395
O O4 0.141572 0.060932 0.931978
O O5 0.808816 0.575060 0.845531
O O6 0.682089 0.672622 0.790205
O O7 0.920799 0.630055 0.717843
O O8 0.486417 0.148270 0.914782
O O9 0.690914 0.081190 0.997832
O O10 0.746944 0.347064 0.985213
O O11 0.012477 0.282854 0.963081
O O12 0.808878 0.254469 0.073698
O O13 0.525710 0.604107 0.053882
O O14 0.785545 0.652082 0.122111
O O15 0.505235 0.835497 0.422250
O O16 0.569226 0.252096 0.176560
#
# Coordination Sequence:
#
# PCOD8248904 Si02
#       8
#     8   8   8   8   8   8   8   8
#     4  10  21  35  55  87 118 148 201 247 285 347
#     4  11  20  36  59  81 108 148 204 244 279 335
#     4  10  20  35  58  85 109 151 194 242 293 332
#     4   9  19  32  54  87 116 139 185 237 284 349
#     4  11  20  35  58  85 123 153 185 242 307 347
#     4   9  18  34  54  85 114 146 195 238 286 338
#     4  10  20  33  54  84 121 147 180 233 299 353
#     4  10  20  34  56  81 107 145 194 242 279 342
#
# _framework density 20.101364
#
# number of rings (size 3 to 8) (size 9 to 14) (size 15 to 20)
#    0.000    2.000    2.500    3.000    1.750    0.000 
#    0.000    0.000    2.750    0.000    0.000    0.000 
#    0.000    0.000    0.000    0.000    0.000    0.000 
#
# Total GULP energy -792906.178599 kJ/mol
# GULP energy per Si atom -12389.159041 kJ/mol
# Density = 2.005561 g / cm^3
# Si number density = 20.101364 Si / 1000 Ang^3
#
#
#
# Elastic Constant Matrix: (Units=GPa)
#
#
# Indices 1 2 3 4 5 6 
#
# 1 66.7435 15.4639 10.2434 0.0000 0.0000 0.0000
# 2 15.4639 110.1225 15.4949 0.0000 0.0000 0.0000
# 3 10.2434 15.4949 44.4582 0.0000 0.0000 0.0000
# 4 0.0000 0.0000 0.0000 23.0846 0.0000 0.0000
# 5 0.0000 0.0000 0.0000 0.0000 18.8330 0.0000
# 6 0.0000 0.0000 0.0000 0.0000 0.0000 25.5968
#
#
#
# Elastic Compliance Matrix: (Units=1/GPa)
#
#
# Indices 1 2 3 4 5 6 
#
# 1 0.015865 -0.001802 -0.003027 0.000000 0.000000 0.000000
# 2 -0.001802 0.009754 -0.002984 0.000000 0.000000 0.000000
# 3 -0.003027 -0.002984 0.024231 0.000000 0.000000 0.000000
# 4 0.000000 0.000000 0.000000 0.043319 0.000000 0.000000
# 5 0.000000 0.000000 0.000000 0.000000 0.053098 0.000000
# 6 0.000000 0.000000 0.000000 0.000000 0.000000 0.039067
#
#
# Mechanical properties :
#
#
# Convention : Reuss Voigt Hill
#
# Bulk Modulus (GPa) = 29.22076 33.74762 31.48419
# Shear Modulus (GPa) = 23.54402 25.51102 24.52752
#
# Velocity S-wave (km/s) = 3.42609 3.56633 3.49691
# Velocity P-wave (km/s) = 5.49718 5.81236 5.65697
#
# Compressibility (1/GPa) = 0.03422225
#
# Stress axis : x y z
#
# Youngs Moduli (GPa) = 63.03257 102.52499 41.27007
#
# Poissons Ratio (x) = 0.18473 0.12494
# Poissons Ratio (y) = 0.11357 0.12316
# Poissons Ratio (z) = 0.19082 0.30596
#
# Static dielectric constant tensor:
#      x y z
#    x 3.811500 0.000000 0.000000 
#    y 0.000000 3.697930 0.000000 
#    z 0.000000 0.000000 3.373020 
# 
# 
# High freq. dielectric constant tensor:
#      x y z
#    x 1.800790 0.000000 0.000000 
#    y 0.000000 1.773690 0.000000 
#    z 0.000000 0.000000 1.735420 
# 
# From -- ./inp_files/4087.got.cif
#   From: 2010.03.12/outbox.cif.g09.slc.cpg/sg61_3_cif.got.tgz:4087.got - 2010.04.10 19:05:03.
