data_PCOD8248219
_publ_section_title
;
Structure prediction by ZEFSAII (Michael W. Deem and Ramdas Pophale) SiO2 
 PCOD8248219
Probable space group: P B C N
;
_chemical_formula_sum "Si O2"
_cell_formula_units_Z 64
_cell_length_a 13.359107
_cell_length_b 8.825661
_cell_length_c 24.833669
_cell_angle_alpha 90.000000
_cell_angle_beta 90.000000
_cell_angle_gamma 90.000000
_cell_volume 2927.962826
_symmetry_space_group_name_H-M "P B C N"
_symmetry_group_IT_number 60
_symmetry_cell_setting 'orthorhombic'
loop_
_space_group_symop_operation_xyz
x,y,z
1/2-x,1/2-y,1/2+z
1/2+x,1/2-y,-z
-x,y,1/2-z
-x,-y,-z
1/2+x,1/2+y,1/2-z
1/2-x,1/2+y,z
x,-y,1/2+z
loop_
_atom_site_type_symbol
_atom_site_label
_atom_site_fract_x
_atom_site_fract_y
_atom_site_fract_z
Si Si1 0.884419 0.799430 0.768010
Si Si2 0.264677 0.033426 0.786110
Si Si3 0.471920 0.369061 0.430855
Si Si4 0.509481 0.838454 0.026867
Si Si5 0.805351 0.030842 0.932192
Si Si6 0.320719 0.364559 0.952437
Si Si7 0.354486 0.774507 0.110949
Si Si8 0.828753 0.281395 0.641287
O O1 0.822477 0.945350 0.746872
O O2 0.833787 0.641631 0.749886
O O3 0.881786 0.798770 0.832202
O O4 0.000000 0.810864 0.750000
O O5 0.338266 0.909287 0.812997
O O6 0.215137 0.128338 0.833789
O O7 0.460424 0.290110 0.488821
O O8 0.585534 0.406427 0.417861
O O9 0.405331 0.519702 0.431533
O O10 0.437087 0.256378 0.383186
O O11 0.625790 0.797305 0.036674
O O12 0.455202 0.839919 0.084459
O O13 0.500000 0.000000 0.000000
O O14 0.727948 0.092988 0.887387
O O15 0.804522 0.850956 0.927511
O O16 0.770054 0.075228 0.992539
O O17 0.238496 0.341648 0.907456
#
# Coordination Sequence:
#
# PCOD8248219 Si02
#       8
#     8   8   8   8   8   8   8   8
#     4  11  27  50  76  98 142 187 240 314 371 417
#     4  10  25  48  66 112 129 176 252 300 346 438
#     4  11  22  44  63 104 138 184 224 279 343 430
#     4  11  25  39  66 104 141 175 234 277 338 443
#     4  11  25  41  66  99 144 182 228 278 346 434
#     4  11  22  42  66 102 142 185 223 278 348 429
#     4  12  25  44  70  97 136 188 235 284 361 419
#     4  11  23  39  77  96 140 179 234 290 359 410
#
# _framework density 21.8582
#
# number of rings (size 3 to 8) (size 9 to 14) (size 15 to 20)
#    0.000    1.000    3.750    2.250   10.500    0.000 
#    2.250    1.250    0.000    0.000    0.000    0.000 
#    0.000    0.000    0.000    0.000    0.000    0.000 
#
# Total GULP energy -793697.602413 kJ/mol
# GULP energy per Si atom -12401.525038 kJ/mol
# Density = 2.180845 g / cm^3
# Si number density = 21.858200 Si / 1000 Ang^3
#
#
#
# Elastic Constant Matrix: (Units=GPa)
#
#
# Indices 1 2 3 4 5 6 
#
# 1 53.6819 16.2067 20.5447 0.0000 0.0000 0.0000
# 2 16.2067 90.3890 19.3557 0.0000 0.0000 0.0000
# 3 20.5447 19.3557 99.9522 0.0000 0.0000 0.0000
# 4 0.0000 0.0000 0.0000 33.6466 0.0000 0.0000
# 5 0.0000 0.0000 0.0000 0.0000 34.3870 0.0000
# 6 0.0000 0.0000 0.0000 0.0000 0.0000 30.1473
#
#
#
# Elastic Compliance Matrix: (Units=1/GPa)
#
#
# Indices 1 2 3 4 5 6 
#
# 1 0.020950 -0.002957 -0.003734 0.000000 0.000000 0.000000
# 2 -0.002957 0.011959 -0.001708 0.000000 0.000000 0.000000
# 3 -0.003734 -0.001708 0.011103 0.000000 0.000000 0.000000
# 4 0.000000 0.000000 0.000000 0.029721 0.000000 0.000000
# 5 0.000000 0.000000 0.000000 0.000000 0.029081 0.000000
# 6 0.000000 0.000000 0.000000 0.000000 0.000000 0.033170
#
#
# Mechanical properties :
#
#
# Convention : Reuss Voigt Hill
#
# Bulk Modulus (GPa) = 36.74442 39.58193 38.16317
# Shear Modulus (GPa) = 30.89230 32.16390 31.52810
#
# Velocity S-wave (km/s) = 3.76347 3.84015 3.80200
# Velocity P-wave (km/s) = 5.97761 6.14900 6.06391
#
# Compressibility (1/GPa) = 0.02721502
#
# Stress axis : x y z
#
# Youngs Moduli (GPa) = 47.73312 83.61746 90.06595
#
# Poissons Ratio (x) = 0.24724 0.33627
# Poissons Ratio (y) = 0.14114 0.15384
# Poissons Ratio (z) = 0.17821 0.14283
#
# Static dielectric constant tensor:
#      x y z
#    x 3.892330 0.000000 0.000000 
#    y 0.000000 4.223820 0.000000 
#    z 0.000000 0.000000 3.936350 
# 
# 
# High freq. dielectric constant tensor:
#      x y z
#    x 1.852940 0.000000 0.000000 
#    y 0.000000 1.874790 0.000000 
#    z 0.000000 0.000000 1.855830 
# 
# From -- ./inp_files/24441.got.cif
#   From: 2010.03.12/outbox.cif.g09.slc.cpg/sg60_13_cif.got.tgz:24441.got - 2010.04.10 18:46:24.
