data_PCOD8248844
_publ_section_title
;
Structure prediction by ZEFSAII (Michael W. Deem and Ramdas Pophale) SiO2 
 PCOD8248844
Probable space group: P B C A
;
_chemical_formula_sum "Si O2"
_cell_formula_units_Z 56
_cell_length_a 5.559572
_cell_length_b 13.364739
_cell_length_c 30.496651
_cell_angle_alpha 90.000000
_cell_angle_beta 90.000000
_cell_angle_gamma 90.000000
_cell_volume 2265.969138
_symmetry_space_group_name_H-M "P B C A"
_symmetry_group_IT_number 61
_symmetry_cell_setting 'orthorhombic'
loop_
_space_group_symop_operation_xyz
x,y,z
1/2-x,-y,1/2+z
1/2+x,1/2-y,-z
-x,1/2+y,1/2-z
-x,-y,-z
1/2+x,y,1/2-z
1/2-x,1/2+y,z
x,1/2-y,1/2+z
loop_
_atom_site_type_symbol
_atom_site_label
_atom_site_fract_x
_atom_site_fract_y
_atom_site_fract_z
Si Si1 0.393984 0.492600 0.739234
Si Si2 0.080352 0.060393 0.642640
Si Si3 0.441967 0.394894 0.079386
Si Si4 0.178034 0.308172 0.002213
Si Si5 0.745527 0.757422 0.132548
Si Si6 0.765652 0.569726 0.079815
Si Si7 0.382872 0.716912 0.771613
O O1 0.639959 0.433190 0.753059
O O2 0.426276 0.507505 0.688349
O O3 0.379430 0.595687 0.767191
O O4 0.354148 0.074316 0.627930
O O5 0.973568 0.171631 0.645731
O O6 0.961300 0.992143 0.606034
O O7 0.219852 0.365670 0.048010
O O8 0.614992 0.301083 0.089491
O O9 0.570704 0.492858 0.060130
O O10 0.441324 0.259618 0.991056
O O11 0.111067 0.381950 0.962720
O O12 0.654455 0.650383 0.114375
O O13 0.900758 0.748415 0.177433
O O14 0.631114 0.758559 0.749598
#
# Coordination Sequence:
#
# PCOD8248844 Si02
#       7
#     8   8   8   8   8   8   8
#     4  10  19  37  66  98 135 186 238 285 354 426
#     4  11  24  41  72 104 143 192 242 303 369 433
#     4  11  25  44  75 102 144 191 236 309 370 439
#     4  12  27  51  79 107 144 196 242 298 374 450
#     4  11  22  44  68 101 142 190 243 296 368 440
#     4  11  27  45  68 112 143 188 245 307 364 447
#     4  10  19  36  66  96 131 184 239 289 349 425
#
# _framework density 24.713488999999999
#
# number of rings (size 3 to 8) (size 9 to 14) (size 15 to 20)
#    0.000    1.143    4.286    3.000    6.000    1.714 
#    0.000    1.429    0.000    0.000    0.000    0.000 
#    0.000    0.000    0.000    0.000    0.000    0.000 
#
# Total GULP energy -693972.897781 kJ/mol
# GULP energy per Si atom -12392.373175 kJ/mol
# Density = 2.465724 g / cm^3
# Si number density = 24.713489 Si / 1000 Ang^3
#
#
#
# Elastic Constant Matrix: (Units=GPa)
#
#
# Indices 1 2 3 4 5 6 
#
# 1 150.1352 32.7825 17.4946 0.0000 0.0000 0.0000
# 2 32.7825 64.5766 29.4704 0.0000 0.0000 0.0000
# 3 17.4946 29.4704 101.9260 0.0000 0.0000 0.0000
# 4 0.0000 0.0000 0.0000 15.2063 0.0000 0.0000
# 5 0.0000 0.0000 0.0000 0.0000 41.1388 0.0000
# 6 0.0000 0.0000 0.0000 0.0000 0.0000 10.7937
#
#
#
# Elastic Compliance Matrix: (Units=1/GPa)
#
#
# Indices 1 2 3 4 5 6 
#
# 1 0.007495 -0.003707 -0.000215 0.000000 0.000000 0.000000
# 2 -0.003707 0.019673 -0.005052 0.000000 0.000000 0.000000
# 3 -0.000215 -0.005052 0.011309 0.000000 0.000000 0.000000
# 4 0.000000 0.000000 0.000000 0.065762 0.000000 0.000000
# 5 0.000000 0.000000 0.000000 0.000000 0.024308 0.000000
# 6 0.000000 0.000000 0.000000 0.000000 0.000000 0.092647
#
#
# Mechanical properties :
#
#
# Convention : Reuss Voigt Hill
#
# Bulk Modulus (GPa) = 48.71023 52.90365 50.80694
# Shear Modulus (GPa) = 20.32656 29.22045 24.77351
#
# Velocity S-wave (km/s) = 2.87102 3.44229 3.16955
# Velocity P-wave (km/s) = 5.54465 6.10347 5.83076
#
# Compressibility (1/GPa) = 0.02052957
#
# Stress axis : x y z
#
# Youngs Moduli (GPa) = 133.42056 50.83161 88.42870
#
# Poissons Ratio (x) = 0.18843 0.01898
# Poissons Ratio (y) = 0.49458 0.44673
# Poissons Ratio (z) = 0.02864 0.25679
#
# Static dielectric constant tensor:
#      x y z
#    x 4.811370 0.000000 0.000000 
#    y 0.000000 4.322790 0.000000 
#    z 0.000000 0.000000 4.531410 
# 
# 
# High freq. dielectric constant tensor:
#      x y z
#    x 1.983510 0.000000 0.000000 
#    y 0.000000 1.973280 0.000000 
#    z 0.000000 0.000000 1.997680 
# 
# From -- ./inp_files/607.got.cif
#   From: 2010.03.12/outbox.cif.g09.slc.cpg/sg61_1_cif.got.tgz:607.got - 2010.04.10 19:05:03.
