data_PCOD8248517
_publ_section_title
;
Structure prediction by ZEFSAII (Michael W. Deem and Ramdas Pophale) SiO2 
 PCOD8248517
Probable space group: P B C N
;
_chemical_formula_sum "Si O2"
_cell_formula_units_Z 36
_cell_length_a 5.286999
_cell_length_b 21.292860
_cell_length_c 13.683628
_cell_angle_alpha 90.000000
_cell_angle_beta 90.000000
_cell_angle_gamma 90.000000
_cell_volume 1540.438931
_symmetry_space_group_name_H-M "P B C N"
_symmetry_group_IT_number 60
_symmetry_cell_setting 'orthorhombic'
loop_
_space_group_symop_operation_xyz
x,y,z
1/2-x,1/2-y,1/2+z
1/2+x,1/2-y,-z
-x,y,1/2-z
-x,-y,-z
1/2+x,1/2+y,1/2-z
1/2-x,1/2+y,z
x,-y,1/2+z
loop_
_atom_site_type_symbol
_atom_site_label
_atom_site_fract_x
_atom_site_fract_y
_atom_site_fract_z
Si Si1 0.652704 0.586553 0.907802
Si Si2 0.791096 0.026685 0.095812
Si Si3 0.500000 0.805350 0.750000
Si Si4 0.000000 0.887066 0.750000
Si Si5 0.500000 0.962076 0.250000
Si Si6 0.549091 0.730586 0.944542
O O1 0.410316 0.542049 0.922405
O O2 0.566780 0.656892 0.924805
O O3 0.783243 0.581432 0.800029
O O4 0.823800 0.561982 0.999740
O O5 0.992568 0.070596 0.152229
O O6 0.562046 0.011855 0.166554
O O7 0.750387 0.846038 0.758303
O O8 0.471256 0.762455 0.844308
O O9 0.320589 0.743603 0.019803
#
# Coordination Sequence:
#
# PCOD8248517 Si02
#       6
#     8   8   4   4   4   8
#     4  11  26  44  72 105 149 187 249 304 375 442
#     4  11  24  44  70 108 145 191 237 313 380 435
#     4  12  27  45  78 103 148 205 254 304 366 450
#     4  12  24  48  74 107 149 194 252 304 376 452
#     4  12  23  43  72 112 145 191 238 314 374 450
#     4  12  29  52  74 108 150 202 252 305 368 444
#
# _framework density 23.369959999999999
#
# number of rings (size 3 to 8) (size 9 to 14) (size 15 to 20)
#    0.000    0.444    2.222    5.333    6.222    0.889 
#    0.000    0.000    0.000    0.000    0.000    0.000 
#    0.000    0.000    0.000    0.000    0.000    0.000 
#
# Total GULP energy -446223.558021 kJ/mol
# GULP energy per Si atom -12395.098834 kJ/mol
# Density = 2.331677 g / cm^3
# Si number density = 23.369960 Si / 1000 Ang^3
#
#
#
# Elastic Constant Matrix: (Units=GPa)
#
#
# Indices 1 2 3 4 5 6 
#
# 1 95.5017 36.6808 4.0563 0.0000 0.0000 0.0000
# 2 36.6808 165.6407 30.9675 0.0000 0.0000 0.0000
# 3 4.0563 30.9675 104.0754 0.0000 0.0000 0.0000
# 4 0.0000 0.0000 0.0000 46.2486 0.0000 0.0000
# 5 0.0000 0.0000 0.0000 0.0000 -21.1703 0.0000
# 6 0.0000 0.0000 0.0000 0.0000 0.0000 18.5886
#
#
#
# Elastic Compliance Matrix: (Units=1/GPa)
#
#
# Indices 1 2 3 4 5 6 
#
# 1 0.011455 -0.002598 0.000326 0.000000 0.000000 0.000000
# 2 -0.002598 0.006982 -0.001976 0.000000 0.000000 0.000000
# 3 0.000326 -0.001976 0.010184 0.000000 0.000000 0.000000
# 4 0.000000 0.000000 0.000000 0.021622 0.000000 0.000000
# 5 0.000000 0.000000 0.000000 0.000000 -0.047236 0.000000
# 6 0.000000 0.000000 0.000000 0.000000 0.000000 0.053796
#
#
# Mechanical properties :
#
#
# Convention : Reuss Voigt Hill
#
# Bulk Modulus (GPa) = 49.68782 56.51411 53.10096
# Shear Modulus (GPa) = 69.43820 28.30093 48.86957
#
# Velocity S-wave (km/s) = 5.45684 3.48371 4.57785
# Velocity P-wave (km/s) = 7.81091 6.35740 7.12134
#
# Compressibility (1/GPa) = 0.02012566
#
# Stress axis : x y z
#
# Youngs Moduli (GPa) = 87.29896 143.22784 98.19597
#
# Poissons Ratio (x) = 0.37206 -0.03206
# Poissons Ratio (y) = 0.22678 0.19406
# Poissons Ratio (z) = -0.02850 0.28305
#
# Static dielectric constant tensor:
#      x y z
#    x 4.074370 0.000000 0.000000 
#    y 0.000000 4.371530 0.000000 
#    z 0.000000 0.000000 5.404380 
# 
# 
# High freq. dielectric constant tensor:
#      x y z
#    x 1.918110 0.000000 0.000000 
#    y 0.000000 1.934630 0.000000 
#    z 0.000000 0.000000 1.952460 
# 
# From -- ./inp_files/13754.got.cif
#   From: 2010.03.12/outbox.cif.g09.slc.cpg/sg60_7_cif.got.tgz:13754.got - 2010.04.10 18:46:24.
