data_PCOD8248915
_publ_section_title
;
Structure prediction by ZEFSAII (Michael W. Deem and Ramdas Pophale) SiO2 
 PCOD8248915
Probable space group: P B C A
;
_chemical_formula_sum "Si O2"
_cell_formula_units_Z 56
_cell_length_a 21.671406
_cell_length_b 25.761372
_cell_length_c 4.898878
_cell_angle_alpha 90.000000
_cell_angle_beta 90.000000
_cell_angle_gamma 90.000000
_cell_volume 2734.970848
_symmetry_space_group_name_H-M "P B C A"
_symmetry_group_IT_number 61
_symmetry_cell_setting 'orthorhombic'
loop_
_space_group_symop_operation_xyz
x,y,z
1/2-x,-y,1/2+z
1/2+x,1/2-y,-z
-x,1/2+y,1/2-z
-x,-y,-z
1/2+x,y,1/2-z
1/2-x,1/2+y,z
x,1/2-y,1/2+z
loop_
_atom_site_type_symbol
_atom_site_label
_atom_site_fract_x
_atom_site_fract_y
_atom_site_fract_z
Si Si1 0.926310 0.144908 0.186993
Si Si2 0.596415 0.117409 0.708358
Si Si3 0.851849 0.471001 0.090842
Si Si4 0.829170 0.910351 0.696381
Si Si5 0.467294 0.414777 0.304025
Si Si6 0.690403 0.908634 0.599759
Si Si7 0.528139 0.283969 0.965228
O O1 0.950231 0.134036 0.495509
O O2 0.851725 0.143044 0.159999
O O3 0.949043 0.096570 0.006748
O O4 0.956498 0.197010 0.056945
O O5 0.645252 0.092509 0.502274
O O6 0.541235 0.077452 0.793062
O O7 0.570838 0.169160 0.565848
O O8 0.631747 0.126682 0.993082
O O9 0.831642 0.529680 0.117971
O O10 0.926885 0.465048 0.111297
O O11 0.816906 0.430869 0.293712
O O12 0.831003 0.455765 0.789738
O O13 0.759310 0.890691 0.670851
O O14 0.541712 0.235181 0.159274
#
# Coordination Sequence:
#
# PCOD8248915 Si02
#       7
#     8   8   8   8   8   8   8
#     4   9  18  34  57  81 103 132 175 231 284 312
#     4  11  23  36  52  82 113 143 182 223 288 343
#     4  10  20  34  55  79 108 154 202 231 257 300
#     4  12  22  34  54  80 118 157 185 219 265 336
#     4   9  18  34  52  76 112 144 179 230 267 311
#     4  10  20  36  55  79 112 149 191 231 264 313
#     4  11  21  38  63  82 100 130 176 231 279 338
#
# _framework density 20.475538
#
# number of rings (size 3 to 8) (size 9 to 14) (size 15 to 20)
#    0.000    1.714    0.000    6.857    0.000    1.143 
#    0.000    0.000    0.000    5.143    0.000    0.000 
#    0.000    0.000    0.000    0.000    0.000    0.000 
#
# Total GULP energy -693864.159068 kJ/mol
# GULP energy per Si atom -12390.431412 kJ/mol
# Density = 2.042893 g / cm^3
# Si number density = 20.475538 Si / 1000 Ang^3
#
#
#
# Elastic Constant Matrix: (Units=GPa)
#
#
# Indices 1 2 3 4 5 6 
#
# 1 139.5838 16.2664 19.7244 0.0000 0.0000 0.0000
# 2 16.2664 37.3894 1.6576 0.0000 0.0000 0.0000
# 3 19.7244 1.6576 82.9900 0.0000 0.0000 0.0000
# 4 0.0000 0.0000 0.0000 28.4191 0.0000 0.0000
# 5 0.0000 0.0000 0.0000 0.0000 30.3477 0.0000
# 6 0.0000 0.0000 0.0000 0.0000 0.0000 19.9400
#
#
#
# Elastic Compliance Matrix: (Units=1/GPa)
#
#
# Indices 1 2 3 4 5 6 
#
# 1 0.007803 -0.003316 -0.001788 0.000000 0.000000 0.000000
# 2 -0.003316 0.028178 0.000225 0.000000 0.000000 0.000000
# 3 -0.001788 0.000225 0.012470 0.000000 0.000000 0.000000
# 4 0.000000 0.000000 0.000000 0.035188 0.000000 0.000000
# 5 0.000000 0.000000 0.000000 0.000000 0.032951 0.000000
# 6 0.000000 0.000000 0.000000 0.000000 0.000000 0.050151
#
#
# Mechanical properties :
#
#
# Convention : Reuss Voigt Hill
#
# Bulk Modulus (GPa) = 25.84381 37.25112 31.54747
# Shear Modulus (GPa) = 26.39963 30.56232 28.48097
#
# Velocity S-wave (km/s) = 3.59461 3.86764 3.73362
# Velocity P-wave (km/s) = 5.46603 6.17878 5.83330
#
# Compressibility (1/GPa) = 0.03869398
#
# Stress axis : x y z
#
# Youngs Moduli (GPa) = 128.15171 35.48865 80.19115
#
# Poissons Ratio (x) = 0.11766 0.14341
# Poissons Ratio (y) = 0.42489 -0.01806
# Poissons Ratio (z) = 0.22919 -0.00799
#
# Static dielectric constant tensor:
#      x y z
#    x 4.014210 0.000000 0.000000 
#    y 0.000000 3.295310 0.000000 
#    z 0.000000 0.000000 3.978890 
# 
# 
# High freq. dielectric constant tensor:
#      x y z
#    x 1.800380 0.000000 0.000000 
#    y 0.000000 1.748160 0.000000 
#    z 0.000000 0.000000 1.829410 
# 
# From -- ./inp_files/1039.got.cif
#   From: 2010.03.12/outbox.cif.g09.slc.cpg/sg61_1_cif.got.tgz:1039.got - 2010.04.10 19:05:03.
