data_PCOD8248797
_publ_section_title
;
Structure prediction by ZEFSAII (Michael W. Deem and Ramdas Pophale) SiO2 
 PCOD8248797
Probable space group: P B C A
;
_chemical_formula_sum "Si O2"
_cell_formula_units_Z 48
_cell_length_a 8.672053
_cell_length_b 23.303908
_cell_length_c 9.591917
_cell_angle_alpha 90.000000
_cell_angle_beta 90.000000
_cell_angle_gamma 90.000000
_cell_volume 1938.456647
_symmetry_space_group_name_H-M "P B C A"
_symmetry_group_IT_number 61
_symmetry_cell_setting 'orthorhombic'
loop_
_space_group_symop_operation_xyz
x,y,z
1/2-x,-y,1/2+z
1/2+x,1/2-y,-z
-x,1/2+y,1/2-z
-x,-y,-z
1/2+x,y,1/2-z
1/2-x,1/2+y,z
x,1/2-y,1/2+z
loop_
_atom_site_type_symbol
_atom_site_label
_atom_site_fract_x
_atom_site_fract_y
_atom_site_fract_z
Si Si1 0.878710 0.749104 0.605895
Si Si2 0.165570 0.825458 0.046719
Si Si3 0.001084 0.874414 0.779382
Si Si4 0.762570 0.307354 0.859295
Si Si5 0.360969 0.489396 0.832539
Si Si6 0.845074 0.054513 0.876964
O O1 0.830993 0.804653 0.511411
O O2 0.784763 0.699136 0.521307
O O3 0.806763 0.754145 0.762504
O O4 0.064516 0.730533 0.605485
O O5 0.187273 0.877845 0.156233
O O6 0.067501 0.853502 0.925234
O O7 0.057572 0.826347 0.663047
O O8 0.817348 0.865257 0.792126
O O9 0.042686 0.940150 0.748829
O O10 0.229034 0.514594 0.737961
O O11 0.472503 0.541765 0.875413
O O12 0.280447 0.462720 0.970154
#
# Coordination Sequence:
#
# PCOD8248797 Si02
#       6
#     8   8   8   8   8   8
#     4  10  20  36  55  79 113 147 185 235 284 343
#     4   9  20  37  56  81 113 147 188 236 291 349
#     4   9  18  34  56  78 107 151 188 221 285 361
#     4  10  19  33  54  78 106 144 188 230 279 341
#     4  10  21  40  62  87 123 158 202 258 308 366
#     4  10  22  40  61  89 122 161 205 253 309 368
#
# _framework density 24.761966999999999
#
# number of rings (size 3 to 8) (size 9 to 14) (size 15 to 20)
#    0.000    2.333    0.000    2.000    0.000    3.333 
#    0.000    3.333    0.000    0.000    0.000    0.000 
#    0.000    0.000    0.000    0.000    0.000    0.000 
#
# Total GULP energy -594679.325256 kJ/mol
# GULP energy per Si atom -12389.152609 kJ/mol
# Density = 2.470561 g / cm^3
# Si number density = 24.761967 Si / 1000 Ang^3
#
#
#
# Elastic Constant Matrix: (Units=GPa)
#
#
# Indices 1 2 3 4 5 6 
#
# 1 89.0777 42.6686 24.5443 0.0000 0.0000 0.0000
# 2 42.6686 119.6163 13.3369 0.0000 0.0000 0.0000
# 3 24.5443 13.3369 79.9996 0.0000 0.0000 0.0000
# 4 0.0000 0.0000 0.0000 22.0091 0.0000 0.0000
# 5 0.0000 0.0000 0.0000 0.0000 31.2996 0.0000
# 6 0.0000 0.0000 0.0000 0.0000 0.0000 32.7561
#
#
#
# Elastic Compliance Matrix: (Units=1/GPa)
#
#
# Indices 1 2 3 4 5 6 
#
# 1 0.014520 -0.004771 -0.003659 0.000000 0.000000 0.000000
# 2 -0.004771 0.010086 -0.000218 0.000000 0.000000 0.000000
# 3 -0.003659 -0.000218 0.013659 0.000000 0.000000 0.000000
# 4 0.000000 0.000000 0.000000 0.045436 0.000000 0.000000
# 5 0.000000 0.000000 0.000000 0.000000 0.031949 0.000000
# 6 0.000000 0.000000 0.000000 0.000000 0.000000 0.030529
#
#
# Mechanical properties :
#
#
# Convention : Reuss Voigt Hill
#
# Bulk Modulus (GPa) = 47.69042 49.97703 48.83372
# Shear Modulus (GPa) = 29.33145 31.08921 30.21033
#
# Velocity S-wave (km/s) = 3.44544 3.54718 3.49668
# Velocity P-wave (km/s) = 5.92701 6.08305 6.00554
#
# Compressibility (1/GPa) = 0.02096857
#
# Stress axis : x y z
#
# Youngs Moduli (GPa) = 68.87053 99.14376 73.21158
#
# Poissons Ratio (x) = 0.47306 0.26791
# Poissons Ratio (y) = 0.32861 0.01593
# Poissons Ratio (z) = 0.25202 0.02157
#
# Static dielectric constant tensor:
#      x y z
#    x 4.517710 0.000000 0.000000 
#    y 0.000000 5.022030 0.000000 
#    z 0.000000 0.000000 4.479020 
# 
# 
# High freq. dielectric constant tensor:
#      x y z
#    x 1.989100 0.000000 0.000000 
#    y 0.000000 1.996680 0.000000 
#    z 0.000000 0.000000 1.967190 
# 
# From -- ./inp_files/4215.got.cif
#   From: 2010.03.12/outbox.cif.g09.slc.cpg/sg61_3_cif.got.tgz:4215.got - 2010.04.10 19:05:03.
