data_PCOD8248957
_publ_section_title
;
Structure prediction by ZEFSAII (Michael W. Deem and Ramdas Pophale) SiO2 
 PCOD8248957
Probable space group: P B C A
;
_chemical_formula_sum "Si O2"
_cell_formula_units_Z 64
_cell_length_a 30.127970
_cell_length_b 8.448794
_cell_length_c 12.665246
_cell_angle_alpha 90.000000
_cell_angle_beta 90.000000
_cell_angle_gamma 90.000000
_cell_volume 3223.875197
_symmetry_space_group_name_H-M "P B C A"
_symmetry_group_IT_number 61
_symmetry_cell_setting 'orthorhombic'
loop_
_space_group_symop_operation_xyz
x,y,z
1/2-x,-y,1/2+z
1/2+x,1/2-y,-z
-x,1/2+y,1/2-z
-x,-y,-z
1/2+x,y,1/2-z
1/2-x,1/2+y,z
x,1/2-y,1/2+z
loop_
_atom_site_type_symbol
_atom_site_label
_atom_site_fract_x
_atom_site_fract_y
_atom_site_fract_z
Si Si1 0.893597 0.927216 0.521430
Si Si2 0.469267 0.367599 0.449302
Si Si3 0.753519 0.273916 0.593397
Si Si4 0.448175 0.748576 0.153756
Si Si5 0.604006 0.132573 0.653131
Si Si6 0.800113 0.478748 0.963446
Si Si7 0.549887 0.957630 0.478673
Si Si8 0.697685 0.475099 0.221567
O O1 0.922035 0.865260 0.423356
O O2 0.875940 0.779065 0.587944
O O3 0.852834 0.029397 0.478456
O O4 0.925258 0.042069 0.592471
O O5 0.500000 0.500000 0.500000
O O6 0.498484 0.281493 0.357916
O O7 0.450617 0.233929 0.533144
O O8 0.718283 0.385353 0.538136
O O9 0.791029 0.364634 0.659802
O O10 0.726570 0.165079 0.673396
O O11 0.778776 0.185362 0.499291
O O12 0.433505 0.791984 0.271201
O O13 0.436430 0.563970 0.124108
O O14 0.644911 0.054168 0.714779
O O15 0.581221 0.004190 0.577335
O O16 0.787833 0.509617 0.842544
O O17 0.500000 0.000000 0.500000
#
# Coordination Sequence:
#
# PCOD8248957 Si02
#       8
#     8   8   8   8   8   8   8   8
#     4  10  20  36  58  86 122 157 194 256 305 362
#     4   9  19  36  59  83 119 162 202 250 302 357
#     4  10  24  40  64  91 122 163 203 260 313 382
#     4   9  19  38  58  84 118 160 201 250 309 361
#     4  11  21  36  62  91 122 162 207 257 308 376
#     4  11  21  41  64  88 127 160 203 257 320 366
#     4   9  20  38  59  84 120 160 207 250 306 366
#     4  11  22  41  64  94 123 162 211 252 316 386
#
# _framework density 19.851883999999998
#
# number of rings (size 3 to 8) (size 9 to 14) (size 15 to 20)
#    0.000    2.000    2.500    1.500    1.750    2.000 
#    0.000    3.750    0.000    0.000    0.000    0.000 
#    0.000    0.000    0.000    0.000    0.000    0.000 
#
# Total GULP energy -793076.099098 kJ/mol
# GULP energy per Si atom -12391.814048 kJ/mol
# Density = 1.980670 g / cm^3
# Si number density = 19.851884 Si / 1000 Ang^3
#
#
#
# Elastic Constant Matrix: (Units=GPa)
#
#
# Indices 1 2 3 4 5 6 
#
# 1 86.9214 29.0534 14.5574 0.0000 0.0000 0.0000
# 2 29.0534 102.1856 19.5146 0.0000 0.0000 0.0000
# 3 14.5574 19.5146 79.7246 0.0000 0.0000 0.0000
# 4 0.0000 0.0000 0.0000 15.4364 0.0000 0.0000
# 5 0.0000 0.0000 0.0000 0.0000 27.8412 0.0000
# 6 0.0000 0.0000 0.0000 0.0000 0.0000 34.3560
#
#
#
# Elastic Compliance Matrix: (Units=1/GPa)
#
#
# Indices 1 2 3 4 5 6 
#
# 1 0.012888 -0.003372 -0.001528 0.000000 0.000000 0.000000
# 2 -0.003372 0.011149 -0.002113 0.000000 0.000000 0.000000
# 3 -0.001528 -0.002113 0.013339 0.000000 0.000000 0.000000
# 4 0.000000 0.000000 0.000000 0.064782 0.000000 0.000000
# 5 0.000000 0.000000 0.000000 0.000000 0.035918 0.000000
# 6 0.000000 0.000000 0.000000 0.000000 0.000000 0.029107
#
#
# Mechanical properties :
#
#
# Convention : Reuss Voigt Hill
#
# Bulk Modulus (GPa) = 42.82836 43.89804 43.36320
# Shear Modulus (GPa) = 26.45612 29.24046 27.84829
#
# Velocity S-wave (km/s) = 3.65454 3.84204 3.74946
# Velocity P-wave (km/s) = 6.27920 6.46858 6.37459
#
# Compressibility (1/GPa) = 0.02334902
#
# Stress axis : x y z
#
# Youngs Moduli (GPa) = 77.59304 89.69803 74.96601
#
# Poissons Ratio (x) = 0.30250 0.11453
# Poissons Ratio (y) = 0.26168 0.15841
# Poissons Ratio (z) = 0.11854 0.18954
#
# Static dielectric constant tensor:
#      x y z
#    x 3.641940 0.000000 0.000000 
#    y 0.000000 3.334150 0.000000 
#    z 0.000000 0.000000 3.421450 
# 
# 
# High freq. dielectric constant tensor:
#      x y z
#    x 1.779920 0.000000 0.000000 
#    y 0.000000 1.782330 0.000000 
#    z 0.000000 0.000000 1.750100 
# 
# From -- ./inp_files/6777.got.cif
#   From: 2010.03.12/outbox.cif.g09.slc.cpg/sg61_4_cif.got.tgz:6777.got - 2010.04.10 19:05:03.
