data_PCOD8248168
_publ_section_title
;
Structure prediction by ZEFSAII (Michael W. Deem and Ramdas Pophale) SiO2 
 PCOD8248168
Probable space group: P B C N
;
_chemical_formula_sum "Si O2"
_cell_formula_units_Z 28
_cell_length_a 5.913197
_cell_length_b 17.007052
_cell_length_c 11.319321
_cell_angle_alpha 90.000000
_cell_angle_beta 90.000000
_cell_angle_gamma 90.000000
_cell_volume 1138.339389
_symmetry_space_group_name_H-M "P B C N"
_symmetry_group_IT_number 60
_symmetry_cell_setting 'orthorhombic'
loop_
_space_group_symop_operation_xyz
x,y,z
1/2-x,1/2-y,1/2+z
1/2+x,1/2-y,-z
-x,y,1/2-z
-x,-y,-z
1/2+x,1/2+y,1/2-z
1/2-x,1/2+y,z
x,-y,1/2+z
loop_
_atom_site_type_symbol
_atom_site_label
_atom_site_fract_x
_atom_site_fract_y
_atom_site_fract_z
Si Si1 0.307857 0.678377 0.077950
Si Si2 0.818761 0.060207 0.052219
Si Si3 0.025441 0.652303 0.616447
Si Si4 0.500000 0.080055 0.250000
O O1 0.553525 0.639369 0.092674
O O2 0.320961 0.769714 0.110137
O O3 0.128762 0.637491 0.162095
O O4 0.218066 0.668346 0.943630
O O5 0.677361 0.029356 0.168375
O O6 0.646178 0.078879 0.947046
O O7 0.000000 0.000000 0.000000
O O8 0.000000 0.625165 0.750000
#
# Coordination Sequence:
#
# PCOD8248168 Si02
#       4
#     8   8   8   4
#     4  11  23  45  71 106 143 186 238 301 366 435
#     4  11  25  48  71 105 150 190 244 303 373 442
#     4  11  24  42  75 109 141 187 248 298 363 444
#     4  10  24  44  78  98 142 196 238 298 382 426
#
# _framework density 24.597235000000001
#
# number of rings (size 3 to 8) (size 9 to 14) (size 15 to 20)
#    0.000    1.143    2.857    2.571    4.000    5.714 
#   15.429    0.000    0.000    0.000    0.000    0.000 
#    0.000    0.000    0.000    0.000    0.000    0.000 
#
# Total GULP energy -347220.131335 kJ/mol
# GULP energy per Si atom -12400.718976 kJ/mol
# Density = 2.454125 g / cm^3
# Si number density = 24.597235 Si / 1000 Ang^3
#
#
#
# Elastic Constant Matrix: (Units=GPa)
#
#
# Indices 1 2 3 4 5 6 
#
# 1 113.2643 24.0783 71.2473 0.0000 0.0000 0.0000
# 2 24.0783 68.9593 33.8553 0.0000 0.0000 0.0000
# 3 71.2473 33.8553 194.0477 0.0000 0.0000 0.0000
# 4 0.0000 0.0000 0.0000 23.6682 0.0000 0.0000
# 5 0.0000 0.0000 0.0000 0.0000 41.9040 0.0000
# 6 0.0000 0.0000 0.0000 0.0000 0.0000 42.1712
#
#
#
# Elastic Compliance Matrix: (Units=1/GPa)
#
#
# Indices 1 2 3 4 5 6 
#
# 1 0.011771 -0.002175 -0.003943 0.000000 0.000000 0.000000
# 2 -0.002175 0.016261 -0.002039 0.000000 0.000000 0.000000
# 3 -0.003943 -0.002039 0.006957 0.000000 0.000000 0.000000
# 4 0.000000 0.000000 0.000000 0.042251 0.000000 0.000000
# 5 0.000000 0.000000 0.000000 0.000000 0.023864 0.000000
# 6 0.000000 0.000000 0.000000 0.000000 0.000000 0.023713
#
#
# Mechanical properties :
#
#
# Convention : Reuss Voigt Hill
#
# Bulk Modulus (GPa) = 53.53981 70.51480 62.02731
# Shear Modulus (GPa) = 33.93177 38.02137 35.97657
#
# Velocity S-wave (km/s) = 3.71819 3.93588 3.82858
# Velocity P-wave (km/s) = 6.34406 7.02744 6.69447
#
# Compressibility (1/GPa) = 0.01867769
#
# Stress axis : x y z
#
# Youngs Moduli (GPa) = 84.95305 61.49499 143.74765
#
# Poissons Ratio (x) = 0.13372 0.56674
# Poissons Ratio (y) = 0.18473 0.29306
# Poissons Ratio (z) = 0.33493 0.12537
#
# Static dielectric constant tensor:
#      x y z
#    x 4.734080 0.000000 0.000000 
#    y 0.000000 4.240920 0.000000 
#    z 0.000000 0.000000 4.710470 
# 
# 
# High freq. dielectric constant tensor:
#      x y z
#    x 1.988770 0.000000 0.000000 
#    y 0.000000 1.970930 0.000000 
#    z 0.000000 0.000000 1.989160 
# 
# From -- ./inp_files/8685.got.cif
#   From: 2010.03.12/outbox.cif.g09.slc.cpg/sg60_5_cif.got.tgz:8685.got - 2010.04.10 18:46:24.
