data_PCOD8248268
_publ_section_title
;
Structure prediction by ZEFSAII (Michael W. Deem and Ramdas Pophale) SiO2 
 PCOD8248268
Probable space group: P B C N
;
_chemical_formula_sum "Si O2"
_cell_formula_units_Z 48
_cell_length_a 19.278918
_cell_length_b 33.513763
_cell_length_c 5.102772
_cell_angle_alpha 90.000000
_cell_angle_beta 90.000000
_cell_angle_gamma 90.000000
_cell_volume 3296.947367
_symmetry_space_group_name_H-M "P B C N"
_symmetry_group_IT_number 60
_symmetry_cell_setting 'orthorhombic'
loop_
_space_group_symop_operation_xyz
x,y,z
1/2-x,1/2-y,1/2+z
1/2+x,1/2-y,-z
-x,y,1/2-z
-x,-y,-z
1/2+x,1/2+y,1/2-z
1/2-x,1/2+y,z
x,-y,1/2+z
loop_
_atom_site_type_symbol
_atom_site_label
_atom_site_fract_x
_atom_site_fract_y
_atom_site_fract_z
Si Si1 0.424552 0.890029 0.358602
Si Si2 0.453808 0.224584 0.493250
Si Si3 0.632165 0.851197 0.609245
Si Si4 0.577584 0.981788 0.177303
Si Si5 0.762706 0.802553 0.636110
Si Si6 0.829839 0.776241 0.130625
O O1 0.500000 0.876271 0.250000
O O2 0.403664 0.864837 0.617628
O O3 0.422672 0.936589 0.426425
O O4 0.371763 0.884687 0.115883
O O5 0.500000 0.212913 0.250000
O O6 0.403812 0.186839 0.531526
O O7 0.409772 0.263938 0.414992
O O8 0.500000 0.232830 0.750000
O O9 0.713210 0.841279 0.646013
O O10 0.500000 0.997052 0.250000
O O11 0.615183 0.990671 0.455713
O O12 0.808645 0.805076 0.895119
O O13 0.716117 0.763281 0.637268
O O14 0.816643 0.801527 0.394305
#
# Coordination Sequence:
#
# PCOD8248268 Si02
#       6
#     8   8   8   8   8   8
#     4  11  20  29  41  58  79 100 124 159 206 248
#     4  11  20  29  41  58  79  99 122 157 204 247
#     4  11  20  29  41  58  79 100 124 159 205 247
#     4   9  17  29  42  54  70  96 128 157 188 231
#     4   9  17  29  42  54  70  96 128 156 186 229
#     4   9  17  29  42  54  70  96 127 155 186 229
#
# _framework density 14.558921
#
# number of rings (size 3 to 8) (size 9 to 14) (size 15 to 20)
#    0.000    2.000    0.000    6.000    0.000    8.000 
#    0.000    0.000    0.000    0.000    0.000    0.000 
#    0.000    0.000    0.000    0.000    0.000    0.000 
#
# Total GULP energy -594796.333379 kJ/mol
# GULP energy per Si atom -12391.590279 kJ/mol
# Density = 1.452578 g / cm^3
# Si number density = 14.558921 Si / 1000 Ang^3
#
#
#
# Elastic Constant Matrix: (Units=GPa)
#
#
# Indices 1 2 3 4 5 6 
#
# 1 26.0673 16.5376 8.3732 0.0000 0.0000 0.0000
# 2 16.5376 40.4378 19.5251 0.0000 0.0000 0.0000
# 3 8.3732 19.5251 102.6178 0.0000 0.0000 0.0000
# 4 0.0000 0.0000 0.0000 23.0499 0.0000 0.0000
# 5 0.0000 0.0000 0.0000 0.0000 20.0106 0.0000
# 6 0.0000 0.0000 0.0000 0.0000 0.0000 11.7026
#
#
#
# Elastic Compliance Matrix: (Units=1/GPa)
#
#
# Indices 1 2 3 4 5 6 
#
# 1 0.051807 -0.021083 -0.000216 0.000000 0.000000 0.000000
# 2 -0.021083 0.035811 -0.005093 0.000000 0.000000 0.000000
# 3 -0.000216 -0.005093 0.010732 0.000000 0.000000 0.000000
# 4 0.000000 0.000000 0.000000 0.043384 0.000000 0.000000
# 5 0.000000 0.000000 0.000000 0.000000 0.049974 0.000000
# 6 0.000000 0.000000 0.000000 0.000000 0.000000 0.085451
#
#
# Mechanical properties :
#
#
# Convention : Reuss Voigt Hill
#
# Bulk Modulus (GPa) = 21.94665 28.66608 25.30637
# Shear Modulus (GPa) = 14.48726 19.26509 16.87618
#
# Velocity S-wave (km/s) = 3.15791 3.64160 3.40834
# Velocity P-wave (km/s) = 5.32950 6.11670 5.73662
#
# Compressibility (1/GPa) = 0.04556503
#
# Stress axis : x y z
#
# Youngs Moduli (GPa) = 19.30241 27.92452 93.18245
#
# Poissons Ratio (x) = 0.58873 0.02011
# Poissons Ratio (y) = 0.40695 0.47462
# Poissons Ratio (z) = 0.00417 0.14223
#
# Static dielectric constant tensor:
#      x y z
#    x 2.676130 0.000000 0.000000 
#    y 0.000000 2.555700 0.000000 
#    z 0.000000 0.000000 3.128330 
# 
# 
# High freq. dielectric constant tensor:
#      x y z
#    x 1.509740 0.000000 0.000000 
#    y 0.000000 1.517100 0.000000 
#    z 0.000000 0.000000 1.587650 
# 
# From -- ./inp_files/1863.got.cif
#   From: 2010.03.12/outbox.cif.g09.slc.cpg/sg60_1_cif.got.tgz:1863.got - 2010.04.10 18:46:24.
