data_PCOD8248722
_publ_section_title
;
Structure prediction by ZEFSAII (Michael W. Deem and Ramdas Pophale) SiO2 
 PCOD8248722
Probable space group: P B C A
;
_chemical_formula_sum "Si O2"
_cell_formula_units_Z 64
_cell_length_a 20.590475
_cell_length_b 26.469228
_cell_length_c 5.242564
_cell_angle_alpha 90.000000
_cell_angle_beta 90.000000
_cell_angle_gamma 90.000000
_cell_volume 2857.270657
_symmetry_space_group_name_H-M "P B C A"
_symmetry_group_IT_number 61
_symmetry_cell_setting 'orthorhombic'
loop_
_space_group_symop_operation_xyz
x,y,z
1/2-x,-y,1/2+z
1/2+x,1/2-y,-z
-x,1/2+y,1/2-z
-x,-y,-z
1/2+x,y,1/2-z
1/2-x,1/2+y,z
x,1/2-y,1/2+z
loop_
_atom_site_type_symbol
_atom_site_label
_atom_site_fract_x
_atom_site_fract_y
_atom_site_fract_z
Si Si1 0.695614 0.721588 0.192575
Si Si2 0.993372 0.142851 0.720444
Si Si3 0.716745 0.060881 0.662385
Si Si4 0.049966 0.807412 0.779093
Si Si5 0.424813 0.766534 0.217624
Si Si6 0.979970 0.029762 0.749490
Si Si7 0.743632 0.609314 0.150277
Si Si8 0.838179 0.470529 0.419473
O O1 0.720141 0.742490 0.463878
O O2 0.617578 0.721407 0.203375
O O3 0.726477 0.667570 0.136108
O O4 0.951408 0.156670 0.470334
O O5 0.013572 0.084423 0.730050
O O6 0.061215 0.173957 0.711842
O O7 0.954767 0.156565 0.975896
O O8 0.726163 0.098651 0.425895
O O9 0.780770 0.025259 0.706385
O O10 0.658703 0.022017 0.589995
O O11 0.705295 0.093842 0.921390
O O12 0.993235 0.765126 0.770173
O O13 0.384301 0.751111 0.469633
O O14 0.903048 0.038356 0.760736
O O15 0.000000 0.000000 0.500000
O O16 0.000000 0.000000 0.000000
O O17 0.677033 0.577389 0.103477
#
# Coordination Sequence:
#
# PCOD8248722 Si02
#       8
#     8   8   8   8   8   8   8   8
#     4  12  22  31  45  76 125 161 180 223 282 384
#     4  10  19  34  49  68 106 152 190 225 268 350
#     4  10  20  37  63  92 103 147 207 269 294 329
#     4  10  18  29  51  73 101 143 197 226 274 339
#     4   8  14  25  43  68  91 125 183 217 257 316
#     4  12  28  39  54  83 124 168 192 234 306 383
#     4  10  21  34  57  86 116 151 202 240 303 347
#     4  10  22  39  66  84 118 147 211 262 300 346
#
# _framework density 22.398997999999999
#
# number of rings (size 3 to 8) (size 9 to 14) (size 15 to 20)
#    0.750    1.000    1.250    5.250    3.500    0.000 
#    0.000    0.000    0.000    0.000    0.000    0.000 
#    0.000   60.000    0.000    0.000    0.000    0.000 
#
# Total GULP energy -793180.097274 kJ/mol
# GULP energy per Si atom -12393.439020 kJ/mol
# Density = 2.234802 g / cm^3
# Si number density = 22.398998 Si / 1000 Ang^3
#
#
#
# Elastic Constant Matrix: (Units=GPa)
#
#
# Indices 1 2 3 4 5 6 
#
# 1 4.8322 7.0351 3.4464 0.0000 0.0000 0.0000
# 2 7.0351 151.1559 56.0732 0.0000 0.0000 0.0000
# 3 3.4464 56.0732 197.1053 0.0000 0.0000 0.0000
# 4 0.0000 0.0000 0.0000 42.6478 0.0000 0.0000
# 5 0.0000 0.0000 0.0000 0.0000 16.7847 0.0000
# 6 0.0000 0.0000 0.0000 0.0000 0.0000 19.9423
#
#
#
# Elastic Compliance Matrix: (Units=1/GPa)
#
#
# Indices 1 2 3 4 5 6 
#
# 1 0.222181 -0.009950 -0.001054 0.000000 0.000000 0.000000
# 2 -0.009950 0.007842 -0.002057 0.000000 0.000000 0.000000
# 3 -0.001054 -0.002057 0.005677 0.000000 0.000000 0.000000
# 4 0.000000 0.000000 0.000000 0.023448 0.000000 0.000000
# 5 0.000000 0.000000 0.000000 0.000000 0.059578 0.000000
# 6 0.000000 0.000000 0.000000 0.000000 0.000000 0.050145
#
#
# Mechanical properties :
#
#
# Convention : Reuss Voigt Hill
#
# Bulk Modulus (GPa) = 4.77148 54.02254 29.39701
# Shear Modulus (GPa) = 10.75611 34.97754 22.86683
#
# Velocity S-wave (km/s) = 2.19374 3.95595 3.19860
# Velocity P-wave (km/s) = 2.92429 6.71094 5.17630
#
# Compressibility (1/GPa) = 0.20957841
#
# Stress axis : x y z
#
# Youngs Moduli (GPa) = 4.50083 127.52190 176.14888
#
# Poissons Ratio (x) = 1.26880 0.18572
# Poissons Ratio (y) = 0.04478 0.36232
# Poissons Ratio (z) = 0.00475 0.26230
#
# Static dielectric constant tensor:
#      x y z
#    x 3.386780 0.000000 0.000000 
#    y 0.000000 3.941950 0.000000 
#    z 0.000000 0.000000 5.092790 
# 
# 
# High freq. dielectric constant tensor:
#      x y z
#    x 1.817860 0.000000 0.000000 
#    y 0.000000 1.886930 0.000000 
#    z 0.000000 0.000000 1.911420 
# 
# From -- ./inp_files/1248.got.cif
#   From: 2010.03.12/outbox.cif.g09.slc.cpg/sg61_1_cif.got.tgz:1248.got - 2010.04.10 19:05:03.
