data_PCOD8248410
_publ_section_title
;
Structure prediction by ZEFSAII (Michael W. Deem and Ramdas Pophale) SiO2 
 PCOD8248410
Probable space group: P B C N
;
_chemical_formula_sum "Si O2"
_cell_formula_units_Z 40
_cell_length_a 17.328375
_cell_length_b 12.457150
_cell_length_c 7.573338
_cell_angle_alpha 90.000000
_cell_angle_beta 90.000000
_cell_angle_gamma 90.000000
_cell_volume 1634.797149
_symmetry_space_group_name_H-M "P B C N"
_symmetry_group_IT_number 60
_symmetry_cell_setting 'orthorhombic'
loop_
_space_group_symop_operation_xyz
x,y,z
1/2-x,1/2-y,1/2+z
1/2+x,1/2-y,-z
-x,y,1/2-z
-x,-y,-z
1/2+x,1/2+y,1/2-z
1/2-x,1/2+y,z
x,-y,1/2+z
loop_
_atom_site_type_symbol
_atom_site_label
_atom_site_fract_x
_atom_site_fract_y
_atom_site_fract_z
Si Si1 0.464542 0.794908 0.056241
Si Si2 0.082897 0.918480 0.670120
Si Si3 0.829234 0.885931 0.485350
Si Si4 0.627821 0.155076 0.453101
Si Si5 0.834729 0.436631 0.334249
O O1 0.500000 0.785108 0.250000
O O2 0.426394 0.676876 0.022409
O O3 0.535738 0.827383 0.932715
O O4 0.400803 0.887290 0.039926
O O5 0.000000 0.945023 0.750000
O O6 0.109340 0.029020 0.585541
O O7 0.148793 0.876962 0.807656
O O8 0.835313 0.768351 0.397339
O O9 0.744287 0.925660 0.441736
O O10 0.661454 0.119099 0.643888
O O11 0.650376 0.064123 0.311888
#
# Coordination Sequence:
#
# PCOD8248410 Si02
#       5
#     8   8   8   8   8
#     4   9  19  43  71  88 134 179 215 268 333 394
#     4  11  22  45  69  96 138 179 224 280 332 403
#     4  12  25  42  71 101 136 175 227 283 341 394
#     4  11  24  46  66 101 133 183 221 274 338 405
#     4  11  24  42  69  96 139 168 223 280 336 393
#
# _framework density 24.467866999999998
#
# number of rings (size 3 to 8) (size 9 to 14) (size 15 to 20)
#    0.000    1.200    6.000    2.400    2.800    1.600 
#    3.600    3.000    0.000    0.000    0.000    0.000 
#    0.000    0.000    0.000    0.000    0.000    0.000 
#
# Total GULP energy -495779.169689 kJ/mol
# GULP energy per Si atom -12394.479242 kJ/mol
# Density = 2.441218 g / cm^3
# Si number density = 24.467867 Si / 1000 Ang^3
#
#
#
# Elastic Constant Matrix: (Units=GPa)
#
#
# Indices 1 2 3 4 5 6 
#
# 1 120.8332 51.0759 26.8317 0.0000 0.0000 0.0000
# 2 51.0759 216.4193 13.2101 0.0000 0.0000 0.0000
# 3 26.8317 13.2101 31.4309 0.0000 0.0000 0.0000
# 4 0.0000 0.0000 0.0000 30.0655 0.0000 0.0000
# 5 0.0000 0.0000 0.0000 0.0000 12.2866 0.0000
# 6 0.0000 0.0000 0.0000 0.0000 0.0000 38.1796
#
#
#
# Elastic Compliance Matrix: (Units=1/GPa)
#
#
# Indices 1 2 3 4 5 6 
#
# 1 0.011060 -0.002087 -0.008564 0.000000 0.000000 0.000000
# 2 -0.002087 0.005136 -0.000377 0.000000 0.000000 0.000000
# 3 -0.008564 -0.000377 0.039285 0.000000 0.000000 0.000000
# 4 0.000000 0.000000 0.000000 0.033261 0.000000 0.000000
# 5 0.000000 0.000000 0.000000 0.000000 0.081389 0.000000
# 6 0.000000 0.000000 0.000000 0.000000 0.000000 0.026192
#
#
# Mechanical properties :
#
#
# Convention : Reuss Voigt Hill
#
# Bulk Modulus (GPa) = 29.91810 61.21321 45.56565
# Shear Modulus (GPa) = 21.78441 34.61072 28.19756
#
# Velocity S-wave (km/s) = 2.98707 3.76511 3.39843
# Velocity P-wave (km/s) = 4.91435 6.63126 5.83628
#
# Compressibility (1/GPa) = 0.03342459
#
# Stress axis : x y z
#
# Youngs Moduli (GPa) = 90.41608 194.69259 25.45486
#
# Poissons Ratio (x) = 0.40641 0.21800
# Poissons Ratio (y) = 0.18874 0.00959
# Poissons Ratio (z) = 0.77435 0.07335
#
# Static dielectric constant tensor:
#      x y z
#    x 4.703080 0.000000 0.000000 
#    y 0.000000 4.910670 0.000000 
#    z 0.000000 0.000000 4.031050 
# 
# 
# High freq. dielectric constant tensor:
#      x y z
#    x 1.981450 0.000000 0.000000 
#    y 0.000000 1.998770 0.000000 
#    z 0.000000 0.000000 1.932820 
# 
# From -- ./inp_files/5669.got.cif
#   From: 2010.03.12/outbox.cif.g09.slc.cpg/sg60_3_cif.got.tgz:5669.got - 2010.04.10 18:46:24.
