data_PCOD8248920
_publ_section_title
;
Structure prediction by ZEFSAII (Michael W. Deem and Ramdas Pophale) SiO2 
 PCOD8248920
Probable space group: P B C A
;
_chemical_formula_sum "Si O2"
_cell_formula_units_Z 48
_cell_length_a 16.243684
_cell_length_b 17.424025
_cell_length_c 9.047669
_cell_angle_alpha 90.000000
_cell_angle_beta 90.000000
_cell_angle_gamma 90.000000
_cell_volume 2560.764979
_symmetry_space_group_name_H-M "P B C A"
_symmetry_group_IT_number 61
_symmetry_cell_setting 'orthorhombic'
loop_
_space_group_symop_operation_xyz
x,y,z
1/2-x,-y,1/2+z
1/2+x,1/2-y,-z
-x,1/2+y,1/2-z
-x,-y,-z
1/2+x,y,1/2-z
1/2-x,1/2+y,z
x,1/2-y,1/2+z
loop_
_atom_site_type_symbol
_atom_site_label
_atom_site_fract_x
_atom_site_fract_y
_atom_site_fract_z
Si Si1 0.844824 0.978067 0.243066
Si Si2 0.070714 0.177069 0.758216
Si Si3 0.237851 0.578974 0.011887
Si Si4 0.935203 0.101977 0.588906
Si Si5 0.109869 0.329809 0.594569
Si Si6 0.008094 0.055746 0.291519
O O1 0.871954 0.893173 0.296394
O O2 0.793483 0.018568 0.369554
O O3 0.926730 0.026431 0.206445
O O4 0.790363 0.973499 0.097884
O O5 0.108947 0.253227 0.689976
O O6 0.977340 0.162966 0.699987
O O7 0.068792 0.183804 0.935067
O O8 0.294893 0.645146 0.081321
O O9 0.161283 0.621751 0.931741
O O10 0.982618 0.107418 0.432156
O O11 0.938034 0.015691 0.652140
O O12 0.060043 0.396266 0.675844
#
# Coordination Sequence:
#
# PCOD8248920 Si02
#       6
#     8   8   8   8   8   8
#     4   9  20  36  56  84 110 144 183 223 274 326
#     4  10  22  37  55  78 111 149 185 222 277 334
#     4  10  20  34  57  85 111 139 184 231 273 319
#     4   9  18  36  57  80 108 143 183 224 269 325
#     4  11  22  37  57  82 111 146 185 228 276 327
#     4   9  18  34  58  79 107 147 182 217 269 331
#
# _framework density 18.744398
#
# number of rings (size 3 to 8) (size 9 to 14) (size 15 to 20)
#    0.000    2.333    0.000    3.000    0.000    8.667 
#    0.000   11.667    0.000    0.000    0.000    0.000 
#    0.000    0.000    0.000    0.000    0.000    0.000 
#
# Total GULP energy -595228.939026 kJ/mol
# GULP energy per Si atom -12400.602896 kJ/mol
# Density = 1.870174 g / cm^3
# Si number density = 18.744398 Si / 1000 Ang^3
#
#
#
# Elastic Constant Matrix: (Units=GPa)
#
#
# Indices 1 2 3 4 5 6 
#
# 1 139.0078 60.4790 61.3620 0.0000 0.0000 0.0000
# 2 60.4790 85.2660 52.5650 0.0000 0.0000 0.0000
# 3 61.3620 52.5650 106.9124 0.0000 0.0000 0.0000
# 4 0.0000 0.0000 0.0000 29.7845 0.0000 0.0000
# 5 0.0000 0.0000 0.0000 0.0000 38.7397 0.0000
# 6 0.0000 0.0000 0.0000 0.0000 0.0000 20.3343
#
#
#
# Elastic Compliance Matrix: (Units=1/GPa)
#
#
# Indices 1 2 3 4 5 6 
#
# 1 0.011321 -0.005775 -0.003659 0.000000 0.000000 0.000000
# 2 -0.005775 0.019774 -0.006408 0.000000 0.000000 0.000000
# 3 -0.003659 -0.006408 0.014604 0.000000 0.000000 0.000000
# 4 0.000000 0.000000 0.000000 0.033575 0.000000 0.000000
# 5 0.000000 0.000000 0.000000 0.000000 0.025813 0.000000
# 6 0.000000 0.000000 0.000000 0.000000 0.000000 0.049178
#
#
# Mechanical properties :
#
#
# Convention : Reuss Voigt Hill
#
# Bulk Modulus (GPa) = 71.34212 75.55539 73.44875
# Shear Modulus (GPa) = 26.23013 28.22370 27.22692
#
# Velocity S-wave (km/s) = 3.74486 3.88456 3.81535
# Velocity P-wave (km/s) = 7.53935 7.77917 7.66020
#
# Compressibility (1/GPa) = 0.01401697
#
# Stress axis : x y z
#
# Youngs Moduli (GPa) = 88.32920 50.57037 68.47498
#
# Poissons Ratio (x) = 0.29203 0.25052
# Poissons Ratio (y) = 0.51008 0.43879
# Poissons Ratio (z) = 0.32316 0.32406
#
# Static dielectric constant tensor:
#      x y z
#    x 3.620630 0.000000 0.000000 
#    y 0.000000 3.280280 0.000000 
#    z 0.000000 0.000000 3.500280 
# 
# 
# High freq. dielectric constant tensor:
#      x y z
#    x 1.732570 0.000000 0.000000 
#    y 0.000000 1.712150 0.000000 
#    z 0.000000 0.000000 1.733860 
# 
# From -- ./inp_files/2866.got.cif
#   From: 2010.03.12/outbox.cif.g09.slc.cpg/sg61_2_cif.got.tgz:2866.got - 2010.04.10 19:05:03.
