data_PCOD8248302
_publ_section_title
;
Structure prediction by ZEFSAII (Michael W. Deem and Ramdas Pophale) SiO2 
 PCOD8248302
Probable space group: P B C N
;
_chemical_formula_sum "Si O2"
_cell_formula_units_Z 40
_cell_length_a 14.034729
_cell_length_b 17.151024
_cell_length_c 8.318777
_cell_angle_alpha 90.000000
_cell_angle_beta 90.000000
_cell_angle_gamma 90.000000
_cell_volume 2002.412595
_symmetry_space_group_name_H-M "P B C N"
_symmetry_group_IT_number 60
_symmetry_cell_setting 'orthorhombic'
loop_
_space_group_symop_operation_xyz
x,y,z
1/2-x,1/2-y,1/2+z
1/2+x,1/2-y,-z
-x,y,1/2-z
-x,-y,-z
1/2+x,1/2+y,1/2-z
1/2-x,1/2+y,z
x,-y,1/2+z
loop_
_atom_site_type_symbol
_atom_site_label
_atom_site_fract_x
_atom_site_fract_y
_atom_site_fract_z
Si Si1 0.195087 0.799044 0.363623
Si Si2 0.453636 0.252618 0.586077
Si Si3 0.392628 0.973239 0.483059
Si Si4 0.866193 0.692072 0.408480
Si Si5 0.175673 0.395031 0.170456
O O1 0.111104 0.817988 0.493490
O O2 0.291381 0.778378 0.458142
O O3 0.162403 0.722603 0.266757
O O4 0.219447 0.870103 0.239365
O O5 0.500000 0.286976 0.750000
O O6 0.532049 0.225130 0.459871
O O7 0.384155 0.181561 0.629771
O O8 0.369244 0.901552 0.603223
O O9 0.381270 0.944213 0.302626
O O10 0.500000 0.000000 0.500000
O O11 0.319792 0.045257 0.520369
#
# Coordination Sequence:
#
# PCOD8248302 Si02
#       5
#     8   8   8   8   8
#     4  11  23  38  58  88 130 164 213 253 302 381
#     4  12  20  39  59  87 131 158 207 257 307 373
#     4  11  21  34  57  89 127 165 192 247 326 383
#     4  11  22  37  61  91 125 170 204 258 311 375
#     4  11  23  38  55  91 132 160 199 249 307 390
#
# _framework density 19.975902000000001
#
# number of rings (size 3 to 8) (size 9 to 14) (size 15 to 20)
#    0.000    0.800    8.000    1.200    2.800    1.600 
#    0.000    0.000    0.000    0.000    0.000   57.400 
#    0.000    0.000    0.000    0.000    0.000    0.000 
#
# Total GULP energy -495745.611667 kJ/mol
# GULP energy per Si atom -12393.640292 kJ/mol
# Density = 1.993044 g / cm^3
# Si number density = 19.975902 Si / 1000 Ang^3
#
#
#
# Elastic Constant Matrix: (Units=GPa)
#
#
# Indices 1 2 3 4 5 6 
#
# 1 108.0171 46.1937 41.6717 0.0000 0.0000 0.0000
# 2 46.1937 58.3316 38.5811 0.0000 0.0000 0.0000
# 3 41.6717 38.5811 72.0382 0.0000 0.0000 0.0000
# 4 0.0000 0.0000 0.0000 34.8976 0.0000 0.0000
# 5 0.0000 0.0000 0.0000 0.0000 46.6521 0.0000
# 6 0.0000 0.0000 0.0000 0.0000 0.0000 24.9724
#
#
#
# Elastic Compliance Matrix: (Units=1/GPa)
#
#
# Indices 1 2 3 4 5 6 
#
# 1 0.014540 -0.009216 -0.003475 0.000000 0.000000 0.000000
# 2 -0.009216 0.032388 -0.012015 0.000000 0.000000 0.000000
# 3 -0.003475 -0.012015 0.022327 0.000000 0.000000 0.000000
# 4 0.000000 0.000000 0.000000 0.028655 0.000000 0.000000
# 5 0.000000 0.000000 0.000000 0.000000 0.021435 0.000000
# 6 0.000000 0.000000 0.000000 0.000000 0.000000 0.040044
#
#
# Mechanical properties :
#
#
# Convention : Reuss Voigt Hill
#
# Bulk Modulus (GPa) = 50.39606 54.58667 52.49137
# Shear Modulus (GPa) = 23.21104 28.76713 25.98908
#
# Velocity S-wave (km/s) = 3.41244 3.79897 3.61088
# Velocity P-wave (km/s) = 6.38823 6.82851 6.61203
#
# Compressibility (1/GPa) = 0.01984282
#
# Stress axis : x y z
#
# Youngs Moduli (GPa) = 68.77812 30.87541 44.78967
#
# Poissons Ratio (x) = 0.28454 0.15565
# Poissons Ratio (y) = 0.63383 0.53815
# Poissons Ratio (z) = 0.23901 0.37097
#
# Static dielectric constant tensor:
#      x y z
#    x 3.861240 0.000000 0.000000 
#    y 0.000000 3.738150 0.000000 
#    z 0.000000 0.000000 4.066910 
# 
# 
# High freq. dielectric constant tensor:
#      x y z
#    x 1.768490 0.000000 0.000000 
#    y 0.000000 1.739820 0.000000 
#    z 0.000000 0.000000 1.803250 
# 
# From -- ./inp_files/5678.got.cif
#   From: 2010.03.12/outbox.cif.g09.slc.cpg/sg60_3_cif.got.tgz:5678.got - 2010.04.10 18:46:24.
