data_PCOD8248718
_publ_section_title
;
Structure prediction by ZEFSAII (Michael W. Deem and Ramdas Pophale) SiO2 
 PCOD8248718
Probable space group: P B C A
;
_chemical_formula_sum "Si O2"
_cell_formula_units_Z 56
_cell_length_a 13.862099
_cell_length_b 12.405307
_cell_length_c 15.262985
_cell_angle_alpha 90.000000
_cell_angle_beta 90.000000
_cell_angle_gamma 90.000000
_cell_volume 2624.677752
_symmetry_space_group_name_H-M "P B C A"
_symmetry_group_IT_number 61
_symmetry_cell_setting 'orthorhombic'
loop_
_space_group_symop_operation_xyz
x,y,z
1/2-x,-y,1/2+z
1/2+x,1/2-y,-z
-x,1/2+y,1/2-z
-x,-y,-z
1/2+x,y,1/2-z
1/2-x,1/2+y,z
x,1/2-y,1/2+z
loop_
_atom_site_type_symbol
_atom_site_label
_atom_site_fract_x
_atom_site_fract_y
_atom_site_fract_z
Si Si1 0.858634 0.975722 0.004627
Si Si2 0.517459 0.823382 0.470838
Si Si3 0.443308 0.679784 0.621152
Si Si4 0.172466 0.125240 0.182478
Si Si5 0.549877 0.484001 0.677952
Si Si6 0.114835 0.841500 0.640261
Si Si7 0.648662 0.012677 0.999011
O O1 0.912432 0.875998 0.054339
O O2 0.754238 0.004776 0.043905
O O3 0.844343 0.944215 0.903685
O O4 0.921275 0.082264 0.014777
O O5 0.506633 0.734242 0.545759
O O6 0.570765 0.775926 0.384727
O O7 0.391123 0.766475 0.682846
O O8 0.513783 0.608249 0.683938
O O9 0.361125 0.606056 0.574451
O O10 0.140453 0.045457 0.261136
O O11 0.283888 0.162511 0.192483
O O12 0.460921 0.404900 0.701847
O O13 0.573426 0.462815 0.575903
O O14 0.128625 0.899110 0.546758
#
# Coordination Sequence:
#
# PCOD8248718 Si02
#       7
#     8   8   8   8   8   8   8
#     4   9  21  34  59  87 128 154 204 264 312 374
#     4  10  17  36  61  90 112 167 208 255 306 363
#     4  10  19  38  64  88 122 164 214 255 312 384
#     4  10  23  38  58  94 127 163 200 261 338 368
#     4  11  21  39  63  93 123 161 214 259 309 386
#     4  10  19  38  66  85 124 167 208 259 311 381
#     4  10  18  38  65  92 113 165 215 261 298 384
#
# _framework density 21.335953
#
# number of rings (size 3 to 8) (size 9 to 14) (size 15 to 20)
#    0.000    2.000    2.857    1.714    0.000    1.143 
#    7.714    0.000    6.286    0.000    0.000    0.000 
#    0.000    0.000    0.000    0.000    0.000    0.000 
#
# Total GULP energy -694122.093846 kJ/mol
# GULP energy per Si atom -12395.037390 kJ/mol
# Density = 2.128739 g / cm^3
# Si number density = 21.335953 Si / 1000 Ang^3
#
#
#
# Elastic Constant Matrix: (Units=GPa)
#
#
# Indices 1 2 3 4 5 6 
#
# 1 124.9034 39.9732 25.7703 0.0000 0.0000 0.0000
# 2 39.9732 108.0209 19.6526 0.0000 0.0000 0.0000
# 3 25.7703 19.6526 42.0678 0.0000 0.0000 0.0000
# 4 0.0000 0.0000 0.0000 25.9601 0.0000 0.0000
# 5 0.0000 0.0000 0.0000 0.0000 32.8699 0.0000
# 6 0.0000 0.0000 0.0000 0.0000 0.0000 37.8152
#
#
#
# Elastic Compliance Matrix: (Units=1/GPa)
#
#
# Indices 1 2 3 4 5 6 
#
# 1 0.009879 -0.002792 -0.004748 0.000000 0.000000 0.000000
# 2 -0.002792 0.010906 -0.003385 0.000000 0.000000 0.000000
# 3 -0.004748 -0.003385 0.028261 0.000000 0.000000 0.000000
# 4 0.000000 0.000000 0.000000 0.038521 0.000000 0.000000
# 5 0.000000 0.000000 0.000000 0.000000 0.030423 0.000000
# 6 0.000000 0.000000 0.000000 0.000000 0.000000 0.026444
#
#
# Mechanical properties :
#
#
# Convention : Reuss Voigt Hill
#
# Bulk Modulus (GPa) = 36.76786 49.53159 43.14973
# Shear Modulus (GPa) = 28.51456 31.96879 30.24167
#
# Velocity S-wave (km/s) = 3.65972 3.87506 3.76893
# Velocity P-wave (km/s) = 5.92692 6.57928 6.26160
#
# Compressibility (1/GPa) = 0.02719766
#
# Stress axis : x y z
#
# Youngs Moduli (GPa) = 101.22197 91.68865 35.38483
#
# Poissons Ratio (x) = 0.25600 0.16799
# Poissons Ratio (y) = 0.28262 0.11977
# Poissons Ratio (z) = 0.48056 0.31034
#
# Static dielectric constant tensor:
#      x y z
#    x 4.276920 0.000000 0.000000 
#    y 0.000000 3.971860 0.000000 
#    z 0.000000 0.000000 3.249670 
# 
# 
# High freq. dielectric constant tensor:
#      x y z
#    x 1.848350 0.000000 0.000000 
#    y 0.000000 1.846880 0.000000 
#    z 0.000000 0.000000 1.785940 
# 
# From -- ./inp_files/7838.got.cif
#   From: 2010.03.12/outbox.cif.g09.slc.cpg/sg61_4_cif.got.tgz:7838.got - 2010.04.10 19:05:03.
