data_PCOD8248609
_publ_section_title
;
Structure prediction by ZEFSAII (Michael W. Deem and Ramdas Pophale) SiO2 
 PCOD8248609
Probable space group: P B C N
;
_chemical_formula_sum "Si O2"
_cell_formula_units_Z 48
_cell_length_a 16.288229
_cell_length_b 8.597676
_cell_length_c 16.841576
_cell_angle_alpha 90.000000
_cell_angle_beta 90.000000
_cell_angle_gamma 90.000000
_cell_volume 2358.509722
_symmetry_space_group_name_H-M "P B C N"
_symmetry_group_IT_number 60
_symmetry_cell_setting 'orthorhombic'
loop_
_space_group_symop_operation_xyz
x,y,z
1/2-x,1/2-y,1/2+z
1/2+x,1/2-y,-z
-x,y,1/2-z
-x,-y,-z
1/2+x,1/2+y,1/2-z
1/2-x,1/2+y,z
x,-y,1/2+z
loop_
_atom_site_type_symbol
_atom_site_label
_atom_site_fract_x
_atom_site_fract_y
_atom_site_fract_z
Si Si1 0.161035 0.048060 0.354063
Si Si2 0.419639 0.913204 0.029863
Si Si3 0.987996 0.089432 0.417648
Si Si4 0.283708 0.246345 0.438860
Si Si5 0.297069 0.146512 0.096279
Si Si6 0.155708 0.952527 0.173181
O O1 0.231241 0.177527 0.366010
O O2 0.074066 0.123746 0.375334
O O3 0.176544 0.908772 0.415296
O O4 0.162849 0.988918 0.265138
O O5 0.443027 0.754076 0.073328
O O6 0.372474 0.026138 0.090625
O O7 0.357172 0.874218 0.958084
O O8 0.500000 0.000000 0.000000
O O9 0.935798 0.980925 0.358857
O O10 0.000000 0.000000 0.500000
O O11 0.222229 0.267402 0.513289
O O12 0.322414 0.272351 0.161808
O O13 0.215591 0.060361 0.122871
#
# Coordination Sequence:
#
# PCOD8248609 Si02
#       6
#     8   8   8   8   8   8
#     4  12  26  41  67 100 136 176 221 289 348 399
#     4  12  24  40  70 102 126 172 239 284 330 399
#     4  12  23  44  69  97 136 181 229 281 336 420
#     4  12  22  43  68  97 129 178 233 275 331 418
#     4  12  22  44  70  97 133 181 234 281 331 423
#     4  12  24  43  66  99 140 178 224 286 355 396
#
# _framework density 20.351835999999999
#
# number of rings (size 3 to 8) (size 9 to 14) (size 15 to 20)
#    0.000    0.000    6.667    4.500    0.000    0.000 
#    0.000    0.000    3.667    0.000    0.000    0.000 
#    0.000    0.000    0.000    0.000    0.000    0.000 
#
# Total GULP energy -595544.979224 kJ/mol
# GULP energy per Si atom -12407.187067 kJ/mol
# Density = 2.030551 g / cm^3
# Si number density = 20.351836 Si / 1000 Ang^3
#
#
#
# Elastic Constant Matrix: (Units=GPa)
#
#
# Indices 1 2 3 4 5 6 
#
# 1 133.5738 45.0537 33.6142 0.0000 0.0000 0.0000
# 2 45.0537 103.3151 29.6367 0.0000 0.0000 0.0000
# 3 33.6142 29.6367 103.4670 0.0000 0.0000 0.0000
# 4 0.0000 0.0000 0.0000 35.6423 0.0000 0.0000
# 5 0.0000 0.0000 0.0000 0.0000 19.8084 0.0000
# 6 0.0000 0.0000 0.0000 0.0000 0.0000 50.1737
#
#
#
# Elastic Compliance Matrix: (Units=1/GPa)
#
#
# Indices 1 2 3 4 5 6 
#
# 1 0.009139 -0.003414 -0.001991 0.000000 0.000000 0.000000
# 2 -0.003414 0.011821 -0.002277 0.000000 0.000000 0.000000
# 3 -0.001991 -0.002277 0.010964 0.000000 0.000000 0.000000
# 4 0.000000 0.000000 0.000000 0.028057 0.000000 0.000000
# 5 0.000000 0.000000 0.000000 0.000000 0.050484 0.000000
# 6 0.000000 0.000000 0.000000 0.000000 0.000000 0.019931
#
#
# Mechanical properties :
#
#
# Convention : Reuss Voigt Hill
#
# Bulk Modulus (GPa) = 60.38688 61.88500 61.13594
# Shear Modulus (GPa) = 33.05137 36.59495 34.82316
#
# Velocity S-wave (km/s) = 4.03426 4.24502 4.14098
# Velocity P-wave (km/s) = 7.17190 7.38245 7.27794
#
# Compressibility (1/GPa) = 0.01655989
#
# Stress axis : x y z
#
# Youngs Moduli (GPa) = 109.41894 84.59439 91.20798
#
# Poissons Ratio (x) = 0.28883 0.18161
# Poissons Ratio (y) = 0.37358 0.20766
# Poissons Ratio (z) = 0.21787 0.19260
#
# Static dielectric constant tensor:
#      x y z
#    x 3.750540 0.000000 0.000000 
#    y 0.000000 3.917310 0.000000 
#    z 0.000000 0.000000 3.594120 
# 
# 
# High freq. dielectric constant tensor:
#      x y z
#    x 1.815080 0.000000 0.000000 
#    y 0.000000 1.809140 0.000000 
#    z 0.000000 0.000000 1.778680 
# 
# From -- ./inp_files/20488.got.cif
#   From: 2010.03.12/outbox.cif.g09.slc.cpg/sg60_11_cif.got.tgz:20488.got - 2010.04.10 18:46:24.
