data_PCOD8248257
_publ_section_title
;
Structure prediction by ZEFSAII (Michael W. Deem and Ramdas Pophale) SiO2 
 PCOD8248257
Probable space group: P B C N
;
_chemical_formula_sum "Si O2"
_cell_formula_units_Z 40
_cell_length_a 10.241777
_cell_length_b 21.272937
_cell_length_c 8.211716
_cell_angle_alpha 90.000000
_cell_angle_beta 90.000000
_cell_angle_gamma 90.000000
_cell_volume 1789.108547
_symmetry_space_group_name_H-M "P B C N"
_symmetry_group_IT_number 60
_symmetry_cell_setting 'orthorhombic'
loop_
_space_group_symop_operation_xyz
x,y,z
1/2-x,1/2-y,1/2+z
1/2+x,1/2-y,-z
-x,y,1/2-z
-x,-y,-z
1/2+x,1/2+y,1/2-z
1/2-x,1/2+y,z
x,-y,1/2+z
loop_
_atom_site_type_symbol
_atom_site_label
_atom_site_fract_x
_atom_site_fract_y
_atom_site_fract_z
Si Si1 0.621028 0.044422 0.514743
Si Si2 0.000000 0.125086 0.250000
Si Si3 0.315723 0.804300 0.009235
Si Si4 0.500000 0.856926 0.250000
Si Si5 0.016215 0.203346 0.572386
Si Si6 0.764145 0.568708 0.175806
O O1 0.585404 0.102581 0.626548
O O2 0.651784 0.070936 0.338555
O O3 0.500000 0.000000 0.500000
O O4 0.733218 0.999575 0.589294
O O5 0.884198 0.077929 0.219814
O O6 0.969055 0.164577 0.414206
O O7 0.411037 0.759846 0.902698
O O8 0.314158 0.874410 0.935979
O O9 0.391322 0.810295 0.178885
O O10 0.168640 0.777408 0.037596
O O11 0.000000 0.168096 0.750000
#
# Coordination Sequence:
#
# PCOD8248257 Si02
#       6
#     8   4   8   4   8   8
#     4  12  22  41  67 104 131 171 233 285 340 426
#     4  10  27  50  68 100 146 186 237 288 352 430
#     4  11  27  45  70 102 139 189 229 296 352 417
#     4  12  25  40  70  98 138 180 231 286 358 410
#     4  11  28  48  71 104 142 187 244 287 352 427
#     4  11  24  45  70  99 141 179 229 293 355 413
#
# _framework density 22.357503000000001
#
# number of rings (size 3 to 8) (size 9 to 14) (size 15 to 20)
#    0.000    0.800    4.000    0.600   14.000    0.800 
#    0.000    0.000    0.000    0.000    0.000    0.000 
#    0.000    0.000    0.000    0.000    0.000    0.000 
#
# Total GULP energy -495667.681398 kJ/mol
# GULP energy per Si atom -12391.692035 kJ/mol
# Density = 2.230662 g / cm^3
# Si number density = 22.357503 Si / 1000 Ang^3
#
#
#
# Elastic Constant Matrix: (Units=GPa)
#
#
# Indices 1 2 3 4 5 6 
#
# 1 141.3524 32.3016 24.7727 0.0000 0.0000 0.0000
# 2 32.3016 35.3149 7.5786 0.0000 0.0000 0.0000
# 3 24.7727 7.5786 124.1520 0.0000 0.0000 0.0000
# 4 0.0000 0.0000 0.0000 26.5914 0.0000 0.0000
# 5 0.0000 0.0000 0.0000 0.0000 43.0291 0.0000
# 6 0.0000 0.0000 0.0000 0.0000 0.0000 37.2408
#
#
#
# Elastic Compliance Matrix: (Units=1/GPa)
#
#
# Indices 1 2 3 4 5 6 
#
# 1 0.009157 -0.008089 -0.001333 0.000000 0.000000 0.000000
# 2 -0.008089 0.035839 -0.000574 0.000000 0.000000 0.000000
# 3 -0.001333 -0.000574 0.008356 0.000000 0.000000 0.000000
# 4 0.000000 0.000000 0.000000 0.037606 0.000000 0.000000
# 5 0.000000 0.000000 0.000000 0.000000 0.023240 0.000000
# 6 0.000000 0.000000 0.000000 0.000000 0.000000 0.026852
#
#
# Mechanical properties :
#
#
# Convention : Reuss Voigt Hill
#
# Bulk Modulus (GPa) = 29.97702 47.79168 38.88435
# Shear Modulus (GPa) = 29.04242 37.11668 33.07955
#
# Velocity S-wave (km/s) = 3.60808 4.07891 3.85069
# Velocity P-wave (km/s) = 5.54930 6.60347 6.09920
#
# Compressibility (1/GPa) = 0.03335889
#
# Stress axis : x y z
#
# Youngs Moduli (GPa) = 109.20912 27.90264 119.67884
#
# Poissons Ratio (x) = 0.22571 0.15957
# Poissons Ratio (y) = 0.88343 0.06865
# Poissons Ratio (z) = 0.14561 0.01601
#
# Static dielectric constant tensor:
#      x y z
#    x 4.231020 0.000000 0.000000 
#    y 0.000000 -0.720590 0.000000 
#    z 0.000000 0.000000 4.311610 
# 
# 
# High freq. dielectric constant tensor:
#      x y z
#    x 1.893360 0.000000 0.000000 
#    y 0.000000 1.863890 0.000000 
#    z 0.000000 0.000000 1.901630 
# 
# From -- ./inp_files/3928.got.cif
#   From: 2010.03.12/outbox.cif.g09.slc.cpg/sg60_2_cif.got.tgz:3928.got - 2010.04.10 18:46:24.
