data_PCOD8248315
_publ_section_title
;
Structure prediction by ZEFSAII (Michael W. Deem and Ramdas Pophale) SiO2 
 PCOD8248315
Probable space group: P B C N
;
_chemical_formula_sum "Si O2"
_cell_formula_units_Z 64
_cell_length_a 18.417780
_cell_length_b 14.161762
_cell_length_c 12.586539
_cell_angle_alpha 90.000000
_cell_angle_beta 90.000000
_cell_angle_gamma 90.000000
_cell_volume 3282.924525
_symmetry_space_group_name_H-M "P B C N"
_symmetry_group_IT_number 60
_symmetry_cell_setting 'orthorhombic'
loop_
_space_group_symop_operation_xyz
x,y,z
1/2-x,1/2-y,1/2+z
1/2+x,1/2-y,-z
-x,y,1/2-z
-x,-y,-z
1/2+x,1/2+y,1/2-z
1/2-x,1/2+y,z
x,-y,1/2+z
loop_
_atom_site_type_symbol
_atom_site_label
_atom_site_fract_x
_atom_site_fract_y
_atom_site_fract_z
Si Si1 0.193097 0.218870 0.480720
Si Si2 0.814488 0.145839 0.236194
Si Si3 0.956660 0.054013 0.647916
Si Si4 0.703646 0.891596 0.357668
Si Si5 0.465425 0.356863 0.966817
Si Si6 0.064210 0.266509 0.180890
Si Si7 0.235593 0.408179 0.558342
Si Si8 0.300773 0.564881 0.834849
O O1 0.225260 0.202200 0.360626
O O2 0.244417 0.161748 0.560717
O O3 0.111172 0.189246 0.486146
O O4 0.184648 0.329861 0.505575
O O5 0.895912 0.188210 0.245355
O O6 0.777415 0.153764 0.351794
O O7 0.816216 0.037486 0.210783
O O8 0.880967 0.109433 0.673735
O O9 0.000000 0.024596 0.750000
O O10 0.003017 0.128447 0.583023
O O11 0.946639 0.955919 0.586906
O O12 0.623664 0.844411 0.356248
O O13 0.739975 0.884984 0.239478
O O14 0.694188 0.001547 0.392013
O O15 0.525578 0.289261 0.913691
O O16 0.000000 0.315876 0.250000
O O17 0.284601 0.443247 0.460323
#
# Coordination Sequence:
#
# PCOD8248315 Si02
#       8
#     8   8   8   8   8   8   8   8
#     4  12  22  42  64  93 130 167 215 270 322 385
#     4  11  21  39  65  96 124 167 211 270 320 378
#     4  11  21  37  60  94 132 163 199 267 331 391
#     4  11  25  42  65  98 124 171 219 271 318 389
#     4  11  23  37  62  93 129 168 210 258 329 391
#     4  12  22  41  65  93 128 172 222 261 322 393
#     4  11  24  40  66  96 129 165 221 269 320 373
#     4  11  21  39  64  92 132 163 214 265 325 380
#
# _framework density 19.494814999999999
#
# number of rings (size 3 to 8) (size 9 to 14) (size 15 to 20)
#    0.000    0.750    5.000    3.375    0.000    4.000 
#    0.000    0.625    0.000    0.000    0.000    0.000 
#    0.000    0.000    0.000    0.000    0.000    0.000 
#
# Total GULP energy -792840.127850 kJ/mol
# GULP energy per Si atom -12388.126998 kJ/mol
# Density = 1.945044 g / cm^3
# Si number density = 19.494815 Si / 1000 Ang^3
#
#
#
# Elastic Constant Matrix: (Units=GPa)
#
#
# Indices 1 2 3 4 5 6 
#
# 1 118.4934 43.9460 45.8453 0.0000 0.0000 0.0000
# 2 43.9460 69.8241 22.9538 0.0000 0.0000 0.0000
# 3 45.8453 22.9538 104.3829 0.0000 0.0000 0.0000
# 4 0.0000 0.0000 0.0000 26.8510 0.0000 0.0000
# 5 0.0000 0.0000 0.0000 0.0000 32.7832 0.0000
# 6 0.0000 0.0000 0.0000 0.0000 0.0000 35.3311
#
#
#
# Elastic Compliance Matrix: (Units=1/GPa)
#
#
# Indices 1 2 3 4 5 6 
#
# 1 0.012399 -0.006482 -0.004020 0.000000 0.000000 0.000000
# 2 -0.006482 0.018826 -0.001293 0.000000 0.000000 0.000000
# 3 -0.004020 -0.001293 0.011630 0.000000 0.000000 0.000000
# 4 0.000000 0.000000 0.000000 0.037243 0.000000 0.000000
# 5 0.000000 0.000000 0.000000 0.000000 0.030503 0.000000
# 6 0.000000 0.000000 0.000000 0.000000 0.000000 0.028304
#
#
# Mechanical properties :
#
#
# Convention : Reuss Voigt Hill
#
# Bulk Modulus (GPa) = 51.90785 57.57675 54.74230
# Shear Modulus (GPa) = 29.60041 30.99010 30.29525
#
# Velocity S-wave (km/s) = 3.90086 3.99138 3.94638
# Velocity P-wave (km/s) = 6.85370 7.13022 6.99332
#
# Compressibility (1/GPa) = 0.01926491
#
# Stress axis : x y z
#
# Youngs Moduli (GPa) = 80.65387 53.11700 85.98370
#
# Poissons Ratio (x) = 0.34430 0.34567
# Poissons Ratio (y) = 0.52279 0.11118
# Poissons Ratio (z) = 0.32424 0.06868
#
# Static dielectric constant tensor:
#      x y z
#    x 4.717610 0.000000 0.000000 
#    y 0.000000 3.598000 0.000000 
#    z 0.000000 0.000000 4.303320 
# 
# 
# High freq. dielectric constant tensor:
#      x y z
#    x 1.748170 0.000000 0.000000 
#    y 0.000000 1.750920 0.000000 
#    z 0.000000 0.000000 1.782490 
# 
# From -- ./inp_files/12555.got.cif
#   From: 2010.03.12/outbox.cif.g09.slc.cpg/sg60_7_cif.got.tgz:12555.got - 2010.04.10 18:46:24.
