data_PCOD8248543
_publ_section_title
;
Structure prediction by ZEFSAII (Michael W. Deem and Ramdas Pophale) SiO2 
 PCOD8248543
Probable space group: P B C N
;
_chemical_formula_sum "Si O2"
_cell_formula_units_Z 32
_cell_length_a 8.955342
_cell_length_b 13.629405
_cell_length_c 10.857970
_cell_angle_alpha 90.000000
_cell_angle_beta 90.000000
_cell_angle_gamma 90.000000
_cell_volume 1325.280202
_symmetry_space_group_name_H-M "P B C N"
_symmetry_group_IT_number 60
_symmetry_cell_setting 'orthorhombic'
loop_
_space_group_symop_operation_xyz
x,y,z
1/2-x,1/2-y,1/2+z
1/2+x,1/2-y,-z
-x,y,1/2-z
-x,-y,-z
1/2+x,1/2+y,1/2-z
1/2-x,1/2+y,z
x,-y,1/2+z
loop_
_atom_site_type_symbol
_atom_site_label
_atom_site_fract_x
_atom_site_fract_y
_atom_site_fract_z
Si Si1 0.730933 0.339657 0.722869
Si Si2 0.144785 0.859879 0.321485
Si Si3 0.537601 0.605548 0.439505
Si Si4 0.414775 0.999034 0.367805
O O1 0.772653 0.226447 0.753333
O O2 0.601373 0.341192 0.622272
O O3 0.676760 0.399043 0.844000
O O4 0.879971 0.388470 0.667402
O O5 0.081859 0.819344 0.451247
O O6 0.254669 0.945998 0.367648
O O7 0.000000 0.904758 0.250000
O O8 0.500000 0.500000 0.500000
O O9 0.500000 0.951283 0.250000
O O10 0.500000 0.000000 0.500000
#
# Coordination Sequence:
#
# PCOD8248543 Si02
#       4
#     8   8   8   8
#     4  11  27  46  75 112 150 198 261 315 395 468
#     4  12  28  46  79 106 153 204 257 314 394 471
#     4  11  24  49  77 109 152 201 256 323 393 473
#     4  12  28  47  74 111 152 198 256 327 391 460
#
# _framework density 24.145838000000001
#
# number of rings (size 3 to 8) (size 9 to 14) (size 15 to 20)
#    0.000    0.500    2.500    3.750   14.000    0.000 
#    0.000    0.000    0.000    0.000    0.000    0.000 
#    0.000    0.000    0.000    0.000    0.000    0.000 
#
# Total GULP energy -396449.123770 kJ/mol
# GULP energy per Si atom -12389.035118 kJ/mol
# Density = 2.409088 g / cm^3
# Si number density = 24.145838 Si / 1000 Ang^3
#
#
#
# Elastic Constant Matrix: (Units=GPa)
#
#
# Indices 1 2 3 4 5 6 
#
# 1 136.2227 35.4224 81.5099 0.0000 0.0000 0.0000
# 2 35.4224 85.2754 16.2004 0.0000 0.0000 0.0000
# 3 81.5099 16.2004 186.8364 0.0000 0.0000 0.0000
# 4 0.0000 0.0000 0.0000 32.3299 0.0000 0.0000
# 5 0.0000 0.0000 0.0000 0.0000 55.5326 0.0000
# 6 0.0000 0.0000 0.0000 0.0000 0.0000 37.7239
#
#
#
# Elastic Compliance Matrix: (Units=1/GPa)
#
#
# Indices 1 2 3 4 5 6 
#
# 1 0.010980 -0.003712 -0.004468 0.000000 0.000000 0.000000
# 2 -0.003712 0.013178 0.000477 0.000000 0.000000 0.000000
# 3 -0.004468 0.000477 0.007260 0.000000 0.000000 0.000000
# 4 0.000000 0.000000 0.000000 0.030931 0.000000 0.000000
# 5 0.000000 0.000000 0.000000 0.000000 0.018007 0.000000
# 6 0.000000 0.000000 0.000000 0.000000 0.000000 0.026508
#
#
# Mechanical properties :
#
#
# Convention : Reuss Voigt Hill
#
# Bulk Modulus (GPa) = 62.45642 74.95555 68.70598
# Shear Modulus (GPa) = 39.18221 43.46407 41.32314
#
# Velocity S-wave (km/s) = 4.03268 4.24732 4.14139
# Velocity P-wave (km/s) = 6.89970 7.42719 7.16830
#
# Compressibility (1/GPa) = 0.01601116
#
# Stress axis : x y z
#
# Youngs Moduli (GPa) = 91.07681 75.88373 137.73631
#
# Poissons Ratio (x) = 0.28168 0.61543
# Poissons Ratio (y) = 0.33808 -0.06567
# Poissons Ratio (z) = 0.40695 -0.03618
#
# Static dielectric constant tensor:
#      x y z
#    x 4.628750 0.000000 0.000000 
#    y 0.000000 3.894130 0.000000 
#    z 0.000000 0.000000 4.756320 
# 
# 
# High freq. dielectric constant tensor:
#      x y z
#    x 1.978230 0.000000 0.000000 
#    y 0.000000 1.935320 0.000000 
#    z 0.000000 0.000000 1.975350 
# 
# From -- ./inp_files/9586.got.cif
#   From: 2010.03.12/outbox.cif.g09.slc.cpg/sg60_5_cif.got.tgz:9586.got - 2010.04.10 18:46:24.
