data_PCOD8248158
_publ_section_title
;
Structure prediction by ZEFSAII (Michael W. Deem and Ramdas Pophale) SiO2 
 PCOD8248158
Probable space group: P B C N
;
_chemical_formula_sum "Si O2"
_cell_formula_units_Z 36
_cell_length_a 27.879656
_cell_length_b 5.638332
_cell_length_c 9.771007
_cell_angle_alpha 90.000000
_cell_angle_beta 90.000000
_cell_angle_gamma 90.000000
_cell_volume 1535.951067
_symmetry_space_group_name_H-M "P B C N"
_symmetry_group_IT_number 60
_symmetry_cell_setting 'orthorhombic'
loop_
_space_group_symop_operation_xyz
x,y,z
1/2-x,1/2-y,1/2+z
1/2+x,1/2-y,-z
-x,y,1/2-z
-x,-y,-z
1/2+x,1/2+y,1/2-z
1/2-x,1/2+y,z
x,-y,1/2+z
loop_
_atom_site_type_symbol
_atom_site_label
_atom_site_fract_x
_atom_site_fract_y
_atom_site_fract_z
Si Si1 0.837954 0.058403 0.753618
Si Si2 0.583352 0.115473 0.369711
Si Si3 0.277996 0.618879 0.006925
Si Si4 0.000000 0.073125 0.750000
Si Si5 0.578235 0.264123 0.657377
O O1 0.865628 0.279113 0.821983
O O2 0.797180 0.144565 0.648284
O O3 0.874485 0.922061 0.654879
O O4 0.818073 0.886171 0.873467
O O5 0.538238 0.278334 0.334880
O O6 0.583031 0.078063 0.533273
O O7 0.575454 0.861575 0.303969
O O8 0.251586 0.363012 0.028022
O O9 0.970197 0.915902 0.641287
#
# Coordination Sequence:
#
# PCOD8248158 Si02
#       5
#     8   8   8   4   8
#     4  11  26  45  70 106 144 190 240 301 370 435
#     4  11  25  43  71 101 145 186 238 297 359 440
#     4  12  28  48  76 107 148 193 248 308 372 444
#     4  10  24  44  68 104 138 184 242 294 362 424
#     4  11  25  43  71 101 145 186 238 297 359 440
#
# _framework density 23.438247
#
# number of rings (size 3 to 8) (size 9 to 14) (size 15 to 20)
#    0.000    0.889    2.222    2.667    9.333    5.333 
#    0.000    0.000    0.000    0.000    0.000    0.000 
#    0.000    0.000    0.000    0.000    0.000    0.000 
#
# Total GULP energy -446287.032647 kJ/mol
# GULP energy per Si atom -12396.862018 kJ/mol
# Density = 2.338490 g / cm^3
# Si number density = 23.438247 Si / 1000 Ang^3
#
#
#
# Elastic Constant Matrix: (Units=GPa)
#
#
# Indices 1 2 3 4 5 6 
#
# 1 102.2718 23.7409 9.6834 0.0000 0.0000 0.0000
# 2 23.7409 79.2014 -17.1584 0.0000 0.0000 0.0000
# 3 9.6834 -17.1584 79.2735 0.0000 0.0000 0.0000
# 4 0.0000 0.0000 0.0000 29.4602 0.0000 0.0000
# 5 0.0000 0.0000 0.0000 0.0000 14.3363 0.0000
# 6 0.0000 0.0000 0.0000 0.0000 0.0000 4.4859
#
#
#
# Elastic Compliance Matrix: (Units=1/GPa)
#
#
# Indices 1 2 3 4 5 6 
#
# 1 0.010841 -0.003710 -0.002127 0.000000 0.000000 0.000000
# 2 -0.003710 0.014517 0.003595 0.000000 0.000000 0.000000
# 3 -0.002127 0.003595 0.013653 0.000000 0.000000 0.000000
# 4 0.000000 0.000000 0.000000 0.033944 0.000000 0.000000
# 5 0.000000 0.000000 0.000000 0.000000 0.069753 0.000000
# 6 0.000000 0.000000 0.000000 0.000000 0.000000 0.222920
#
#
# Mechanical properties :
#
#
# Convention : Reuss Voigt Hill
#
# Bulk Modulus (GPa) = 28.96381 32.58650 30.77516
# Shear Modulus (GPa) = 13.10203 25.95520 19.52861
#
# Velocity S-wave (km/s) = 2.36689 3.33135 2.88964
# Velocity P-wave (km/s) = 4.45577 5.36009 4.92871
#
# Compressibility (1/GPa) = 0.03452584
#
# Stress axis : x y z
#
# Youngs Moduli (GPa) = 92.24588 68.88401 73.24605
#
# Poissons Ratio (x) = 0.25559 0.15582
# Poissons Ratio (y) = 0.34227 -0.26335
# Poissons Ratio (z) = 0.19623 -0.24767
#
# Static dielectric constant tensor:
#      x y z
#    x 4.468920 0.000000 0.000000 
#    y 0.000000 4.010810 0.000000 
#    z 0.000000 0.000000 4.241970 
# 
# 
# High freq. dielectric constant tensor:
#      x y z
#    x 1.942120 0.000000 0.000000 
#    y 0.000000 1.916380 0.000000 
#    z 0.000000 0.000000 1.937950 
# 
# From -- ./inp_files/12988.got.cif
#   From: 2010.03.12/outbox.cif.g09.slc.cpg/sg60_7_cif.got.tgz:12988.got - 2010.04.10 18:46:24.
