data_PCOD8248762
_publ_section_title
;
Structure prediction by ZEFSAII (Michael W. Deem and Ramdas Pophale) SiO2 
 PCOD8248762
Probable space group: P B C A
;
_chemical_formula_sum "Si O2"
_cell_formula_units_Z 64
_cell_length_a 17.928913
_cell_length_b 13.837351
_cell_length_c 13.819110
_cell_angle_alpha 90.000000
_cell_angle_beta 90.000000
_cell_angle_gamma 90.000000
_cell_volume 3428.364513
_symmetry_space_group_name_H-M "P B C A"
_symmetry_group_IT_number 61
_symmetry_cell_setting 'orthorhombic'
loop_
_space_group_symop_operation_xyz
x,y,z
1/2-x,-y,1/2+z
1/2+x,1/2-y,-z
-x,1/2+y,1/2-z
-x,-y,-z
1/2+x,y,1/2-z
1/2-x,1/2+y,z
x,1/2-y,1/2+z
loop_
_atom_site_type_symbol
_atom_site_label
_atom_site_fract_x
_atom_site_fract_y
_atom_site_fract_z
Si Si1 0.918122 0.814773 0.773543
Si Si2 0.573475 0.781362 0.196608
Si Si3 0.625544 0.508421 0.700880
Si Si4 0.802377 0.818121 0.184344
Si Si5 0.193347 0.758008 0.659253
Si Si6 0.799220 0.576078 0.374057
Si Si7 0.693184 0.710691 0.057873
Si Si8 0.768782 0.998763 0.086064
O O1 0.879917 0.733151 0.707008
O O2 0.866674 0.843695 0.866697
O O3 0.993413 0.768225 0.812520
O O4 0.926421 0.911625 0.706141
O O5 0.571520 0.898488 0.203771
O O6 0.611892 0.737714 0.292494
O O7 0.617089 0.754729 0.099012
O O8 0.682496 0.506087 0.793582
O O9 0.679312 0.510618 0.605949
O O10 0.744908 0.807521 0.272324
O O11 0.764285 0.775325 0.087067
O O12 0.815274 0.930703 0.159944
O O13 0.223051 0.867545 0.651670
O O14 0.188187 0.704994 0.556888
O O15 0.790555 0.527260 0.476968
O O16 0.704858 0.606747 0.106764
#
# Coordination Sequence:
#
# PCOD8248762 Si02
#       8
#     8   8   8   8   8   8   8   8
#     4   9  22  40  55  87 127 158 192 250 301 367
#     4  11  21  39  58  81 127 159 195 241 303 374
#     4  10  19  36  62  88 114 160 198 251 301 354
#     4  10  20  37  59  88 114 157 197 254 306 345
#     4  10  18  37  61  88 115 155 203 250 301 352
#     4   9  20  37  61  89 117 149 206 253 299 352
#     4  11  21  35  61  92 114 158 203 250 303 357
#     4  12  19  35  64  90 117 148 207 259 295 351
#
# _framework density 18.667794000000001
#
# number of rings (size 3 to 8) (size 9 to 14) (size 15 to 20)
#    0.750    1.000    5.000    1.500    0.000    1.000 
#    2.250    0.625    0.000    1.500    0.000    0.000 
#    0.000    0.000    0.000    0.000    0.000    0.000 
#
# Total GULP energy -793108.296838 kJ/mol
# GULP energy per Si atom -12392.317138 kJ/mol
# Density = 1.862530 g / cm^3
# Si number density = 18.667794 Si / 1000 Ang^3
#
#
#
# Elastic Constant Matrix: (Units=GPa)
#
#
# Indices 1 2 3 4 5 6 
#
# 1 67.6915 25.9178 12.6359 0.0000 0.0000 0.0000
# 2 25.9178 101.3514 6.2549 0.0000 0.0000 0.0000
# 3 12.6359 6.2549 84.6500 0.0000 0.0000 0.0000
# 4 0.0000 0.0000 0.0000 26.4389 0.0000 0.0000
# 5 0.0000 0.0000 0.0000 0.0000 12.2436 0.0000
# 6 0.0000 0.0000 0.0000 0.0000 0.0000 27.3639
#
#
#
# Elastic Compliance Matrix: (Units=1/GPa)
#
#
# Indices 1 2 3 4 5 6 
#
# 1 0.016773 -0.004154 -0.002197 0.000000 0.000000 0.000000
# 2 -0.004154 0.010940 -0.000188 0.000000 0.000000 0.000000
# 3 -0.002197 -0.000188 0.012155 0.000000 0.000000 0.000000
# 4 0.000000 0.000000 0.000000 0.037823 0.000000 0.000000
# 5 0.000000 0.000000 0.000000 0.000000 0.081675 0.000000
# 6 0.000000 0.000000 0.000000 0.000000 0.000000 0.036545
#
#
# Mechanical properties :
#
#
# Convention : Reuss Voigt Hill
#
# Bulk Modulus (GPa) = 37.32585 38.14558 37.73571
# Shear Modulus (GPa) = 22.94418 27.13490 25.03954
#
# Velocity S-wave (km/s) = 3.50962 3.81670 3.66638
# Velocity P-wave (km/s) = 6.03833 6.31674 6.17911
#
# Compressibility (1/GPa) = 0.02679109
#
# Stress axis : x y z
#
# Youngs Moduli (GPa) = 59.61827 91.40365 82.26933
#
# Poissons Ratio (x) = 0.37967 0.18074
# Poissons Ratio (y) = 0.24764 0.01550
# Poissons Ratio (z) = 0.13097 0.01722
#
# Static dielectric constant tensor:
#      x y z
#    x 3.090760 0.000000 0.000000 
#    y 0.000000 3.600040 0.000000 
#    z 0.000000 0.000000 3.338220 
# 
# 
# High freq. dielectric constant tensor:
#      x y z
#    x 1.683420 0.000000 0.000000 
#    y 0.000000 1.742300 0.000000 
#    z 0.000000 0.000000 1.718090 
# 
# From -- ./inp_files/8270.got.cif
#   From: 2010.03.12/outbox.cif.g09.slc.cpg/sg61_5_cif.got.tgz:8270.got - 2010.04.10 19:05:03.
