data_PCOD8248080
_publ_section_title
;
Structure prediction by ZEFSAII (Michael W. Deem and Ramdas Pophale) SiO2 
 PCOD8248080
Probable space group: P B C N
;
_chemical_formula_sum "Si O2"
_cell_formula_units_Z 60
_cell_length_a 10.726026
_cell_length_b 9.295532
_cell_length_c 26.655703
_cell_angle_alpha 90.000000
_cell_angle_beta 90.000000
_cell_angle_gamma 90.000000
_cell_volume 2657.683355
_symmetry_space_group_name_H-M "P B C N"
_symmetry_group_IT_number 60
_symmetry_cell_setting 'orthorhombic'
loop_
_space_group_symop_operation_xyz
x,y,z
1/2-x,1/2-y,1/2+z
1/2+x,1/2-y,-z
-x,y,1/2-z
-x,-y,-z
1/2+x,1/2+y,1/2-z
1/2-x,1/2+y,z
x,-y,1/2+z
loop_
_atom_site_type_symbol
_atom_site_label
_atom_site_fract_x
_atom_site_fract_y
_atom_site_fract_z
Si Si1 0.604329 0.976025 0.841148
Si Si2 0.449303 0.141570 0.562983
Si Si3 0.454456 0.716157 0.883105
Si Si4 0.729619 0.639784 0.263502
Si Si5 0.500000 0.143882 0.750000
Si Si6 0.833784 0.578715 0.041119
Si Si7 0.878947 0.877734 0.221727
Si Si8 0.955904 0.042712 0.053827
O O1 0.620114 0.090248 0.886218
O O2 0.507901 0.041632 0.799403
O O3 0.557219 0.827710 0.864985
O O4 0.740469 0.934666 0.817673
O O5 0.352744 0.124450 0.516941
O O6 0.489353 0.305270 0.570719
O O7 0.576009 0.054022 0.553440
O O8 0.362893 0.786384 0.923582
O O9 0.378584 0.655998 0.836354
O O10 0.514416 0.575010 0.908413
O O11 0.617230 0.750411 0.256194
O O12 0.852268 0.730651 0.251183
O O13 0.721975 0.505370 0.225646
O O14 0.693591 0.535239 0.053276
O O15 0.000000 0.942274 0.250000
O O16 0.000000 0.000000 0.000000
#
# Coordination Sequence:
#
# PCOD8248080 Si02
#       8
#     8   8   8   8   4   8   8   8
#     4  11  25  51  73 104 154 196 249 309 381 443
#     4  10  24  46  75 105 151 200 245 311 375 447
#     4  11  25  45  76 104 144 194 250 308 367 442
#     4  12  26  47  73 104 150 196 243 312 368 451
#     4  12  26  46  74 110 148 194 250 304 376 448
#     4  10  23  48  70 108 151 194 248 307 374 440
#     4  12  26  46  72 108 147 191 250 303 370 444
#     4  12  25  46  74 111 145 190 250 312 371 451
#
# _framework density 22.576053999999999
#
# number of rings (size 3 to 8) (size 9 to 14) (size 15 to 20)
#    0.000    0.800    4.667    1.600    3.733    1.067 
#    7.200    0.000    0.000    0.000    0.000    0.000 
#    0.000    0.000    0.000    0.000    0.000    0.000 
#
# Total GULP energy -743650.081388 kJ/mol
# GULP energy per Si atom -12394.168023 kJ/mol
# Density = 2.252467 g / cm^3
# Si number density = 22.576054 Si / 1000 Ang^3
#
#
#
# Elastic Constant Matrix: (Units=GPa)
#
#
# Indices 1 2 3 4 5 6 
#
# 1 56.0684 38.0511 31.9215 0.0000 0.0000 0.0000
# 2 38.0511 183.4799 73.6870 0.0000 0.0000 0.0000
# 3 31.9215 73.6870 158.2316 0.0000 0.0000 0.0000
# 4 0.0000 0.0000 0.0000 44.9253 0.0000 0.0000
# 5 0.0000 0.0000 0.0000 0.0000 24.1590 0.0000
# 6 0.0000 0.0000 0.0000 0.0000 0.0000 32.6700
#
#
#
# Elastic Compliance Matrix: (Units=1/GPa)
#
#
# Indices 1 2 3 4 5 6 
#
# 1 0.021727 -0.003377 -0.002811 0.000000 0.000000 0.000000
# 2 -0.003377 0.007229 -0.002685 0.000000 0.000000 0.000000
# 3 -0.002811 -0.002685 0.008137 0.000000 0.000000 0.000000
# 4 0.000000 0.000000 0.000000 0.022259 0.000000 0.000000
# 5 0.000000 0.000000 0.000000 0.000000 0.041392 0.000000
# 6 0.000000 0.000000 0.000000 0.000000 0.000000 0.030609
#
#
# Mechanical properties :
#
#
# Convention : Reuss Voigt Hill
#
# Bulk Modulus (GPa) = 51.68522 76.12214 63.90368
# Shear Modulus (GPa) = 32.14410 37.29220 34.71815
#
# Velocity S-wave (km/s) = 3.77744 4.06870 3.92577
# Velocity P-wave (km/s) = 6.47834 7.47420 6.99402
#
# Compressibility (1/GPa) = 0.01934789
#
# Stress axis : x y z
#
# Youngs Moduli (GPa) = 46.02471 138.33261 122.89105
#
# Poissons Ratio (x) = 0.46718 0.34539
# Poissons Ratio (y) = 0.15544 0.32998
# Poissons Ratio (z) = 0.12935 0.37144
#
# Static dielectric constant tensor:
#      x y z
#    x 2.988640 0.000000 0.000000 
#    y 0.000000 4.328100 0.000000 
#    z 0.000000 0.000000 4.231220 
# 
# 
# High freq. dielectric constant tensor:
#      x y z
#    x 1.869890 0.000000 0.000000 
#    y 0.000000 1.922780 0.000000 
#    z 0.000000 0.000000 1.896810 
# 
# From -- ./inp_files/25357.got.cif
#   From: 2010.03.12/outbox.cif.g09.slc.cpg/sg60_13_cif.got.tgz:25357.got - 2010.04.10 18:46:24.
