data_PCOD8248226
_publ_section_title
;
Structure prediction by ZEFSAII (Michael W. Deem and Ramdas Pophale) SiO2 
 PCOD8248226
Probable space group: P B C N
;
_chemical_formula_sum "Si O2"
_cell_formula_units_Z 56
_cell_length_a 19.281491
_cell_length_b 13.324066
_cell_length_c 9.018297
_cell_angle_alpha 90.000000
_cell_angle_beta 90.000000
_cell_angle_gamma 90.000000
_cell_volume 2316.871371
_symmetry_space_group_name_H-M "P B C N"
_symmetry_group_IT_number 60
_symmetry_cell_setting 'orthorhombic'
loop_
_space_group_symop_operation_xyz
x,y,z
1/2-x,1/2-y,1/2+z
1/2+x,1/2-y,-z
-x,y,1/2-z
-x,-y,-z
1/2+x,1/2+y,1/2-z
1/2-x,1/2+y,z
x,-y,1/2+z
loop_
_atom_site_type_symbol
_atom_site_label
_atom_site_fract_x
_atom_site_fract_y
_atom_site_fract_z
Si Si1 0.500000 0.534751 0.750000
Si Si2 0.306032 0.765110 0.345829
Si Si3 0.954636 0.286482 0.042866
Si Si4 0.500000 0.837062 0.750000
Si Si5 0.564141 0.376242 0.961942
Si Si6 0.777105 0.130590 0.399310
Si Si7 0.816234 0.542705 0.821268
Si Si8 0.411345 0.992672 0.922397
O O1 0.551124 0.467531 0.849667
O O2 0.543527 0.601330 0.632969
O O3 0.385940 0.739438 0.384740
O O4 0.270342 0.801479 0.495221
O O5 0.272779 0.666113 0.273011
O O6 0.296876 0.842011 0.206760
O O7 0.957403 0.405231 0.085402
O O8 0.022211 0.222985 0.096091
O O9 0.951213 0.273316 0.861852
O O10 0.454532 0.900366 0.863463
O O11 0.645964 0.358633 0.963204
O O12 0.748226 0.016964 0.393645
O O13 0.837560 0.501143 0.659884
O O14 0.888509 0.530718 0.910201
#
# Coordination Sequence:
#
# PCOD8248226 Si02
#       8
#     4   8   8   4   8   8   8   8
#     4  10  25  51  68 104 138 196 248 313 373 424
#     4  11  28  47  75 108 150 194 254 305 385 448
#     4  11  24  46  68 109 148 190 236 312 367 452
#     4  12  23  37  74 110 150 194 236 293 369 458
#     4  11  26  46  76 102 144 189 254 309 370 439
#     4  12  27  48  74 111 143 205 247 317 374 448
#     4  11  24  48  69 103 151 191 248 304 372 446
#     4  11  23  43  72 107 148 195 237 296 378 454
#
# _framework density 24.170525999999999
#
# number of rings (size 3 to 8) (size 9 to 14) (size 15 to 20)
#    0.000    0.857    4.286    1.714    6.000    4.000 
#    2.571    0.000    0.000    0.000    0.000    0.000 
#    0.000    0.000    0.000    0.000    0.000    0.000 
#
# Total GULP energy -694080.068185 kJ/mol
# GULP energy per Si atom -12394.286932 kJ/mol
# Density = 2.411551 g / cm^3
# Si number density = 24.170526 Si / 1000 Ang^3
#
#
#
# Elastic Constant Matrix: (Units=GPa)
#
#
# Indices 1 2 3 4 5 6 
#
# 1 131.2995 35.8020 30.7110 0.0000 0.0000 0.0000
# 2 35.8020 62.5017 24.1801 0.0000 0.0000 0.0000
# 3 30.7110 24.1801 97.6931 0.0000 0.0000 0.0000
# 4 0.0000 0.0000 0.0000 36.4817 0.0000 0.0000
# 5 0.0000 0.0000 0.0000 0.0000 41.6831 0.0000
# 6 0.0000 0.0000 0.0000 0.0000 0.0000 22.2288
#
#
#
# Elastic Compliance Matrix: (Units=1/GPa)
#
#
# Indices 1 2 3 4 5 6 
#
# 1 0.009296 -0.004638 -0.001774 0.000000 0.000000 0.000000
# 2 -0.004638 0.020008 -0.003494 0.000000 0.000000 0.000000
# 3 -0.001774 -0.003494 0.011659 0.000000 0.000000 0.000000
# 4 0.000000 0.000000 0.000000 0.027411 0.000000 0.000000
# 5 0.000000 0.000000 0.000000 0.000000 0.023991 0.000000
# 6 0.000000 0.000000 0.000000 0.000000 0.000000 0.044987
#
#
# Mechanical properties :
#
#
# Convention : Reuss Voigt Hill
#
# Bulk Modulus (GPa) = 47.28273 52.54227 49.91250
# Shear Modulus (GPa) = 30.44794 33.46546 31.95670
#
# Velocity S-wave (km/s) = 3.55310 3.72500 3.64006
# Velocity P-wave (km/s) = 6.03633 6.34714 6.19368
#
# Compressibility (1/GPa) = 0.02114937
#
# Stress axis : x y z
#
# Youngs Moduli (GPa) = 107.57366 49.97923 85.77271
#
# Poissons Ratio (x) = 0.23183 0.15218
# Poissons Ratio (y) = 0.49898 0.29970
# Poissons Ratio (z) = 0.19086 0.17463
#
# Static dielectric constant tensor:
#      x y z
#    x 4.224400 0.000000 0.000000 
#    y 0.000000 4.309740 0.000000 
#    z 0.000000 0.000000 4.601840 
# 
# 
# High freq. dielectric constant tensor:
#      x y z
#    x 1.948780 0.000000 0.000000 
#    y 0.000000 1.948480 0.000000 
#    z 0.000000 0.000000 1.984690 
# 
# From -- ./inp_files/7462.got.cif
#   From: 2010.03.12/outbox.cif.g09.slc.cpg/sg60_4_cif.got.tgz:7462.got - 2010.04.10 18:46:24.
