data_PCOD8248832
_publ_section_title
;
Structure prediction by ZEFSAII (Michael W. Deem and Ramdas Pophale) SiO2 
 PCOD8248832
Probable space group: P B C A
;
_chemical_formula_sum "Si O2"
_cell_formula_units_Z 64
_cell_length_a 14.233263
_cell_length_b 17.784949
_cell_length_c 12.121404
_cell_angle_alpha 90.000000
_cell_angle_beta 90.000000
_cell_angle_gamma 90.000000
_cell_volume 3068.386227
_symmetry_space_group_name_H-M "P B C A"
_symmetry_group_IT_number 61
_symmetry_cell_setting 'orthorhombic'
loop_
_space_group_symop_operation_xyz
x,y,z
1/2-x,-y,1/2+z
1/2+x,1/2-y,-z
-x,1/2+y,1/2-z
-x,-y,-z
1/2+x,y,1/2-z
1/2-x,1/2+y,z
x,1/2-y,1/2+z
loop_
_atom_site_type_symbol
_atom_site_label
_atom_site_fract_x
_atom_site_fract_y
_atom_site_fract_z
Si Si1 0.988456 0.471872 0.793807
Si Si2 0.307345 0.549518 0.630367
Si Si3 0.052042 0.865783 0.299936
Si Si4 0.554940 0.289601 0.097678
Si Si5 0.658784 0.007527 0.512804
Si Si6 0.938022 0.626546 0.019785
Si Si7 0.988722 0.101837 0.069161
Si Si8 0.237951 0.127088 0.838016
O O1 0.880575 0.497458 0.803300
O O2 0.006555 0.408656 0.699926
O O3 0.050800 0.545836 0.764695
O O4 0.009665 0.437788 0.912444
O O5 0.216154 0.499667 0.601249
O O6 0.339566 0.588299 0.515125
O O7 0.281710 0.618475 0.708866
O O8 0.155707 0.841232 0.341423
O O9 0.011989 0.815745 0.198869
O O10 0.986812 0.854491 0.404761
O O11 0.566795 0.200042 0.095520
O O12 0.662759 0.316693 0.108270
O O13 0.505317 0.314671 0.980974
O O14 0.565399 0.056736 0.502035
O O15 0.728114 0.045829 0.602195
O O16 0.618373 0.925818 0.548344
#
# Coordination Sequence:
#
# PCOD8248832 Si02
#       8
#     8   8   8   8   8   8   8   8
#     4  11  20  39  65  95 123 164 214 269 319 369
#     4  11  20  37  64  93 124 157 215 271 318 369
#     4  11  22  44  67  92 126 168 214 267 324 373
#     4  11  24  43  63  91 134 175 207 260 324 396
#     4  10  19  35  62  98 119 161 214 271 313 375
#     4  11  25  40  63  90 131 171 208 267 320 384
#     4  10  20  36  62  91 129 161 209 260 328 377
#     4  11  20  39  67  92 125 162 216 265 321 380
#
# _framework density 20.857869999999998
#
# number of rings (size 3 to 8) (size 9 to 14) (size 15 to 20)
#    0.000    1.250    3.750    6.000    1.750    0.000 
#    4.500    0.000    0.000    0.000    0.000    0.000 
#    0.000    0.000    0.000    0.000    0.000    0.000 
#
# Total GULP energy -793051.285004 kJ/mol
# GULP energy per Si atom -12391.426328 kJ/mol
# Density = 2.081040 g / cm^3
# Si number density = 20.857870 Si / 1000 Ang^3
#
#
#
# Elastic Constant Matrix: (Units=GPa)
#
#
# Indices 1 2 3 4 5 6 
#
# 1 87.2695 4.8396 9.0935 0.0000 0.0000 0.0000
# 2 4.8396 52.0339 16.3996 0.0000 0.0000 0.0000
# 3 9.0935 16.3996 89.8801 0.0000 0.0000 0.0000
# 4 0.0000 0.0000 0.0000 27.5452 0.0000 0.0000
# 5 0.0000 0.0000 0.0000 0.0000 32.6571 0.0000
# 6 0.0000 0.0000 0.0000 0.0000 0.0000 9.2097
#
#
#
# Elastic Compliance Matrix: (Units=1/GPa)
#
#
# Indices 1 2 3 4 5 6 
#
# 1 0.011609 -0.000753 -0.001037 0.000000 0.000000 0.000000
# 2 -0.000753 0.020440 -0.003653 0.000000 0.000000 0.000000
# 3 -0.001037 -0.003653 0.011897 0.000000 0.000000 0.000000
# 4 0.000000 0.000000 0.000000 0.036304 0.000000 0.000000
# 5 0.000000 0.000000 0.000000 0.000000 0.030621 0.000000
# 6 0.000000 0.000000 0.000000 0.000000 0.000000 0.108581
#
#
# Mechanical properties :
#
#
# Convention : Reuss Voigt Hill
#
# Bulk Modulus (GPa) = 30.24872 32.20543 31.22708
# Shear Modulus (GPa) = 20.71611 27.13912 23.92761
#
# Velocity S-wave (km/s) = 3.15493 3.61105 3.39067
# Velocity P-wave (km/s) = 5.27307 5.73238 5.50752
#
# Compressibility (1/GPa) = 0.03305925
#
# Stress axis : x y z
#
# Youngs Moduli (GPa) = 86.14327 48.92447 84.05165
#
# Poissons Ratio (x) = 0.03683 0.08717
# Poissons Ratio (y) = 0.06485 0.30706
# Poissons Ratio (z) = 0.08934 0.17873
#
# Static dielectric constant tensor:
#      x y z
#    x 3.983840 0.000000 0.000000 
#    y 0.000000 3.588240 0.000000 
#    z 0.000000 0.000000 3.737390 
# 
# 
# High freq. dielectric constant tensor:
#      x y z
#    x 1.818010 0.000000 0.000000 
#    y 0.000000 1.783010 0.000000 
#    z 0.000000 0.000000 1.826270 
# 
# From -- ./inp_files/6002.got.cif
#   From: 2010.03.12/outbox.cif.g09.slc.cpg/sg61_4_cif.got.tgz:6002.got - 2010.04.10 19:05:03.
