data_PCOD8248771
_publ_section_title
;
Structure prediction by ZEFSAII (Michael W. Deem and Ramdas Pophale) SiO2 
 PCOD8248771
Probable space group: P B C A
;
_chemical_formula_sum "Si O2"
_cell_formula_units_Z 48
_cell_length_a 7.516812
_cell_length_b 20.482085
_cell_length_c 15.096901
_cell_angle_alpha 90.000000
_cell_angle_beta 90.000000
_cell_angle_gamma 90.000000
_cell_volume 2324.318611
_symmetry_space_group_name_H-M "P B C A"
_symmetry_group_IT_number 61
_symmetry_cell_setting 'orthorhombic'
loop_
_space_group_symop_operation_xyz
x,y,z
1/2-x,-y,1/2+z
1/2+x,1/2-y,-z
-x,1/2+y,1/2-z
-x,-y,-z
1/2+x,y,1/2-z
1/2-x,1/2+y,z
x,1/2-y,1/2+z
loop_
_atom_site_type_symbol
_atom_site_label
_atom_site_fract_x
_atom_site_fract_y
_atom_site_fract_z
Si Si1 0.440590 0.709967 0.652578
Si Si2 0.770696 0.129171 0.563272
Si Si3 0.126972 0.929869 0.767604
Si Si4 0.078752 0.643315 0.679664
Si Si5 0.901187 0.473263 0.186921
Si Si6 0.669617 0.357298 0.864326
O O1 0.602017 0.690236 0.587066
O O2 0.257425 0.670506 0.632449
O O3 0.501780 0.697561 0.753114
O O4 0.410452 0.785777 0.636918
O O5 0.575256 0.131055 0.607738
O O6 0.878251 0.064786 0.594874
O O7 0.748495 0.125412 0.459116
O O8 0.174437 0.866057 0.708699
O O9 0.977823 0.911176 0.838774
O O10 0.290880 0.959078 0.821430
O O11 0.091359 0.994019 0.705173
O O12 0.135178 0.578358 0.733111
#
# Coordination Sequence:
#
# PCOD8248771 Si02
#       6
#     8   8   8   8   8   8
#     4  11  22  41  65  97 131 171 212 268 331 393
#     4  11  24  41  67 101 124 169 229 277 313 385
#     4  10  22  42  65  86 138 175 207 269 328 402
#     4  11  20  40  72  94 127 172 218 277 320 382
#     4  10  18  41  66  94 121 171 223 260 331 380
#     4  11  26  43  60 100 133 175 215 264 344 389
#
# _framework density 20.651212000000001
#
# number of rings (size 3 to 8) (size 9 to 14) (size 15 to 20)
#    0.000    1.333    5.000    2.000    2.333    1.333 
#    6.000    0.000    0.000    0.000    0.000    0.000 
#    0.000    0.000    0.000    0.000    0.000    0.000 
#
# Total GULP energy -594726.007206 kJ/mol
# GULP energy per Si atom -12390.125150 kJ/mol
# Density = 2.060421 g / cm^3
# Si number density = 20.651212 Si / 1000 Ang^3
#
#
#
# Elastic Constant Matrix: (Units=GPa)
#
#
# Indices 1 2 3 4 5 6 
#
# 1 70.0131 26.3550 9.7662 0.0000 0.0000 0.0000
# 2 26.3550 112.5248 33.7483 0.0000 0.0000 0.0000
# 3 9.7662 33.7483 67.3359 0.0000 0.0000 0.0000
# 4 0.0000 0.0000 0.0000 17.8910 0.0000 0.0000
# 5 0.0000 0.0000 0.0000 0.0000 27.8569 0.0000
# 6 0.0000 0.0000 0.0000 0.0000 0.0000 33.9459
#
#
#
# Elastic Compliance Matrix: (Units=1/GPa)
#
#
# Indices 1 2 3 4 5 6 
#
# 1 0.015679 -0.003519 -0.000510 0.000000 0.000000 0.000000
# 2 -0.003519 0.011249 -0.005128 0.000000 0.000000 0.000000
# 3 -0.000510 -0.005128 0.017495 0.000000 0.000000 0.000000
# 4 0.000000 0.000000 0.000000 0.055894 0.000000 0.000000
# 5 0.000000 0.000000 0.000000 0.000000 0.035898 0.000000
# 6 0.000000 0.000000 0.000000 0.000000 0.000000 0.029459
#
#
# Mechanical properties :
#
#
# Convention : Reuss Voigt Hill
#
# Bulk Modulus (GPa) = 38.30118 43.29031 40.79575
# Shear Modulus (GPa) = 25.94838 27.93902 26.94370
#
# Velocity S-wave (km/s) = 3.54857 3.68217 3.61599
# Velocity P-wave (km/s) = 5.94784 6.25187 6.10175
#
# Compressibility (1/GPa) = 0.02610885
#
# Stress axis : x y z
#
# Youngs Moduli (GPa) = 63.77972 88.89656 57.15983
#
# Poissons Ratio (x) = 0.31285 0.02916
# Poissons Ratio (y) = 0.22446 0.29309
# Poissons Ratio (z) = 0.03254 0.45582
#
# Static dielectric constant tensor:
#      x y z
#    x 4.119740 0.000000 0.000000 
#    y 0.000000 3.758020 0.000000 
#    z 0.000000 0.000000 3.493230 
# 
# 
# High freq. dielectric constant tensor:
#      x y z
#    x 1.826900 0.000000 0.000000 
#    y 0.000000 1.813820 0.000000 
#    z 0.000000 0.000000 1.771180 
# 
# From -- ./inp_files/7097.got.cif
#   From: 2010.03.12/outbox.cif.g09.slc.cpg/sg61_4_cif.got.tgz:7097.got - 2010.04.10 19:05:03.
