data_PCOD8248284
_publ_section_title
;
Structure prediction by ZEFSAII (Michael W. Deem and Ramdas Pophale) SiO2 
 PCOD8248284
Probable space group: P B C N
;
_chemical_formula_sum "Si O2"
_cell_formula_units_Z 60
_cell_length_a 10.834665
_cell_length_b 15.808919
_cell_length_c 16.410475
_cell_angle_alpha 90.000000
_cell_angle_beta 90.000000
_cell_angle_gamma 90.000000
_cell_volume 2810.857402
_symmetry_space_group_name_H-M "P B C N"
_symmetry_group_IT_number 60
_symmetry_cell_setting 'orthorhombic'
loop_
_space_group_symop_operation_xyz
x,y,z
1/2-x,1/2-y,1/2+z
1/2+x,1/2-y,-z
-x,y,1/2-z
-x,-y,-z
1/2+x,1/2+y,1/2-z
1/2-x,1/2+y,z
x,-y,1/2+z
loop_
_atom_site_type_symbol
_atom_site_label
_atom_site_fract_x
_atom_site_fract_y
_atom_site_fract_z
Si Si1 0.451068 0.854763 0.657511
Si Si2 0.319972 0.809373 0.354409
Si Si3 0.032562 0.164729 0.421418
Si Si4 0.000000 0.096556 0.750000
Si Si5 0.435352 0.018490 0.833185
Si Si6 0.682134 0.301873 0.801801
Si Si7 0.953864 0.808981 0.099115
Si Si8 0.835164 0.045137 0.187447
O O1 0.500000 0.854402 0.750000
O O2 0.470642 0.951239 0.622373
O O3 0.311345 0.821958 0.654498
O O4 0.531988 0.792565 0.600904
O O5 0.358407 0.733161 0.413463
O O6 0.317292 0.779922 0.258735
O O7 0.184889 0.837302 0.382308
O O8 0.407317 0.890760 0.373775
O O9 0.084871 0.073238 0.391983
O O10 0.918987 0.207225 0.372389
O O11 0.995809 0.150843 0.514567
O O12 0.038683 0.154180 0.672667
O O13 0.881722 0.041668 0.725889
O O14 0.500000 0.043937 0.750000
O O15 0.309961 0.963876 0.826331
O O16 0.637601 0.381437 0.750863
#
# Coordination Sequence:
#
# PCOD8248284 Si02
#       8
#     8   8   8   4   8   8   8   8
#     4  11  20  39  66  94 131 177 225 272 335 406
#     4  11  22  43  68  97 134 176 230 282 336 411
#     4  11  26  41  68  99 136 176 229 282 348 408
#     4  12  22  42  70  96 126 174 234 268 332 418
#     4  11  21  38  68 102 130 169 228 284 332 398
#     4  11  20  42  69  94 132 182 220 276 342 412
#     4  12  25  43  67  97 133 181 228 278 335 421
#     4  11  20  40  66  99 131 170 220 283 341 399
#
# _framework density 21.345800000000001
#
# number of rings (size 3 to 8) (size 9 to 14) (size 15 to 20)
#    0.000    0.800    7.333    2.800    1.867    0.533 
#    0.000    0.667    0.000    0.000    0.000    0.000 
#    0.000    0.000    0.000    0.000    0.000    0.000 
#
# Total GULP energy -743639.820900 kJ/mol
# GULP energy per Si atom -12393.997015 kJ/mol
# Density = 2.129722 g / cm^3
# Si number density = 21.345800 Si / 1000 Ang^3
#
#
#
# Elastic Constant Matrix: (Units=GPa)
#
#
# Indices 1 2 3 4 5 6 
#
# 1 93.5257 25.0544 31.8345 0.0000 0.0000 0.0000
# 2 25.0544 109.7928 26.5964 0.0000 0.0000 0.0000
# 3 31.8345 26.5964 114.1082 0.0000 0.0000 0.0000
# 4 0.0000 0.0000 0.0000 8.8159 0.0000 0.0000
# 5 0.0000 0.0000 0.0000 0.0000 24.5592 0.0000
# 6 0.0000 0.0000 0.0000 0.0000 0.0000 29.4923
#
#
#
# Elastic Compliance Matrix: (Units=1/GPa)
#
#
# Indices 1 2 3 4 5 6 
#
# 1 0.012249 -0.002085 -0.002931 0.000000 0.000000 0.000000
# 2 -0.002085 0.010008 -0.001751 0.000000 0.000000 0.000000
# 3 -0.002931 -0.001751 0.009989 0.000000 0.000000 0.000000
# 4 0.000000 0.000000 0.000000 0.113431 0.000000 0.000000
# 5 0.000000 0.000000 0.000000 0.000000 0.040718 0.000000
# 6 0.000000 0.000000 0.000000 0.000000 0.000000 0.033907
#
#
# Mechanical properties :
#
#
# Convention : Reuss Voigt Hill
#
# Bulk Modulus (GPa) = 53.44259 53.82190 53.63225
# Shear Modulus (GPa) = 20.82692 28.16957 24.49824
#
# Velocity S-wave (km/s) = 3.12700 3.63668 3.39142
# Velocity P-wave (km/s) = 6.17482 6.55003 6.36519
#
# Compressibility (1/GPa) = 0.01871167
#
# Stress axis : x y z
#
# Youngs Moduli (GPa) = 81.64248 99.91982 100.10520
#
# Poissons Ratio (x) = 0.20834 0.29343
# Poissons Ratio (y) = 0.17023 0.17528
# Poissons Ratio (z) = 0.23931 0.17496
#
# Static dielectric constant tensor:
#      x y z
#    x 3.934790 0.000000 0.000000 
#    y 0.000000 4.156010 0.000000 
#    z 0.000000 0.000000 3.522380 
# 
# 
# High freq. dielectric constant tensor:
#      x y z
#    x 1.846470 0.000000 0.000000 
#    y 0.000000 1.852070 0.000000 
#    z 0.000000 0.000000 1.790440 
# 
# From -- ./inp_files/20165.got.cif
#   From: 2010.03.12/outbox.cif.g09.slc.cpg/sg60_11_cif.got.tgz:20165.got - 2010.04.10 18:46:24.
