data_PCOD8248873
_publ_section_title
;
Structure prediction by ZEFSAII (Michael W. Deem and Ramdas Pophale) SiO2 
 PCOD8248873
Probable space group: P B C A
;
_chemical_formula_sum "Si O2"
_cell_formula_units_Z 64
_cell_length_a 23.790824
_cell_length_b 15.235831
_cell_length_c 8.557331
_cell_angle_alpha 90.000000
_cell_angle_beta 90.000000
_cell_angle_gamma 90.000000
_cell_volume 3101.801215
_symmetry_space_group_name_H-M "P B C A"
_symmetry_group_IT_number 61
_symmetry_cell_setting 'orthorhombic'
loop_
_space_group_symop_operation_xyz
x,y,z
1/2-x,-y,1/2+z
1/2+x,1/2-y,-z
-x,1/2+y,1/2-z
-x,-y,-z
1/2+x,y,1/2-z
1/2-x,1/2+y,z
x,1/2-y,1/2+z
loop_
_atom_site_type_symbol
_atom_site_label
_atom_site_fract_x
_atom_site_fract_y
_atom_site_fract_z
Si Si1 0.381736 0.640945 0.280234
Si Si2 0.003615 0.882220 0.345945
Si Si3 0.383228 0.678669 0.642721
Si Si4 0.618178 0.641996 0.156067
Si Si5 0.689844 0.979763 0.164161
Si Si6 0.618258 0.826119 0.293896
Si Si7 0.005262 0.913918 0.702320
Si Si8 0.187291 0.016071 0.701206
O O1 0.378460 0.664274 0.460396
O O2 0.360554 0.724400 0.182002
O O3 0.340817 0.559485 0.244664
O O4 0.445009 0.615549 0.232219
O O5 0.947918 0.827807 0.302971
O O6 0.052990 0.838915 0.247210
O O7 0.018063 0.876483 0.529726
O O8 0.992588 0.981645 0.297769
O O9 0.346835 0.605624 0.732526
O O10 0.636641 0.727555 0.252777
O O11 0.552471 0.621755 0.181210
O O12 0.656717 0.562445 0.210678
O O13 0.629400 0.657442 0.974755
O O14 0.655397 0.891323 0.190967
O O15 0.751660 0.969428 0.229540
O O16 0.690938 0.996167 0.980882
#
# Coordination Sequence:
#
# PCOD8248873 Si02
#       8
#     8   8   8   8   8   8   8   8
#     4  10  22  39  63  91 125 163 201 247 309 369
#     4  10  19  38  64  92 128 166 199 251 315 372
#     4  10  22  39  63  91 125 163 201 247 309 369
#     4  12  25  41  64  95 127 166 210 259 314 375
#     4  11  24  45  66  90 123 165 211 263 316 370
#     4  12  25  41  64  95 127 166 210 259 314 375
#     4  10  19  38  64  92 128 166 199 251 315 372
#     4  11  24  45  66  90 123 165 211 263 316 370
#
# _framework density 20.633172999999999
#
# number of rings (size 3 to 8) (size 9 to 14) (size 15 to 20)
#    0.000    1.250    2.500    3.750    0.000    6.500 
#    0.000    2.500    0.000    0.000    0.000    0.000 
#    0.000    0.000    0.000    0.000    0.000    0.000 
#
# Total GULP energy -793971.557346 kJ/mol
# GULP energy per Si atom -12405.805584 kJ/mol
# Density = 2.058621 g / cm^3
# Si number density = 20.633173 Si / 1000 Ang^3
#
#
#
# Elastic Constant Matrix: (Units=GPa)
#
#
# Indices 1 2 3 4 5 6 
#
# 1 100.7765 11.8964 6.1269 0.0000 0.0000 0.0000
# 2 11.8964 46.0919 -12.0579 0.0000 0.0000 0.0000
# 3 6.1269 -12.0579 40.7684 0.0000 0.0000 0.0000
# 4 0.0000 0.0000 0.0000 34.2882 0.0000 0.0000
# 5 0.0000 0.0000 0.0000 0.0000 22.3723 0.0000
# 6 0.0000 0.0000 0.0000 0.0000 0.0000 6.3029
#
#
#
# Elastic Compliance Matrix: (Units=1/GPa)
#
#
# Indices 1 2 3 4 5 6 
#
# 1 0.010478 -0.003378 -0.002574 0.000000 0.000000 0.000000
# 2 -0.003378 0.024604 0.007785 0.000000 0.000000 0.000000
# 3 -0.002574 0.007785 0.027218 0.000000 0.000000 0.000000
# 4 0.000000 0.000000 0.000000 0.029165 0.000000 0.000000
# 5 0.000000 0.000000 0.000000 0.000000 0.044698 0.000000
# 6 0.000000 0.000000 0.000000 0.000000 0.000000 0.158658
#
#
# Mechanical properties :
#
#
# Convention : Reuss Voigt Hill
#
# Bulk Modulus (GPa) = 15.15915 22.17416 18.66666
# Shear Modulus (GPa) = 15.96714 24.70410 20.33562
#
# Velocity S-wave (km/s) = 2.78485 3.46396 3.14280
# Velocity P-wave (km/s) = 4.20754 5.17386 4.71552
#
# Compressibility (1/GPa) = 0.06596675
#
# Stress axis : x y z
#
# Youngs Moduli (GPa) = 95.43667 40.64359 36.74038
#
# Poissons Ratio (x) = 0.13728 0.09456
# Poissons Ratio (y) = 0.32236 -0.28601
# Poissons Ratio (z) = 0.24563 -0.31640
#
# Static dielectric constant tensor:
#      x y z
#    x 3.812410 0.000000 0.000000 
#    y 0.000000 3.989210 0.000000 
#    z 0.000000 0.000000 3.619170 
# 
# 
# High freq. dielectric constant tensor:
#      x y z
#    x 1.805800 0.000000 0.000000 
#    y 0.000000 1.824810 0.000000 
#    z 0.000000 0.000000 1.802080 
# 
# From -- ./inp_files/4333.got.cif
#   From: 2010.03.12/outbox.cif.g09.slc.cpg/sg61_3_cif.got.tgz:4333.got - 2010.04.10 19:05:03.
