data_PCOD8248648
_publ_section_title
;
Structure prediction by ZEFSAII (Michael W. Deem and Ramdas Pophale) SiO2 
 PCOD8248648
Probable space group: P B C N
;
_chemical_formula_sum "Si O2"
_cell_formula_units_Z 60
_cell_length_a 11.486580
_cell_length_b 12.209914
_cell_length_c 18.911228
_cell_angle_alpha 90.000000
_cell_angle_beta 90.000000
_cell_angle_gamma 90.000000
_cell_volume 2652.302638
_symmetry_space_group_name_H-M "P B C N"
_symmetry_group_IT_number 60
_symmetry_cell_setting 'orthorhombic'
loop_
_space_group_symop_operation_xyz
x,y,z
1/2-x,1/2-y,1/2+z
1/2+x,1/2-y,-z
-x,y,1/2-z
-x,-y,-z
1/2+x,1/2+y,1/2-z
1/2-x,1/2+y,z
x,-y,1/2+z
loop_
_atom_site_type_symbol
_atom_site_label
_atom_site_fract_x
_atom_site_fract_y
_atom_site_fract_z
Si Si1 0.954901 0.380445 0.017913
Si Si2 0.500000 0.016860 0.750000
Si Si3 0.172337 0.909333 0.108604
Si Si4 0.906744 0.682080 0.851494
Si Si5 0.880862 0.910888 0.781297
Si Si6 0.946630 0.790983 0.091738
Si Si7 0.284091 0.529357 0.966082
Si Si8 0.687214 0.888847 0.664006
O O1 0.815570 0.385380 0.008150
O O2 0.985033 0.344146 0.097339
O O3 0.000000 0.500000 0.000000
O O4 0.016192 0.294578 0.967482
O O5 0.407084 0.094285 0.711423
O O6 0.571391 0.944818 0.694404
O O7 0.284631 0.831606 0.109035
O O8 0.063556 0.832868 0.129813
O O9 0.181557 0.006265 0.165473
O O10 0.165413 0.956276 0.029421
O O11 0.921283 0.803930 0.823395
O O12 0.789839 0.878826 0.720593
O O13 0.000000 0.963010 0.750000
O O14 0.891597 0.900191 0.060168
O O15 0.854454 0.734102 0.144426
O O16 0.233300 0.452258 0.904619
#
# Coordination Sequence:
#
# PCOD8248648 Si02
#       8
#     8   4   8   8   8   8   8   8
#     4  12  24  46  75 108 145 193 255 311 374 456
#     4  12  24  50  70 106 144 198 258 294 374 466
#     4  12  28  49  76 109 154 193 254 320 384 453
#     4  12  25  45  74 105 143 201 244 307 375 450
#     4  12  29  47  73 109 154 196 251 311 386 459
#     4  12  29  46  77 112 149 199 250 321 388 451
#     4  12  27  50  78 108 152 200 259 320 384 459
#     4  12  28  49  76 110 150 207 257 318 379 469
#
# _framework density 22.621852000000001
#
# number of rings (size 3 to 8) (size 9 to 14) (size 15 to 20)
#    0.000    0.000    6.000    2.000   11.200    1.067 
#    0.000    0.000    0.000    0.000    0.000    0.000 
#    0.000    0.000    0.000    0.000    0.000    0.000 
#
# Total GULP energy -744315.347075 kJ/mol
# GULP energy per Si atom -12405.255785 kJ/mol
# Density = 2.257036 g / cm^3
# Si number density = 22.621852 Si / 1000 Ang^3
#
#
#
# Elastic Constant Matrix: (Units=GPa)
#
#
# Indices 1 2 3 4 5 6 
#
# 1 105.0450 25.4713 20.1172 0.0000 0.0000 0.0000
# 2 25.4713 82.0110 37.3910 0.0000 0.0000 0.0000
# 3 20.1172 37.3910 106.8879 0.0000 0.0000 0.0000
# 4 0.0000 0.0000 0.0000 26.2282 0.0000 0.0000
# 5 0.0000 0.0000 0.0000 0.0000 38.5570 0.0000
# 6 0.0000 0.0000 0.0000 0.0000 0.0000**********
#
#
#
# Elastic Compliance Matrix: (Units=1/GPa)
#
#
# Indices 1 2 3 4 5 6 
#
# 1 0.010381 -0.002776 -0.000983 0.000000 0.000000 0.000000
# 2 -0.002776 0.015250 -0.004812 0.000000 0.000000 0.000000
# 3 -0.000983 -0.004812 0.011224 0.000000 0.000000 0.000000
# 4 0.000000 0.000000 0.000000 0.038127 0.000000 0.000000
# 5 0.000000 0.000000 0.000000 0.000000 0.025936 0.000000
# 6 0.000000 0.000000 0.000000 0.000000 0.000000 -0.000099
#
#
# Mechanical properties :
#
#
# Convention : Reuss Voigt Hill
#
# Bulk Modulus (GPa) = 50.72840 51.10033 50.91436
# Shear Modulus (GPa) = 40.15061 -1998.18610 -979.01775
#
# Velocity S-wave (km/s) = 4.21748 -29.75259 -20.82582
# Velocity P-wave (km/s) = 6.79628 34.02427 23.57394
#
# Compressibility (1/GPa) = 0.01971282
#
# Stress axis : x y z
#
# Youngs Moduli (GPa) = 96.32902 65.57517 89.09575
#
# Poissons Ratio (x) = 0.18205 0.08755
# Poissons Ratio (y) = 0.26743 0.42874
# Poissons Ratio (z) = 0.09466 0.31555
#
# Static dielectric constant tensor:
#      x y z
#    x 4.425940 0.000000 0.000000 
#    y 0.000000 3.939290 0.000000 
#    z 0.000000 0.000000 4.159430 
# 
# 
# High freq. dielectric constant tensor:
#      x y z
#    x 1.908690 0.000000 0.000000 
#    y 0.000000 1.896660 0.000000 
#    z 0.000000 0.000000 1.897280 
# 
# From -- ./inp_files/22680.got.cif
#   From: 2010.03.12/outbox.cif.g09.slc.cpg/sg60_12_cif.got.tgz:22680.got - 2010.04.10 18:46:24.
