data_PCOD8248010
_publ_section_title
;
Structure prediction by ZEFSAII (Michael W. Deem and Ramdas Pophale) SiO2 
 PCOD8248010
Probable space group: P B C N
;
_chemical_formula_sum "Si O2"
_cell_formula_units_Z 48
_cell_length_a 8.913100
_cell_length_b 27.972230
_cell_length_c 9.050468
_cell_angle_alpha 90.000000
_cell_angle_beta 90.000000
_cell_angle_gamma 90.000000
_cell_volume 2256.456195
_symmetry_space_group_name_H-M "P B C N"
_symmetry_group_IT_number 60
_symmetry_cell_setting 'orthorhombic'
loop_
_space_group_symop_operation_xyz
x,y,z
1/2-x,1/2-y,1/2+z
1/2+x,1/2-y,-z
-x,y,1/2-z
-x,-y,-z
1/2+x,1/2+y,1/2-z
1/2-x,1/2+y,z
x,-y,1/2+z
loop_
_atom_site_type_symbol
_atom_site_label
_atom_site_fract_x
_atom_site_fract_y
_atom_site_fract_z
Si Si1 0.352321 0.025670 0.553862
Si Si2 0.488999 0.278114 0.579290
Si Si3 0.982803 0.375142 0.408137
Si Si4 0.819308 0.302908 0.586282
Si Si5 0.248705 0.354152 0.626728
Si Si6 0.174043 0.955159 0.763511
O O1 0.419052 0.072749 0.629460
O O2 0.231887 0.039388 0.429443
O O3 0.500000 0.000000 0.500000
O O4 0.270204 0.992221 0.669833
O O5 0.500000 0.260597 0.750000
O O6 0.656559 0.288494 0.528738
O O7 0.434254 0.237929 0.465116
O O8 0.391568 0.326424 0.559414
O O9 0.853707 0.351337 0.502350
O O10 0.000000 0.348958 0.250000
O O11 0.138709 0.371779 0.497993
O O12 0.829756 0.315794 0.761360
O O13 0.304381 0.400664 0.712938
O O14 0.000000 0.969160 0.750000
#
# Coordination Sequence:
#
# PCOD8248010 Si02
#       6
#     8   8   8   8   8   8
#     4  12  25  44  71 105 139 188 240 289 350 421
#     4  10  23  43  69 104 138 175 228 287 344 422
#     4  12  25  43  65  99 138 180 232 292 342 418
#     4  11  22  42  69 100 133 179 228 279 350 415
#     4  11  24  45  74  98 136 185 232 284 356 419
#     4  12  25  46  72 105 144 188 237 294 355 418
#
# _framework density 21.272292
#
# number of rings (size 3 to 8) (size 9 to 14) (size 15 to 20)
#    0.000    0.667    3.333    5.500    0.000    2.667 
#    0.000    4.167    0.000    0.000    0.000    0.000 
#    0.000    0.000    0.000    0.000    0.000    0.000 
#
# Total GULP energy -595054.849772 kJ/mol
# GULP energy per Si atom -12396.976037 kJ/mol
# Density = 2.122388 g / cm^3
# Si number density = 21.272292 Si / 1000 Ang^3
#
#
#
# Elastic Constant Matrix: (Units=GPa)
#
#
# Indices 1 2 3 4 5 6 
#
# 1 103.2644 -0.9517 14.2402 0.0000 0.0000 0.0000
# 2 -0.9517 76.8390 -5.7539 0.0000 0.0000 0.0000
# 3 14.2402 -5.7539 67.1648 0.0000 0.0000 0.0000
# 4 0.0000 0.0000 0.0000 30.4155 0.0000 0.0000
# 5 0.0000 0.0000 0.0000 0.0000 33.1435 0.0000
# 6 0.0000 0.0000 0.0000 0.0000 0.0000 39.6406
#
#
#
# Elastic Compliance Matrix: (Units=1/GPa)
#
#
# Indices 1 2 3 4 5 6 
#
# 1 0.009976 -0.000035 -0.002118 0.000000 0.000000 0.000000
# 2 -0.000035 0.013098 0.001130 0.000000 0.000000 0.000000
# 3 -0.002118 0.001130 0.015435 0.000000 0.000000 0.000000
# 4 0.000000 0.000000 0.000000 0.032878 0.000000 0.000000
# 5 0.000000 0.000000 0.000000 0.000000 0.030172 0.000000
# 6 0.000000 0.000000 0.000000 0.000000 0.000000 0.025227
#
#
# Mechanical properties :
#
#
# Convention : Reuss Voigt Hill
#
# Bulk Modulus (GPa) = 27.42615 29.14859 28.28737
# Shear Modulus (GPa) = 35.46451 36.62215 36.04333
#
# Velocity S-wave (km/s) = 4.08753 4.15370 4.12075
# Velocity P-wave (km/s) = 5.93280 6.06108 5.99728
#
# Compressibility (1/GPa) = 0.03646155
#
# Stress axis : x y z
#
# Youngs Moduli (GPa) = 100.24421 76.34536 64.78953
#
# Poissons Ratio (x) = 0.00268 0.13723
# Poissons Ratio (y) = 0.00351 -0.07318
# Poissons Ratio (z) = 0.21232 -0.08624
#
# Static dielectric constant tensor:
#      x y z
#    x 4.077050 0.000000 0.000000 
#    y 0.000000 2.626340 0.000000 
#    z 0.000000 0.000000 -24.439710 
# 
# 
# High freq. dielectric constant tensor:
#      x y z
#    x 1.848940 0.000000 0.000000 
#    y 0.000000 1.847570 0.000000 
#    z 0.000000 0.000000 1.831660 
# 
# From -- ./inp_files/4204.got.cif
#   From: 2010.03.12/outbox.cif.g09.slc.cpg/sg60_3_cif.got.tgz:4204.got - 2010.04.10 18:46:24.
