data_PCOD8248695
_publ_section_title
;
Structure prediction by ZEFSAII (Michael W. Deem and Ramdas Pophale) SiO2 
 PCOD8248695
Probable space group: P B C N
;
_chemical_formula_sum "Si O2"
_cell_formula_units_Z 48
_cell_length_a 18.000000
_cell_length_b 12.000000
_cell_length_c 12.000000
_cell_angle_alpha 90.000000
_cell_angle_beta 90.000000
_cell_angle_gamma 90.000000
_cell_volume 2592.000000
_symmetry_space_group_name_H-M "P B C N"
_symmetry_group_IT_number 60
_symmetry_cell_setting 'orthorhombic'
loop_
_space_group_symop_operation_xyz
x,y,z
1/2-x,1/2-y,1/2+z
1/2+x,1/2-y,-z
-x,y,1/2-z
-x,-y,-z
1/2+x,1/2+y,1/2-z
1/2-x,1/2+y,z
x,-y,1/2+z
loop_
_atom_site_type_symbol
_atom_site_label
_atom_site_fract_x
_atom_site_fract_y
_atom_site_fract_z
Si Si1 0.923449 0.562353 0.466526
Si Si2 0.333415 0.196924 0.857720
Si Si3 0.421320 0.279649 0.194713
Si Si4 0.676742 0.146759 0.904989
Si Si5 0.339704 0.407103 0.005344
Si Si6 0.831593 0.159667 0.581162
O O1 0.895195 0.620425 0.580895
O O2 0.924903 0.655981 0.365431
O O3 0.870101 0.464413 0.424956
O O4 0.000000 0.500000 0.500000
O O5 0.336089 0.187033 0.723149
O O6 0.255895 0.149962 0.902150
O O7 0.343810 0.326103 0.896534
O O8 0.500000 0.308143 0.250000
O O9 0.401260 0.369821 0.097921
O O10 0.365631 0.295144 0.301063
O O11 0.761388 0.111829 0.931372
O O12 0.650072 0.248655 0.985116
O O13 0.355456 0.534528 0.962247
#
# Coordination Sequence:
#
# PCOD8248695 Si02
#       6
#     8   8   8   8   8   8
#     4  11  25  44  67 101 136 173 220 280 343 400
#     4  10  23  40  64 101 132 172 224 272 332 397
#     4  11  25  44  67  95 133 176 216 277 341 400
#     4  11  23  38  69 100 131 172 221 271 332 396
#     4  10  23  42  65  97 132 171 227 272 324 400
#     4  11  23  41  68  99 130 175 225 275 329 399
#
# _framework density 18.518519000000001
#
# number of rings (size 3 to 8) (size 9 to 14) (size 15 to 20)
#    0.000    1.333    3.333    1.000    7.000    0.667 
#    0.000    0.000    0.000    0.000    0.000    0.000 
#    0.000    0.000    0.000    0.000    0.000    0.000 
#
# Total GULP energy -594626.473438 kJ/mol
# GULP energy per Si atom -12388.051530 kJ/mol
# Density = 1.847637 g / cm^3
# Si number density = 18.518519 Si / 1000 Ang^3
#
#
#
# Elastic Constant Matrix: (Units=GPa)
#
#
# Indices 1 2 3 4 5 6 
#
# 1 91.0652 43.3946 32.8128 0.0000 0.0000 0.0000
# 2 43.3946 178.6785 74.0481 0.0000 0.0000 0.0000
# 3 32.8128 74.0481 181.4186 0.0000 0.0000 0.0000
# 4 0.0000 0.0000 0.0000 48.3450 0.0000 0.0000
# 5 0.0000 0.0000 0.0000 0.0000 42.2197 0.0000
# 6 0.0000 0.0000 0.0000 0.0000 0.0000 38.0004
#
#
#
# Elastic Compliance Matrix: (Units=1/GPa)
#
#
# Indices 1 2 3 4 5 6 
#
# 1 0.012647 -0.002556 -0.001244 0.000000 0.000000 0.000000
# 2 -0.002556 0.007253 -0.002498 0.000000 0.000000 0.000000
# 3 -0.001244 -0.002498 0.006757 0.000000 0.000000 0.000000
# 4 0.000000 0.000000 0.000000 0.020685 0.000000 0.000000
# 5 0.000000 0.000000 0.000000 0.000000 0.023686 0.000000
# 6 0.000000 0.000000 0.000000 0.000000 0.000000 0.026316
#
#
# Mechanical properties :
#
#
# Convention : Reuss Voigt Hill
#
# Bulk Modulus (GPa) = 71.12159 83.51926 77.32042
# Shear Modulus (GPa) = 43.62023 45.77348 44.69685
#
# Velocity S-wave (km/s) = 4.85861 4.97708 4.91820
# Velocity P-wave (km/s) = 8.36444 8.84459 8.60786
#
# Compressibility (1/GPa) = 0.01406043
#
# Stress axis : x y z
#
# Youngs Moduli (GPa) = 79.06729 137.88173 148.00065
#
# Poissons Ratio (x) = 0.35242 0.18415
# Poissons Ratio (y) = 0.20209 0.36970
# Poissons Ratio (z) = 0.09838 0.34442
#
# Static dielectric constant tensor:
#      x y z
#    x 3.634750 0.000000 0.000000 
#    y 0.000000 3.954100 0.000000 
#    z 0.000000 0.000000 4.005010 
# 
# 
# High freq. dielectric constant tensor:
#      x y z
#    x 1.729750 0.000000 0.000000 
#    y 0.000000 1.756580 0.000000 
#    z 0.000000 0.000000 1.762660 
# 
# From -- ./inp_files/12408.got.cif
#   From: 2010.03.12/outbox.ucp.g09.slc.cvg/sg60_7_cif.got.tgz:12408.got - 2010.05.04 19:31:56.
