data_PCOD8248455
_publ_section_title
;
Structure prediction by ZEFSAII (Michael W. Deem and Ramdas Pophale) SiO2 
 PCOD8248455
Probable space group: P B C N
;
_chemical_formula_sum "Si O2"
_cell_formula_units_Z 48
_cell_length_a 5.138044
_cell_length_b 28.749648
_cell_length_c 13.161723
_cell_angle_alpha 90.000000
_cell_angle_beta 90.000000
_cell_angle_gamma 90.000000
_cell_volume 1944.209663
_symmetry_space_group_name_H-M "P B C N"
_symmetry_group_IT_number 60
_symmetry_cell_setting 'orthorhombic'
loop_
_space_group_symop_operation_xyz
x,y,z
1/2-x,1/2-y,1/2+z
1/2+x,1/2-y,-z
-x,y,1/2-z
-x,-y,-z
1/2+x,1/2+y,1/2-z
1/2-x,1/2+y,z
x,-y,1/2+z
loop_
_atom_site_type_symbol
_atom_site_label
_atom_site_fract_x
_atom_site_fract_y
_atom_site_fract_z
Si Si1 0.000000 0.346573 0.750000
Si Si2 0.662561 0.110981 0.908593
Si Si3 0.688045 0.302460 0.909281
Si Si4 0.334671 0.672407 0.878670
Si Si5 0.500000 0.964212 0.250000
Si Si6 0.000000 0.975617 0.750000
Si Si7 0.892908 0.103993 0.119251
Si Si8 0.000000 0.268664 0.250000
O O1 0.044459 0.312201 0.652544
O O2 0.238883 0.379789 0.778718
O O3 0.389714 0.136499 0.906429
O O4 0.627030 0.066184 0.838911
O O5 0.892013 0.145189 0.866394
O O6 0.710147 0.092957 0.022683
O O7 0.568670 0.353689 0.914083
O O8 0.539468 0.262404 0.849422
O O9 0.681577 0.289190 0.028747
O O10 0.253486 0.699351 0.774594
O O11 0.255116 0.995542 0.282059
O O12 0.048659 0.942685 0.650745
#
# Coordination Sequence:
#
# PCOD8248455 Si02
#       8
#     4   8   8   8   4   4   8   4
#     4  12  17  40  74 100 134 198 230 298 338 429
#     4  11  26  51  72  99 143 198 243 286 363 436
#     4  11  24  42  70 107 144 193 241 297 359 420
#     4  11  27  47  74 102 141 199 249 289 356 439
#     4  12  28  46  72 105 148 181 234 308 359 439
#     4  12  25  42  74 116 140 179 237 296 373 424
#     4  11  23  42  74 104 145 190 240 289 357 444
#     4  12  26  46  68 111 154 184 243 318 356 408
#
# _framework density 24.688696
#
# number of rings (size 3 to 8) (size 9 to 14) (size 15 to 20)
#    0.000    0.667    5.000    2.000    0.000    8.667 
#    0.000    0.000    0.000    0.000    0.000    0.000 
#    0.000    0.000    0.000    0.000    0.000    0.000 
#
# Total GULP energy -594693.992569 kJ/mol
# GULP energy per Si atom -12389.458179 kJ/mol
# Density = 2.463250 g / cm^3
# Si number density = 24.688696 Si / 1000 Ang^3
#
#
#
# Elastic Constant Matrix: (Units=GPa)
#
#
# Indices 1 2 3 4 5 6 
#
# 1 86.5224 18.7373 16.0112 0.0000 0.0000 0.0000
# 2 18.7373 93.5593 52.0618 0.0000 0.0000 0.0000
# 3 16.0112 52.0618 96.5185 0.0000 0.0000 0.0000
# 4 0.0000 0.0000 0.0000 59.1763 0.0000 0.0000
# 5 0.0000 0.0000 0.0000 0.0000 43.6279 0.0000
# 6 0.0000 0.0000 0.0000 0.0000 0.0000 62.3825
#
#
#
# Elastic Compliance Matrix: (Units=1/GPa)
#
#
# Indices 1 2 3 4 5 6 
#
# 1 0.012149 -0.001874 -0.001004 0.000000 0.000000 0.000000
# 2 -0.001874 0.015562 -0.008083 0.000000 0.000000 0.000000
# 3 -0.001004 -0.008083 0.014887 0.000000 0.000000 0.000000
# 4 0.000000 0.000000 0.000000 0.016899 0.000000 0.000000
# 5 0.000000 0.000000 0.000000 0.000000 0.022921 0.000000
# 6 0.000000 0.000000 0.000000 0.000000 0.000000 0.016030
#
#
# Mechanical properties :
#
#
# Convention : Reuss Voigt Hill
#
# Bulk Modulus (GPa) = 48.36773 50.02454 49.19614
# Shear Modulus (GPa) = 39.28863 45.69000 42.48931
#
# Velocity S-wave (km/s) = 3.99351 4.30658 4.15300
# Velocity P-wave (km/s) = 6.39514 6.71081 6.55487
#
# Compressibility (1/GPa) = 0.02067494
#
# Stress axis : x y z
#
# Youngs Moduli (GPa) = 82.30808 64.26073 67.17153
#
# Poissons Ratio (x) = 0.12044 0.06747
# Poissons Ratio (y) = 0.15427 0.54294
# Poissons Ratio (z) = 0.08268 0.51942
#
# Static dielectric constant tensor:
#      x y z
#    x 4.483560 0.000000 0.000000 
#    y 0.000000 4.576130 0.000000 
#    z 0.000000 0.000000 4.886490 
# 
# 
# High freq. dielectric constant tensor:
#      x y z
#    x 1.984500 0.000000 0.000000 
#    y 0.000000 1.976140 0.000000 
#    z 0.000000 0.000000 2.000350 
# 
# From -- ./inp_files/13994.got.cif
#   From: 2010.03.12/outbox.cif.g09.slc.cpg/sg60_7_cif.got.tgz:13994.got - 2010.04.10 18:46:24.
