data_PCOD8248865
_publ_section_title
;
Structure prediction by ZEFSAII (Michael W. Deem and Ramdas Pophale) SiO2 
 PCOD8248865
Probable space group: P B C A
;
_chemical_formula_sum "Si O2"
_cell_formula_units_Z 64
_cell_length_a 13.424696
_cell_length_b 12.944315
_cell_length_c 17.913260
_cell_angle_alpha 90.000000
_cell_angle_beta 90.000000
_cell_angle_gamma 90.000000
_cell_volume 3112.849776
_symmetry_space_group_name_H-M "P B C A"
_symmetry_group_IT_number 61
_symmetry_cell_setting 'orthorhombic'
loop_
_space_group_symop_operation_xyz
x,y,z
1/2-x,-y,1/2+z
1/2+x,1/2-y,-z
-x,1/2+y,1/2-z
-x,-y,-z
1/2+x,y,1/2-z
1/2-x,1/2+y,z
x,1/2-y,1/2+z
loop_
_atom_site_type_symbol
_atom_site_label
_atom_site_fract_x
_atom_site_fract_y
_atom_site_fract_z
Si Si1 0.653141 0.866986 0.716599
Si Si2 0.923414 0.930042 0.147960
Si Si3 0.677683 0.345382 0.601766
Si Si4 0.965151 0.771877 0.720846
Si Si5 0.760370 0.262354 0.962646
Si Si6 0.319040 0.613261 0.170207
Si Si7 0.248810 0.450563 0.449317
Si Si8 0.379356 0.433950 0.070025
O O1 0.724513 0.817289 0.652649
O O2 0.580991 0.785509 0.758076
O O3 0.721610 0.911098 0.781999
O O4 0.583758 0.955714 0.681924
O O5 0.950513 0.851715 0.215263
O O6 0.815810 0.894639 0.115513
O O7 0.001338 0.928387 0.078323
O O8 0.572688 0.316357 0.640477
O O9 0.686041 0.291586 0.521347
O O10 0.674219 0.469258 0.587223
O O11 0.903541 0.830921 0.782983
O O12 0.694753 0.305140 0.895781
O O13 0.842233 0.184900 0.929482
O O14 0.808569 0.363999 0.003441
O O15 0.346506 0.498863 0.142621
O O16 0.163903 0.512685 0.496195
#
# Coordination Sequence:
#
# PCOD8248865 Si02
#       8
#     8   8   8   8   8   8   8   8
#     4  10  22  39  56  87 120 154 202 246 296 350
#     4  11  20  36  61  85 114 158 198 239 296 355
#     4   9  20  39  61  84 117 155 195 251 293 351
#     4  11  21  39  58  86 119 155 201 242 296 357
#     4  10  19  38  60  87 114 156 196 236 303 350
#     4  10  22  38  58  85 122 155 197 255 294 351
#     4   9  19  36  61  85 116 149 197 246 291 350
#     4  10  20  35  61  85 116 152 197 245 297 351
#
# _framework density 20.559939
#
# number of rings (size 3 to 8) (size 9 to 14) (size 15 to 20)
#    0.000    2.000    2.500    1.125    1.750    0.000 
#    2.250    0.000    2.750    3.000    0.000    0.000 
#    0.000    0.000    0.000    0.000    0.000    0.000 
#
# Total GULP energy -793047.267581 kJ/mol
# GULP energy per Si atom -12391.363556 kJ/mol
# Density = 2.051314 g / cm^3
# Si number density = 20.559939 Si / 1000 Ang^3
#
#
#
# Elastic Constant Matrix: (Units=GPa)
#
#
# Indices 1 2 3 4 5 6 
#
# 1 46.6753 21.0679 12.4320 0.0000 0.0000 0.0000
# 2 21.0679 80.7517 15.6714 0.0000 0.0000 0.0000
# 3 12.4320 15.6714 76.8544 0.0000 0.0000 0.0000
# 4 0.0000 0.0000 0.0000 38.2982 0.0000 0.0000
# 5 0.0000 0.0000 0.0000 0.0000 24.2001 0.0000
# 6 0.0000 0.0000 0.0000 0.0000 0.0000 25.9162
#
#
#
# Elastic Compliance Matrix: (Units=1/GPa)
#
#
# Indices 1 2 3 4 5 6 
#
# 1 0.024854 -0.005939 -0.002809 0.000000 0.000000 0.000000
# 2 -0.005939 0.014313 -0.001958 0.000000 0.000000 0.000000
# 3 -0.002809 -0.001958 0.013865 0.000000 0.000000 0.000000
# 4 0.000000 0.000000 0.000000 0.026111 0.000000 0.000000
# 5 0.000000 0.000000 0.000000 0.000000 0.041322 0.000000
# 6 0.000000 0.000000 0.000000 0.000000 0.000000 0.038586
#
#
# Mechanical properties :
#
#
# Convention : Reuss Voigt Hill
#
# Bulk Modulus (GPa) = 31.62603 33.62489 32.62546
# Shear Modulus (GPa) = 26.17758 28.02357 27.10057
#
# Velocity S-wave (km/s) = 3.57211 3.69591 3.63454
# Velocity P-wave (km/s) = 5.69465 5.88244 5.78931
#
# Compressibility (1/GPa) = 0.03161952
#
# Stress axis : x y z
#
# Youngs Moduli (GPa) = 40.23562 69.86617 72.12258
#
# Poissons Ratio (x) = 0.41494 0.20261
# Poissons Ratio (y) = 0.23896 0.14121
# Poissons Ratio (z) = 0.11303 0.13679
#
# Static dielectric constant tensor:
#      x y z
#    x 3.515180 0.000000 0.000000 
#    y 0.000000 3.845130 0.000000 
#    z 0.000000 0.000000 3.881470 
# 
# 
# High freq. dielectric constant tensor:
#      x y z
#    x 1.775630 0.000000 0.000000 
#    y 0.000000 1.810720 0.000000 
#    z 0.000000 0.000000 1.810860 
# 
# From -- ./inp_files/9538.got.cif
#   From: 2010.03.12/outbox.cif.g09.slc.cpg/sg61_5_cif.got.tgz:9538.got - 2010.04.10 19:05:03.
