data_PCOD8248897
_publ_section_title
;
Structure prediction by ZEFSAII (Michael W. Deem and Ramdas Pophale) SiO2 
 PCOD8248897
Probable space group: P B C A
;
_chemical_formula_sum "Si O2"
_cell_formula_units_Z 48
_cell_length_a 13.760514
_cell_length_b 10.054471
_cell_length_c 16.168898
_cell_angle_alpha 90.000000
_cell_angle_beta 90.000000
_cell_angle_gamma 90.000000
_cell_volume 2237.042854
_symmetry_space_group_name_H-M "P B C A"
_symmetry_group_IT_number 61
_symmetry_cell_setting 'orthorhombic'
loop_
_space_group_symop_operation_xyz
x,y,z
1/2-x,-y,1/2+z
1/2+x,1/2-y,-z
-x,1/2+y,1/2-z
-x,-y,-z
1/2+x,y,1/2-z
1/2-x,1/2+y,z
x,1/2-y,1/2+z
loop_
_atom_site_type_symbol
_atom_site_label
_atom_site_fract_x
_atom_site_fract_y
_atom_site_fract_z
Si Si1 0.777540 0.522271 0.897419
Si Si2 0.152944 0.414999 0.352404
Si Si3 0.751554 0.728369 0.504816
Si Si4 0.662009 0.587909 0.740164
Si Si5 0.404378 0.298281 0.869394
Si Si6 0.456388 0.890044 0.195825
O O1 0.754578 0.375813 0.929996
O O2 0.781934 0.626990 0.972277
O O3 0.692177 0.569496 0.835198
O O4 0.882506 0.515554 0.853380
O O5 0.165298 0.318842 0.430697
O O6 0.256521 0.474537 0.320587
O O7 0.088756 0.543529 0.375596
O O8 0.098058 0.336578 0.278632
O O9 0.647113 0.738750 0.549099
O O10 0.654369 0.745620 0.713144
O O11 0.554307 0.526661 0.721463
O O12 0.513599 0.236639 0.861666
#
# Coordination Sequence:
#
# PCOD8248897 Si02
#       6
#     8   8   8   8   8   8
#     4  11  23  41  66  95 129 172 214 269 341 382
#     4  10  19  43  64  89 132 168 213 265 324 382
#     4  11  23  41  64  94 134 169 205 275 333 387
#     4   8  21  40  64  91 123 169 217 264 308 390
#     4   9  20  43  61  92 126 168 214 265 315 383
#     4   9  22  42  63  94 120 174 223 260 313 397
#
# _framework density 21.456899
#
# number of rings (size 3 to 8) (size 9 to 14) (size 15 to 20)
#    1.000    1.333    1.667    0.000    4.667    2.000 
#   12.000    1.667    0.000    0.000    0.000    0.000 
#    0.000    0.000    0.000    0.000    0.000    0.000 
#
# Total GULP energy -594656.482763 kJ/mol
# GULP energy per Si atom -12388.676724 kJ/mol
# Density = 2.140806 g / cm^3
# Si number density = 21.456899 Si / 1000 Ang^3
#
#
#
# Elastic Constant Matrix: (Units=GPa)
#
#
# Indices 1 2 3 4 5 6 
#
# 1 109.3309 -5.1023 23.6872 0.0000 0.0000 0.0000
# 2 -5.1023 49.8364 0.7305 0.0000 0.0000 0.0000
# 3 23.6872 0.7305 82.7532 0.0000 0.0000 0.0000
# 4 0.0000 0.0000 0.0000 24.3746 0.0000 0.0000
# 5 0.0000 0.0000 0.0000 0.0000 33.6480 0.0000
# 6 0.0000 0.0000 0.0000 0.0000 0.0000 11.3400
#
#
#
# Elastic Compliance Matrix: (Units=1/GPa)
#
#
# Indices 1 2 3 4 5 6 
#
# 1 0.009805 0.001045 -0.002816 0.000000 0.000000 0.000000
# 2 0.001045 0.020180 -0.000477 0.000000 0.000000 0.000000
# 3 -0.002816 -0.000477 0.012894 0.000000 0.000000 0.000000
# 4 0.000000 0.000000 0.000000 0.041026 0.000000 0.000000
# 5 0.000000 0.000000 0.000000 0.000000 0.029719 0.000000
# 6 0.000000 0.000000 0.000000 0.000000 0.000000 0.088183
#
#
# Mechanical properties :
#
#
# Convention : Reuss Voigt Hill
#
# Bulk Modulus (GPa) = 26.05297 31.17235 28.61266
# Shear Modulus (GPa) = 22.82075 28.71289 25.76682
#
# Velocity S-wave (km/s) = 3.26477 3.66206 3.46911
# Velocity P-wave (km/s) = 5.13614 5.69565 5.42312
#
# Compressibility (1/GPa) = 0.03838333
#
# Stress axis : x y z
#
# Youngs Moduli (GPa) = 101.98458 49.55485 77.55327
#
# Poissons Ratio (x) = -0.05179 0.21838
# Poissons Ratio (y) = -0.10659 0.03702
# Poissons Ratio (z) = 0.28718 0.02365
#
# Static dielectric constant tensor:
#      x y z
#    x 3.876280 0.000000 0.000000 
#    y 0.000000 3.399430 0.000000 
#    z 0.000000 0.000000 3.890230 
# 
# 
# High freq. dielectric constant tensor:
#      x y z
#    x 1.835540 0.000000 0.000000 
#    y 0.000000 1.810400 0.000000 
#    z 0.000000 0.000000 1.842420 
# 
# From -- ./inp_files/7792.got.cif
#   From: 2010.03.12/outbox.cif.g09.slc.cpg/sg61_4_cif.got.tgz:7792.got - 2010.04.10 19:05:03.
