data_PCOD8248511
_publ_section_title
;
Structure prediction by ZEFSAII (Michael W. Deem and Ramdas Pophale) SiO2 
 PCOD8248511
Probable space group: P B C N
;
_chemical_formula_sum "Si O2"
_cell_formula_units_Z 64
_cell_length_a 30.465431
_cell_length_b 11.181711
_cell_length_c 8.770415
_cell_angle_alpha 90.000000
_cell_angle_beta 90.000000
_cell_angle_gamma 90.000000
_cell_volume 2987.691378
_symmetry_space_group_name_H-M "P B C N"
_symmetry_group_IT_number 60
_symmetry_cell_setting 'orthorhombic'
loop_
_space_group_symop_operation_xyz
x,y,z
1/2-x,1/2-y,1/2+z
1/2+x,1/2-y,-z
-x,y,1/2-z
-x,-y,-z
1/2+x,1/2+y,1/2-z
1/2-x,1/2+y,z
x,-y,1/2+z
loop_
_atom_site_type_symbol
_atom_site_label
_atom_site_fract_x
_atom_site_fract_y
_atom_site_fract_z
Si Si1 0.728035 0.942809 0.515024
Si Si2 0.136173 0.813455 0.712941
Si Si3 0.114918 0.640720 0.239163
Si Si4 0.319117 0.273974 0.416403
Si Si5 0.454528 0.413116 0.666744
Si Si6 0.641588 0.085092 0.583354
Si Si7 0.545342 0.339664 0.186022
Si Si8 0.788679 0.001679 0.251335
O O1 0.711754 0.809033 0.475449
O O2 0.772090 0.975884 0.421381
O O3 0.687407 0.035886 0.513218
O O4 0.746410 0.929762 0.685986
O O5 0.141165 0.807315 0.529846
O O6 0.084672 0.835547 0.741786
O O7 0.166295 0.925427 0.762378
O O8 0.151190 0.695647 0.804146
O O9 0.162023 0.699634 0.274463
O O10 0.113426 0.513222 0.324558
O O11 0.111056 0.625338 0.057550
O O12 0.078095 0.728976 0.303032
O O13 0.292666 0.383101 0.349164
O O14 0.500000 0.378108 0.750000
O O15 0.459131 0.390554 0.486011
O O16 0.441668 0.551088 0.700968
O O17 0.500000 0.287077 0.250000
#
# Coordination Sequence:
#
# PCOD8248511 Si02
#       8
#     8   8   8   8   8   8   8   8
#     4  11  25  44  64  93 134 185 233 287 351 409
#     4  12  26  43  70 101 138 184 233 297 352 424
#     4  11  24  46  72  99 136 187 238 289 356 422
#     4  11  24  44  63  97 137 181 238 293 348 424
#     4  11  25  45  74 108 146 179 229 291 367 432
#     4  11  26  46  71  95 140 191 238 290 350 418
#     4  11  24  44  74 108 142 179 229 292 362 434
#     4  12  26  40  66 101 134 181 238 295 352 418
#
# _framework density 21.421222
#
# number of rings (size 3 to 8) (size 9 to 14) (size 15 to 20)
#    0.000    0.750    2.500    6.000    8.750    0.000 
#    0.000    1.250    0.000    0.000    0.000    0.000 
#    0.000    0.000    0.000    0.000    0.000    0.000 
#
# Total GULP energy -793219.627994 kJ/mol
# GULP energy per Si atom -12394.056687 kJ/mol
# Density = 2.137247 g / cm^3
# Si number density = 21.421222 Si / 1000 Ang^3
#
#
#
# Elastic Constant Matrix: (Units=GPa)
#
#
# Indices 1 2 3 4 5 6 
#
# 1 108.8974 60.4520 28.6033 0.0000 0.0000 0.0000
# 2 60.4520 117.0030 49.8310 0.0000 0.0000 0.0000
# 3 28.6033 49.8310 111.2543 0.0000 0.0000 0.0000
# 4 0.0000 0.0000 0.0000 29.6672 0.0000 0.0000
# 5 0.0000 0.0000 0.0000 0.0000 34.0578 0.0000
# 6 0.0000 0.0000 0.0000 0.0000 0.0000 29.4984
#
#
#
# Elastic Compliance Matrix: (Units=1/GPa)
#
#
# Indices 1 2 3 4 5 6 
#
# 1 0.012891 -0.006486 -0.000409 0.000000 0.000000 0.000000
# 2 -0.006486 0.013825 -0.004525 0.000000 0.000000 0.000000
# 3 -0.000409 -0.004525 0.011120 0.000000 0.000000 0.000000
# 4 0.000000 0.000000 0.000000 0.033707 0.000000 0.000000
# 5 0.000000 0.000000 0.000000 0.000000 0.029362 0.000000
# 6 0.000000 0.000000 0.000000 0.000000 0.000000 0.033900
#
#
# Mechanical properties :
#
#
# Convention : Reuss Voigt Hill
#
# Bulk Modulus (GPa) = 66.68271 68.32526 67.50398
# Shear Modulus (GPa) = 30.74191 31.86256 31.30223
#
# Velocity S-wave (km/s) = 3.79240 3.86090 3.82681
# Velocity P-wave (km/s) = 7.09741 7.20005 7.14892
#
# Compressibility (1/GPa) = 0.01499639
#
# Stress axis : x y z
#
# Youngs Moduli (GPa) = 77.57297 72.33237 89.92635
#
# Poissons Ratio (x) = 0.46916 0.03679
# Poissons Ratio (y) = 0.50315 0.40689
# Poissons Ratio (z) = 0.03173 0.32728
#
# Static dielectric constant tensor:
#      x y z
#    x 3.772330 0.000000 0.000000 
#    y 0.000000 3.882650 0.000000 
#    z 0.000000 0.000000 3.965680 
# 
# 
# High freq. dielectric constant tensor:
#      x y z
#    x 1.834360 0.000000 0.000000 
#    y 0.000000 1.841750 0.000000 
#    z 0.000000 0.000000 1.855540 
# 
# From -- ./inp_files/8495.got.cif
#   From: 2010.03.12/outbox.cif.g09.slc.cpg/sg60_5_cif.got.tgz:8495.got - 2010.04.10 18:46:24.
