data_PCOD8248310
_publ_section_title
;
Structure prediction by ZEFSAII (Michael W. Deem and Ramdas Pophale) SiO2 
 PCOD8248310
Probable space group: P B C N
;
_chemical_formula_sum "Si O2"
_cell_formula_units_Z 32
_cell_length_a 4.916240
_cell_length_b 18.760485
_cell_length_c 16.468609
_cell_angle_alpha 90.000000
_cell_angle_beta 90.000000
_cell_angle_gamma 90.000000
_cell_volume 1518.917047
_symmetry_space_group_name_H-M "P B C N"
_symmetry_group_IT_number 60
_symmetry_cell_setting 'orthorhombic'
loop_
_space_group_symop_operation_xyz
x,y,z
1/2-x,1/2-y,1/2+z
1/2+x,1/2-y,-z
-x,y,1/2-z
-x,-y,-z
1/2+x,1/2+y,1/2-z
1/2-x,1/2+y,z
x,-y,1/2+z
loop_
_atom_site_type_symbol
_atom_site_label
_atom_site_fract_x
_atom_site_fract_y
_atom_site_fract_z
Si Si1 0.231055 0.747605 0.196973
Si Si2 0.907542 0.412502 0.836983
Si Si3 0.584724 0.563109 0.058773
Si Si4 0.841934 0.790598 0.473608
O O1 0.500000 0.736323 0.250000
O O2 0.104258 0.672713 0.168021
O O3 0.284139 0.795823 0.117450
O O4 0.000000 0.787077 0.250000
O O5 0.609115 0.438880 0.862315
O O6 0.000000 0.444600 0.750000
O O7 0.109625 0.440858 0.907309
O O8 0.500000 0.500000 0.000000
O O9 0.548735 0.634868 0.006912
O O10 0.602465 0.761468 0.530858
#
# Coordination Sequence:
#
# PCOD8248310 Si02
#       4
#     8   8   8   8
#     4  11  21  36  62  94 128 162 216 269 322 377
#     4  11  22  40  66  94 124 167 220 268 317 389
#     4  12  24  42  64  97 130 172 216 267 325 392
#     4  12  22  40  63  93 128 165 214 266 326 377
#
# _framework density 21.067640000000001
#
# number of rings (size 3 to 8) (size 9 to 14) (size 15 to 20)
#    0.000    0.500    5.000    6.000    0.000    0.000 
#    0.000    3.750    0.000    0.000    0.000    0.000 
#    0.000    0.000    0.000    0.000    0.000    0.000 
#
# Total GULP energy -396766.606038 kJ/mol
# GULP energy per Si atom -12398.956439 kJ/mol
# Density = 2.101969 g / cm^3
# Si number density = 21.067640 Si / 1000 Ang^3
#
#
#
# Elastic Constant Matrix: (Units=GPa)
#
#
# Indices 1 2 3 4 5 6 
#
# 1 119.1063 30.7321 34.6301 0.0000 0.0000 0.0000
# 2 30.7321 64.8779 46.8305 0.0000 0.0000 0.0000
# 3 34.6301 46.8305 124.8307 0.0000 0.0000 0.0000
# 4 0.0000 0.0000 0.0000 21.4380 0.0000 0.0000
# 5 0.0000 0.0000 0.0000 0.0000 57.0903 0.0000
# 6 0.0000 0.0000 0.0000 0.0000 0.0000 14.3716
#
#
#
# Elastic Compliance Matrix: (Units=1/GPa)
#
#
# Indices 1 2 3 4 5 6 
#
# 1 0.009723 -0.003646 -0.001330 0.000000 0.000000 0.000000
# 2 -0.003646 0.022505 -0.007431 0.000000 0.000000 0.000000
# 3 -0.001330 -0.007431 0.011168 0.000000 0.000000 0.000000
# 4 0.000000 0.000000 0.000000 0.046646 0.000000 0.000000
# 5 0.000000 0.000000 0.000000 0.000000 0.017516 0.000000
# 6 0.000000 0.000000 0.000000 0.000000 0.000000 0.069582
#
#
# Mechanical properties :
#
#
# Convention : Reuss Voigt Hill
#
# Bulk Modulus (GPa) = 53.81623 59.24448 56.53035
# Shear Modulus (GPa) = 24.02150 31.68813 27.85481
#
# Velocity S-wave (km/s) = 3.38036 3.88250 3.64010
# Velocity P-wave (km/s) = 6.39028 6.94842 6.67519
#
# Compressibility (1/GPa) = 0.01858176
#
# Stress axis : x y z
#
# Youngs Moduli (GPa) = 102.84683 44.43516 89.54552
#
# Poissons Ratio (x) = 0.16202 0.11905
# Poissons Ratio (y) = 0.37499 0.66543
# Poissons Ratio (z) = 0.13674 0.33021
#
# Static dielectric constant tensor:
#      x y z
#    x 3.941470 0.000000 0.000000 
#    y 0.000000 3.312970 0.000000 
#    z 0.000000 0.000000 4.432570 
# 
# 
# High freq. dielectric constant tensor:
#      x y z
#    x 1.847260 0.000000 0.000000 
#    y 0.000000 1.770110 0.000000 
#    z 0.000000 0.000000 1.846160 
# 
# From -- ./inp_files/13584.got.cif
#   From: 2010.03.12/outbox.cif.g09.slc.cpg/sg60_7_cif.got.tgz:13584.got - 2010.04.10 18:46:24.
