data_PCOD8248337
_publ_section_title
;
Structure prediction by ZEFSAII (Michael W. Deem and Ramdas Pophale) SiO2 
 PCOD8248337
Probable space group: P B C N
;
_chemical_formula_sum "Si O2"
_cell_formula_units_Z 48
_cell_length_a 10.765114
_cell_length_b 19.608786
_cell_length_c 11.731598
_cell_angle_alpha 90.000000
_cell_angle_beta 90.000000
_cell_angle_gamma 90.000000
_cell_volume 2476.432603
_symmetry_space_group_name_H-M "P B C N"
_symmetry_group_IT_number 60
_symmetry_cell_setting 'orthorhombic'
loop_
_space_group_symop_operation_xyz
x,y,z
1/2-x,1/2-y,1/2+z
1/2+x,1/2-y,-z
-x,y,1/2-z
-x,-y,-z
1/2+x,1/2+y,1/2-z
1/2-x,1/2+y,z
x,-y,1/2+z
loop_
_atom_site_type_symbol
_atom_site_label
_atom_site_fract_x
_atom_site_fract_y
_atom_site_fract_z
Si Si1 0.457439 0.276235 0.072176
Si Si2 0.682513 0.928222 0.709013
Si Si3 0.048431 0.618106 0.070780
Si Si4 0.881780 0.580527 0.672974
Si Si5 0.885237 0.171650 0.166500
Si Si6 0.701586 0.294810 0.208385
O O1 0.439644 0.197390 0.040076
O O2 0.597484 0.289882 0.111373
O O3 0.359553 0.297989 0.167714
O O4 0.432412 0.321590 0.962013
O O5 0.588724 0.897618 0.615910
O O6 0.648717 0.901903 0.834594
O O7 0.820090 0.902165 0.678713
O O8 0.679343 0.009559 0.709777
O O9 0.074325 0.574927 0.957503
O O10 0.778198 0.637128 0.689260
O O11 0.000000 0.598490 0.750000
O O12 0.787241 0.229036 0.200683
O O13 0.000000 0.177027 0.250000
#
# Coordination Sequence:
#
# PCOD8248337 Si02
#       6
#     8   8   8   8   8   8
#     4  11  24  43  69  94 133 173 215 274 335 380
#     4  11  24  44  65  96 136 167 215 272 335 387
#     4  11  21  42  70  93 131 168 212 280 333 375
#     4  12  26  40  70 102 126 170 228 272 318 392
#     4  12  26  40  69 100 127 175 222 264 328 394
#     4  11  24  43  64  98 131 170 217 275 325 380
#
# _framework density 19.382719999999999
#
# number of rings (size 3 to 8) (size 9 to 14) (size 15 to 20)
#    0.000    0.667    6.667    2.000    7.000    0.000 
#    3.000    0.833    0.000    0.000    0.000    0.000 
#    0.000    0.000    0.000    0.000    0.000    0.000 
#
# Total GULP energy -595511.847740 kJ/mol
# GULP energy per Si atom -12406.496828 kJ/mol
# Density = 1.933860 g / cm^3
# Si number density = 19.382720 Si / 1000 Ang^3
#
#
#
# Elastic Constant Matrix: (Units=GPa)
#
#
# Indices 1 2 3 4 5 6 
#
# 1 127.2569 45.6609 76.6237 0.0000 0.0000 0.0000
# 2 45.6609 85.4018 29.5448 0.0000 0.0000 0.0000
# 3 76.6237 29.5448 101.3492 0.0000 0.0000 0.0000
# 4 0.0000 0.0000 0.0000 43.3043 0.0000 0.0000
# 5 0.0000 0.0000 0.0000 0.0000 17.1827 0.0000
# 6 0.0000 0.0000 0.0000 0.0000 0.0000 25.0319
#
#
#
# Elastic Compliance Matrix: (Units=1/GPa)
#
#
# Indices 1 2 3 4 5 6 
#
# 1 0.016066 -0.004880 -0.010724 0.000000 0.000000 0.000000
# 2 -0.004880 0.014505 -0.000539 0.000000 0.000000 0.000000
# 3 -0.010724 -0.000539 0.018132 0.000000 0.000000 0.000000
# 4 0.000000 0.000000 0.000000 0.023092 0.000000 0.000000
# 5 0.000000 0.000000 0.000000 0.000000 0.058198 0.000000
# 6 0.000000 0.000000 0.000000 0.000000 0.000000 0.039949
#
#
# Mechanical properties :
#
#
# Convention : Reuss Voigt Hill
#
# Bulk Modulus (GPa) = 60.91275 68.62963 64.77119
# Shear Modulus (GPa) = 24.07306 27.91568 25.99437
#
# Velocity S-wave (km/s) = 3.52801 3.79916 3.66609
# Velocity P-wave (km/s) = 6.93472 7.39793 7.17006
#
# Compressibility (1/GPa) = 0.01641692
#
# Stress axis : x y z
#
# Youngs Moduli (GPa) = 62.24212 68.94208 55.15170
#
# Poissons Ratio (x) = 0.33644 0.59145
# Poissons Ratio (y) = 0.30374 0.02972
# Poissons Ratio (z) = 0.66749 0.03716
#
# Static dielectric constant tensor:
#      x y z
#    x 3.620600 0.000000 0.000000 
#    y 0.000000 3.602430 0.000000 
#    z 0.000000 0.000000 3.672250 
# 
# 
# High freq. dielectric constant tensor:
#      x y z
#    x 1.756520 0.000000 0.000000 
#    y 0.000000 1.754580 0.000000 
#    z 0.000000 0.000000 1.769180 
# 
# From -- ./inp_files/10989.got.cif
#   From: 2010.03.12/outbox.cif.g09.slc.cpg/sg60_6_cif.got.tgz:10989.got - 2010.04.10 18:46:24.
