data_PCOD8248876
_publ_section_title
;
Structure prediction by ZEFSAII (Michael W. Deem and Ramdas Pophale) SiO2 
 PCOD8248876
Probable space group: P B C A
;
_chemical_formula_sum "Si O2"
_cell_formula_units_Z 64
_cell_length_a 13.801012
_cell_length_b 15.207221
_cell_length_c 15.351333
_cell_angle_alpha 90.000000
_cell_angle_beta 90.000000
_cell_angle_gamma 90.000000
_cell_volume 3221.861620
_symmetry_space_group_name_H-M "P B C A"
_symmetry_group_IT_number 61
_symmetry_cell_setting 'orthorhombic'
loop_
_space_group_symop_operation_xyz
x,y,z
1/2-x,-y,1/2+z
1/2+x,1/2-y,-z
-x,1/2+y,1/2-z
-x,-y,-z
1/2+x,y,1/2-z
1/2-x,1/2+y,z
x,1/2-y,1/2+z
loop_
_atom_site_type_symbol
_atom_site_label
_atom_site_fract_x
_atom_site_fract_y
_atom_site_fract_z
Si Si1 0.864686 0.469712 0.177226
Si Si2 0.666451 0.468373 0.242751
Si Si3 0.770389 0.724778 0.778958
Si Si4 0.152062 0.782063 0.388515
Si Si5 0.533654 0.590842 0.342167
Si Si6 0.512694 0.886901 0.325764
Si Si7 0.525497 0.277705 0.792187
Si Si8 0.614646 0.755304 0.425141
O O1 0.759095 0.514052 0.195717
O O2 0.850318 0.387658 0.112579
O O3 0.938331 0.535826 0.129033
O O4 0.905290 0.436729 0.270571
O O5 0.702761 0.377520 0.285200
O O6 0.625289 0.526930 0.322695
O O7 0.582791 0.448708 0.169522
O O8 0.732016 0.751127 0.681546
O O9 0.859885 0.784347 0.812885
O O10 0.682854 0.746477 0.841769
O O11 0.176130 0.747423 0.485555
O O12 0.043174 0.744795 0.373372
O O13 0.509412 0.631056 0.247841
O O14 0.552728 0.664354 0.416257
O O15 0.481523 0.798285 0.278374
O O16 0.552459 0.847575 0.418243
#
# Coordination Sequence:
#
# PCOD8248876 Si02
#       8
#     8   8   8   8   8   8   8   8
#     4   9  17  33  54  79 112 154 186 227 287 347
#     4   9  17  32  61  77 112 156 192 223 292 345
#     4  10  19  39  59  82 113 158 196 229 291 352
#     4  10  20  38  60  86 116 148 194 242 287 348
#     4  10  20  32  59  86 111 153 192 237 294 339
#     4   8  15  33  53  77 104 150 187 223 281 333
#     4   9  18  35  57  81 110 150 190 239 281 333
#     4  11  20  36  59  88 117 145 198 249 278 342
#
# _framework density 19.864291999999999
#
# number of rings (size 3 to 8) (size 9 to 14) (size 15 to 20)
#    0.000    2.500    5.000    0.750    1.750    0.500 
#    9.000    0.000    5.500    3.000    0.000    0.000 
#    0.000    0.000    0.000    0.000    0.000    0.000 
#
# Total GULP energy -792839.746414 kJ/mol
# GULP energy per Si atom -12388.121038 kJ/mol
# Density = 1.981908 g / cm^3
# Si number density = 19.864292 Si / 1000 Ang^3
#
#
#
# Elastic Constant Matrix: (Units=GPa)
#
#
# Indices 1 2 3 4 5 6 
#
# 1 104.2592 15.1611 6.9008 0.0000 0.0000 0.0000
# 2 15.1611 37.9024 9.4182 0.0000 0.0000 0.0000
# 3 6.9008 9.4182 56.9550 0.0000 0.0000 0.0000
# 4 0.0000 0.0000 0.0000 13.5670 0.0000 0.0000
# 5 0.0000 0.0000 0.0000 0.0000 11.8707 0.0000
# 6 0.0000 0.0000 0.0000 0.0000 0.0000 17.4302
#
#
#
# Elastic Compliance Matrix: (Units=1/GPa)
#
#
# Indices 1 2 3 4 5 6 
#
# 1 0.010203 -0.003936 -0.000585 0.000000 0.000000 0.000000
# 2 -0.003936 0.029032 -0.004324 0.000000 0.000000 0.000000
# 3 -0.000585 -0.004324 0.018344 0.000000 0.000000 0.000000
# 4 0.000000 0.000000 0.000000 0.073708 0.000000 0.000000
# 5 0.000000 0.000000 0.000000 0.000000 0.084241 0.000000
# 6 0.000000 0.000000 0.000000 0.000000 0.000000 0.057372
#
#
# Mechanical properties :
#
#
# Convention : Reuss Voigt Hill
#
# Bulk Modulus (GPa) = 25.06986 29.11966 27.09476
# Shear Modulus (GPa) = 16.45355 19.74933 18.10144
#
# Velocity S-wave (km/s) = 2.88114 3.15653 3.02198
# Velocity P-wave (km/s) = 4.86990 5.28924 5.08390
#
# Compressibility (1/GPa) = 0.03988853
#
# Stress axis : x y z
#
# Youngs Moduli (GPa) = 98.01491 34.44447 54.51475
#
# Poissons Ratio (x) = 0.13556 0.03191
# Poissons Ratio (y) = 0.38575 0.23572
# Poissons Ratio (z) = 0.05738 0.14894
#
# Static dielectric constant tensor:
#      x y z
#    x 4.265780 0.000000 0.000000 
#    y 0.000000 3.742450 0.000000 
#    z 0.000000 0.000000 3.046490 
# 
# 
# High freq. dielectric constant tensor:
#      x y z
#    x 1.790760 0.000000 0.000000 
#    y 0.000000 1.770250 0.000000 
#    z 0.000000 0.000000 1.710780 
# 
# From -- ./inp_files/8027.got.cif
#   From: 2010.03.12/outbox.cif.g09.slc.cpg/sg61_5_cif.got.tgz:8027.got - 2010.04.10 19:05:03.
