data_PCOD8248492
_publ_section_title
;
Structure prediction by ZEFSAII (Michael W. Deem and Ramdas Pophale) SiO2 
 PCOD8248492
Probable space group: P B C N
;
_chemical_formula_sum "Si O2"
_cell_formula_units_Z 64
_cell_length_a 21.070200
_cell_length_b 14.316980
_cell_length_c 9.849827
_cell_angle_alpha 90.000000
_cell_angle_beta 90.000000
_cell_angle_gamma 90.000000
_cell_volume 2971.314888
_symmetry_space_group_name_H-M "P B C N"
_symmetry_group_IT_number 60
_symmetry_cell_setting 'orthorhombic'
loop_
_space_group_symop_operation_xyz
x,y,z
1/2-x,1/2-y,1/2+z
1/2+x,1/2-y,-z
-x,y,1/2-z
-x,-y,-z
1/2+x,1/2+y,1/2-z
1/2-x,1/2+y,z
x,-y,1/2+z
loop_
_atom_site_type_symbol
_atom_site_label
_atom_site_fract_x
_atom_site_fract_y
_atom_site_fract_z
Si Si1 0.964532 0.173029 0.501574
Si Si2 0.639626 0.361300 0.810150
Si Si3 0.067448 0.976090 0.298464
Si Si4 0.692714 0.081426 0.150901
Si Si5 0.401669 0.684191 0.589195
Si Si6 0.210992 0.227064 0.416428
Si Si7 0.933464 0.335846 0.710190
Si Si8 0.741373 0.079522 0.454159
O O1 0.923806 0.188518 0.366283
O O2 0.941761 0.070428 0.554139
O O3 0.950130 0.254196 0.606762
O O4 0.040793 0.173697 0.478268
O O5 0.620391 0.443078 0.703567
O O6 0.679164 0.280895 0.733026
O O7 0.683055 0.405354 0.931463
O O8 0.089770 0.894256 0.200116
O O9 0.000000 0.018706 0.250000
O O10 0.719856 0.180197 0.095490
O O11 0.615908 0.089403 0.145971
O O12 0.711647 0.061862 0.306123
O O13 0.722635 0.005014 0.051981
O O14 0.333906 0.669939 0.519501
O O15 0.402589 0.787302 0.657288
O O16 0.214452 0.332368 0.464427
O O17 0.000000 0.387143 0.750000
#
# Coordination Sequence:
#
# PCOD8248492 Si02
#       8
#     8   8   8   8   8   8   8   8
#     4   9  20  34  58  91 126 164 212 255 312 386
#     4  11  24  36  59  92 125 171 205 260 321 383
#     4   9  20  33  55  92 128 166 205 252 308 385
#     4  11  24  44  67  95 127 170 212 277 324 387
#     4   9  18  37  61  87 127 169 206 256 311 382
#     4  11  24  41  63  90 127 169 212 261 320 388
#     4   9  18  40  68  87 112 165 221 263 320 374
#     4  11  26  43  64  93 129 169 220 266 327 389
#
# _framework density 21.539286000000001
#
# number of rings (size 3 to 8) (size 9 to 14) (size 15 to 20)
#    0.000    2.000    1.250    3.000    7.000    4.000 
#    0.000    0.625    2.750    0.000    0.000    0.000 
#    0.000    0.000    0.000    0.000    0.000    0.000 
#
# Total GULP energy -793176.272911 kJ/mol
# GULP energy per Si atom -12393.379264 kJ/mol
# Density = 2.149026 g / cm^3
# Si number density = 21.539286 Si / 1000 Ang^3
#
#
#
# Elastic Constant Matrix: (Units=GPa)
#
#
# Indices 1 2 3 4 5 6 
#
# 1 93.4518 14.7677 18.0558 0.0000 0.0000 0.0000
# 2 14.7677 58.4023 27.2087 0.0000 0.0000 0.0000
# 3 18.0558 27.2087 63.5008 0.0000 0.0000 0.0000
# 4 0.0000 0.0000 0.0000 17.9155 0.0000 0.0000
# 5 0.0000 0.0000 0.0000 0.0000 33.4475 0.0000
# 6 0.0000 0.0000 0.0000 0.0000 0.0000 23.5947
#
#
#
# Elastic Compliance Matrix: (Units=1/GPa)
#
#
# Indices 1 2 3 4 5 6 
#
# 1 0.011460 -0.001724 -0.002520 0.000000 0.000000 0.000000
# 2 -0.001724 0.021652 -0.008787 0.000000 0.000000 0.000000
# 3 -0.002520 -0.008787 0.020230 0.000000 0.000000 0.000000
# 4 0.000000 0.000000 0.000000 0.055817 0.000000 0.000000
# 5 0.000000 0.000000 0.000000 0.000000 0.029898 0.000000
# 6 0.000000 0.000000 0.000000 0.000000 0.000000 0.042382
#
#
# Mechanical properties :
#
#
# Convention : Reuss Voigt Hill
#
# Bulk Modulus (GPa) = 36.65736 37.26881 36.96309
# Shear Modulus (GPa) = 23.08455 25.34638 24.21547
#
# Velocity S-wave (km/s) = 3.27730 3.43410 3.35662
# Velocity P-wave (km/s) = 5.60149 5.75016 5.67631
#
# Compressibility (1/GPa) = 0.02727965
#
# Stress axis : x y z
#
# Youngs Moduli (GPa) = 87.26014 46.18416 49.43259
#
# Poissons Ratio (x) = 0.07961 0.12457
# Poissons Ratio (y) = 0.15042 0.43439
# Poissons Ratio (z) = 0.21989 0.40584
#
# Static dielectric constant tensor:
#      x y z
#    x 4.268610 0.000000 0.000000 
#    y 0.000000 3.543430 0.000000 
#    z 0.000000 0.000000 3.977170 
# 
# 
# High freq. dielectric constant tensor:
#      x y z
#    x 1.859470 0.000000 0.000000 
#    y 0.000000 1.809680 0.000000 
#    z 0.000000 0.000000 1.843520 
# 
# From -- ./inp_files/13152.got.cif
#   From: 2010.03.12/outbox.cif.g09.slc.cpg/sg60_7_cif.got.tgz:13152.got - 2010.04.10 18:46:24.
