data_PCOD8248323
_publ_section_title
;
Structure prediction by ZEFSAII (Michael W. Deem and Ramdas Pophale) SiO2 
 PCOD8248323
Probable space group: P B C N
;
_chemical_formula_sum "Si O2"
_cell_formula_units_Z 48
_cell_length_a 29.984120
_cell_length_b 15.579407
_cell_length_c 4.883163
_cell_angle_alpha 90.000000
_cell_angle_beta 90.000000
_cell_angle_gamma 90.000000
_cell_volume 2281.095415
_symmetry_space_group_name_H-M "P B C N"
_symmetry_group_IT_number 60
_symmetry_cell_setting 'orthorhombic'
loop_
_space_group_symop_operation_xyz
x,y,z
1/2-x,1/2-y,1/2+z
1/2+x,1/2-y,-z
-x,y,1/2-z
-x,-y,-z
1/2+x,1/2+y,1/2-z
1/2-x,1/2+y,z
x,-y,1/2+z
loop_
_atom_site_type_symbol
_atom_site_label
_atom_site_fract_x
_atom_site_fract_y
_atom_site_fract_z
Si Si1 0.326686 0.941729 0.291974
Si Si2 0.775492 0.277281 0.040496
Si Si3 0.632554 0.277064 0.315801
Si Si4 0.403099 0.182444 0.701459
Si Si5 0.089047 0.056910 0.863531
Si Si6 0.500000 0.657112 0.750000
Si Si7 0.000000 0.722416 0.750000
O O1 0.288245 0.873064 0.362193
O O2 0.375957 0.899234 0.319564
O O3 0.321415 0.024377 0.484313
O O4 0.736137 0.277475 0.813775
O O5 0.815651 0.231469 0.882365
O O6 0.604258 0.262224 0.592497
O O7 0.626196 0.372494 0.202417
O O8 0.616720 0.206787 0.093646
O O9 0.456389 0.163947 0.681112
O O10 0.040526 0.096933 0.830264
O O11 0.095114 0.973611 0.673918
O O12 0.486608 0.717765 0.501319
#
# Coordination Sequence:
#
# PCOD8248323 Si02
#       7
#     8   8   8   8   8   4   4
#     4  11  23  42  67  98 128 160 200 256 314 368
#     4  11  23  43  70  96 121 160 209 253 308 388
#     4  11  22  41  61  86 123 167 210 261 310 380
#     4  11  21  39  64  89 124 167 212 252 307 375
#     4  12  23  37  55  85 126 167 211 262 315 360
#     4  12  22  37  56  85 126 160 226 268 304 361
#     4  12  20  37  62  91 118 168 220 268 294 371
#
# _framework density 21.04252
#
# number of rings (size 3 to 8) (size 9 to 14) (size 15 to 20)
#    0.000    0.667    3.333    7.500    0.000    0.000 
#    0.000    5.833    0.000    0.000    0.000    0.000 
#    0.000    0.000    0.000    0.000    0.000    0.000 
#
# Total GULP energy -595281.262121 kJ/mol
# GULP energy per Si atom -12401.692961 kJ/mol
# Density = 2.099463 g / cm^3
# Si number density = 21.042520 Si / 1000 Ang^3
#
#
#
# Elastic Constant Matrix: (Units=GPa)
#
#
# Indices 1 2 3 4 5 6 
#
# 1 102.1181 38.1611 21.0768 0.0000 0.0000 0.0000
# 2 38.1611 76.5581 8.1693 0.0000 0.0000 0.0000
# 3 21.0768 8.1693 87.7370 0.0000 0.0000 0.0000
# 4 0.0000 0.0000 0.0000 -565.2330 0.0000 0.0000
# 5 0.0000 0.0000 0.0000 0.0000 30.4875 0.0000
# 6 0.0000 0.0000 0.0000 0.0000 0.0000 18.8484
#
#
#
# Elastic Compliance Matrix: (Units=1/GPa)
#
#
# Indices 1 2 3 4 5 6 
#
# 1 0.012536 -0.005987 -0.002454 0.000000 0.000000 0.000000
# 2 -0.005987 0.016052 -0.000056 0.000000 0.000000 0.000000
# 3 -0.002454 -0.000056 0.011993 0.000000 0.000000 0.000000
# 4 0.000000 0.000000 0.000000 -0.001769 0.000000 0.000000
# 5 0.000000 0.000000 0.000000 0.000000 0.032800 0.000000
# 6 0.000000 0.000000 0.000000 0.000000 0.000000 0.053055
#
#
# Mechanical properties :
#
#
# Convention : Reuss Voigt Hill
#
# Bulk Modulus (GPa) = 42.39787 44.58086 43.48936
# Shear Modulus (GPa) = 33.43938 -89.91233 -28.23648
#
# Velocity S-wave (km/s) = 3.99072 -6.54382 -3.66714
# Velocity P-wave (km/s) = 6.43637 5.98861 1.66784
#
# Compressibility (1/GPa) = 0.02358609
#
# Stress axis : x y z
#
# Youngs Moduli (GPa) = 79.76748 62.29639 83.38541
#
# Poissons Ratio (x) = 0.37297 0.20464
# Poissons Ratio (y) = 0.47757 0.00470
# Poissons Ratio (z) = 0.19576 0.00351
#
# Static dielectric constant tensor:
#      x y z
#    x 3.819710 0.000000 0.000000 
#    y 0.000000 3.543830 0.000000 
#    z 0.000000 0.000000 4.089940 
# 
# 
# High freq. dielectric constant tensor:
#      x y z
#    x 1.822670 0.000000 0.000000 
#    y 0.000000 1.799160 0.000000 
#    z 0.000000 0.000000 1.851040 
# 
# From -- ./inp_files/2685.got.cif
#   From: 2010.03.12/outbox.cif.g09.slc.cpg/sg60_2_cif.got.tgz:2685.got - 2010.04.10 18:46:24.
