data_PCOD8248932
_publ_section_title
;
Structure prediction by ZEFSAII (Michael W. Deem and Ramdas Pophale) SiO2 
 PCOD8248932
Probable space group: P B C A
;
_chemical_formula_sum "Si O2"
_cell_formula_units_Z 48
_cell_length_a 4.929867
_cell_length_b 29.892890
_cell_length_c 15.686049
_cell_angle_alpha 90.000000
_cell_angle_beta 90.000000
_cell_angle_gamma 90.000000
_cell_volume 2311.621229
_symmetry_space_group_name_H-M "P B C A"
_symmetry_group_IT_number 61
_symmetry_cell_setting 'orthorhombic'
loop_
_space_group_symop_operation_xyz
x,y,z
1/2-x,-y,1/2+z
1/2+x,1/2-y,-z
-x,1/2+y,1/2-z
-x,-y,-z
1/2+x,y,1/2-z
1/2-x,1/2+y,z
x,1/2-y,1/2+z
loop_
_atom_site_type_symbol
_atom_site_label
_atom_site_fract_x
_atom_site_fract_y
_atom_site_fract_z
Si Si1 0.284455 0.418055 0.193374
Si Si2 0.844578 0.519530 0.306621
Si Si3 0.874971 0.318611 0.806241
Si Si4 0.565849 0.276426 0.525725
Si Si5 0.702532 0.900016 0.918975
Si Si6 0.722517 0.627826 0.980231
O O1 0.484085 0.408869 0.272242
O O2 0.314369 0.468928 0.160047
O O3 0.350650 0.384977 0.116135
O O4 0.646288 0.528895 0.227005
O O5 0.787000 0.551310 0.386546
O O6 0.568140 0.311486 0.775180
O O7 0.905255 0.369137 0.841589
O O8 0.951196 0.283167 0.879041
O O9 0.318757 0.257397 0.469241
O O10 0.664263 0.322039 0.482135
O O11 0.455998 0.905792 0.985625
O O12 0.954701 0.874957 0.962444
#
# Coordination Sequence:
#
# PCOD8248932 Si02
#       6
#     8   8   8   8   8   8
#     4  10  22  40  59  82 117 157 199 242 280 335
#     4  10  20  35  56  85 121 159 193 232 285 337
#     4  11  21  37  60  88 117 147 186 233 288 347
#     4  11  23  42  62  84 118 153 189 242 298 350
#     4  11  21  35  59  89 120 152 189 237 290 354
#     4  11  23  39  60  86 113 154 198 239 301 350
#
# _framework density 20.764648999999999
#
# number of rings (size 3 to 8) (size 9 to 14) (size 15 to 20)
#    0.000    1.333    0.000    8.000    0.000    1.333 
#    0.000    5.000    0.000    0.000    0.000    0.000 
#    0.000    0.000    0.000    0.000    0.000    0.000 
#
# Total GULP energy -595495.072575 kJ/mol
# GULP energy per Si atom -12406.147345 kJ/mol
# Density = 2.071739 g / cm^3
# Si number density = 20.764649 Si / 1000 Ang^3
#
#
#
# Elastic Constant Matrix: (Units=GPa)
#
#
# Indices 1 2 3 4 5 6 
#
# 1 100.7293 22.9622 22.0833 0.0000 0.0000 0.0000
# 2 22.9622 81.6407 55.8013 0.0000 0.0000 0.0000
# 3 22.0833 55.8013 89.0213 0.0000 0.0000 0.0000
# 4 0.0000 0.0000 0.0000 23.4156 0.0000 0.0000
# 5 0.0000 0.0000 0.0000 0.0000 35.3500 0.0000
# 6 0.0000 0.0000 0.0000 0.0000 0.0000 27.0146
#
#
#
# Elastic Compliance Matrix: (Units=1/GPa)
#
#
# Indices 1 2 3 4 5 6 
#
# 1 0.010699 -0.002091 -0.001343 0.000000 0.000000 0.000000
# 2 -0.002091 0.021839 -0.013171 0.000000 0.000000 0.000000
# 3 -0.001343 -0.013171 0.019822 0.000000 0.000000 0.000000
# 4 0.000000 0.000000 0.000000 0.042707 0.000000 0.000000
# 5 0.000000 0.000000 0.000000 0.000000 0.028289 0.000000
# 6 0.000000 0.000000 0.000000 0.000000 0.000000 0.037017
#
#
# Mechanical properties :
#
#
# Convention : Reuss Voigt Hill
#
# Bulk Modulus (GPa) = 52.21894 52.56498 52.39196
# Shear Modulus (GPa) = 25.00431 28.52567 26.76499
#
# Velocity S-wave (km/s) = 3.47389 3.71045 3.59412
# Velocity P-wave (km/s) = 6.42597 6.61258 6.51994
#
# Compressibility (1/GPa) = 0.01915014
#
# Stress axis : x y z
#
# Youngs Moduli (GPa) = 93.46880 45.78957 50.44829
#
# Poissons Ratio (x) = 0.09574 0.06777
# Poissons Ratio (y) = 0.19544 0.66444
# Poissons Ratio (z) = 0.12556 0.60308
#
# Static dielectric constant tensor:
#      x y z
#    x 3.974160 0.000000 0.000000 
#    y 0.000000 3.622120 0.000000 
#    z 0.000000 0.000000 3.521250 
# 
# 
# High freq. dielectric constant tensor:
#      x y z
#    x 1.837640 0.000000 0.000000 
#    y 0.000000 1.799780 0.000000 
#    z 0.000000 0.000000 1.799090 
# 
# From -- ./inp_files/6857.got.cif
#   From: 2010.03.12/outbox.cif.g09.slc.cpg/sg61_4_cif.got.tgz:6857.got - 2010.04.10 19:05:03.
