data_PCOD8248666
_publ_section_title
;
Structure prediction by ZEFSAII (Michael W. Deem and Ramdas Pophale) SiO2 
 PCOD8248666
Probable space group: P B C N
;
_chemical_formula_sum "Si O2"
_cell_formula_units_Z 32
_cell_length_a 17.689712
_cell_length_b 9.279856
_cell_length_c 8.520358
_cell_angle_alpha 90.000000
_cell_angle_beta 90.000000
_cell_angle_gamma 90.000000
_cell_volume 1398.684759
_symmetry_space_group_name_H-M "P B C N"
_symmetry_group_IT_number 60
_symmetry_cell_setting 'orthorhombic'
loop_
_space_group_symop_operation_xyz
x,y,z
1/2-x,1/2-y,1/2+z
1/2+x,1/2-y,-z
-x,y,1/2-z
-x,-y,-z
1/2+x,1/2+y,1/2-z
1/2-x,1/2+y,z
x,-y,1/2+z
loop_
_atom_site_type_symbol
_atom_site_label
_atom_site_fract_x
_atom_site_fract_y
_atom_site_fract_z
Si Si1 0.797607 0.578977 0.872287
Si Si2 0.950091 0.400121 0.897833
Si Si3 0.708788 0.367613 0.681127
Si Si4 0.546343 0.618480 0.094393
O O1 0.874664 0.489119 0.863498
O O2 0.733579 0.467719 0.823250
O O3 0.804273 0.706772 0.746019
O O4 0.772803 0.636087 0.044150
O O5 0.000000 0.355322 0.750000
O O6 0.932999 0.254304 0.988134
O O7 0.000000 0.500000 0.000000
O O8 0.629404 0.440978 0.633384
O O9 0.500000 0.664158 0.250000
O O10 0.500000 0.500000 0.000000
#
# Coordination Sequence:
#
# PCOD8248666 Si02
#       4
#     8   8   8   8
#     4  12  26  45  71 103 142 185 233 290 353 420
#     4  12  25  45  70 100 138 183 232 288 351 419
#     4  12  25  45  69 102 139 183 232 288 351 421
#     4  12  26  45  70 103 139 183 234 290 349 416
#
# _framework density 22.878636
#
# number of rings (size 3 to 8) (size 9 to 14) (size 15 to 20)
#    0.000    0.000    0.000   12.000    0.000    4.000 
#    0.000    0.000    0.000    0.000    0.000    0.000 
#    0.000    0.000    0.000    0.000    0.000    0.000 
#
# Total GULP energy -396827.371560 kJ/mol
# GULP energy per Si atom -12400.855361 kJ/mol
# Density = 2.282656 g / cm^3
# Si number density = 22.878636 Si / 1000 Ang^3
#
#
#
# Elastic Constant Matrix: (Units=GPa)
#
#
# Indices 1 2 3 4 5 6 
#
# 1 143.2477 63.9464 42.6869 0.0000 0.0000 0.0000
# 2 63.9464 147.2545 47.9892 0.0000 0.0000 0.0000
# 3 42.6869 47.9892 125.7656 0.0000 0.0000 0.0000
# 4 0.0000 0.0000 0.0000 31.6134 0.0000 0.0000
# 5 0.0000 0.0000 0.0000 0.0000 51.3278 0.0000
# 6 0.0000 0.0000 0.0000 0.0000 0.0000 42.4539
#
#
#
# Elastic Compliance Matrix: (Units=1/GPa)
#
#
# Indices 1 2 3 4 5 6 
#
# 1 0.008997 -0.003325 -0.001785 0.000000 0.000000 0.000000
# 2 -0.003325 0.008984 -0.002300 0.000000 0.000000 0.000000
# 3 -0.001785 -0.002300 0.009435 0.000000 0.000000 0.000000
# 4 0.000000 0.000000 0.000000 0.031632 0.000000 0.000000
# 5 0.000000 0.000000 0.000000 0.000000 0.019483 0.000000
# 6 0.000000 0.000000 0.000000 0.000000 0.000000 0.023555
#
#
# Mechanical properties :
#
#
# Convention : Reuss Voigt Hill
#
# Bulk Modulus (GPa) = 79.38699 80.61251 79.99975
# Shear Modulus (GPa) = 41.28657 42.52205 41.90431
#
# Velocity S-wave (km/s) = 4.25266 4.31582 4.28435
# Velocity P-wave (km/s) = 7.67385 7.75541 7.71474
#
# Compressibility (1/GPa) = 0.01259652
#
# Stress axis : x y z
#
# Youngs Moduli (GPa) = 111.14441 111.30307 105.99301
#
# Poissons Ratio (x) = 0.37013 0.18919
# Poissons Ratio (y) = 0.36961 0.24374
# Poissons Ratio (z) = 0.19838 0.25595
#
# Static dielectric constant tensor:
#      x y z
#    x 4.238620 0.000000 0.000000 
#    y 0.000000 3.989850 0.000000 
#    z 0.000000 0.000000 4.555730 
# 
# 
# High freq. dielectric constant tensor:
#      x y z
#    x 1.925960 0.000000 0.000000 
#    y 0.000000 1.910970 0.000000 
#    z 0.000000 0.000000 1.921510 
# 
# From -- ./inp_files/7142.got.cif
#   From: 2010.03.12/outbox.cif.g09.slc.cpg/sg60_4_cif.got.tgz:7142.got - 2010.04.10 18:46:24.
