data_PCOD8248977
_publ_section_title
;
Structure prediction by ZEFSAII (Michael W. Deem and Ramdas Pophale) SiO2 
 PCOD8248977
Probable space group: P B C A
;
_chemical_formula_sum "Si O2"
_cell_formula_units_Z 64
_cell_length_a 9.467227
_cell_length_b 19.760902
_cell_length_c 17.932032
_cell_angle_alpha 90.000000
_cell_angle_beta 90.000000
_cell_angle_gamma 90.000000
_cell_volume 3354.741492
_symmetry_space_group_name_H-M "P B C A"
_symmetry_group_IT_number 61
_symmetry_cell_setting 'orthorhombic'
loop_
_space_group_symop_operation_xyz
x,y,z
1/2-x,-y,1/2+z
1/2+x,1/2-y,-z
-x,1/2+y,1/2-z
-x,-y,-z
1/2+x,y,1/2-z
1/2-x,1/2+y,z
x,1/2-y,1/2+z
loop_
_atom_site_type_symbol
_atom_site_label
_atom_site_fract_x
_atom_site_fract_y
_atom_site_fract_z
Si Si1 0.395666 0.956899 0.900411
Si Si2 0.208386 0.444352 0.309365
Si Si3 0.785602 0.296666 0.162563
Si Si4 0.933494 0.801400 0.593848
Si Si5 0.169405 0.721259 0.666258
Si Si6 0.565608 0.312184 0.421603
Si Si7 0.391175 0.071416 0.667001
Si Si8 0.157238 0.036111 0.568328
O O1 0.386924 0.877236 0.886805
O O2 0.290870 0.992748 0.843539
O O3 0.558676 0.980498 0.890781
O O4 0.338566 0.978928 0.981038
O O5 0.235000 0.373706 0.351827
O O6 0.265120 0.436470 0.226262
O O7 0.040358 0.461503 0.309839
O O8 0.695331 0.247248 0.111907
O O9 0.776182 0.273699 0.248814
O O10 0.944170 0.289262 0.134276
O O11 0.970179 0.792469 0.506541
O O12 0.066527 0.782859 0.645626
O O13 0.296965 0.726669 0.607869
O O14 0.083327 0.651280 0.654074
O O15 0.586616 0.392078 0.413798
O O16 0.321235 0.034425 0.595295
#
# Coordination Sequence:
#
# PCOD8248977 Si02
#       8
#     8   8   8   8   8   8   8   8
#     4  10  21  38  60  83 124 159 191 239 301 359
#     4  11  21  37  62  88 114 153 204 246 288 353
#     4  11  21  37  62  87 117 158 199 252 296 349
#     4  11  22  39  57  88 124 157 192 247 308 354
#     4  10  21  37  60  90 116 150 199 252 296 350
#     4  10  20  36  63  86 118 154 205 242 291 358
#     4  10  21  36  64  88 111 148 205 252 284 351
#     4   9  19  38  59  87 114 157 195 239 296 356
#
# _framework density 19.077476000000001
#
# number of rings (size 3 to 8) (size 9 to 14) (size 15 to 20)
#    0.000    1.750    2.500    2.250    7.000    0.500 
#    4.500    1.250    0.000    0.000    0.000    0.000 
#    0.000    0.000    0.000    0.000    0.000    0.000 
#
# Total GULP energy -793623.950680 kJ/mol
# GULP energy per Si atom -12400.374229 kJ/mol
# Density = 1.903405 g / cm^3
# Si number density = 19.077476 Si / 1000 Ang^3
#
#
#
# Elastic Constant Matrix: (Units=GPa)
#
#
# Indices 1 2 3 4 5 6 
#
# 1 88.5251 22.3245 23.2873 0.0000 0.0000 0.0000
# 2 22.3245 66.1064 27.4317 0.0000 0.0000 0.0000
# 3 23.2873 27.4317 70.5308 0.0000 0.0000 0.0000
# 4 0.0000 0.0000 0.0000 26.6272 0.0000 0.0000
# 5 0.0000 0.0000 0.0000 0.0000 32.0542 0.0000
# 6 0.0000 0.0000 0.0000 0.0000 0.0000 24.3375
#
#
#
# Elastic Compliance Matrix: (Units=1/GPa)
#
#
# Indices 1 2 3 4 5 6 
#
# 1 0.012876 -0.003082 -0.003053 0.000000 0.000000 0.000000
# 2 -0.003082 0.018776 -0.006285 0.000000 0.000000 0.000000
# 3 -0.003053 -0.006285 0.017631 0.000000 0.000000 0.000000
# 4 0.000000 0.000000 0.000000 0.037556 0.000000 0.000000
# 5 0.000000 0.000000 0.000000 0.000000 0.031197 0.000000
# 6 0.000000 0.000000 0.000000 0.000000 0.000000 0.041089
#
#
# Mechanical properties :
#
#
# Convention : Reuss Voigt Hill
#
# Bulk Modulus (GPa) = 40.91020 41.24994 41.08007
# Shear Modulus (GPa) = 26.02652 26.74503 26.38578
#
# Velocity S-wave (km/s) = 3.69759 3.74828 3.72302
# Velocity P-wave (km/s) = 6.30241 6.35626 6.32939
#
# Compressibility (1/GPa) = 0.02444378
#
# Stress axis : x y z
#
# Youngs Moduli (GPa) = 77.66112 53.25981 56.71931
#
# Poissons Ratio (x) = 0.16413 0.17316
# Poissons Ratio (y) = 0.23932 0.35649
# Poissons Ratio (z) = 0.23709 0.33474
#
# Static dielectric constant tensor:
#      x y z
#    x 3.453730 0.000000 0.000000 
#    y 0.000000 3.375390 0.000000 
#    z 0.000000 0.000000 3.541640 
# 
# 
# High freq. dielectric constant tensor:
#      x y z
#    x 1.746750 0.000000 0.000000 
#    y 0.000000 1.721730 0.000000 
#    z 0.000000 0.000000 1.743920 
# 
# From -- ./inp_files/3713.got.cif
#   From: 2010.03.12/outbox.cif.g09.slc.cpg/sg61_2_cif.got.tgz:3713.got - 2010.04.10 19:05:03.
