data_PCOD8248944
_publ_section_title
;
Structure prediction by ZEFSAII (Michael W. Deem and Ramdas Pophale) SiO2 
 PCOD8248944
Probable space group: P B C A
;
_chemical_formula_sum "Si O2"
_cell_formula_units_Z 48
_cell_length_a 16.544317
_cell_length_b 16.129723
_cell_length_c 9.178297
_cell_angle_alpha 90.000000
_cell_angle_beta 90.000000
_cell_angle_gamma 90.000000
_cell_volume 2449.276744
_symmetry_space_group_name_H-M "P B C A"
_symmetry_group_IT_number 61
_symmetry_cell_setting 'orthorhombic'
loop_
_space_group_symop_operation_xyz
x,y,z
1/2-x,-y,1/2+z
1/2+x,1/2-y,-z
-x,1/2+y,1/2-z
-x,-y,-z
1/2+x,y,1/2-z
1/2-x,1/2+y,z
x,1/2-y,1/2+z
loop_
_atom_site_type_symbol
_atom_site_label
_atom_site_fract_x
_atom_site_fract_y
_atom_site_fract_z
Si Si1 0.424350 0.007861 0.399992
Si Si2 0.771989 0.927826 0.015418
Si Si3 0.459053 0.493874 0.347766
Si Si4 0.800376 0.918199 0.677771
Si Si5 0.670772 0.825869 0.532497
Si Si6 0.150822 0.832495 0.308462
O O1 0.377571 0.092081 0.428627
O O2 0.500000 0.000000 0.500000
O O3 0.365292 0.930988 0.435792
O O4 0.457947 0.002425 0.239439
O O5 0.730963 0.850384 0.095347
O O6 0.725237 0.007540 0.072799
O O7 0.763789 0.924393 0.840396
O O8 0.500000 0.500000 0.500000
O O9 0.398181 0.571909 0.316777
O O10 0.415377 0.405559 0.317643
O O11 0.762475 0.836033 0.600463
O O12 0.621468 0.751989 0.613018
O O13 0.674508 0.814422 0.358582
#
# Coordination Sequence:
#
# PCOD8248944 Si02
#       6
#     8   8   8   8   8   8
#     4  11  20  41  63  91 121 163 199 255 302 370
#     4  10  20  35  62  83 118 153 205 238 295 358
#     4  11  24  37  65  93 126 158 211 247 311 369
#     4  10  20  37  58  88 113 159 199 243 289 363
#     4  11  24  40  64  85 127 160 210 254 314 360
#     4  11  24  42  60  92 119 166 206 257 309 366
#
# _framework density 19.597622000000001
#
# number of rings (size 3 to 8) (size 9 to 14) (size 15 to 20)
#    0.000    1.333    3.333    4.000   14.000    0.000 
#    0.000    3.333    0.000    0.000    0.000    0.000 
#    0.000    0.000    0.000    0.000    0.000    0.000 
#
# Total GULP energy -594637.014026 kJ/mol
# GULP energy per Si atom -12388.271126 kJ/mol
# Density = 1.955302 g / cm^3
# Si number density = 19.597622 Si / 1000 Ang^3
#
#
#
# Elastic Constant Matrix: (Units=GPa)
#
#
# Indices 1 2 3 4 5 6 
#
# 1 72.4907 15.6425 30.5198 0.0000 0.0000 0.0000
# 2 15.6425 65.8388 32.6923 0.0000 0.0000 0.0000
# 3 30.5198 32.6923 186.8293 0.0000 0.0000 0.0000
# 4 0.0000 0.0000 0.0000 32.1375 0.0000 0.0000
# 5 0.0000 0.0000 0.0000 0.0000 43.8092 0.0000
# 6 0.0000 0.0000 0.0000 0.0000 0.0000 17.2399
#
#
#
# Elastic Compliance Matrix: (Units=1/GPa)
#
#
# Indices 1 2 3 4 5 6 
#
# 1 0.015212 -0.002607 -0.002029 0.000000 0.000000 0.000000
# 2 -0.002607 0.017081 -0.002563 0.000000 0.000000 0.000000
# 3 -0.002029 -0.002563 0.006132 0.000000 0.000000 0.000000
# 4 0.000000 0.000000 0.000000 0.031116 0.000000 0.000000
# 5 0.000000 0.000000 0.000000 0.000000 0.022826 0.000000
# 6 0.000000 0.000000 0.000000 0.000000 0.000000 0.058005
#
#
# Mechanical properties :
#
#
# Convention : Reuss Voigt Hill
#
# Bulk Modulus (GPa) = 41.61890 53.65198 47.63544
# Shear Modulus (GPa) = 28.93885 35.05762 31.99823
#
# Velocity S-wave (km/s) = 3.84689 4.23409 4.04513
# Velocity P-wave (km/s) = 6.40424 7.16517 6.79536
#
# Compressibility (1/GPa) = 0.02402754
#
# Stress axis : x y z
#
# Youngs Moduli (GPa) = 65.73970 58.54600 163.06877
#
# Poissons Ratio (x) = 0.15261 0.33083
# Poissons Ratio (y) = 0.17136 0.41795
# Poissons Ratio (z) = 0.13337 0.15005
#
# Static dielectric constant tensor:
#      x y z
#    x 3.727510 0.000000 0.000000 
#    y 0.000000 3.870530 0.000000 
#    z 0.000000 0.000000 3.682010 
# 
# 
# High freq. dielectric constant tensor:
#      x y z
#    x 1.760970 0.000000 0.000000 
#    y 0.000000 1.740180 0.000000 
#    z 0.000000 0.000000 1.792160 
# 
# From -- ./inp_files/3513.got.cif
#   From: 2010.03.12/outbox.cif.g09.slc.cpg/sg61_2_cif.got.tgz:3513.got - 2010.04.10 19:05:03.
