data_PCOD8248048
_publ_section_title
;
Structure prediction by ZEFSAII (Michael W. Deem and Ramdas Pophale) SiO2 
 PCOD8248048
Probable space group: P B C N
;
_chemical_formula_sum "Si O2"
_cell_formula_units_Z 60
_cell_length_a 9.210452
_cell_length_b 17.448065
_cell_length_c 16.886523
_cell_angle_alpha 90.000000
_cell_angle_beta 90.000000
_cell_angle_gamma 90.000000
_cell_volume 2713.741336
_symmetry_space_group_name_H-M "P B C N"
_symmetry_group_IT_number 60
_symmetry_cell_setting 'orthorhombic'
loop_
_space_group_symop_operation_xyz
x,y,z
1/2-x,1/2-y,1/2+z
1/2+x,1/2-y,-z
-x,y,1/2-z
-x,-y,-z
1/2+x,1/2+y,1/2-z
1/2-x,1/2+y,z
x,-y,1/2+z
loop_
_atom_site_type_symbol
_atom_site_label
_atom_site_fract_x
_atom_site_fract_y
_atom_site_fract_z
Si Si1 0.023105 0.006062 0.841072
Si Si2 0.286757 0.574683 0.076826
Si Si3 0.816258 0.856192 0.346687
Si Si4 0.920761 0.478899 0.330502
Si Si5 0.886922 0.311505 0.585863
Si Si6 0.000000 0.251591 0.750000
Si Si7 0.812693 0.488344 0.576965
Si Si8 0.315052 0.234201 0.022428
O O1 0.950443 0.086921 0.864341
O O2 0.000000 0.985829 0.750000
O O3 0.952121 0.940171 0.896155
O O4 0.193989 0.008280 0.856365
O O5 0.276718 0.662805 0.055112
O O6 0.180754 0.551993 0.149430
O O7 0.243986 0.517139 0.006715
O O8 0.672664 0.901792 0.321063
O O9 0.863257 0.800180 0.275726
O O10 0.782120 0.808486 0.424831
O O11 0.040399 0.466864 0.399587
O O12 0.000000 0.500703 0.250000
O O13 0.844132 0.398648 0.572816
O O14 0.748248 0.256999 0.564503
O O15 0.942551 0.301339 0.675910
O O16 0.015163 0.287874 0.524024
#
# Coordination Sequence:
#
# PCOD8248048 Si02
#       8
#     8   8   8   8   8   4   8   8
#     4  11  24  43  72  98 137 181 233 281 346 414
#     4  11  25  44  68 104 137 181 234 289 342 418
#     4  10  23  45  64  99 138 183 229 279 343 424
#     4  11  24  42  69 100 136 175 228 291 343 407
#     4  11  26  45  73  97 144 182 232 285 354 418
#     4  10  24  46  70  98 136 192 226 280 356 422
#     4  12  25  43  72 103 135 183 231 290 344 410
#     4  11  26  44  69  99 142 184 227 290 346 419
#
# _framework density 22.109697000000001
#
# number of rings (size 3 to 8) (size 9 to 14) (size 15 to 20)
#    0.000    1.067    2.000    4.000    8.400    2.133 
#    0.000    0.667    0.000    0.000    0.000    0.000 
#    0.000    0.000    0.000    0.000    0.000    0.000 
#
# Total GULP energy -744089.187731 kJ/mol
# GULP energy per Si atom -12401.486462 kJ/mol
# Density = 2.205937 g / cm^3
# Si number density = 22.109697 Si / 1000 Ang^3
#
#
#
# Elastic Constant Matrix: (Units=GPa)
#
#
# Indices 1 2 3 4 5 6 
#
# 1 101.4530 37.6387 27.4022 0.0000 0.0000 0.0000
# 2 37.6387 116.0275 44.5161 0.0000 0.0000 0.0000
# 3 27.4022 44.5161 100.0413 0.0000 0.0000 0.0000
# 4 0.0000 0.0000 0.0000 12.6114 0.0000 0.0000
# 5 0.0000 0.0000 0.0000 0.0000 47.3027 0.0000
# 6 0.0000 0.0000 0.0000 0.0000 0.0000 27.2634
#
#
#
# Elastic Compliance Matrix: (Units=1/GPa)
#
#
# Indices 1 2 3 4 5 6 
#
# 1 0.011465 -0.003032 -0.001791 0.000000 0.000000 0.000000
# 2 -0.003032 0.011195 -0.004151 0.000000 0.000000 0.000000
# 3 -0.001791 -0.004151 0.012334 0.000000 0.000000 0.000000
# 4 0.000000 0.000000 0.000000 0.079293 0.000000 0.000000
# 5 0.000000 0.000000 0.000000 0.000000 0.021140 0.000000
# 6 0.000000 0.000000 0.000000 0.000000 0.000000 0.036679
#
#
# Mechanical properties :
#
#
# Convention : Reuss Voigt Hill
#
# Bulk Modulus (GPa) = 58.66720 59.62621 59.14670
# Shear Modulus (GPa) = 25.54445 31.29981 28.42213
#
# Velocity S-wave (km/s) = 3.40273 3.76661 3.58928
# Velocity P-wave (km/s) = 6.48308 6.77815 6.63226
#
# Compressibility (1/GPa) = 0.01704530
#
# Stress axis : x y z
#
# Youngs Moduli (GPa) = 87.21820 89.32703 81.07943
#
# Poissons Ratio (x) = 0.27085 0.14524
# Poissons Ratio (y) = 0.26445 0.33655
# Poissons Ratio (z) = 0.15623 0.37079
#
# Static dielectric constant tensor:
#      x y z
#    x 4.300450 0.000000 0.000000 
#    y 0.000000 3.935480 0.000000 
#    z 0.000000 0.000000 4.033940 
# 
# 
# High freq. dielectric constant tensor:
#      x y z
#    x 1.879490 0.000000 0.000000 
#    y 0.000000 1.870060 0.000000 
#    z 0.000000 0.000000 1.869530 
# 
# From -- ./inp_files/19581.got.cif
#   From: 2010.03.12/outbox.cif.g09.slc.cpg/sg60_10_cif.got.tgz:19581.got - 2010.04.10 18:46:24.
