data_PCOD8248041
_publ_section_title
;
Structure prediction by ZEFSAII (Michael W. Deem and Ramdas Pophale) SiO2 
 PCOD8248041
Probable space group: P B C N
;
_chemical_formula_sum "Si O2"
_cell_formula_units_Z 64
_cell_length_a 8.960403
_cell_length_b 10.665437
_cell_length_c 32.223450
_cell_angle_alpha 90.000000
_cell_angle_beta 90.000000
_cell_angle_gamma 90.000000
_cell_volume 3079.485998
_symmetry_space_group_name_H-M "P B C N"
_symmetry_group_IT_number 60
_symmetry_cell_setting 'orthorhombic'
loop_
_space_group_symop_operation_xyz
x,y,z
1/2-x,1/2-y,1/2+z
1/2+x,1/2-y,-z
-x,y,1/2-z
-x,-y,-z
1/2+x,1/2+y,1/2-z
1/2-x,1/2+y,z
x,-y,1/2+z
loop_
_atom_site_type_symbol
_atom_site_label
_atom_site_fract_x
_atom_site_fract_y
_atom_site_fract_z
Si Si1 0.944330 0.120491 0.625907
Si Si2 0.126988 0.590557 0.283563
Si Si3 0.510925 0.100267 0.372893
Si Si4 0.173793 0.432362 0.429820
Si Si5 0.947497 0.760259 0.966678
Si Si6 0.363282 0.376450 0.281587
Si Si7 0.691267 0.462837 0.913765
Si Si8 0.784052 0.906889 0.498514
O O1 0.030887 0.251239 0.622874
O O2 0.790617 0.133064 0.600743
O O3 0.916883 0.084679 0.673152
O O4 0.042391 0.007205 0.608863
O O5 0.053492 0.561270 0.328189
O O6 0.239949 0.480422 0.270030
O O7 0.199225 0.731862 0.282529
O O8 0.000000 0.586789 0.250000
O O9 0.674233 0.041390 0.380650
O O10 0.396000 0.053451 0.407677
O O11 0.045539 0.335075 0.440318
O O12 0.251857 0.474888 0.472370
O O13 0.840059 0.827444 0.933625
O O14 0.845918 0.697809 0.002873
O O15 0.051468 0.858580 0.990833
O O16 0.500000 0.388361 0.250000
O O17 0.730938 0.557649 0.950537
#
# Coordination Sequence:
#
# PCOD8248041 Si02
#       8
#     8   8   8   8   8   8   8   8
#     4  11  25  44  69  95 134 171 223 278 330 402
#     4  10  23  46  71 104 141 180 223 274 339 403
#     4  11  25  44  68  96 133 172 220 282 330 398
#     4  12  24  44  65  93 124 177 223 274 336 392
#     4  12  26  41  65  90 128 174 223 280 337 403
#     4  10  23  44  71 103 141 180 221 275 337 407
#     4  12  26  44  62  97 128 174 222 279 339 393
#     4  12  26  43  61  92 129 173 223 274 340 401
#
# _framework density 20.782689999999999
#
# number of rings (size 3 to 8) (size 9 to 14) (size 15 to 20)
#    0.000    0.750    3.750    3.000    7.000    0.500 
#    0.000    0.000    0.000    0.000    0.000    0.000 
#    0.000    0.000    0.000    0.000    0.000    0.000 
#
# Total GULP energy -793796.196554 kJ/mol
# GULP energy per Si atom -12403.065571 kJ/mol
# Density = 2.073539 g / cm^3
# Si number density = 20.782690 Si / 1000 Ang^3
#
#
#
# Elastic Constant Matrix: (Units=GPa)
#
#
# Indices 1 2 3 4 5 6 
#
# 1 79.8881 27.3089 17.3651 0.0000 0.0000 0.0000
# 2 27.3089 92.5706 23.4780 0.0000 0.0000 0.0000
# 3 17.3651 23.4780 72.2503 0.0000 0.0000 0.0000
# 4 0.0000 0.0000 0.0000 -3.8886 0.0000 0.0000
# 5 0.0000 0.0000 0.0000 0.0000 31.7552 0.0000
# 6 0.0000 0.0000 0.0000 0.0000 0.0000 136.1572
#
#
#
# Elastic Compliance Matrix: (Units=1/GPa)
#
#
# Indices 1 2 3 4 5 6 
#
# 1 0.014247 -0.003634 -0.002243 0.000000 0.000000 0.000000
# 2 -0.003634 0.012700 -0.003253 0.000000 0.000000 0.000000
# 3 -0.002243 -0.003253 0.015437 0.000000 0.000000 0.000000
# 4 0.000000 0.000000 0.000000 -0.257164 0.000000 0.000000
# 5 0.000000 0.000000 0.000000 0.000000 0.031491 0.000000
# 6 0.000000 0.000000 0.000000 0.000000 0.000000 0.007344
#
#
# Mechanical properties :
#
#
# Convention : Reuss Voigt Hill
#
# Bulk Modulus (GPa) = 41.45494 42.33477 41.89486
# Shear Modulus (GPa) = -33.41320 44.57524 5.58102
#
# Velocity S-wave (km/s) = -4.01402 4.63625 1.64050
# Velocity P-wave (km/s) = 1.22186 7.00530 4.87756
#
# Compressibility (1/GPa) = 0.02412258
#
# Stress axis : x y z
#
# Youngs Moduli (GPa) = 70.18806 78.74151 64.77874
#
# Poissons Ratio (x) = 0.28615 0.14533
# Poissons Ratio (y) = 0.25507 0.21075
# Poissons Ratio (z) = 0.15746 0.25618
#
# Static dielectric constant tensor:
#      x y z
#    x 3.546700 0.000000 0.000000 
#    y 0.000000 3.951340 0.000000 
#    z 0.000000 0.000000 3.844830 
# 
# 
# High freq. dielectric constant tensor:
#      x y z
#    x 1.816500 0.000000 0.000000 
#    y 0.000000 1.825890 0.000000 
#    z 0.000000 0.000000 1.815290 
# 
# From -- ./inp_files/26029.got.cif
#   From: 2010.03.12/outbox.cif.g09.slc.cpg/sg60_14_cif.got.tgz:26029.got - 2010.04.10 18:46:24.
