data_PCOD8248020
_publ_section_title
;
Structure prediction by ZEFSAII (Michael W. Deem and Ramdas Pophale) SiO2 
 PCOD8248020
Probable space group: P B C N
;
_chemical_formula_sum "Si O2"
_cell_formula_units_Z 32
_cell_length_a 6.553935
_cell_length_b 13.183624
_cell_length_c 17.151079
_cell_angle_alpha 90.000000
_cell_angle_beta 90.000000
_cell_angle_gamma 90.000000
_cell_volume 1481.932374
_symmetry_space_group_name_H-M "P B C N"
_symmetry_group_IT_number 60
_symmetry_cell_setting 'orthorhombic'
loop_
_space_group_symop_operation_xyz
x,y,z
1/2-x,1/2-y,1/2+z
1/2+x,1/2-y,-z
-x,y,1/2-z
-x,-y,-z
1/2+x,1/2+y,1/2-z
1/2-x,1/2+y,z
x,-y,1/2+z
loop_
_atom_site_type_symbol
_atom_site_label
_atom_site_fract_x
_atom_site_fract_y
_atom_site_fract_z
Si Si1 0.653650 0.754480 0.678511
Si Si2 0.620746 0.107269 0.414932
Si Si3 0.027508 0.924639 0.831163
Si Si4 0.686258 0.067413 0.590719
O O1 0.500000 0.733245 0.750000
O O2 0.525557 0.798163 0.604927
O O3 0.823111 0.836508 0.699932
O O4 0.780878 0.655085 0.654043
O O5 0.678469 0.115314 0.505322
O O6 0.820027 0.121501 0.363348
O O7 0.519041 0.997997 0.393753
O O8 0.000000 0.988308 0.750000
O O9 0.121225 0.992095 0.900458
#
# Coordination Sequence:
#
# PCOD8248020 Si02
#       4
#     8   8   8   8
#     4  11  23  42  64 101 131 171 222 271 336 391
#     4  10  23  44  64  96 133 169 223 271 326 394
#     4  11  22  42  65  92 135 171 212 276 322 393
#     4  10  24  41  67  94 128 176 220 270 331 395
#
# _framework density 21.593429
#
# number of rings (size 3 to 8) (size 9 to 14) (size 15 to 20)
#    0.000    1.500    2.500    1.500    3.500    2.000 
#    4.500    0.000    0.000    0.000    0.000    0.000 
#    0.000    0.000    0.000    0.000    0.000    0.000 
#
# Total GULP energy -396655.699564 kJ/mol
# GULP energy per Si atom -12395.490611 kJ/mol
# Density = 2.154428 g / cm^3
# Si number density = 21.593429 Si / 1000 Ang^3
#
#
#
# Elastic Constant Matrix: (Units=GPa)
#
#
# Indices 1 2 3 4 5 6 
#
# 1 96.6518 16.7582 45.3631 0.0000 0.0000 0.0000
# 2 16.7582 82.5569 38.8112 0.0000 0.0000 0.0000
# 3 45.3631 38.8112 116.0092 0.0000 0.0000 0.0000
# 4 0.0000 0.0000 0.0000 23.9486 0.0000 0.0000
# 5 0.0000 0.0000 0.0000 0.0000 41.9678 0.0000
# 6 0.0000 0.0000 0.0000 0.0000 0.0000 21.1424
#
#
#
# Elastic Compliance Matrix: (Units=1/GPa)
#
#
# Indices 1 2 3 4 5 6 
#
# 1 0.012678 -0.000288 -0.004861 0.000000 0.000000 0.000000
# 2 -0.000288 0.014380 -0.004698 0.000000 0.000000 0.000000
# 3 -0.004861 -0.004698 0.012093 0.000000 0.000000 0.000000
# 4 0.000000 0.000000 0.000000 0.041756 0.000000 0.000000
# 5 0.000000 0.000000 0.000000 0.000000 0.023828 0.000000
# 6 0.000000 0.000000 0.000000 0.000000 0.000000 0.047298
#
#
# Mechanical properties :
#
#
# Convention : Reuss Voigt Hill
#
# Bulk Modulus (GPa) = 51.39887 55.23143 53.31515
# Shear Modulus (GPa) = 28.05635 30.36413 29.21024
#
# Velocity S-wave (km/s) = 3.60849 3.75397 3.68195
# Velocity P-wave (km/s) = 6.41999 6.66507 6.54368
#
# Compressibility (1/GPa) = 0.01945568
#
# Stress axis : x y z
#
# Youngs Moduli (GPa) = 78.87750 69.54083 82.69529
#
# Poissons Ratio (x) = 0.02004 0.40198
# Poissons Ratio (y) = 0.02274 0.38852
# Poissons Ratio (z) = 0.38342 0.32671
#
# Static dielectric constant tensor:
#      x y z
#    x 4.020670 0.000000 0.000000 
#    y 0.000000 3.715700 0.000000 
#    z 0.000000 0.000000 3.856550 
# 
# 
# High freq. dielectric constant tensor:
#      x y z
#    x 1.860030 0.000000 0.000000 
#    y 0.000000 1.832340 0.000000 
#    z 0.000000 0.000000 1.854600 
# 
# From -- ./inp_files/18400.got.cif
#   From: 2010.03.12/outbox.cif.g09.slc.cpg/sg60_10_cif.got.tgz:18400.got - 2010.04.10 18:46:24.
