data_PCOD8248933
_publ_section_title
;
Structure prediction by ZEFSAII (Michael W. Deem and Ramdas Pophale) SiO2 
 PCOD8248933
Probable space group: P B C A
;
_chemical_formula_sum "Si O2"
_cell_formula_units_Z 64
_cell_length_a 14.186497
_cell_length_b 16.907770
_cell_length_c 12.170187
_cell_angle_alpha 90.000000
_cell_angle_beta 90.000000
_cell_angle_gamma 90.000000
_cell_volume 2919.165740
_symmetry_space_group_name_H-M "P B C A"
_symmetry_group_IT_number 61
_symmetry_cell_setting 'orthorhombic'
loop_
_space_group_symop_operation_xyz
x,y,z
1/2-x,-y,1/2+z
1/2+x,1/2-y,-z
-x,1/2+y,1/2-z
-x,-y,-z
1/2+x,y,1/2-z
1/2-x,1/2+y,z
x,1/2-y,1/2+z
loop_
_atom_site_type_symbol
_atom_site_label
_atom_site_fract_x
_atom_site_fract_y
_atom_site_fract_z
Si Si1 0.079381 0.952984 0.372437
Si Si2 0.988647 0.795832 0.784005
Si Si3 0.526305 0.123255 0.066864
Si Si4 0.690803 0.810392 0.638408
Si Si5 0.759868 0.633771 0.595614
Si Si6 0.915948 0.618860 0.757056
Si Si7 0.290113 0.667462 0.144124
Si Si8 0.696846 0.165034 0.945141
O O1 0.051723 0.899753 0.478021
O O2 0.003759 0.940920 0.273057
O O3 0.183193 0.921496 0.343027
O O4 0.084486 0.045151 0.398258
O O5 0.022882 0.833126 0.668456
O O6 0.958298 0.705994 0.769996
O O7 0.901091 0.846262 0.831267
O O8 0.078240 0.801689 0.864360
O O9 0.602928 0.184462 0.017462
O O10 0.741281 0.725202 0.625564
O O11 0.728422 0.854511 0.748351
O O12 0.720959 0.862076 0.530368
O O13 0.863170 0.608598 0.641371
O O14 0.761205 0.617588 0.464089
O O15 0.837249 0.601380 0.853573
O O16 0.267668 0.758806 0.120201
#
# Coordination Sequence:
#
# PCOD8248933 Si02
#       8
#     8   8   8   8   8   8   8   8
#     4  10  22  39  60  87 113 165 199 234 298 357
#     4  11  19  35  58  89 115 150 191 247 292 339
#     4  10  20  39  61  82 120 153 202 243 281 360
#     4  11  19  33  57  88 114 148 190 239 299 344
#     4  11  20  38  55  83 120 151 191 240 294 349
#     4  10  20  38  59  85 121 149 193 250 293 338
#     4  10  20  35  56  88 117 142 193 248 290 346
#     4   9  18  35  54  80 115 143 191 241 281 342
#
# _framework density 21.924071000000001
#
# number of rings (size 3 to 8) (size 9 to 14) (size 15 to 20)
#    0.000    1.750    5.000    1.500    0.000    0.000 
#    9.000    2.500    0.000    0.750    0.000    0.000 
#    0.000    0.000    0.000    0.000    0.000    0.000 
#
# Total GULP energy -793169.588433 kJ/mol
# GULP energy per Si atom -12393.274819 kJ/mol
# Density = 2.187417 g / cm^3
# Si number density = 21.924071 Si / 1000 Ang^3
#
#
#
# Elastic Constant Matrix: (Units=GPa)
#
#
# Indices 1 2 3 4 5 6 
#
# 1 105.6344 2.7698 23.0650 0.0000 0.0000 0.0000
# 2 2.7698 24.2190 6.0691 0.0000 0.0000 0.0000
# 3 23.0650 6.0691 90.6482 0.0000 0.0000 0.0000
# 4 0.0000 0.0000 0.0000 16.2042 0.0000 0.0000
# 5 0.0000 0.0000 0.0000 0.0000 30.2255 0.0000
# 6 0.0000 0.0000 0.0000 0.0000 0.0000 14.4016
#
#
#
# Elastic Compliance Matrix: (Units=1/GPa)
#
#
# Indices 1 2 3 4 5 6 
#
# 1 0.010030 -0.000516 -0.002517 0.000000 0.000000 0.000000
# 2 -0.000516 0.042021 -0.002682 0.000000 0.000000 0.000000
# 3 -0.002517 -0.002682 0.011852 0.000000 0.000000 0.000000
# 4 0.000000 0.000000 0.000000 0.061712 0.000000 0.000000
# 5 0.000000 0.000000 0.000000 0.000000 0.033085 0.000000
# 6 0.000000 0.000000 0.000000 0.000000 0.000000 0.069437
#
#
# Mechanical properties :
#
#
# Convention : Reuss Voigt Hill
#
# Bulk Modulus (GPa) = 19.05807 31.58993 25.32400
# Shear Modulus (GPa) = 19.45083 24.73944 22.09514
#
# Velocity S-wave (km/s) = 2.98181 3.36283 3.17803
# Velocity P-wave (km/s) = 4.53503 5.43307 5.00424
#
# Compressibility (1/GPa) = 0.05247120
#
# Stress axis : x y z
#
# Youngs Moduli (GPa) = 99.70255 23.79759 84.37537
#
# Poissons Ratio (x) = 0.01228 0.21241
# Poissons Ratio (y) = 0.05146 0.22630
# Poissons Ratio (z) = 0.25100 0.06383
#
# Static dielectric constant tensor:
#      x y z
#    x 3.970450 0.000000 0.000000 
#    y 0.000000 3.403980 0.000000 
#    z 0.000000 0.000000 4.236960 
# 
# 
# High freq. dielectric constant tensor:
#      x y z
#    x 1.862720 0.000000 0.000000 
#    y 0.000000 1.804720 0.000000 
#    z 0.000000 0.000000 1.864910 
# 
# From -- ./inp_files/5993.got.cif
#   From: 2010.03.12/outbox.cif.g09.slc.cpg/sg61_3_cif.got.tgz:5993.got - 2010.04.10 19:05:03.
