data_PCOD8248424
_publ_section_title
;
Structure prediction by ZEFSAII (Michael W. Deem and Ramdas Pophale) SiO2 
 PCOD8248424
Probable space group: P B C N
;
_chemical_formula_sum "Si O2"
_cell_formula_units_Z 48
_cell_length_a 8.889050
_cell_length_b 28.531864
_cell_length_c 8.293791
_cell_angle_alpha 90.000000
_cell_angle_beta 90.000000
_cell_angle_gamma 90.000000
_cell_volume 2103.480941
_symmetry_space_group_name_H-M "P B C N"
_symmetry_group_IT_number 60
_symmetry_cell_setting 'orthorhombic'
loop_
_space_group_symop_operation_xyz
x,y,z
1/2-x,1/2-y,1/2+z
1/2+x,1/2-y,-z
-x,y,1/2-z
-x,-y,-z
1/2+x,1/2+y,1/2-z
1/2-x,1/2+y,z
x,-y,1/2+z
loop_
_atom_site_type_symbol
_atom_site_label
_atom_site_fract_x
_atom_site_fract_y
_atom_site_fract_z
Si Si1 0.339172 0.888275 0.322803
Si Si2 0.674550 0.442802 0.720668
Si Si3 0.835007 0.225266 0.179086
Si Si4 0.165518 0.356617 0.687053
Si Si5 0.333211 0.308207 0.187587
Si Si6 0.169604 0.484237 0.473287
O O1 0.500000 0.876239 0.250000
O O2 0.324151 0.866662 0.499336
O O3 0.214679 0.862971 0.208697
O O4 0.315183 0.944671 0.332063
O O5 0.500000 0.450112 0.750000
O O6 0.716219 0.388049 0.708777
O O7 0.724877 0.471100 0.562472
O O8 0.776753 0.462540 0.861908
O O9 0.713000 0.196645 0.283605
O O10 0.784137 0.279002 0.201345
O O11 0.000000 0.217081 0.250000
O O12 0.824040 0.208578 0.995725
O O13 0.000000 0.367439 0.750000
O O14 0.500000 0.300419 0.250000
O O15 0.000000 0.500000 0.500000
#
# Coordination Sequence:
#
# PCOD8248424 Si02
#       6
#     8   8   8   8   8   8
#     4  11  23  41  64  95 130 170 222 275 331 401
#     4  11  23  39  62  93 129 168 218 276 336 400
#     4  12  25  45  69  96 133 175 223 279 338 407
#     4  11  23  41  65  93 127 173 221 272 334 402
#     4  12  26  44  67  97 132 175 221 277 339 405
#     4  11  23  42  66  94 131 177 224 277 341 413
#
# _framework density 22.819317000000002
#
# number of rings (size 3 to 8) (size 9 to 14) (size 15 to 20)
#    0.000    0.667    0.000    9.500    0.000    3.333 
#    0.000    0.000    0.000    0.000    0.000    0.000 
#    0.000    0.000    0.000    0.000    0.000    0.000 
#
# Total GULP energy -595370.276661 kJ/mol
# GULP energy per Si atom -12403.547430 kJ/mol
# Density = 2.276738 g / cm^3
# Si number density = 22.819317 Si / 1000 Ang^3
#
#
#
# Elastic Constant Matrix: (Units=GPa)
#
#
# Indices 1 2 3 4 5 6 
#
# 1 131.7599 22.7635 18.4689 0.0000 0.0000 0.0000
# 2 22.7635 99.7178 17.9260 0.0000 0.0000 0.0000
# 3 18.4689 17.9260 63.7052 0.0000 0.0000 0.0000
# 4 0.0000 0.0000 0.0000 26.3452 0.0000 0.0000
# 5 0.0000 0.0000 0.0000 0.0000 39.8185 0.0000
# 6 0.0000 0.0000 0.0000 0.0000 0.0000 55.2754
#
#
#
# Elastic Compliance Matrix: (Units=1/GPa)
#
#
# Indices 1 2 3 4 5 6 
#
# 1 0.008120 -0.001507 -0.001930 0.000000 0.000000 0.000000
# 2 -0.001507 0.010842 -0.002614 0.000000 0.000000 0.000000
# 3 -0.001930 -0.002614 0.016992 0.000000 0.000000 0.000000
# 4 0.000000 0.000000 0.000000 0.037958 0.000000 0.000000
# 5 0.000000 0.000000 0.000000 0.000000 0.025114 0.000000
# 6 0.000000 0.000000 0.000000 0.000000 0.000000 0.018091
#
#
# Mechanical properties :
#
#
# Convention : Reuss Voigt Hill
#
# Bulk Modulus (GPa) = 41.92335 45.94438 43.93386
# Shear Modulus (GPa) = 36.45087 40.02280 38.23684
#
# Velocity S-wave (km/s) = 4.00105 4.19250 4.09789
# Velocity P-wave (km/s) = 6.30526 6.60407 6.45639
#
# Compressibility (1/GPa) = 0.02385306
#
# Stress axis : x y z
#
# Youngs Moduli (GPa) = 123.14610 92.23244 58.84956
#
# Poissons Ratio (x) = 0.13897 0.11359
# Poissons Ratio (y) = 0.18555 0.15384
# Poissons Ratio (z) = 0.23770 0.24110
#
# Static dielectric constant tensor:
#      x y z
#    x 4.495560 0.000000 0.000000 
#    y 0.000000 4.733770 0.000000 
#    z 0.000000 0.000000 4.141010 
# 
# 
# High freq. dielectric constant tensor:
#      x y z
#    x 1.902860 0.000000 0.000000 
#    y 0.000000 1.919110 0.000000 
#    z 0.000000 0.000000 1.906100 
# 
# From -- ./inp_files/4165.got.cif
#   From: 2010.03.12/outbox.cif.g09.slc.cpg/sg60_3_cif.got.tgz:4165.got - 2010.04.10 18:46:24.
