data_PCOD8248536
_publ_section_title
;
Structure prediction by ZEFSAII (Michael W. Deem and Ramdas Pophale) SiO2 
 PCOD8248536
Probable space group: P B C N
;
_chemical_formula_sum "Si O2"
_cell_formula_units_Z 56
_cell_length_a 13.274162
_cell_length_b 20.286659
_cell_length_c 8.760245
_cell_angle_alpha 90.000000
_cell_angle_beta 90.000000
_cell_angle_gamma 90.000000
_cell_volume 2359.032342
_symmetry_space_group_name_H-M "P B C N"
_symmetry_group_IT_number 60
_symmetry_cell_setting 'orthorhombic'
loop_
_space_group_symop_operation_xyz
x,y,z
1/2-x,1/2-y,1/2+z
1/2+x,1/2-y,-z
-x,y,1/2-z
-x,-y,-z
1/2+x,1/2+y,1/2-z
1/2-x,1/2+y,z
x,-y,1/2+z
loop_
_atom_site_type_symbol
_atom_site_label
_atom_site_fract_x
_atom_site_fract_y
_atom_site_fract_z
Si Si1 0.371515 0.386191 0.392305
Si Si2 0.238403 0.509657 0.435186
Si Si3 0.330443 0.725611 0.405628
Si Si4 0.542977 0.814738 0.909619
Si Si5 0.091377 0.104247 0.550643
Si Si6 0.639205 0.752675 0.442623
Si Si7 0.901322 0.538893 0.326947
O O1 0.276580 0.434885 0.410643
O O2 0.377073 0.366061 0.214630
O O3 0.476325 0.421949 0.443216
O O4 0.359723 0.321650 0.494415
O O5 0.333684 0.546393 0.505029
O O6 0.196179 0.545984 0.284562
O O7 0.139013 0.508801 0.541023
O O8 0.354184 0.781664 0.533370
O O9 0.403555 0.662803 0.425664
O O10 0.217654 0.704757 0.455140
O O11 0.334836 0.753348 0.235854
O O12 0.500000 0.785736 0.750000
O O13 0.561842 0.892076 0.895930
O O14 0.464512 0.792657 0.040886
O O15 0.000000 0.505136 0.250000
#
# Coordination Sequence:
#
# PCOD8248536 Si02
#       7
#     8   8   8   8   8   8   8
#     4  11  24  47  72 109 153 195 250 319 380 461
#     4  12  25  49  73 107 149 202 262 305 390 445
#     4  12  26  44  72 111 150 197 255 312 395 462
#     4  11  24  47  73 107 151 194 251 320 388 450
#     4  11  25  43  74 107 152 198 246 314 381 456
#     4  12  26  45  73 109 149 199 251 317 388 467
#     4  11  27  49  75 105 147 201 258 323 368 460
#
# _framework density 23.738547000000001
#
# number of rings (size 3 to 8) (size 9 to 14) (size 15 to 20)
#    0.000    0.571    2.857    4.714    8.000    0.000 
#    0.000    2.857    0.000    0.000    0.000    0.000 
#    0.000    0.000    0.000    0.000    0.000    0.000 
#
# Total GULP energy -694310.094626 kJ/mol
# GULP energy per Si atom -12398.394547 kJ/mol
# Density = 2.368452 g / cm^3
# Si number density = 23.738547 Si / 1000 Ang^3
#
#
#
# Elastic Constant Matrix: (Units=GPa)
#
#
# Indices 1 2 3 4 5 6 
#
# 1 103.8214 28.7221 29.5071 0.0000 0.0000 0.0000
# 2 28.7221 76.6804 37.4257 0.0000 0.0000 0.0000
# 3 29.5071 37.4257 112.1757 0.0000 0.0000 0.0000
# 4 0.0000 0.0000 0.0000 26.9099 0.0000 0.0000
# 5 0.0000 0.0000 0.0000 0.0000 38.4058 0.0000
# 6 0.0000 0.0000 0.0000 0.0000 0.0000 45.3396
#
#
#
# Elastic Compliance Matrix: (Units=1/GPa)
#
#
# Indices 1 2 3 4 5 6 
#
# 1 0.011049 -0.003249 -0.001822 0.000000 0.000000 0.000000
# 2 -0.003249 0.016533 -0.004661 0.000000 0.000000 0.000000
# 3 -0.001822 -0.004661 0.010949 0.000000 0.000000 0.000000
# 4 0.000000 0.000000 0.000000 0.037161 0.000000 0.000000
# 5 0.000000 0.000000 0.000000 0.000000 0.026038 0.000000
# 6 0.000000 0.000000 0.000000 0.000000 0.000000 0.022056
#
#
# Mechanical properties :
#
#
# Convention : Reuss Voigt Hill
#
# Bulk Modulus (GPa) = 52.45072 53.77638 53.11355
# Shear Modulus (GPa) = 33.42103 35.26590 34.34347
#
# Velocity S-wave (km/s) = 3.75624 3.85853 3.80773
# Velocity P-wave (km/s) = 6.39966 6.52332 6.46179
#
# Compressibility (1/GPa) = 0.01906551
#
# Stress axis : x y z
#
# Youngs Moduli (GPa) = 90.50842 60.48410 91.33136
#
# Poissons Ratio (x) = 0.19652 0.16643
# Poissons Ratio (y) = 0.29407 0.42573
# Poissons Ratio (z) = 0.16493 0.28194
#
# Static dielectric constant tensor:
#      x y z
#    x 4.712810 0.000000 0.000000 
#    y 0.000000 3.819830 0.000000 
#    z 0.000000 0.000000 4.329240 
# 
# 
# High freq. dielectric constant tensor:
#      x y z
#    x 1.965370 0.000000 0.000000 
#    y 0.000000 1.916540 0.000000 
#    z 0.000000 0.000000 1.945760 
# 
# From -- ./inp_files/6136.got.cif
#   From: 2010.03.12/outbox.cif.g09.slc.cpg/sg60_4_cif.got.tgz:6136.got - 2010.04.10 18:46:24.
