data_PCOD8248266
_publ_section_title
;
Structure prediction by ZEFSAII (Michael W. Deem and Ramdas Pophale) SiO2 
 PCOD8248266
Probable space group: P B C N
;
_chemical_formula_sum "Si O2"
_cell_formula_units_Z 48
_cell_length_a 15.275761
_cell_length_b 17.428482
_cell_length_c 8.652017
_cell_angle_alpha 90.000000
_cell_angle_beta 90.000000
_cell_angle_gamma 90.000000
_cell_volume 2303.455259
_symmetry_space_group_name_H-M "P B C N"
_symmetry_group_IT_number 60
_symmetry_cell_setting 'orthorhombic'
loop_
_space_group_symop_operation_xyz
x,y,z
1/2-x,1/2-y,1/2+z
1/2+x,1/2-y,-z
-x,y,1/2-z
-x,-y,-z
1/2+x,1/2+y,1/2-z
1/2-x,1/2+y,z
x,-y,1/2+z
loop_
_atom_site_type_symbol
_atom_site_label
_atom_site_fract_x
_atom_site_fract_y
_atom_site_fract_z
Si Si1 0.737329 0.798423 0.335093
Si Si2 0.257671 0.146123 0.326397
Si Si3 0.354192 0.042009 0.113773
Si Si4 0.099141 0.895468 0.239415
Si Si5 0.409930 0.899332 0.298899
Si Si6 0.830677 0.989369 0.524491
O O1 0.713771 0.812607 0.514255
O O2 0.722733 0.709446 0.294644
O O3 0.837021 0.824447 0.299504
O O4 0.673348 0.845886 0.225524
O O5 0.340752 0.105664 0.246879
O O6 0.183921 0.080828 0.354353
O O7 0.407030 0.973272 0.189517
O O8 0.412113 0.078263 0.978433
O O9 0.262822 0.009655 0.048742
O O10 0.000000 0.864266 0.250000
O O11 0.127997 0.935612 0.398792
O O12 0.103525 0.960240 0.106995
O O13 0.500000 0.856379 0.250000
#
# Coordination Sequence:
#
# PCOD8248266 Si02
#       6
#     8   8   8   8   8   8
#     4  11  23  42  60  91 131 164 212 254 323 392
#     4  11  22  39  70  89 123 177 204 261 328 371
#     4  12  19  41  66  92 122 166 218 263 312 370
#     4  11  22  38  63  92 125 162 208 258 315 372
#     4  12  23  39  64  94 130 168 214 264 315 377
#     4  11  19  39  66  90 121 162 214 261 306 368
#
# _framework density 20.838259999999998
#
# number of rings (size 3 to 8) (size 9 to 14) (size 15 to 20)
#    0.000    0.667    8.333    2.000    0.000    0.000 
#    0.000    6.667    0.000    0.000    0.000    0.000 
#    0.000    0.000    0.000    0.000    0.000    0.000 
#
# Total GULP energy -595274.037097 kJ/mol
# GULP energy per Si atom -12401.542440 kJ/mol
# Density = 2.079083 g / cm^3
# Si number density = 20.838260 Si / 1000 Ang^3
#
#
#
# Elastic Constant Matrix: (Units=GPa)
#
#
# Indices 1 2 3 4 5 6 
#
# 1 100.4055 11.2276 33.2557 0.0000 0.0000 0.0000
# 2 11.2276 72.2006 14.5254 0.0000 0.0000 0.0000
# 3 33.2557 14.5254 77.5786 0.0000 0.0000 0.0000
# 4 0.0000 0.0000 0.0000 45.3143 0.0000 0.0000
# 5 0.0000 0.0000 0.0000 0.0000 28.1556 0.0000
# 6 0.0000 0.0000 0.0000 0.0000 0.0000 8.1252
#
#
#
# Elastic Compliance Matrix: (Units=1/GPa)
#
#
# Indices 1 2 3 4 5 6 
#
# 1 0.011656 -0.000839 -0.004840 0.000000 0.000000 0.000000
# 2 -0.000839 0.014453 -0.002346 0.000000 0.000000 0.000000
# 3 -0.004840 -0.002346 0.015404 0.000000 0.000000 0.000000
# 4 0.000000 0.000000 0.000000 0.022068 0.000000 0.000000
# 5 0.000000 0.000000 0.000000 0.000000 0.035517 0.000000
# 6 0.000000 0.000000 0.000000 0.000000 0.000000 0.123073
#
#
# Mechanical properties :
#
#
# Convention : Reuss Voigt Hill
#
# Bulk Modulus (GPa) = 39.27239 40.91133 40.09186
# Shear Modulus (GPa) = 20.26677 29.06410 24.66543
#
# Velocity S-wave (km/s) = 3.12200 3.73868 3.44417
# Velocity P-wave (km/s) = 5.64651 6.18970 5.92433
#
# Compressibility (1/GPa) = 0.02546318
#
# Stress axis : x y z
#
# Youngs Moduli (GPa) = 85.78980 69.19063 64.91774
#
# Poissons Ratio (x) = 0.05805 0.31418
# Poissons Ratio (y) = 0.07198 0.15232
# Poissons Ratio (z) = 0.41519 0.16235
#
# Static dielectric constant tensor:
#      x y z
#    x 3.484440 0.000000 0.000000 
#    y 0.000000 3.790500 0.000000 
#    z 0.000000 0.000000 4.077170 
# 
# 
# High freq. dielectric constant tensor:
#      x y z
#    x 1.788680 0.000000 0.000000 
#    y 0.000000 1.803780 0.000000 
#    z 0.000000 0.000000 1.836190 
# 
# From -- ./inp_files/5883.got.cif
#   From: 2010.03.12/outbox.cif.g09.slc.cpg/sg60_3_cif.got.tgz:5883.got - 2010.04.10 18:46:24.
