data_PCOD8248704
_publ_section_title
;
Structure prediction by ZEFSAII (Michael W. Deem and Ramdas Pophale) SiO2 
 PCOD8248704
Probable space group: P B C A
;
_chemical_formula_sum "Si O2"
_cell_formula_units_Z 40
_cell_length_a 12.266331
_cell_length_b 5.275058
_cell_length_c 26.641820
_cell_angle_alpha 90.000000
_cell_angle_beta 90.000000
_cell_angle_gamma 90.000000
_cell_volume 1723.875147
_symmetry_space_group_name_H-M "P B C A"
_symmetry_group_IT_number 61
_symmetry_cell_setting 'orthorhombic'
loop_
_space_group_symop_operation_xyz
x,y,z
1/2-x,-y,1/2+z
1/2+x,1/2-y,-z
-x,1/2+y,1/2-z
-x,-y,-z
1/2+x,y,1/2-z
1/2-x,1/2+y,z
x,1/2-y,1/2+z
loop_
_atom_site_type_symbol
_atom_site_label
_atom_site_fract_x
_atom_site_fract_y
_atom_site_fract_z
Si Si1 0.319824 0.719710 0.613234
Si Si2 0.129948 0.752845 0.373710
Si Si3 0.876621 0.746800 0.668777
Si Si4 0.683743 0.292042 0.776876
Si Si5 0.991472 0.249933 0.032960
O O1 0.268902 0.441385 0.605575
O O2 0.372058 0.744282 0.669226
O O3 0.413240 0.756695 0.573230
O O4 0.251879 0.751621 0.351855
O O5 0.066452 0.504576 0.352896
O O6 0.121936 0.750904 0.434799
O O7 0.066404 0.002960 0.353728
O O8 0.892694 0.742198 0.728805
O O9 0.719478 0.585129 0.772321
O O10 0.000000 0.500000 0.000000
O O11 0.000000 0.000000 0.000000
#
# Coordination Sequence:
#
# PCOD8248704 Si02
#       5
#     8   8   8   8   8
#     4  10  23  43  67  91 123 170 213 245 315 391
#     4  10  20  35  59  88 124 156 203 253 308 358
#     4  10  17  35  60  95 121 157 197 240 314 380
#     4  10  16  32  62  89 126 159 195 246 297 380
#     4  12  26  47  62  89 130 162 216 282 306 345
#
# _framework density 23.203538999999999
#
# number of rings (size 3 to 8) (size 9 to 14) (size 15 to 20)
#    0.000    1.600    4.000    2.400    0.000    0.000 
#   21.600    2.000    0.000    0.000    0.000    0.000 
#    0.000    0.000    0.000    0.000    0.000    0.000 
#
# Total GULP energy -495551.114096 kJ/mol
# GULP energy per Si atom -12388.777852 kJ/mol
# Density = 2.315073 g / cm^3
# Si number density = 23.203539 Si / 1000 Ang^3
#
#
#
# Elastic Constant Matrix: (Units=GPa)
#
#
# Indices 1 2 3 4 5 6 
#
# 1 31.3853 9.6613 35.7866 0.0000 0.0000 0.0000
# 2 9.6613 217.1345 77.4588 0.0000 0.0000 0.0000
# 3 35.7866 77.4588 219.2833 0.0000 0.0000 0.0000
# 4 0.0000 0.0000 0.0000 49.8594 0.0000 0.0000
# 5 0.0000 0.0000 0.0000 0.0000 17.5117 0.0000
# 6 0.0000 0.0000 0.0000 0.0000 0.0000 16.3989
#
#
#
# Elastic Compliance Matrix: (Units=1/GPa)
#
#
# Indices 1 2 3 4 5 6 
#
# 1 0.039218 0.000616 -0.006618 0.000000 0.000000 0.000000
# 2 0.000616 0.005279 -0.001965 0.000000 0.000000 0.000000
# 3 -0.006618 -0.001965 0.006335 0.000000 0.000000 0.000000
# 4 0.000000 0.000000 0.000000 0.020056 0.000000 0.000000
# 5 0.000000 0.000000 0.000000 0.000000 0.057105 0.000000
# 6 0.000000 0.000000 0.000000 0.000000 0.000000 0.060980
#
#
# Mechanical properties :
#
#
# Convention : Reuss Voigt Hill
#
# Bulk Modulus (GPa) = 28.65544 79.29074 53.97309
# Shear Modulus (GPa) = 23.09040 39.74708 31.41874
#
# Velocity S-wave (km/s) = 3.15798 4.14330 3.68373
# Velocity P-wave (km/s) = 5.06691 7.55879 6.43463
#
# Compressibility (1/GPa) = 0.03489738
#
# Stress axis : x y z
#
# Youngs Moduli (GPa) = 25.49819 189.42570 157.86452
#
# Poissons Ratio (x) = -0.11665 1.04473
# Poissons Ratio (y) = -0.01570 0.31025
# Poissons Ratio (z) = 0.16874 0.37227
#
# Static dielectric constant tensor:
#      x y z
#    x 3.570320 0.000000 0.000000 
#    y 0.000000 6.232240 0.000000 
#    z 0.000000 0.000000 4.714760 
# 
# 
# High freq. dielectric constant tensor:
#      x y z
#    x 1.861420 0.000000 0.000000 
#    y 0.000000 1.960440 0.000000 
#    z 0.000000 0.000000 1.931960 
# 
# From -- ./inp_files/1159.got.cif
#   From: 2010.03.12/outbox.cif.g09.slc.cpg/sg61_1_cif.got.tgz:1159.got - 2010.04.10 19:05:03.
