data_PCOD8248702
_publ_section_title
;
Structure prediction by ZEFSAII (Michael W. Deem and Ramdas Pophale) SiO2 
 PCOD8248702
Probable space group: P B C A
;
_chemical_formula_sum "Si O2"
_cell_formula_units_Z 48
_cell_length_a 14.691758
_cell_length_b 9.437228
_cell_length_c 17.918652
_cell_angle_alpha 90.000000
_cell_angle_beta 90.000000
_cell_angle_gamma 90.000000
_cell_volume 2484.411602
_symmetry_space_group_name_H-M "P B C A"
_symmetry_group_IT_number 61
_symmetry_cell_setting 'orthorhombic'
loop_
_space_group_symop_operation_xyz
x,y,z
1/2-x,-y,1/2+z
1/2+x,1/2-y,-z
-x,1/2+y,1/2-z
-x,-y,-z
1/2+x,y,1/2-z
1/2-x,1/2+y,z
x,1/2-y,1/2+z
loop_
_atom_site_type_symbol
_atom_site_label
_atom_site_fract_x
_atom_site_fract_y
_atom_site_fract_z
Si Si1 0.438538 0.766651 0.807771
Si Si2 0.460719 0.324307 0.426999
Si Si3 0.111089 0.117786 0.469970
Si Si4 0.427150 0.074212 0.763376
Si Si5 0.703736 0.662843 0.086471
Si Si6 0.733636 0.401787 0.186994
O O1 0.420069 0.808476 0.892964
O O2 0.526462 0.663980 0.803041
O O3 0.351831 0.678330 0.775776
O O4 0.454344 0.908438 0.759086
O O5 0.562098 0.301076 0.461131
O O6 0.415821 0.453957 0.472110
O O7 0.466579 0.356861 0.339322
O O8 0.399535 0.182646 0.443895
O O9 0.221328 0.125274 0.476814
O O10 0.317534 0.084101 0.755086
O O11 0.705155 0.555897 0.156520
O O12 0.728441 0.819099 0.115648
#
# Coordination Sequence:
#
# PCOD8248702 Si02
#       6
#     8   8   8   8   8   8
#     4  10  21  33  55  80 109 139 181 228 270 326
#     4   9  18  32  57  77 106 142 181 223 273 321
#     4   9  17  35  53  80 106 140 183 224 270 324
#     4  10  20  34  54  82 104 144 180 225 276 319
#     4  10  16  32  55  78  99 141 182 217 257 326
#     4  10  18  34  53  76 105 141 185 213 257 334
#
# _framework density 19.320468999999999
#
# number of rings (size 3 to 8) (size 9 to 14) (size 15 to 20)
#    0.000    2.333    6.667    0.000    4.667    0.000 
#    0.000    5.000    0.000    4.000    0.000    0.000 
#    0.000    0.000    0.000    0.000    0.000    0.000 
#
# Total GULP energy -594740.178295 kJ/mol
# GULP energy per Si atom -12390.420381 kJ/mol
# Density = 1.927649 g / cm^3
# Si number density = 19.320469 Si / 1000 Ang^3
#
#
#
# Elastic Constant Matrix: (Units=GPa)
#
#
# Indices 1 2 3 4 5 6 
#
# 1 100.3729 54.3738 17.4953 0.0000 0.0000 0.0000
# 2 54.3738 86.2958 15.9282 0.0000 0.0000 0.0000
# 3 17.4953 15.9282 22.9802 0.0000 0.0000 0.0000
# 4 0.0000 0.0000 0.0000 16.2373 0.0000 0.0000
# 5 0.0000 0.0000 0.0000 0.0000 34.2215 0.0000
# 6 0.0000 0.0000 0.0000 0.0000 0.0000 38.1811
#
#
#
# Elastic Compliance Matrix: (Units=1/GPa)
#
#
# Indices 1 2 3 4 5 6 
#
# 1 0.015789 -0.008864 -0.005877 0.000000 0.000000 0.000000
# 2 -0.008864 0.018264 -0.005911 0.000000 0.000000 0.000000
# 3 -0.005877 -0.005911 0.052087 0.000000 0.000000 0.000000
# 4 0.000000 0.000000 0.000000 0.061587 0.000000 0.000000
# 5 0.000000 0.000000 0.000000 0.000000 0.029221 0.000000
# 6 0.000000 0.000000 0.000000 0.000000 0.000000 0.026191
#
#
# Mechanical properties :
#
#
# Convention : Reuss Voigt Hill
#
# Bulk Modulus (GPa) = 22.30314 42.80481 32.55397
# Shear Modulus (GPa) = 19.27620 25.85142 22.56381
#
# Velocity S-wave (km/s) = 3.16208 3.66188 3.42112
# Velocity P-wave (km/s) = 4.99004 6.33107 5.70013
#
# Compressibility (1/GPa) = 0.04483674
#
# Stress axis : x y z
#
# Youngs Moduli (GPa) = 63.33635 54.75280 19.19864
#
# Poissons Ratio (x) = 0.48530 0.11282
# Poissons Ratio (y) = 0.56138 0.11349
# Poissons Ratio (z) = 0.37221 0.32365
#
# Static dielectric constant tensor:
#      x y z
#    x 3.958710 0.000000 0.000000 
#    y 0.000000 3.673520 0.000000 
#    z 0.000000 0.000000 2.974520 
# 
# 
# High freq. dielectric constant tensor:
#      x y z
#    x 1.759980 0.000000 0.000000 
#    y 0.000000 1.760470 0.000000 
#    z 0.000000 0.000000 1.682040 
# 
# From -- ./inp_files/3838.got.cif
#   From: 2010.03.12/outbox.cif.g09.slc.cpg/sg61_2_cif.got.tgz:3838.got - 2010.04.10 19:05:03.
