data_PCOD8248214
_publ_section_title
;
Structure prediction by ZEFSAII (Michael W. Deem and Ramdas Pophale) SiO2 
 PCOD8248214
Probable space group: P B C N
;
_chemical_formula_sum "Si O2"
_cell_formula_units_Z 48
_cell_length_a 8.711890
_cell_length_b 19.356080
_cell_length_c 13.285717
_cell_angle_alpha 90.000000
_cell_angle_beta 90.000000
_cell_angle_gamma 90.000000
_cell_volume 2240.344415
_symmetry_space_group_name_H-M "P B C N"
_symmetry_group_IT_number 60
_symmetry_cell_setting 'orthorhombic'
loop_
_space_group_symop_operation_xyz
x,y,z
1/2-x,1/2-y,1/2+z
1/2+x,1/2-y,-z
-x,y,1/2-z
-x,-y,-z
1/2+x,1/2+y,1/2-z
1/2-x,1/2+y,z
x,-y,1/2+z
loop_
_atom_site_type_symbol
_atom_site_label
_atom_site_fract_x
_atom_site_fract_y
_atom_site_fract_z
Si Si1 0.854666 0.151750 0.316444
Si Si2 0.356427 0.369553 0.454358
Si Si3 0.673681 0.992467 0.526469
Si Si4 0.323022 0.719223 0.765967
Si Si5 0.320624 0.028012 0.256100
Si Si6 0.668273 0.588234 0.857105
O O1 0.898374 0.162682 0.435072
O O2 0.790758 0.219140 0.260572
O O3 0.721294 0.093486 0.312840
O O4 0.000000 0.127056 0.250000
O O5 0.237077 0.430061 0.475925
O O6 0.293788 0.308406 0.380746
O O7 0.493394 0.406101 0.392854
O O8 0.709850 0.953262 0.629173
O O9 0.735562 0.936765 0.450182
O O10 0.500000 0.000000 0.500000
O O11 0.500000 0.741976 0.750000
O O12 0.277042 0.661432 0.684741
O O13 0.500000 0.005856 0.250000
O O14 0.201242 0.966688 0.231026
#
# Coordination Sequence:
#
# PCOD8248214 Si02
#       6
#     8   8   8   8   8   8
#     4  12  27  43  67 101 140 178 229 289 343 422
#     4  11  24  44  69  99 134 181 228 281 354 414
#     4  12  23  38  66 102 134 175 223 286 347 404
#     4  10  25  46  70  93 135 184 229 283 347 416
#     4  12  24  41  67 101 138 177 229 287 345 414
#     4  11  23  43  70  99 134 181 229 286 343 423
#
# _framework density 21.425277999999999
#
# number of rings (size 3 to 8) (size 9 to 14) (size 15 to 20)
#    0.000    0.667    5.000    2.000    2.333    6.000 
#    0.000    0.000    0.000    0.000    0.000    0.000 
#    0.000    0.000    0.000    0.000    0.000    0.000 
#
# Total GULP energy -594804.386200 kJ/mol
# GULP energy per Si atom -12391.758046 kJ/mol
# Density = 2.137651 g / cm^3
# Si number density = 21.425278 Si / 1000 Ang^3
#
#
#
# Elastic Constant Matrix: (Units=GPa)
#
#
# Indices 1 2 3 4 5 6 
#
# 1 93.4215 55.2766 41.4422 0.0000 0.0000 0.0000
# 2 55.2766 82.3113 1.8603 0.0000 0.0000 0.0000
# 3 41.4422 1.8603 112.1050 0.0000 0.0000 0.0000
# 4 0.0000 0.0000 0.0000 38.7705 0.0000 0.0000
# 5 0.0000 0.0000 0.0000 0.0000 35.9169 0.0000
# 6 0.0000 0.0000 0.0000 0.0000 0.0000 84.5277
#
#
#
# Elastic Compliance Matrix: (Units=1/GPa)
#
#
# Indices 1 2 3 4 5 6 
#
# 1 0.023875 -0.015840 -0.008563 0.000000 0.000000 0.000000
# 2 -0.015840 0.022663 0.005480 0.000000 0.000000 0.000000
# 3 -0.008563 0.005480 0.011995 0.000000 0.000000 0.000000
# 4 0.000000 0.000000 0.000000 0.025793 0.000000 0.000000
# 5 0.000000 0.000000 0.000000 0.000000 0.027842 0.000000
# 6 0.000000 0.000000 0.000000 0.000000 0.000000 0.011830
#
#
# Mechanical properties :
#
#
# Convention : Reuss Voigt Hill
#
# Bulk Modulus (GPa) = 48.34321 53.88846 51.11584
# Shear Modulus (GPa) = 29.63132 44.46027 37.04579
#
# Velocity S-wave (km/s) = 3.72292 4.56030 4.16272
# Velocity P-wave (km/s) = 6.41036 7.27564 6.85666
#
# Compressibility (1/GPa) = 0.02068543
#
# Stress axis : x y z
#
# Youngs Moduli (GPa) = 41.88441 44.12554 83.36905
#
# Poissons Ratio (x) = 0.69895 0.71390
# Poissons Ratio (y) = 0.66345 -0.45683
# Poissons Ratio (z) = 0.35866 -0.24179
#
# Static dielectric constant tensor:
#      x y z
#    x 3.808450 0.000000 0.000000 
#    y 0.000000 3.800180 0.000000 
#    z 0.000000 0.000000 4.869600 
# 
# 
# High freq. dielectric constant tensor:
#      x y z
#    x 1.837600 0.000000 0.000000 
#    y 0.000000 1.828810 0.000000 
#    z 0.000000 0.000000 1.873170 
# 
# From -- ./inp_files/15140.got.cif
#   From: 2010.03.12/outbox.cif.g09.slc.cpg/sg60_8_cif.got.tgz:15140.got - 2010.04.10 18:46:24.
