data_PCOD8248919
_publ_section_title
;
Structure prediction by ZEFSAII (Michael W. Deem and Ramdas Pophale) SiO2 
 PCOD8248919
Probable space group: P B C A
;
_chemical_formula_sum "Si O2"
_cell_formula_units_Z 40
_cell_length_a 5.156221
_cell_length_b 18.714681
_cell_length_c 21.402050
_cell_angle_alpha 90.000000
_cell_angle_beta 90.000000
_cell_angle_gamma 90.000000
_cell_volume 2065.234286
_symmetry_space_group_name_H-M "P B C A"
_symmetry_group_IT_number 61
_symmetry_cell_setting 'orthorhombic'
loop_
_space_group_symop_operation_xyz
x,y,z
1/2-x,-y,1/2+z
1/2+x,1/2-y,-z
-x,1/2+y,1/2-z
-x,-y,-z
1/2+x,y,1/2-z
1/2-x,1/2+y,z
x,1/2-y,1/2+z
loop_
_atom_site_type_symbol
_atom_site_label
_atom_site_fract_x
_atom_site_fract_y
_atom_site_fract_z
Si Si1 0.892540 0.369611 0.789195
Si Si2 0.421667 0.836878 0.474676
Si Si3 0.307525 0.279949 0.592194
Si Si4 0.909613 0.633581 0.908044
Si Si5 0.414579 0.964488 0.210635
O O1 0.619641 0.349157 0.758420
O O2 0.930451 0.324139 0.851649
O O3 0.903612 0.452503 0.807301
O O4 0.458421 0.754695 0.449416
O O5 0.361708 0.832945 0.548390
O O6 0.684584 0.881564 0.460227
O O7 0.189209 0.876435 0.438776
O O8 0.128308 0.214767 0.617806
O O9 0.874803 0.578711 0.852311
O O10 0.688405 0.943870 0.241082
#
# Coordination Sequence:
#
# PCOD8248919 Si02
#       5
#     8   8   8   8   8
#     4  10  24  38  57  81 112 149 187 223 278 329
#     4  10  20  35  57  84 110 146 175 232 283 316
#     4  10  21  37  60  80 119 140 183 229 277 327
#     4  10  20  34  57  83 109 140 192 219 274 333
#     4  10  21  40  55  77 115 153 181 231 280 320
#
# _framework density 19.368265000000001
#
# number of rings (size 3 to 8) (size 9 to 14) (size 15 to 20)
#    1.200    0.800    2.000    1.200    2.800    1.600 
#    0.000    2.000    0.000    0.000    0.000    0.000 
#    0.000    0.000    0.000    0.000    0.000    0.000 
#
# Total GULP energy -495859.524875 kJ/mol
# GULP energy per Si atom -12396.488122 kJ/mol
# Density = 1.932418 g / cm^3
# Si number density = 19.368265 Si / 1000 Ang^3
#
#
#
# Elastic Constant Matrix: (Units=GPa)
#
#
# Indices 1 2 3 4 5 6 
#
# 1 95.6002 13.0934 6.7696 0.0000 0.0000 0.0000
# 2 13.0934 33.8501 34.9055 0.0000 0.0000 0.0000
# 3 6.7696 34.9055 80.6786 0.0000 0.0000 0.0000
# 4 0.0000 0.0000 0.0000 -47.1778 0.0000 0.0000
# 5 0.0000 0.0000 0.0000 0.0000 23.0820 0.0000
# 6 0.0000 0.0000 0.0000 0.0000 0.0000 16.7714
#
#
#
# Elastic Compliance Matrix: (Units=1/GPa)
#
#
# Indices 1 2 3 4 5 6 
#
# 1 0.011171 -0.006056 0.001683 0.000000 0.000000 0.000000
# 2 -0.006056 0.056622 -0.023989 0.000000 0.000000 0.000000
# 3 0.001683 -0.023989 0.022633 0.000000 0.000000 0.000000
# 4 0.000000 0.000000 0.000000 -0.021196 0.000000 0.000000
# 5 0.000000 0.000000 0.000000 0.000000 0.043324 0.000000
# 6 0.000000 0.000000 0.000000 0.000000 0.000000 0.059625
#
#
# Mechanical properties :
#
#
# Convention : Reuss Voigt Hill
#
# Bulk Modulus (GPa) = 29.67370 35.51844 32.59607
# Shear Modulus (GPa) = 20.82155 8.89248 14.85701
#
# Velocity S-wave (km/s) = 3.28233 2.14505 2.77263
# Velocity P-wave (km/s) = 5.45151 4.95109 5.20731
#
# Compressibility (1/GPa) = 0.03369987
#
# Stress axis : x y z
#
# Youngs Moduli (GPa) = 89.52143 17.66105 44.18412
#
# Poissons Ratio (x) = 0.10696 -0.07436
# Poissons Ratio (y) = 0.54216 1.05994
# Poissons Ratio (z) = -0.15066 0.42367
#
# Static dielectric constant tensor:
#      x y z
#    x 3.663110 0.000000 0.000000 
#    y 0.000000 3.244240 0.000000 
#    z 0.000000 0.000000 3.230030 
# 
# 
# High freq. dielectric constant tensor:
#      x y z
#    x 1.768380 0.000000 0.000000 
#    y 0.000000 1.723900 0.000000 
#    z 0.000000 0.000000 1.744670 
# 
# From -- ./inp_files/940.got.cif
#   From: 2010.03.12/outbox.cif.g09.slc.cpg/sg61_1_cif.got.tgz:940.got - 2010.04.10 19:05:03.
