data_PCOD8248680
_publ_section_title
;
Structure prediction by ZEFSAII (Michael W. Deem and Ramdas Pophale) SiO2 
 PCOD8248680
Probable space group: P B C N
;
_chemical_formula_sum "Si O2"
_cell_formula_units_Z 24
_cell_length_a 7.909875
_cell_length_b 14.781803
_cell_length_c 7.616977
_cell_angle_alpha 90.000000
_cell_angle_beta 90.000000
_cell_angle_gamma 90.000000
_cell_volume 890.593815
_symmetry_space_group_name_H-M "P B C N"
_symmetry_group_IT_number 60
_symmetry_cell_setting 'orthorhombic'
loop_
_space_group_symop_operation_xyz
x,y,z
1/2-x,1/2-y,1/2+z
1/2+x,1/2-y,-z
-x,y,1/2-z
-x,-y,-z
1/2+x,1/2+y,1/2-z
1/2-x,1/2+y,z
x,-y,1/2+z
loop_
_atom_site_type_symbol
_atom_site_label
_atom_site_fract_x
_atom_site_fract_y
_atom_site_fract_z
Si Si1 0.195484 0.868109 0.601012
Si Si2 0.685470 0.964307 0.548051
Si Si3 0.885149 0.186082 0.920558
O O1 0.302790 0.782327 0.537780
O O2 0.996550 0.838991 0.596583
O O3 0.197502 0.946658 0.452875
O O4 0.288129 0.911507 0.769440
O O5 0.741768 0.891209 0.399289
O O6 0.500000 0.000000 0.500000
O O7 0.000000 0.193005 0.750000
#
# Coordination Sequence:
#
# PCOD8248680 Si02
#       3
#     8   8   8
#     4  12  26  48  77 112 155 207 261 324 392 466
#     4  12  26  48  78 112 152 204 262 324 391 465
#     4  12  26  48  77 114 157 207 263 322 390 471
#
# _framework density 26.948312999999999
#
# number of rings (size 3 to 8) (size 9 to 14) (size 15 to 20)
#    0.000    0.000    0.000   11.000    0.000    0.000 
#    0.000   16.667    0.000    0.000    0.000    0.000 
#    0.000    0.000    0.000    0.000    0.000    0.000 
#
# Total GULP energy -297353.410468 kJ/mol
# GULP energy per Si atom -12389.725436 kJ/mol
# Density = 2.688698 g / cm^3
# Si number density = 26.948313 Si / 1000 Ang^3
#
#
#
# Elastic Constant Matrix: (Units=GPa)
#
#
# Indices 1 2 3 4 5 6 
#
# 1 156.6238 103.1973 35.8687 0.0000 0.0000 0.0000
# 2 103.1973 268.5026 28.9213 0.0000 0.0000 0.0000
# 3 35.8687 28.9213 66.4845 0.0000 0.0000 0.0000
# 4 0.0000 0.0000 0.0000 45.4591 0.0000 0.0000
# 5 0.0000 0.0000 0.0000 0.0000 33.7636 0.0000
# 6 0.0000 0.0000 0.0000 0.0000 0.0000 68.2397
#
#
#
# Elastic Compliance Matrix: (Units=1/GPa)
#
#
# Indices 1 2 3 4 5 6 
#
# 1 0.009320 -0.003190 -0.003641 0.000000 0.000000 0.000000
# 2 -0.003190 0.004999 -0.000454 0.000000 0.000000 0.000000
# 3 -0.003641 -0.000454 0.017203 0.000000 0.000000 0.000000
# 4 0.000000 0.000000 0.000000 0.021998 0.000000 0.000000
# 5 0.000000 0.000000 0.000000 0.000000 0.029618 0.000000
# 6 0.000000 0.000000 0.000000 0.000000 0.000000 0.014654
#
#
# Mechanical properties :
#
#
# Convention : Reuss Voigt Hill
#
# Bulk Modulus (GPa) = 58.98510 91.95395 75.46952
# Shear Modulus (GPa) = 42.36856 51.06738 46.71797
#
# Velocity S-wave (km/s) = 3.96942 4.35790 4.16819
# Velocity P-wave (km/s) = 6.55318 7.71480 7.15759
#
# Compressibility (1/GPa) = 0.01695343
#
# Stress axis : x y z
#
# Youngs Moduli (GPa) = 107.29165 200.02741 58.13070
#
# Poissons Ratio (x) = 0.63810 0.21164
# Poissons Ratio (y) = 0.34227 0.02637
# Poissons Ratio (z) = 0.39061 0.09075
#
# Static dielectric constant tensor:
#      x y z
#    x 5.295520 0.000000 0.000000 
#    y 0.000000 6.596570 0.000000 
#    z 0.000000 0.000000 4.904210 
# 
# 
# High freq. dielectric constant tensor:
#      x y z
#    x 2.095790 0.000000 0.000000 
#    y 0.000000 2.116630 0.000000 
#    z 0.000000 0.000000 2.083800 
# 
# From -- ./inp_files/3347.got.cif
#   From: 2010.03.12/outbox.cif.g09.slc.cpg/sg60_2_cif.got.tgz:3347.got - 2010.04.10 18:46:24.
