data_PCOD8248032
_publ_section_title
;
Structure prediction by ZEFSAII (Michael W. Deem and Ramdas Pophale) SiO2 
 PCOD8248032
Probable space group: P B C N
;
_chemical_formula_sum "Si O2"
_cell_formula_units_Z 56
_cell_length_a 9.347569
_cell_length_b 14.180282
_cell_length_c 21.471584
_cell_angle_alpha 90.000000
_cell_angle_beta 90.000000
_cell_angle_gamma 90.000000
_cell_volume 2846.083461
_symmetry_space_group_name_H-M "P B C N"
_symmetry_group_IT_number 60
_symmetry_cell_setting 'orthorhombic'
loop_
_space_group_symop_operation_xyz
x,y,z
1/2-x,1/2-y,1/2+z
1/2+x,1/2-y,-z
-x,y,1/2-z
-x,-y,-z
1/2+x,1/2+y,1/2-z
1/2-x,1/2+y,z
x,-y,1/2+z
loop_
_atom_site_type_symbol
_atom_site_label
_atom_site_fract_x
_atom_site_fract_y
_atom_site_fract_z
Si Si1 0.037352 0.225264 0.180493
Si Si2 0.327360 0.398075 0.994224
Si Si3 0.396615 0.931836 0.190419
Si Si4 0.544960 0.933412 0.444149
Si Si5 0.093435 0.021675 0.188022
Si Si6 0.917874 0.070726 0.580038
Si Si7 0.675105 0.217382 0.582183
O O1 0.133032 0.320230 0.175723
O O2 0.112706 0.127555 0.158060
O O3 0.000000 0.203034 0.250000
O O4 0.887171 0.239364 0.145482
O O5 0.323895 0.481901 0.943201
O O6 0.278553 0.301420 0.962583
O O7 0.213826 0.414703 0.049023
O O8 0.485264 0.391458 0.023252
O O9 0.500000 0.944584 0.250000
O O10 0.471083 0.973757 0.127076
O O11 0.249195 0.982896 0.205516
O O12 0.449751 0.840416 0.452504
O O13 0.500000 0.000000 0.500000
O O14 0.000000 0.020762 0.250000
O O15 0.016572 0.955295 0.138098
O O16 0.810612 0.153526 0.599782
#
# Coordination Sequence:
#
# PCOD8248032 Si02
#       7
#     8   8   8   8   8   8   8
#     4   9  21  41  64  88 128 168 214 264 326 390
#     4  11  22  41  60  94 129 166 211 275 327 387
#     4  10  23  44  68  92 129 177 217 269 333 401
#     4  11  22  40  62  94 128 165 215 270 325 390
#     4  11  23  41  68  96 125 172 219 270 333 390
#     4  11  23  39  64  94 128 168 220 267 324 400
#     4  11  22  39  66  89 127 177 215 259 342 386
#
# _framework density 19.676162000000001
#
# number of rings (size 3 to 8) (size 9 to 14) (size 15 to 20)
#    0.000    1.429    4.286    0.857    6.000    0.000 
#    5.143    0.714    0.000    0.000    0.000    0.000 
#    0.000    0.000    0.000    0.000    0.000    0.000 
#
# Total GULP energy -694153.368180 kJ/mol
# GULP energy per Si atom -12395.595860 kJ/mol
# Density = 1.963138 g / cm^3
# Si number density = 19.676162 Si / 1000 Ang^3
#
#
#
# Elastic Constant Matrix: (Units=GPa)
#
#
# Indices 1 2 3 4 5 6 
#
# 1 112.9407 65.1888 41.8514 0.0000 0.0000 0.0000
# 2 65.1888 118.3939 49.7745 0.0000 0.0000 0.0000
# 3 41.8514 49.7745 125.5586 0.0000 0.0000 0.0000
# 4 0.0000 0.0000 0.0000 40.2827 0.0000 0.0000
# 5 0.0000 0.0000 0.0000 0.0000 38.0667 0.0000
# 6 0.0000 0.0000 0.0000 0.0000 0.0000 31.0981
#
#
#
# Elastic Compliance Matrix: (Units=1/GPa)
#
#
# Indices 1 2 3 4 5 6 
#
# 1 0.013324 -0.006563 -0.001839 0.000000 0.000000 0.000000
# 2 -0.006563 0.013368 -0.003112 0.000000 0.000000 0.000000
# 3 -0.001839 -0.003112 0.009811 0.000000 0.000000 0.000000
# 4 0.000000 0.000000 0.000000 0.024825 0.000000 0.000000
# 5 0.000000 0.000000 0.000000 0.000000 0.026270 0.000000
# 6 0.000000 0.000000 0.000000 0.000000 0.000000 0.032156
#
#
# Mechanical properties :
#
#
# Convention : Reuss Voigt Hill
#
# Bulk Modulus (GPa) = 74.21293 74.50251 74.35772
# Shear Modulus (GPa) = 33.95027 35.22808 34.58917
#
# Velocity S-wave (km/s) = 4.15836 4.23589 4.19731
# Velocity P-wave (km/s) = 7.80096 7.86577 7.83343
#
# Compressibility (1/GPa) = 0.01347474
#
# Stress axis : x y z
#
# Youngs Moduli (GPa) = 75.05287 74.80368 101.92441
#
# Poissons Ratio (x) = 0.49093 0.18748
# Poissons Ratio (y) = 0.49257 0.31718
# Poissons Ratio (z) = 0.13806 0.23279
#
# Static dielectric constant tensor:
#      x y z
#    x 3.614440 0.000000 0.000000 
#    y 0.000000 3.810480 0.000000 
#    z 0.000000 0.000000 3.699040 
# 
# 
# High freq. dielectric constant tensor:
#      x y z
#    x 1.757290 0.000000 0.000000 
#    y 0.000000 1.766750 0.000000 
#    z 0.000000 0.000000 1.777470 
# 
# From -- ./inp_files/22221.got.cif
#   From: 2010.03.12/outbox.cif.g09.slc.cpg/sg60_12_cif.got.tgz:22221.got - 2010.04.10 18:46:24.
