data_PCOD8248582
_publ_section_title
;
Structure prediction by ZEFSAII (Michael W. Deem and Ramdas Pophale) SiO2 
 PCOD8248582
Probable space group: P B C N
;
_chemical_formula_sum "Si O2"
_cell_formula_units_Z 32
_cell_length_a 14.303776
_cell_length_b 9.615428
_cell_length_c 10.112061
_cell_angle_alpha 90.000000
_cell_angle_beta 90.000000
_cell_angle_gamma 90.000000
_cell_volume 1390.781808
_symmetry_space_group_name_H-M "P B C N"
_symmetry_group_IT_number 60
_symmetry_cell_setting 'orthorhombic'
loop_
_space_group_symop_operation_xyz
x,y,z
1/2-x,1/2-y,1/2+z
1/2+x,1/2-y,-z
-x,y,1/2-z
-x,-y,-z
1/2+x,1/2+y,1/2-z
1/2-x,1/2+y,z
x,-y,1/2+z
loop_
_atom_site_type_symbol
_atom_site_label
_atom_site_fract_x
_atom_site_fract_y
_atom_site_fract_z
Si Si1 0.685523 0.403171 0.471606
Si Si2 0.893733 0.899583 0.754868
Si Si3 0.454842 0.822283 0.617788
Si Si4 0.606077 0.870575 0.401704
O O1 0.660136 0.530443 0.376465
O O2 0.655497 0.442839 0.619337
O O3 0.636487 0.263182 0.421562
O O4 0.795739 0.378632 0.476631
O O5 0.888706 0.732351 0.775672
O O6 0.000000 0.952774 0.750000
O O7 0.500000 0.758091 0.750000
O O8 0.529577 0.808633 0.501157
O O9 0.424311 0.979210 0.650159
#
# Coordination Sequence:
#
# PCOD8248582 Si02
#       4
#     8   8   8   8
#     4  12  28  45  76 106 145 189 240 289 356 424
#     4  12  26  50  70 107 145 190 235 296 352 423
#     4  11  26  48  72 105 142 189 237 296 356 415
#     4  11  27  46  73 104 144 188 239 294 351 422
#
# _framework density 23.008641999999998
#
# number of rings (size 3 to 8) (size 9 to 14) (size 15 to 20)
#    0.000    0.500    2.500    3.750   14.000    0.000 
#    0.000    0.000    0.000    0.000    0.000    0.000 
#    0.000    0.000    0.000    0.000    0.000    0.000 
#
# Total GULP energy -397126.590213 kJ/mol
# GULP energy per Si atom -12410.205944 kJ/mol
# Density = 2.295627 g / cm^3
# Si number density = 23.008642 Si / 1000 Ang^3
#
#
#
# Elastic Constant Matrix: (Units=GPa)
#
#
# Indices 1 2 3 4 5 6 
#
# 1 129.5271 12.8859 22.2595 0.0000 0.0000 0.0000
# 2 12.8859 91.1314 33.0349 0.0000 0.0000 0.0000
# 3 22.2595 33.0349 140.9160 0.0000 0.0000 0.0000
# 4 0.0000 0.0000 0.0000 30.8863 0.0000 0.0000
# 5 0.0000 0.0000 0.0000 0.0000 29.3982 0.0000
# 6 0.0000 0.0000 0.0000 0.0000 0.0000 27.1701
#
#
#
# Elastic Compliance Matrix: (Units=1/GPa)
#
#
# Indices 1 2 3 4 5 6 
#
# 1 0.007980 -0.000734 -0.001089 0.000000 0.000000 0.000000
# 2 -0.000734 0.012060 -0.002711 0.000000 0.000000 0.000000
# 3 -0.001089 -0.002711 0.007904 0.000000 0.000000 0.000000
# 4 0.000000 0.000000 0.000000 0.032377 0.000000 0.000000
# 5 0.000000 0.000000 0.000000 0.000000 0.034016 0.000000
# 6 0.000000 0.000000 0.000000 0.000000 0.000000 0.036805
#
#
# Mechanical properties :
#
#
# Convention : Reuss Voigt Hill
#
# Bulk Modulus (GPa) = 52.97483 55.32612 54.15047
# Shear Modulus (GPa) = 34.12937 37.05055 35.58996
#
# Velocity S-wave (km/s) = 3.85558 4.01719 3.93722
# Velocity P-wave (km/s) = 6.54939 6.75390 6.65243
#
# Compressibility (1/GPa) = 0.01887689
#
# Stress axis : x y z
#
# Youngs Moduli (GPa) = 125.30584 82.92046 126.51860
#
# Poissons Ratio (x) = 0.06085 0.13773
# Poissons Ratio (y) = 0.09195 0.34302
# Poissons Ratio (z) = 0.13641 0.22482
#
# Static dielectric constant tensor:
#      x y z
#    x 4.308190 0.000000 0.000000 
#    y 0.000000 4.125510 0.000000 
#    z 0.000000 0.000000 4.019370 
# 
# 
# High freq. dielectric constant tensor:
#      x y z
#    x 1.924030 0.000000 0.000000 
#    y 0.000000 1.916750 0.000000 
#    z 0.000000 0.000000 1.910930 
# 
# From -- ./inp_files/11569.got.cif
#   From: 2010.03.12/outbox.cif.g09.slc.cpg/sg60_6_cif.got.tgz:11569.got - 2010.04.10 18:46:24.
