data_PCOD8248376
_publ_section_title
;
Structure prediction by ZEFSAII (Michael W. Deem and Ramdas Pophale) SiO2 
 PCOD8248376
Probable space group: P B C N
;
_chemical_formula_sum "Si O2"
_cell_formula_units_Z 56
_cell_length_a 21.497582
_cell_length_b 9.474769
_cell_length_c 14.133664
_cell_angle_alpha 90.000000
_cell_angle_beta 90.000000
_cell_angle_gamma 90.000000
_cell_volume 2878.810031
_symmetry_space_group_name_H-M "P B C N"
_symmetry_group_IT_number 60
_symmetry_cell_setting 'orthorhombic'
loop_
_space_group_symop_operation_xyz
x,y,z
1/2-x,1/2-y,1/2+z
1/2+x,1/2-y,-z
-x,y,1/2-z
-x,-y,-z
1/2+x,1/2+y,1/2-z
1/2-x,1/2+y,z
x,-y,1/2+z
loop_
_atom_site_type_symbol
_atom_site_label
_atom_site_fract_x
_atom_site_fract_y
_atom_site_fract_z
Si Si1 0.314165 0.223674 0.749983
Si Si2 0.999782 0.607316 0.860307
Si Si3 0.366613 0.007182 0.892605
Si Si4 0.170487 0.724915 0.250403
Si Si5 0.101264 0.985914 0.750108
Si Si6 0.866154 0.493562 0.392378
Si Si7 0.499977 0.420227 0.598787
O O1 0.240448 0.221084 0.750972
O O2 0.339599 0.382351 0.749374
O O3 0.337743 0.145083 0.655996
O O4 0.338732 0.145891 0.843662
O O5 0.058746 0.511722 0.885868
O O6 0.000000 0.651804 0.750000
O O7 0.940746 0.511480 0.884940
O O8 0.999524 0.751997 0.920152
O O9 0.342038 0.866306 0.843563
O O10 0.343689 0.000721 0.000014
O O11 0.158396 0.634486 0.156725
O O12 0.124174 0.855055 0.250572
O O13 0.061378 0.962812 0.655975
O O14 0.061760 0.961014 0.844439
O O15 0.500000 0.500000 0.500000
#
# Coordination Sequence:
#
# PCOD8248376 Si02
#       7
#     8   8   8   8   8   8   8
#     4  11  22  47  65  85 134 172 206 259 322 369
#     4  12  19  44  68  90 128 171 202 262 326 382
#     4  11  24  42  68  96 125 165 214 263 318 377
#     4  11  26  40  65  96 123 170 218 261 303 371
#     4  11  22  41  64  91 127 161 210 256 313 383
#     4  11  24  42  68  96 125 165 214 263 318 377
#     4  11  23  37  64  94 128 163 198 257 330 372
#
# _framework density 19.452480999999999
#
# number of rings (size 3 to 8) (size 9 to 14) (size 15 to 20)
#    0.000    0.857    7.143    2.143    4.000    3.429 
#    0.000    2.857    0.000    0.000    0.000    0.000 
#    0.000    0.000    0.000    0.000    0.000    0.000 
#
# Total GULP energy -694773.917156 kJ/mol
# GULP energy per Si atom -12406.677092 kJ/mol
# Density = 1.940821 g / cm^3
# Si number density = 19.452481 Si / 1000 Ang^3
#
#
#
# Elastic Constant Matrix: (Units=GPa)
#
#
# Indices 1 2 3 4 5 6 
#
# 1 110.8988 14.9717 19.1816 0.0000 0.0000 0.0000
# 2 14.9717 82.7587 30.7932 0.0000 0.0000 0.0000
# 3 19.1816 30.7932 144.9869 0.0000 0.0000 0.0000
# 4 0.0000 0.0000 0.0000 20.1486 0.0000 0.0000
# 5 0.0000 0.0000 0.0000 0.0000 2.3627 0.0000
# 6 0.0000 0.0000 0.0000 0.0000 0.0000 4.5578
#
#
#
# Elastic Compliance Matrix: (Units=1/GPa)
#
#
# Indices 1 2 3 4 5 6 
#
# 1 0.009363 -0.001339 -0.000954 0.000000 0.000000 0.000000
# 2 -0.001339 0.013312 -0.002650 0.000000 0.000000 0.000000
# 3 -0.000954 -0.002650 0.007586 0.000000 0.000000 0.000000
# 4 0.000000 0.000000 0.000000 0.049631 0.000000 0.000000
# 5 0.000000 0.000000 0.000000 0.000000 0.423252 0.000000
# 6 0.000000 0.000000 0.000000 0.000000 0.000000 0.219404
#
#
# Mechanical properties :
#
#
# Convention : Reuss Voigt Hill
#
# Bulk Modulus (GPa) = 49.08101 52.05971 50.57036
# Shear Modulus (GPa) = 6.76383 23.66034 15.21208
#
# Velocity S-wave (km/s) = 1.86672 3.49135 2.79948
# Velocity P-wave (km/s) = 5.47103 6.56303 6.04175
#
# Compressibility (1/GPa) = 0.02037448
#
# Stress axis : x y z
#
# Youngs Moduli (GPa) = 106.80295 75.12263 131.81693
#
# Poissons Ratio (x) = 0.10057 0.12580
# Poissons Ratio (y) = 0.14298 0.34932
# Poissons Ratio (z) = 0.10193 0.19908
#
# Static dielectric constant tensor:
#      x y z
#    x 3.584580 0.000000 0.000000 
#    y 0.000000 3.534110 0.000000 
#    z 0.000000 0.000000 3.624000 
# 
# 
# High freq. dielectric constant tensor:
#      x y z
#    x 1.764810 0.000000 0.000000 
#    y 0.000000 1.765690 0.000000 
#    z 0.000000 0.000000 1.755360 
# 
# From -- ./inp_files/17732.got.cif
#   From: 2010.03.12/outbox.cif.g09.slc.cpg/sg60_9_cif.got.tgz:17732.got - 2010.04.10 18:46:24.
