data_PCOD8248187
_publ_section_title
;
Structure prediction by ZEFSAII (Michael W. Deem and Ramdas Pophale) SiO2 
 PCOD8248187
Probable space group: P B C N
;
_chemical_formula_sum "Si O2"
_cell_formula_units_Z 60
_cell_length_a 6.337952
_cell_length_b 23.610267
_cell_length_c 18.151262
_cell_angle_alpha 90.000000
_cell_angle_beta 90.000000
_cell_angle_gamma 90.000000
_cell_volume 2716.168259
_symmetry_space_group_name_H-M "P B C N"
_symmetry_group_IT_number 60
_symmetry_cell_setting 'orthorhombic'
loop_
_space_group_symop_operation_xyz
x,y,z
1/2-x,1/2-y,1/2+z
1/2+x,1/2-y,-z
-x,y,1/2-z
-x,-y,-z
1/2+x,1/2+y,1/2-z
1/2-x,1/2+y,z
x,-y,1/2+z
loop_
_atom_site_type_symbol
_atom_site_label
_atom_site_fract_x
_atom_site_fract_y
_atom_site_fract_z
Si Si1 0.338085 0.883600 0.688064
Si Si2 0.000000 0.203253 0.250000
Si Si3 0.061769 0.856827 0.169120
Si Si4 0.258810 0.767733 0.375390
Si Si5 0.325525 0.849913 0.929092
Si Si6 0.020151 0.062537 0.092229
Si Si7 0.963400 0.368054 0.412829
Si Si8 0.169830 0.944555 0.427596
O O1 0.500000 0.906467 0.750000
O O2 0.196054 0.833716 0.721502
O O3 0.465132 0.860150 0.618022
O O4 0.191763 0.935039 0.658354
O O5 0.907035 0.244629 0.188737
O O6 0.314443 0.854737 0.157438
O O7 0.000000 0.878586 0.250000
O O8 0.956911 0.795153 0.156690
O O9 0.996335 0.903462 0.110042
O O10 0.209667 0.717429 0.431943
O O11 0.373195 0.816646 0.421479
O O12 0.122656 0.881606 0.894949
O O13 0.336393 0.873351 0.011557
O O14 0.145054 0.060847 0.015364
O O15 0.869908 0.008170 0.100278
O O16 0.093735 0.426574 0.402818
#
# Coordination Sequence:
#
# PCOD8248187 Si02
#       8
#     8   4   8   8   8   8   8   8
#     4  12  24  43  69 105 143 183 232 295 364 428
#     4  12  24  44  66 100 144 186 234 286 364 436
#     4  11  25  46  68  99 144 189 243 295 349 431
#     4  11  26  38  65  98 139 192 226 294 355 425
#     4  12  25  40  70 104 140 181 237 297 354 437
#     4  11  23  46  74 103 143 181 241 302 357 431
#     4  11  25  43  69 103 141 190 247 285 363 424
#     4  10  24  46  73 101 136 190 238 295 357 423
#
# _framework density 22.089942000000001
#
# number of rings (size 3 to 8) (size 9 to 14) (size 15 to 20)
#    0.000    0.800    5.333    0.800    5.600    3.200 
#    3.600    0.000    0.000    0.000    0.000    0.000 
#    0.000    0.000    0.000    0.000    0.000    0.000 
#
# Total GULP energy -744079.956482 kJ/mol
# GULP energy per Si atom -12401.332608 kJ/mol
# Density = 2.203966 g / cm^3
# Si number density = 22.089942 Si / 1000 Ang^3
#
#
#
# Elastic Constant Matrix: (Units=GPa)
#
#
# Indices 1 2 3 4 5 6 
#
# 1 134.0137 48.3155 50.5594 0.0000 0.0000 0.0000
# 2 48.3155 112.6975 40.6876 0.0000 0.0000 0.0000
# 3 50.5594 40.6876 94.8833 0.0000 0.0000 0.0000
# 4 0.0000 0.0000 0.0000 26.1225 0.0000 0.0000
# 5 0.0000 0.0000 0.0000 0.0000 48.6392 0.0000
# 6 0.0000 0.0000 0.0000 0.0000 0.0000 32.4865
#
#
#
# Elastic Compliance Matrix: (Units=1/GPa)
#
#
# Indices 1 2 3 4 5 6 
#
# 1 0.010038 -0.002807 -0.004145 0.000000 0.000000 0.000000
# 2 -0.002807 0.011284 -0.003343 0.000000 0.000000 0.000000
# 3 -0.004145 -0.003343 0.014181 0.000000 0.000000 0.000000
# 4 0.000000 0.000000 0.000000 0.038281 0.000000 0.000000
# 5 0.000000 0.000000 0.000000 0.000000 0.020560 0.000000
# 6 0.000000 0.000000 0.000000 0.000000 0.000000 0.030782
#
#
# Mechanical properties :
#
#
# Convention : Reuss Voigt Hill
#
# Bulk Modulus (GPa) = 67.05516 68.96884 68.01200
# Shear Modulus (GPa) = 33.18158 34.91845 34.05001
#
# Velocity S-wave (km/s) = 3.87991 3.98017 3.93036
# Velocity P-wave (km/s) = 7.10585 7.23961 7.17304
#
# Compressibility (1/GPa) = 0.01491309
#
# Stress axis : x y z
#
# Youngs Moduli (GPa) = 99.62486 88.62453 70.51446
#
# Poissons Ratio (x) = 0.24875 0.29229
# Poissons Ratio (y) = 0.27963 0.23573
# Poissons Ratio (z) = 0.41295 0.29627
#
# Static dielectric constant tensor:
#      x y z
#    x 4.157940 0.000000 0.000000 
#    y 0.000000 3.910800 0.000000 
#    z 0.000000 0.000000 3.933050 
# 
# 
# High freq. dielectric constant tensor:
#      x y z
#    x 1.883230 0.000000 0.000000 
#    y 0.000000 1.860700 0.000000 
#    z 0.000000 0.000000 1.867930 
# 
# From -- ./inp_files/21757.got.cif
#   From: 2010.03.12/outbox.cif.g09.slc.cpg/sg60_11_cif.got.tgz:21757.got - 2010.04.10 18:46:24.
