data_PCOD8248406
_publ_section_title
;
Structure prediction by ZEFSAII (Michael W. Deem and Ramdas Pophale) SiO2 
 PCOD8248406
Probable space group: P B C N
;
_chemical_formula_sum "Si O2"
_cell_formula_units_Z 32
_cell_length_a 5.371954
_cell_length_b 35.855848
_cell_length_c 7.436119
_cell_angle_alpha 90.000000
_cell_angle_beta 90.000000
_cell_angle_gamma 90.000000
_cell_volume 1432.315245
_symmetry_space_group_name_H-M "P B C N"
_symmetry_group_IT_number 60
_symmetry_cell_setting 'orthorhombic'
loop_
_space_group_symop_operation_xyz
x,y,z
1/2-x,1/2-y,1/2+z
1/2+x,1/2-y,-z
-x,y,1/2-z
-x,-y,-z
1/2+x,1/2+y,1/2-z
1/2-x,1/2+y,z
x,-y,1/2+z
loop_
_atom_site_type_symbol
_atom_site_label
_atom_site_fract_x
_atom_site_fract_y
_atom_site_fract_z
Si Si1 0.000000 0.358533 0.750000
Si Si2 0.500000 0.729298 0.750000
Si Si3 0.303937 0.707500 0.102753
Si Si4 0.449841 0.916422 0.054292
Si Si5 0.963434 0.042990 0.457965
O O1 0.786011 0.332473 0.828497
O O2 0.902511 0.383713 0.587822
O O3 0.377387 0.757098 0.604968
O O4 0.635881 0.701743 0.609382
O O5 0.500000 0.720679 0.250000
O O6 0.500000 0.898804 0.250000
O O7 0.187696 0.938038 0.068394
O O8 0.684820 0.943055 0.006142
O O9 0.000000 0.051916 0.250000
O O10 0.000000 0.000000 0.500000
#
# Coordination Sequence:
#
# PCOD8248406 Si02
#       5
#     4   4   8   8   8
#     4  11  28  46  66 104 144 194 226 290 366 442
#     4  11  22  44  70 102 134 178 228 300 334 424
#     4  11  24  42  72 101 141 176 236 283 364 417
#     4  12  26  48  72 104 151 190 242 299 362 432
#     4  12  24  46  75 108 143 189 246 305 359 425
#
# _framework density 22.341450999999999
#
# number of rings (size 3 to 8) (size 9 to 14) (size 15 to 20)
#    0.000    0.500    5.000    3.000    3.500    2.000 
#    0.000    0.000    0.000    0.000    0.000    0.000 
#    0.000    0.000    0.000    0.000    0.000    0.000 
#
# Total GULP energy -396427.647077 kJ/mol
# GULP energy per Si atom -12388.363971 kJ/mol
# Density = 2.229060 g / cm^3
# Si number density = 22.341451 Si / 1000 Ang^3
#
#
#
# Elastic Constant Matrix: (Units=GPa)
#
#
# Indices 1 2 3 4 5 6 
#
# 1 111.1662 36.4009 22.8622 0.0000 0.0000 0.0000
# 2 36.4009 124.7188 51.6841 0.0000 0.0000 0.0000
# 3 22.8622 51.6841 178.7338 0.0000 0.0000 0.0000
# 4 0.0000 0.0000 0.0000 38.0589 0.0000 0.0000
# 5 0.0000 0.0000 0.0000 0.0000 40.4081 0.0000
# 6 0.0000 0.0000 0.0000 0.0000 0.0000 -16.5780
#
#
#
# Elastic Compliance Matrix: (Units=1/GPa)
#
#
# Indices 1 2 3 4 5 6 
#
# 1 0.009984 -0.002709 -0.000494 0.000000 0.000000 0.000000
# 2 -0.002709 0.009845 -0.002500 0.000000 0.000000 0.000000
# 3 -0.000494 -0.002500 0.006381 0.000000 0.000000 0.000000
# 4 0.000000 0.000000 0.000000 0.026275 0.000000 0.000000
# 5 0.000000 0.000000 0.000000 0.000000 0.024748 0.000000
# 6 0.000000 0.000000 0.000000 0.000000 0.000000 -0.060321
#
#
# Mechanical properties :
#
#
# Convention : Reuss Voigt Hill
#
# Bulk Modulus (GPa) = 67.55144 70.72369 69.13757
# Shear Modulus (GPa) = 150.36063 32.62255 91.49159
#
# Velocity S-wave (km/s) = 8.21263 3.82538 6.40628
# Velocity P-wave (km/s) = 10.96500 7.15792 9.25924
#
# Compressibility (1/GPa) = 0.01480353
#
# Stress axis : x y z
#
# Youngs Moduli (GPa) = 100.15758 101.57473 156.71403
#
# Poissons Ratio (x) = 0.27522 0.07736
# Poissons Ratio (y) = 0.27138 0.39183
# Poissons Ratio (z) = 0.04944 0.25396
#
# Static dielectric constant tensor:
#      x y z
#    x 4.113410 0.000000 0.000000 
#    y 0.000000 4.055290 0.000000 
#    z 0.000000 0.000000 4.092600 
# 
# 
# High freq. dielectric constant tensor:
#      x y z
#    x 1.881230 0.000000 0.000000 
#    y 0.000000 1.873840 0.000000 
#    z 0.000000 0.000000 1.909550 
# 
# From -- ./inp_files/3144.got.cif
#   From: 2010.03.12/outbox.cif.g09.slc.cpg/sg60_2_cif.got.tgz:3144.got - 2010.04.10 18:46:24.
