data_PCOD8248069
_publ_section_title
;
Structure prediction by ZEFSAII (Michael W. Deem and Ramdas Pophale) SiO2 
 PCOD8248069
Probable space group: P B C N
;
_chemical_formula_sum "Si O2"
_cell_formula_units_Z 60
_cell_length_a 24.795480
_cell_length_b 8.707911
_cell_length_c 12.066191
_cell_angle_alpha 90.000000
_cell_angle_beta 90.000000
_cell_angle_gamma 90.000000
_cell_volume 2605.293748
_symmetry_space_group_name_H-M "P B C N"
_symmetry_group_IT_number 60
_symmetry_cell_setting 'orthorhombic'
loop_
_space_group_symop_operation_xyz
x,y,z
1/2-x,1/2-y,1/2+z
1/2+x,1/2-y,-z
-x,y,1/2-z
-x,-y,-z
1/2+x,1/2+y,1/2-z
1/2-x,1/2+y,z
x,-y,1/2+z
loop_
_atom_site_type_symbol
_atom_site_label
_atom_site_fract_x
_atom_site_fract_y
_atom_site_fract_z
Si Si1 0.887535 0.099857 0.300044
Si Si2 0.678034 0.236086 0.973891
Si Si3 0.056107 0.199689 0.689169
Si Si4 0.151359 0.640718 0.284048
Si Si5 0.500000 0.708508 0.250000
Si Si6 0.967178 0.646086 0.534733
Si Si7 0.214405 0.610805 0.073453
Si Si8 0.648841 0.820426 0.125811
O O1 0.875237 0.202756 0.408879
O O2 0.851513 0.163356 0.197675
O O3 0.947485 0.107696 0.252147
O O4 0.891357 0.917207 0.318867
O O5 0.721552 0.365016 0.936923
O O6 0.697147 0.067343 0.936661
O O7 0.664796 0.237814 0.104767
O O8 0.087659 0.340903 0.749511
O O9 0.036407 0.232877 0.565050
O O10 0.000000 0.154080 0.750000
O O11 0.192149 0.688732 0.185590
O O12 0.166026 0.461398 0.296735
O O13 0.497044 0.802548 0.137346
O O14 0.906636 0.615093 0.574080
O O15 0.000000 0.500000 0.500000
O O16 0.190628 0.710164 0.971960
#
# Coordination Sequence:
#
# PCOD8248069 Si02
#       8
#     8   8   8   8   4   8   8   8
#     4  11  25  48  68 102 146 194 239 299 364 434
#     4  11  28  44  77 103 142 188 242 304 371 438
#     4  12  27  45  72 108 149 193 247 303 365 441
#     4  11  25  47  73 106 143 186 242 299 364 445
#     4  10  26  44  68  98 150 194 232 296 370 430
#     4  11  25  40  72 105 142 187 243 297 353 436
#     4  11  25  47  72 108 140 187 240 306 368 445
#     4  10  23  46  70  97 141 186 235 295 361 431
#
# _framework density 23.030035000000002
#
# number of rings (size 3 to 8) (size 9 to 14) (size 15 to 20)
#    0.000    1.067    3.333    0.800   14.000    3.733 
#    0.000    0.000    0.000    0.000    0.000    0.000 
#    0.000    0.000    0.000    0.000    0.000    0.000 
#
# Total GULP energy -743304.283936 kJ/mol
# GULP energy per Si atom -12388.404732 kJ/mol
# Density = 2.297762 g / cm^3
# Si number density = 23.030035 Si / 1000 Ang^3
#
#
#
# Elastic Constant Matrix: (Units=GPa)
#
#
# Indices 1 2 3 4 5 6 
#
# 1 52.6120 20.6074 45.1081 0.0000 0.0000 0.0000
# 2 20.6074 73.4488 48.3576 0.0000 0.0000 0.0000
# 3 45.1081 48.3576 178.4161 0.0000 0.0000 0.0000
# 4 0.0000 0.0000 0.0000 31.0360 0.0000 0.0000
# 5 0.0000 0.0000 0.0000 0.0000 40.2313 0.0000
# 6 0.0000 0.0000 0.0000 0.0000 0.0000 37.5419
#
#
#
# Elastic Compliance Matrix: (Units=1/GPa)
#
#
# Indices 1 2 3 4 5 6 
#
# 1 0.024973 -0.003469 -0.005374 0.000000 0.000000 0.000000
# 2 -0.003469 0.017054 -0.003745 0.000000 0.000000 0.000000
# 3 -0.005374 -0.003745 0.007979 0.000000 0.000000 0.000000
# 4 0.000000 0.000000 0.000000 0.032221 0.000000 0.000000
# 5 0.000000 0.000000 0.000000 0.000000 0.024856 0.000000
# 6 0.000000 0.000000 0.000000 0.000000 0.000000 0.026637
#
#
# Mechanical properties :
#
#
# Convention : Reuss Voigt Hill
#
# Bulk Modulus (GPa) = 40.27348 59.18033 49.72690
# Shear Modulus (GPa) = 29.90944 34.45543 32.18244
#
# Velocity S-wave (km/s) = 3.60768 3.87215 3.74225
# Velocity P-wave (km/s) = 5.90585 6.76345 6.34915
#
# Compressibility (1/GPa) = 0.02483024
#
# Stress axis : x y z
#
# Youngs Moduli (GPa) = 40.04339 58.63739 125.33552
#
# Poissons Ratio (x) = 0.20339 0.67351
# Poissons Ratio (y) = 0.13890 0.46942
# Poissons Ratio (z) = 0.21518 0.21962
#
# Static dielectric constant tensor:
#      x y z
#    x 5.463210 0.000000 0.000000 
#    y 0.000000 2.948730 0.000000 
#    z 0.000000 0.000000 4.796130 
# 
# 
# High freq. dielectric constant tensor:
#      x y z
#    x 1.909000 0.000000 0.000000 
#    y 0.000000 1.896730 0.000000 
#    z 0.000000 0.000000 1.928140 
# 
# From -- ./inp_files/13288.got.cif
#   From: 2010.03.12/outbox.cif.g09.slc.cpg/sg60_7_cif.got.tgz:13288.got - 2010.04.10 18:46:24.
