data_PCOD8248497
_publ_section_title
;
Structure prediction by ZEFSAII (Michael W. Deem and Ramdas Pophale) SiO2 
 PCOD8248497
Probable space group: P B C N
;
_chemical_formula_sum "Si O2"
_cell_formula_units_Z 48
_cell_length_a 26.556292
_cell_length_b 9.559880
_cell_length_c 8.522205
_cell_angle_alpha 90.000000
_cell_angle_beta 90.000000
_cell_angle_gamma 90.000000
_cell_volume 2163.574494
_symmetry_space_group_name_H-M "P B C N"
_symmetry_group_IT_number 60
_symmetry_cell_setting 'orthorhombic'
loop_
_space_group_symop_operation_xyz
x,y,z
1/2-x,1/2-y,1/2+z
1/2+x,1/2-y,-z
-x,y,1/2-z
-x,-y,-z
1/2+x,1/2+y,1/2-z
1/2-x,1/2+y,z
x,-y,1/2+z
loop_
_atom_site_type_symbol
_atom_site_label
_atom_site_fract_x
_atom_site_fract_y
_atom_site_fract_z
Si Si1 0.892037 0.649255 0.706956
Si Si2 0.223888 0.931150 0.957609
Si Si3 0.054758 0.146901 0.800797
Si Si4 0.277581 0.840526 0.268064
Si Si5 0.946405 0.572146 0.016517
Si Si6 0.890844 0.922692 0.511058
O O1 0.835322 0.616554 0.760040
O O2 0.930386 0.634970 0.850256
O O3 0.905645 0.541620 0.569317
O O4 0.897776 0.805949 0.643797
O O5 0.226188 0.821854 0.814479
O O6 0.254228 0.068570 0.909007
O O7 0.247442 0.860230 0.109447
O O8 0.166766 0.973240 0.998898
O O9 0.093638 0.137581 0.657331
O O10 0.000000 0.091767 0.750000
O O11 0.050775 0.306994 0.853866
O O12 0.074482 0.054208 0.945277
O O13 0.000000 0.500000 0.000000
#
# Coordination Sequence:
#
# PCOD8248497 Si02
#       6
#     8   8   8   8   8   8
#     4  11  24  42  64  95 129 167 214 263 319 381
#     4  11  24  42  65  95 130 169 217 266 320 382
#     4  12  25  43  67  95 129 170 213 265 323 384
#     4  11  24  41  65  93 128 169 212 264 319 379
#     4  12  25  43  67  95 129 169 213 265 321 384
#     4  11  25  43  66  97 129 168 217 267 319 382
#
# _framework density 22.185507000000001
#
# number of rings (size 3 to 8) (size 9 to 14) (size 15 to 20)
#    0.000    0.667    0.000    8.000    0.000   12.000 
#    0.000    0.000    0.000    0.000    0.000    0.000 
#    0.000    0.000    0.000    0.000    0.000    0.000 
#
# Total GULP energy -595682.099993 kJ/mol
# GULP energy per Si atom -12410.043750 kJ/mol
# Density = 2.213501 g / cm^3
# Si number density = 22.185507 Si / 1000 Ang^3
#
#
#
# Elastic Constant Matrix: (Units=GPa)
#
#
# Indices 1 2 3 4 5 6 
#
# 1 126.7786 51.1439 26.2590 0.0000 0.0000 0.0000
# 2 51.1439 81.9410 2.7707 0.0000 0.0000 0.0000
# 3 26.2590 2.7707 78.9021 0.0000 0.0000 0.0000
# 4 0.0000 0.0000 0.0000 38.0318 0.0000 0.0000
# 5 0.0000 0.0000 0.0000 0.0000 46.3474 0.0000
# 6 0.0000 0.0000 0.0000 0.0000 0.0000 34.2439
#
#
#
# Elastic Compliance Matrix: (Units=1/GPa)
#
#
# Indices 1 2 3 4 5 6 
#
# 1 0.011465 -0.007035 -0.003569 0.000000 0.000000 0.000000
# 2 -0.007035 0.016535 0.001761 0.000000 0.000000 0.000000
# 3 -0.003569 0.001761 0.013800 0.000000 0.000000 0.000000
# 4 0.000000 0.000000 0.000000 0.026294 0.000000 0.000000
# 5 0.000000 0.000000 0.000000 0.000000 0.021576 0.000000
# 6 0.000000 0.000000 0.000000 0.000000 0.000000 0.029202
#
#
# Mechanical properties :
#
#
# Convention : Reuss Voigt Hill
#
# Bulk Modulus (GPa) = 41.46972 49.77434 45.62203
# Shear Modulus (GPa) = 34.57893 37.55450 36.06671
#
# Velocity S-wave (km/s) = 3.95223 4.11877 4.03636
# Velocity P-wave (km/s) = 6.28965 6.71589 6.50626
#
# Compressibility (1/GPa) = 0.02411398
#
# Stress axis : x y z
#
# Youngs Moduli (GPa) = 87.22183 60.47602 72.46507
#
# Poissons Ratio (x) = 0.42547 0.25860
# Poissons Ratio (y) = 0.61363 -0.12759
# Poissons Ratio (z) = 0.31126 -0.10648
#
# Static dielectric constant tensor:
#      x y z
#    x 4.119790 0.000000 0.000000 
#    y 0.000000 4.140030 0.000000 
#    z 0.000000 0.000000 3.403980 
# 
# 
# High freq. dielectric constant tensor:
#      x y z
#    x 1.887140 0.000000 0.000000 
#    y 0.000000 1.881450 0.000000 
#    z 0.000000 0.000000 1.884830 
# 
# From -- ./inp_files/8402.got.cif
#   From: 2010.03.12/outbox.cif.g09.slc.cpg/sg60_5_cif.got.tgz:8402.got - 2010.04.10 18:46:24.
