data_PCOD8248765
_publ_section_title
;
Structure prediction by ZEFSAII (Michael W. Deem and Ramdas Pophale) SiO2 
 PCOD8248765
Probable space group: P B C A
;
_chemical_formula_sum "Si O2"
_cell_formula_units_Z 56
_cell_length_a 8.983212
_cell_length_b 18.633943
_cell_length_c 14.931724
_cell_angle_alpha 90.000000
_cell_angle_beta 90.000000
_cell_angle_gamma 90.000000
_cell_volume 2499.461004
_symmetry_space_group_name_H-M "P B C A"
_symmetry_group_IT_number 61
_symmetry_cell_setting 'orthorhombic'
loop_
_space_group_symop_operation_xyz
x,y,z
1/2-x,-y,1/2+z
1/2+x,1/2-y,-z
-x,1/2+y,1/2-z
-x,-y,-z
1/2+x,y,1/2-z
1/2-x,1/2+y,z
x,1/2-y,1/2+z
loop_
_atom_site_type_symbol
_atom_site_label
_atom_site_fract_x
_atom_site_fract_y
_atom_site_fract_z
Si Si1 0.185218 0.380744 0.530038
Si Si2 0.396830 0.177122 0.162581
Si Si3 0.750453 0.817366 0.289372
Si Si4 0.234457 0.480544 0.364759
Si Si5 0.891382 0.370999 0.637238
Si Si6 0.191220 0.243903 0.896852
Si Si7 0.501244 0.587954 0.735604
O O1 0.328998 0.381857 0.595516
O O2 0.204581 0.444618 0.460148
O O3 0.172371 0.302029 0.486103
O O4 0.039712 0.396621 0.588043
O O5 0.268677 0.239014 0.168936
O O6 0.429033 0.143152 0.258889
O O7 0.546058 0.209978 0.123832
O O8 0.772659 0.812796 0.181618
O O9 0.602998 0.865423 0.304285
O O10 0.899117 0.857619 0.325215
O O11 0.231217 0.566435 0.374433
O O12 0.398177 0.459917 0.329544
O O13 0.105924 0.461780 0.293707
O O14 0.827643 0.299168 0.591262
#
# Coordination Sequence:
#
# PCOD8248765 Si02
#       7
#     8   8   8   8   8   8   8
#     4  12  24  44  70 100 137 181 236 289 346 413
#     4  11  24  39  69 101 139 179 230 282 350 406
#     4  10  18  38  64 101 133 174 224 278 340 411
#     4  11  25  44  70 102 137 185 233 284 349 417
#     4  11  26  44  69  98 145 181 228 290 349 419
#     4  11  22  41  64 100 133 175 232 283 342 401
#     4  10  20  38  69  96 142 175 232 272 352 412
#
# _framework density 22.404831999999999
#
# number of rings (size 3 to 8) (size 9 to 14) (size 15 to 20)
#    0.000    1.143    4.286    3.000    6.000    1.143 
#    0.000    2.143    0.000    0.000    0.000    0.000 
#    0.000    0.000    0.000    0.000    0.000    0.000 
#
# Total GULP energy -694585.209874 kJ/mol
# GULP energy per Si atom -12403.307319 kJ/mol
# Density = 2.235384 g / cm^3
# Si number density = 22.404832 Si / 1000 Ang^3
#
#
#
# Elastic Constant Matrix: (Units=GPa)
#
#
# Indices 1 2 3 4 5 6 
#
# 1 92.1672 3.5660 16.9045 0.0000 0.0000 0.0000
# 2 3.5660 64.3083 14.5741 0.0000 0.0000 0.0000
# 3 16.9045 14.5741 86.5163 0.0000 0.0000 0.0000
# 4 0.0000 0.0000 0.0000 13.5887 0.0000 0.0000
# 5 0.0000 0.0000 0.0000 0.0000 28.3768 0.0000
# 6 0.0000 0.0000 0.0000 0.0000 0.0000 30.4124
#
#
#
# Elastic Compliance Matrix: (Units=1/GPa)
#
#
# Indices 1 2 3 4 5 6 
#
# 1 0.011254 -0.000131 -0.002177 0.000000 0.000000 0.000000
# 2 -0.000131 0.016169 -0.002698 0.000000 0.000000 0.000000
# 3 -0.002177 -0.002698 0.012438 0.000000 0.000000 0.000000
# 4 0.000000 0.000000 0.000000 0.073590 0.000000 0.000000
# 5 0.000000 0.000000 0.000000 0.000000 0.035240 0.000000
# 6 0.000000 0.000000 0.000000 0.000000 0.000000 0.032881
#
#
# Mechanical properties :
#
#
# Convention : Reuss Voigt Hill
#
# Bulk Modulus (GPa) = 33.50115 34.78678 34.14396
# Shear Modulus (GPa) = 24.80962 28.33875 26.57419
#
# Velocity S-wave (km/s) = 3.33127 3.56033 3.44770
# Velocity P-wave (km/s) = 5.45725 5.69749 5.57867
#
# Compressibility (1/GPa) = 0.02984973
#
# Stress axis : x y z
#
# Youngs Moduli (GPa) = 88.85588 61.84741 80.39626
#
# Poissons Ratio (x) = 0.00808 0.17502
# Poissons Ratio (y) = 0.01161 0.21692
# Poissons Ratio (z) = 0.19343 0.16688
#
# Static dielectric constant tensor:
#      x y z
#    x 4.080350 0.000000 0.000000 
#    y 0.000000 4.074280 0.000000 
#    z 0.000000 0.000000 3.810420 
# 
# 
# High freq. dielectric constant tensor:
#      x y z
#    x 1.894260 0.000000 0.000000 
#    y 0.000000 1.886020 0.000000 
#    z 0.000000 0.000000 1.860210 
# 
# From -- ./inp_files/7173.got.cif
#   From: 2010.03.12/outbox.cif.g09.slc.cpg/sg61_4_cif.got.tgz:7173.got - 2010.04.10 19:05:03.
