data_PCOD8248782
_publ_section_title
;
Structure prediction by ZEFSAII (Michael W. Deem and Ramdas Pophale) SiO2 
 PCOD8248782
Probable space group: P B C A
;
_chemical_formula_sum "Si O2"
_cell_formula_units_Z 48
_cell_length_a 24.990567
_cell_length_b 20.903856
_cell_length_c 5.075325
_cell_angle_alpha 90.000000
_cell_angle_beta 90.000000
_cell_angle_gamma 90.000000
_cell_volume 2651.345790
_symmetry_space_group_name_H-M "P B C A"
_symmetry_group_IT_number 61
_symmetry_cell_setting 'orthorhombic'
loop_
_space_group_symop_operation_xyz
x,y,z
1/2-x,-y,1/2+z
1/2+x,1/2-y,-z
-x,1/2+y,1/2-z
-x,-y,-z
1/2+x,y,1/2-z
1/2-x,1/2+y,z
x,1/2-y,1/2+z
loop_
_atom_site_type_symbol
_atom_site_label
_atom_site_fract_x
_atom_site_fract_y
_atom_site_fract_z
Si Si1 0.921114 0.793233 0.134378
Si Si2 0.837254 0.904745 0.065629
Si Si3 0.964316 0.290022 0.467411
Si Si4 0.184950 0.025310 0.446523
Si Si5 0.772557 0.405217 0.285525
Si Si6 0.650430 0.793246 0.367686
O O1 0.914336 0.763896 0.424322
O O2 0.876817 0.846082 0.091733
O O3 0.980105 0.826575 0.100600
O O4 0.848666 0.959284 0.288368
O O5 0.776366 0.878504 0.105632
O O6 0.845037 0.936511 0.783477
O O7 0.964302 0.272699 0.776769
O O8 0.908621 0.326353 0.399586
O O9 0.246682 0.051096 0.480115
O O10 0.187589 0.949792 0.386901
O O11 0.805160 0.347199 0.411621
O O12 0.657678 0.736947 0.579528
#
# Coordination Sequence:
#
# PCOD8248782 Si02
#       6
#     8   8   8   8   8   8
#     4  10  19  32  52  73 103 137 161 203 259 302
#     4  10  20  32  49  76  99 128 172 209 232 298
#     4   8  16  33  49  69  97 132 170 193 241 310
#     4  10  20  35  51  72  95 139 176 193 239 300
#     4  10  21  35  55  69 105 135 169 200 247 297
#     4  10  22  33  52  79 102 128 162 212 254 289
#
# _framework density 18.104012000000001
#
# number of rings (size 3 to 8) (size 9 to 14) (size 15 to 20)
#    1.000    1.333    1.667    1.000    2.333    1.333 
#    0.000    0.000    0.000    2.000    0.000    0.000 
#    0.000    0.000    0.000    0.000    0.000    0.000 
#
# Total GULP energy -594646.755466 kJ/mol
# GULP energy per Si atom -12388.474072 kJ/mol
# Density = 1.806281 g / cm^3
# Si number density = 18.104012 Si / 1000 Ang^3
#
#
#
# Elastic Constant Matrix: (Units=GPa)
#
#
# Indices 1 2 3 4 5 6 
#
# 1 69.7634 30.8812 2.1655 0.0000 0.0000 0.0000
# 2 30.8812 49.3925 5.0869 0.0000 0.0000 0.0000
# 3 2.1655 5.0869 85.8669 0.0000 0.0000 0.0000
# 4 0.0000 0.0000 0.0000 19.5702 0.0000 0.0000
# 5 0.0000 0.0000 0.0000 0.0000 21.2890 0.0000
# 6 0.0000 0.0000 0.0000 0.0000 0.0000 -4.3865
#
#
#
# Elastic Compliance Matrix: (Units=1/GPa)
#
#
# Indices 1 2 3 4 5 6 
#
# 1 0.019824 -0.012419 0.000236 0.000000 0.000000 0.000000
# 2 -0.012419 0.028150 -0.001354 0.000000 0.000000 0.000000
# 3 0.000236 -0.001354 0.011720 0.000000 0.000000 0.000000
# 4 0.000000 0.000000 0.000000 0.051098 0.000000 0.000000
# 5 0.000000 0.000000 0.000000 0.000000 0.046973 0.000000
# 6 0.000000 0.000000 0.000000 0.000000 0.000000 -0.227970
#
#
# Mechanical properties :
#
#
# Convention : Reuss Voigt Hill
#
# Bulk Modulus (GPa) = 30.65658 31.25443 30.95550
# Shear Modulus (GPa) = -155.00373 18.42049 -68.29162
#
# Velocity S-wave (km/s) = -9.26306 3.19326 -6.14847
# Velocity P-wave (km/s) = 9.87094 5.55852 5.76794
#
# Compressibility (1/GPa) = 0.03261943
#
# Stress axis : x y z
#
# Youngs Moduli (GPa) = 50.44380 35.52411 85.32257
#
# Poissons Ratio (x) = 0.44116 -0.02012
# Poissons Ratio (y) = 0.62645 0.11557
# Poissons Ratio (z) = -0.01189 0.04812
#
# Static dielectric constant tensor:
#      x y z
#    x 3.434140 0.000000 0.000000 
#    y 0.000000 2.787300 0.000000 
#    z 0.000000 0.000000 3.470170 
# 
# 
# High freq. dielectric constant tensor:
#      x y z
#    x 1.691970 0.000000 0.000000 
#    y 0.000000 1.648700 0.000000 
#    z 0.000000 0.000000 1.722050 
# 
# From -- ./inp_files/1184.got.cif
#   From: 2010.03.12/outbox.cif.g09.slc.cpg/sg61_1_cif.got.tgz:1184.got - 2010.04.10 19:05:03.
