data_PCOD8248454
_publ_section_title
;
Structure prediction by ZEFSAII (Michael W. Deem and Ramdas Pophale) SiO2 
 PCOD8248454
Probable space group: P B C N
;
_chemical_formula_sum "Si O2"
_cell_formula_units_Z 48
_cell_length_a 13.307817
_cell_length_b 9.622414
_cell_length_c 16.523795
_cell_angle_alpha 90.000000
_cell_angle_beta 90.000000
_cell_angle_gamma 90.000000
_cell_volume 2115.926885
_symmetry_space_group_name_H-M "P B C N"
_symmetry_group_IT_number 60
_symmetry_cell_setting 'orthorhombic'
loop_
_space_group_symop_operation_xyz
x,y,z
1/2-x,1/2-y,1/2+z
1/2+x,1/2-y,-z
-x,y,1/2-z
-x,-y,-z
1/2+x,1/2+y,1/2-z
1/2-x,1/2+y,z
x,-y,1/2+z
loop_
_atom_site_type_symbol
_atom_site_label
_atom_site_fract_x
_atom_site_fract_y
_atom_site_fract_z
Si Si1 0.768724 0.091361 0.551112
Si Si2 0.973880 0.839561 0.124279
Si Si3 0.000000 0.399149 0.750000
Si Si4 0.808869 0.173766 0.953661
Si Si5 0.296464 0.961196 0.276403
Si Si6 0.500000 0.430904 0.750000
Si Si7 0.811050 0.804811 0.808209
O O1 0.879757 0.159220 0.563038
O O2 0.691156 0.214835 0.527164
O O3 0.726146 0.011329 0.629891
O O4 0.769792 0.976745 0.480460
O O5 0.983638 0.694672 0.171031
O O6 0.079289 0.855103 0.078214
O O7 0.947253 0.966986 0.184903
O O8 0.906785 0.501557 0.754319
O O9 0.728759 0.242074 0.891780
O O10 0.274310 0.798336 0.262779
O O11 0.227659 0.042620 0.212950
O O12 0.430491 0.327260 0.697042
#
# Coordination Sequence:
#
# PCOD8248454 Si02
#       7
#     8   8   4   8   8   4   8
#     4  12  26  46  70 105 147 191 236 295 371 436
#     4  11  23  44  73 103 142 193 238 294 362 432
#     4  11  23  42  72 106 132 182 244 308 348 414
#     4  12  26  45  71 106 149 188 236 302 365 435
#     4  12  24  46  72 102 140 185 243 294 354 428
#     4  11  23  42  78 108 132 184 258 298 348 430
#     4  12  24  45  73 105 139 187 242 299 352 427
#
# _framework density 22.685095
#
# number of rings (size 3 to 8) (size 9 to 14) (size 15 to 20)
#    0.000    0.333    3.333    7.000    0.000    0.000 
#    3.000    1.667    0.000    0.000    0.000    0.000 
#    0.000    0.000    0.000    0.000    0.000    0.000 
#
# Total GULP energy -595043.421991 kJ/mol
# GULP energy per Si atom -12396.737958 kJ/mol
# Density = 2.263346 g / cm^3
# Si number density = 22.685095 Si / 1000 Ang^3
#
#
#
# Elastic Constant Matrix: (Units=GPa)
#
#
# Indices 1 2 3 4 5 6 
#
# 1 97.2697 25.9332 32.1354 0.0000 0.0000 0.0000
# 2 25.9332 91.2194 15.0164 0.0000 0.0000 0.0000
# 3 32.1354 15.0164 79.7655 0.0000 0.0000 0.0000
# 4 0.0000 0.0000 0.0000 37.2050 0.0000 0.0000
# 5 0.0000 0.0000 0.0000 0.0000 39.9777 0.0000
# 6 0.0000 0.0000 0.0000 0.0000 0.0000 32.3422
#
#
#
# Elastic Compliance Matrix: (Units=1/GPa)
#
#
# Indices 1 2 3 4 5 6 
#
# 1 0.012523 -0.002817 -0.004515 0.000000 0.000000 0.000000
# 2 -0.002817 0.011947 -0.001114 0.000000 0.000000 0.000000
# 3 -0.004515 -0.001114 0.014565 0.000000 0.000000 0.000000
# 4 0.000000 0.000000 0.000000 0.026878 0.000000 0.000000
# 5 0.000000 0.000000 0.000000 0.000000 0.025014 0.000000
# 6 0.000000 0.000000 0.000000 0.000000 0.000000 0.030919
#
#
# Mechanical properties :
#
#
# Convention : Reuss Voigt Hill
#
# Bulk Modulus (GPa) = 45.16048 46.04718 45.60383
# Shear Modulus (GPa) = 34.21828 34.91629 34.56729
#
# Velocity S-wave (km/s) = 3.88803 3.92749 3.90781
# Velocity P-wave (km/s) = 6.33297 6.39604 6.36458
#
# Compressibility (1/GPa) = 0.02214325
#
# Stress axis : x y z
#
# Youngs Moduli (GPa) = 79.85054 83.70391 68.65558
#
# Poissons Ratio (x) = 0.23580 0.30998
# Poissons Ratio (y) = 0.22495 0.07649
# Poissons Ratio (z) = 0.36053 0.09326
#
# Static dielectric constant tensor:
#      x y z
#    x 4.319080 0.000000 0.000000 
#    y 0.000000 4.244410 0.000000 
#    z 0.000000 0.000000 4.060860 
# 
# 
# High freq. dielectric constant tensor:
#      x y z
#    x 1.895720 0.000000 0.000000 
#    y 0.000000 1.911140 0.000000 
#    z 0.000000 0.000000 1.891640 
# 
# From -- ./inp_files/20539.got.cif
#   From: 2010.03.12/outbox.cif.g09.slc.cpg/sg60_11_cif.got.tgz:20539.got - 2010.04.10 18:46:24.
