data_PCOD8248292
_publ_section_title
;
Structure prediction by ZEFSAII (Michael W. Deem and Ramdas Pophale) SiO2 
 PCOD8248292
Probable space group: P B C N
;
_chemical_formula_sum "Si O2"
_cell_formula_units_Z 64
_cell_length_a 9.638048
_cell_length_b 21.468258
_cell_length_c 15.475504
_cell_angle_alpha 90.000000
_cell_angle_beta 90.000000
_cell_angle_gamma 90.000000
_cell_volume 3202.069048
_symmetry_space_group_name_H-M "P B C N"
_symmetry_group_IT_number 60
_symmetry_cell_setting 'orthorhombic'
loop_
_space_group_symop_operation_xyz
x,y,z
1/2-x,1/2-y,1/2+z
1/2+x,1/2-y,-z
-x,y,1/2-z
-x,-y,-z
1/2+x,1/2+y,1/2-z
1/2-x,1/2+y,z
x,-y,1/2+z
loop_
_atom_site_type_symbol
_atom_site_label
_atom_site_fract_x
_atom_site_fract_y
_atom_site_fract_z
Si Si1 0.706963 0.624892 0.085592
Si Si2 0.770617 0.621278 0.448396
Si Si3 0.520418 0.679203 0.525859
Si Si4 0.632477 0.188396 0.801190
Si Si5 0.608573 0.395016 0.323373
Si Si6 0.156663 0.013136 0.526059
Si Si7 0.840515 0.167717 0.267523
Si Si8 0.457879 0.816729 0.002811
O O1 0.735528 0.634292 0.186846
O O2 0.553217 0.646878 0.056756
O O3 0.727027 0.554459 0.050251
O O4 0.811523 0.670720 0.039307
O O5 0.683110 0.665639 0.512652
O O6 0.744126 0.549228 0.467510
O O7 0.730523 0.636554 0.350097
O O8 0.931036 0.631911 0.472466
O O9 0.472243 0.652933 0.616570
O O10 0.483849 0.751313 0.530214
O O11 0.500000 0.163596 0.750000
O O12 0.758475 0.140624 0.783952
O O13 0.679427 0.257598 0.771360
O O14 0.575049 0.188033 0.897258
O O15 0.500000 0.417625 0.250000
O O16 0.660398 0.453250 0.380454
O O17 0.000000 0.000000 0.500000
O O18 0.000000 0.150570 0.250000
#
# Coordination Sequence:
#
# PCOD8248292 Si02
#       8
#     8   8   8   8   8   8   8   8
#     4  11  23  42  66  92 136 175 216 281 325 392
#     4  12  24  39  71  97 126 183 225 263 334 401
#     4  11  20  42  65  95 128 170 224 265 333 394
#     4  11  23  41  64  96 137 170 213 279 347 398
#     4  11  25  41  64  99 127 168 222 283 324 387
#     4  11  22  45  67  93 129 177 234 266 320 403
#     4  11  21  41  66  99 127 171 228 273 329 397
#     4  12  24  41  65  98 140 170 212 279 346 398
#
# _framework density 19.987076999999999
#
# number of rings (size 3 to 8) (size 9 to 14) (size 15 to 20)
#    0.000    0.750    7.500    2.250    3.500    2.500 
#    0.000    0.000    0.000    0.000    0.000    0.000 
#    0.000    0.000    0.000    0.000    0.000    0.000 
#
# Total GULP energy -793542.558505 kJ/mol
# GULP energy per Si atom -12399.102477 kJ/mol
# Density = 1.994159 g / cm^3
# Si number density = 19.987077 Si / 1000 Ang^3
#
#
#
# Elastic Constant Matrix: (Units=GPa)
#
#
# Indices 1 2 3 4 5 6 
#
# 1 45.4956 24.8161 44.7044 0.0000 0.0000 0.0000
# 2 24.8161 124.6156 45.3541 0.0000 0.0000 0.0000
# 3 44.7044 45.3541 104.5772 0.0000 0.0000 0.0000
# 4 0.0000 0.0000 0.0000 27.4440 0.0000 0.0000
# 5 0.0000 0.0000 0.0000 0.0000 29.5461 0.0000
# 6 0.0000 0.0000 0.0000 0.0000 0.0000 148.0073
#
#
#
# Elastic Compliance Matrix: (Units=1/GPa)
#
#
# Indices 1 2 3 4 5 6 
#
# 1 0.038307 -0.001981 -0.015516 0.000000 0.000000 0.000000
# 2 -0.001981 0.009631 -0.003330 0.000000 0.000000 0.000000
# 3 -0.015516 -0.003330 0.017639 0.000000 0.000000 0.000000
# 4 0.000000 0.000000 0.000000 0.036438 0.000000 0.000000
# 5 0.000000 0.000000 0.000000 0.000000 0.033845 0.000000
# 6 0.000000 0.000000 0.000000 0.000000 0.000000 0.006756
#
#
# Mechanical properties :
#
#
# Convention : Reuss Voigt Hill
#
# Bulk Modulus (GPa) = 41.80128 56.04861 48.92495
# Shear Modulus (GPa) = 26.00822 51.65372 38.83097
#
# Velocity S-wave (km/s) = 3.61120 5.08917 4.41251
# Velocity P-wave (km/s) = 6.19252 7.91430 7.10575
#
# Compressibility (1/GPa) = 0.02392271
#
# Stress axis : x y z
#
# Youngs Moduli (GPa) = 26.10467 103.82923 56.69155
#
# Poissons Ratio (x) = 0.20573 0.87964
# Poissons Ratio (y) = 0.05172 0.18878
# Poissons Ratio (z) = 0.40505 0.34575
#
# Static dielectric constant tensor:
#      x y z
#    x 4.037570 0.000000 0.000000 
#    y 0.000000 3.662460 0.000000 
#    z 0.000000 0.000000 3.690230 
# 
# 
# High freq. dielectric constant tensor:
#      x y z
#    x 1.776280 0.000000 0.000000 
#    y 0.000000 1.776450 0.000000 
#    z 0.000000 0.000000 1.785460 
# 
# From -- ./inp_files/15431.got.cif
#   From: 2010.03.12/outbox.cif.g09.slc.cpg/sg60_8_cif.got.tgz:15431.got - 2010.04.10 18:46:24.
