data_PCOD8248518
_publ_section_title
;
Structure prediction by ZEFSAII (Michael W. Deem and Ramdas Pophale) SiO2 
 PCOD8248518
Probable space group: P B C N
;
_chemical_formula_sum "Si O2"
_cell_formula_units_Z 60
_cell_length_a 19.025578
_cell_length_b 8.370716
_cell_length_c 16.389793
_cell_angle_alpha 90.000000
_cell_angle_beta 90.000000
_cell_angle_gamma 90.000000
_cell_volume 2610.200903
_symmetry_space_group_name_H-M "P B C N"
_symmetry_group_IT_number 60
_symmetry_cell_setting 'orthorhombic'
loop_
_space_group_symop_operation_xyz
x,y,z
1/2-x,1/2-y,1/2+z
1/2+x,1/2-y,-z
-x,y,1/2-z
-x,-y,-z
1/2+x,1/2+y,1/2-z
1/2-x,1/2+y,z
x,-y,1/2+z
loop_
_atom_site_type_symbol
_atom_site_label
_atom_site_fract_x
_atom_site_fract_y
_atom_site_fract_z
Si Si1 0.805078 0.741168 0.532593
Si Si2 0.384554 0.234870 0.661830
Si Si3 0.537637 0.687152 0.624751
Si Si4 0.843763 0.898063 0.996950
Si Si5 0.215077 0.375840 0.295275
Si Si6 0.345649 0.204242 0.266945
Si Si7 0.500000 0.421300 0.750000
Si Si8 0.098170 0.609971 0.099568
O O1 0.722578 0.712436 0.517399
O O2 0.819789 0.714502 0.628083
O O3 0.855326 0.620880 0.482266
O O4 0.822955 0.919406 0.506801
O O5 0.366248 0.369614 0.596125
O O6 0.314088 0.189838 0.710001
O O7 0.435909 0.304970 0.730011
O O8 0.417141 0.076166 0.619073
O O9 0.589236 0.644257 0.551495
O O10 0.577668 0.791716 0.692892
O O11 0.512270 0.526010 0.668903
O O12 0.474272 0.792687 0.588741
O O13 0.300124 0.360826 0.290117
O O14 0.199829 0.561878 0.305385
O O15 0.355631 0.189836 0.170694
#
# Coordination Sequence:
#
# PCOD8248518 Si02
#       8
#     8   8   8   8   8   8   4   8
#     4  12  25  47  75 106 146 187 241 301 358 433
#     4  11  28  46  72 107 143 191 243 296 363 437
#     4  12  26  46  74 102 144 192 238 299 366 430
#     4  12  27  46  72 109 144 189 244 297 370 426
#     4  11  25  43  74 105 138 189 239 301 354 432
#     4  11  24  44  71 104 139 183 240 288 365 420
#     4  12  26  46  74 102 148 186 242 304 354 444
#     4  11  26  47  74 103 147 190 240 302 365 431
#
# _framework density 22.986736000000001
#
# number of rings (size 3 to 8) (size 9 to 14) (size 15 to 20)
#    0.000    0.533    2.667    4.000    7.467    5.867 
#    0.000    0.000    0.000    0.000    0.000    0.000 
#    0.000    0.000    0.000    0.000    0.000    0.000 
#
# Total GULP energy -744309.929495 kJ/mol
# GULP energy per Si atom -12405.165492 kJ/mol
# Density = 2.293442 g / cm^3
# Si number density = 22.986736 Si / 1000 Ang^3
#
#
#
# Elastic Constant Matrix: (Units=GPa)
#
#
# Indices 1 2 3 4 5 6 
#
# 1 124.0004 39.6859 29.1145 0.0000 0.0000 0.0000
# 2 39.6859 95.9321 17.1610 0.0000 0.0000 0.0000
# 3 29.1145 17.1610 98.1955 0.0000 0.0000 0.0000
# 4 0.0000 0.0000 0.0000 35.4233 0.0000 0.0000
# 5 0.0000 0.0000 0.0000 0.0000 40.4874 0.0000
# 6 0.0000 0.0000 0.0000 0.0000 0.0000 37.7469
#
#
#
# Elastic Compliance Matrix: (Units=1/GPa)
#
#
# Indices 1 2 3 4 5 6 
#
# 1 0.009757 -0.003632 -0.002258 0.000000 0.000000 0.000000
# 2 -0.003632 0.012113 -0.001040 0.000000 0.000000 0.000000
# 3 -0.002258 -0.001040 0.011035 0.000000 0.000000 0.000000
# 4 0.000000 0.000000 0.000000 0.028230 0.000000 0.000000
# 5 0.000000 0.000000 0.000000 0.000000 0.024699 0.000000
# 6 0.000000 0.000000 0.000000 0.000000 0.000000 0.026492
#
#
# Mechanical properties :
#
#
# Convention : Reuss Voigt Hill
#
# Bulk Modulus (GPa) = 52.50985 54.45009 53.47997
# Shear Modulus (GPa) = 37.72580 38.20932 37.96756
#
# Velocity S-wave (km/s) = 4.05557 4.08147 4.06854
# Velocity P-wave (km/s) = 6.69502 6.77866 6.73697
#
# Compressibility (1/GPa) = 0.01904405
#
# Stress axis : x y z
#
# Youngs Moduli (GPa) = 102.48784 82.55751 90.62054
#
# Poissons Ratio (x) = 0.29989 0.20463
# Poissons Ratio (y) = 0.37229 0.09423
# Poissons Ratio (z) = 0.23143 0.08585
#
# Static dielectric constant tensor:
#      x y z
#    x 4.225120 0.000000 0.000000 
#    y 0.000000 4.200620 0.000000 
#    z 0.000000 0.000000 4.226370 
# 
# 
# High freq. dielectric constant tensor:
#      x y z
#    x 1.914020 0.000000 0.000000 
#    y 0.000000 1.912280 0.000000 
#    z 0.000000 0.000000 1.919680 
# 
# From -- ./inp_files/20900.got.cif
#   From: 2010.03.12/outbox.cif.g09.slc.cpg/sg60_11_cif.got.tgz:20900.got - 2010.04.10 18:46:24.
