data_PCOD8248199
_publ_section_title
;
Structure prediction by ZEFSAII (Michael W. Deem and Ramdas Pophale) SiO2 
 PCOD8248199
Probable space group: P B C N
;
_chemical_formula_sum "Si O2"
_cell_formula_units_Z 48
_cell_length_a 5.103942
_cell_length_b 25.712816
_cell_length_c 14.850310
_cell_angle_alpha 90.000000
_cell_angle_beta 90.000000
_cell_angle_gamma 90.000000
_cell_volume 1948.905998
_symmetry_space_group_name_H-M "P B C N"
_symmetry_group_IT_number 60
_symmetry_cell_setting 'orthorhombic'
loop_
_space_group_symop_operation_xyz
x,y,z
1/2-x,1/2-y,1/2+z
1/2+x,1/2-y,-z
-x,y,1/2-z
-x,-y,-z
1/2+x,1/2+y,1/2-z
1/2-x,1/2+y,z
x,-y,1/2+z
loop_
_atom_site_type_symbol
_atom_site_label
_atom_site_fract_x
_atom_site_fract_y
_atom_site_fract_z
Si Si1 0.000000 0.013923 0.250000
Si Si2 0.000000 0.159581 0.750000
Si Si3 0.758019 0.767255 0.382602
Si Si4 0.353797 0.100722 0.335333
Si Si5 0.921524 0.926222 0.384913
Si Si6 0.763669 0.797143 0.582097
Si Si7 0.926372 0.559145 0.507398
O O1 0.200630 0.049343 0.305042
O O2 0.860068 0.976185 0.322098
O O3 0.777691 0.196825 0.793102
O O4 0.929811 0.120817 0.667927
O O5 0.787153 0.801294 0.473884
O O6 0.472954 0.742524 0.377290
O O7 0.979075 0.722535 0.385911
O O8 0.500000 0.125084 0.250000
O O9 0.172732 0.146155 0.376821
O O10 0.569222 0.085197 0.409406
O O11 0.126629 0.938812 0.462737
O O12 0.638275 0.911780 0.427408
O O13 0.000000 0.500000 0.500000
#
# Coordination Sequence:
#
# PCOD8248199 Si02
#       7
#     4   4   8   8   8   8   8
#     4  11  26  44  68 110 154 182 248 293 354 428
#     4  11  26  46  80 108 144 188 254 299 374 424
#     4  10  24  48  73 103 139 186 234 309 353 434
#     4  12  28  43  74 107 143 195 243 299 358 446
#     4  11  27  47  73 110 146 195 240 304 352 442
#     4  10  25  47  72 102 145 183 240 291 374 425
#     4  12  25  48  74 102 153 198 239 290 371 423
#
# _framework density 24.629201999999999
#
# number of rings (size 3 to 8) (size 9 to 14) (size 15 to 20)
#    0.000    1.000    1.667    2.500    5.833    9.333 
#    0.000    0.000    0.000    0.000    0.000    0.000 
#    0.000    0.000    0.000    0.000    0.000    0.000 
#
# Total GULP energy -595003.129032 kJ/mol
# GULP energy per Si atom -12395.898522 kJ/mol
# Density = 2.457315 g / cm^3
# Si number density = 24.629202 Si / 1000 Ang^3
#
#
#
# Elastic Constant Matrix: (Units=GPa)
#
#
# Indices 1 2 3 4 5 6 
#
# 1 72.5822 5.4468 16.0309 0.0000 0.0000 0.0000
# 2 5.4468 111.4116 55.8789 0.0000 0.0000 0.0000
# 3 16.0309 55.8789 122.3133 0.0000 0.0000 0.0000
# 4 0.0000 0.0000 0.0000 26.0467 0.0000 0.0000
# 5 0.0000 0.0000 0.0000 0.0000 34.3611 0.0000
# 6 0.0000 0.0000 0.0000 0.0000 0.0000 13.0762
#
#
#
# Elastic Compliance Matrix: (Units=1/GPa)
#
#
# Indices 1 2 3 4 5 6 
#
# 1 0.014196 0.000310 -0.002002 0.000000 0.000000 0.000000
# 2 0.000310 0.011650 -0.005363 0.000000 0.000000 0.000000
# 3 -0.002002 -0.005363 0.010888 0.000000 0.000000 0.000000
# 4 0.000000 0.000000 0.000000 0.038393 0.000000 0.000000
# 5 0.000000 0.000000 0.000000 0.000000 0.029103 0.000000
# 6 0.000000 0.000000 0.000000 0.000000 0.000000 0.076475
#
#
# Mechanical properties :
#
#
# Convention : Reuss Voigt Hill
#
# Bulk Modulus (GPa) = 44.19960 51.22447 47.71203
# Shear Modulus (GPa) = 24.70871 29.96015 27.33443
#
# Velocity S-wave (km/s) = 3.17081 3.49155 3.33504
# Velocity P-wave (km/s) = 5.60271 6.09081 5.85185
#
# Compressibility (1/GPa) = 0.02262464
#
# Stress axis : x y z
#
# Youngs Moduli (GPa) = 70.44007 85.83326 91.84127
#
# Poissons Ratio (x) = -0.02663 0.18390
# Poissons Ratio (y) = -0.02185 0.49256
# Poissons Ratio (z) = 0.14105 0.46034
#
# Static dielectric constant tensor:
#      x y z
#    x 3.841080 0.000000 0.000000 
#    y 0.000000 4.541050 0.000000 
#    z 0.000000 0.000000 4.808850 
# 
# 
# High freq. dielectric constant tensor:
#      x y z
#    x 1.956010 0.000000 0.000000 
#    y 0.000000 1.989480 0.000000 
#    z 0.000000 0.000000 2.000160 
# 
# From -- ./inp_files/13986.got.cif
#   From: 2010.03.12/outbox.cif.g09.slc.cpg/sg60_7_cif.got.tgz:13986.got - 2010.04.10 18:46:24.
