data_PCOD8248387
_publ_section_title
;
Structure prediction by ZEFSAII (Michael W. Deem and Ramdas Pophale) SiO2 
 PCOD8248387
Probable space group: P B C N
;
_chemical_formula_sum "Si O2"
_cell_formula_units_Z 48
_cell_length_a 8.852641
_cell_length_b 18.223600
_cell_length_c 13.786874
_cell_angle_alpha 90.000000
_cell_angle_beta 90.000000
_cell_angle_gamma 90.000000
_cell_volume 2224.194864
_symmetry_space_group_name_H-M "P B C N"
_symmetry_group_IT_number 60
_symmetry_cell_setting 'orthorhombic'
loop_
_space_group_symop_operation_xyz
x,y,z
1/2-x,1/2-y,1/2+z
1/2+x,1/2-y,-z
-x,y,1/2-z
-x,-y,-z
1/2+x,1/2+y,1/2-z
1/2-x,1/2+y,z
x,-y,1/2+z
loop_
_atom_site_type_symbol
_atom_site_label
_atom_site_fract_x
_atom_site_fract_y
_atom_site_fract_z
Si Si1 0.828164 0.909627 0.979033
Si Si2 0.175056 0.533629 0.631590
Si Si3 0.314721 0.154225 0.337141
Si Si4 0.144863 0.702598 0.129890
Si Si5 0.351856 0.347906 0.020590
Si Si6 0.168333 0.485753 0.346954
O O1 0.753636 0.831687 0.951693
O O2 0.786363 0.965748 0.892692
O O3 0.006013 0.898327 0.993033
O O4 0.770844 0.940891 0.080216
O O5 0.219260 0.601864 0.564479
O O6 0.187915 0.555227 0.744315
O O7 0.001499 0.512815 0.611032
O O8 0.489944 0.158322 0.364909
O O9 0.278484 0.197189 0.236881
O O10 0.211918 0.189269 0.422061
O O11 0.273361 0.068373 0.330788
O O12 0.108906 0.786122 0.099853
#
# Coordination Sequence:
#
# PCOD8248387 Si02
#       6
#     8   8   8   8   8   8
#     4  12  23  42  67 101 135 172 217 283 331 390
#     4  11  22  42  65 101 128 174 230 267 315 398
#     4  11  22  45  70  87 127 179 225 267 323 409
#     4  11  24  45  69  90 132 181 226 260 336 411
#     4  12  27  40  64 106 137 167 211 286 346 384
#     4  11  22  41  74  94 124 183 232 266 318 393
#
# _framework density 21.580842000000001
#
# number of rings (size 3 to 8) (size 9 to 14) (size 15 to 20)
#    0.000    0.667    5.000    4.000    0.000    5.333 
#    0.000    1.667    0.000    0.000    0.000    0.000 
#    0.000    0.000    0.000    0.000    0.000    0.000 
#
# Total GULP energy -595292.472979 kJ/mol
# GULP energy per Si atom -12401.926520 kJ/mol
# Density = 2.153172 g / cm^3
# Si number density = 21.580842 Si / 1000 Ang^3
#
#
#
# Elastic Constant Matrix: (Units=GPa)
#
#
# Indices 1 2 3 4 5 6 
#
# 1 77.7090 23.4409 63.6017 0.0000 0.0000 0.0000
# 2 23.4409 73.4736 39.4534 0.0000 0.0000 0.0000
# 3 63.6017 39.4534 151.8374 0.0000 0.0000 0.0000
# 4 0.0000 0.0000 0.0000 35.7067 0.0000 0.0000
# 5 0.0000 0.0000 0.0000 0.0000 25.9515 0.0000
# 6 0.0000 0.0000 0.0000 0.0000 0.0000 14.4979
#
#
#
# Elastic Compliance Matrix: (Units=1/GPa)
#
#
# Indices 1 2 3 4 5 6 
#
# 1 0.019876 -0.002174 -0.007761 0.000000 0.000000 0.000000
# 2 -0.002174 0.016055 -0.003261 0.000000 0.000000 0.000000
# 3 -0.007761 -0.003261 0.010684 0.000000 0.000000 0.000000
# 4 0.000000 0.000000 0.000000 0.028006 0.000000 0.000000
# 5 0.000000 0.000000 0.000000 0.000000 0.038533 0.000000
# 6 0.000000 0.000000 0.000000 0.000000 0.000000 0.068976
#
#
# Mechanical properties :
#
#
# Convention : Reuss Voigt Hill
#
# Bulk Modulus (GPa) = 49.44697 61.77911 55.61304
# Shear Modulus (GPa) = 23.22734 26.99948 25.11341
#
# Velocity S-wave (km/s) = 3.28425 3.54091 3.41499
# Velocity P-wave (km/s) = 6.11097 6.73842 6.43235
#
# Compressibility (1/GPa) = 0.02022369
#
# Stress axis : x y z
#
# Youngs Moduli (GPa) = 50.31127 62.28573 93.59566
#
# Poissons Ratio (x) = 0.13540 0.72639
# Poissons Ratio (y) = 0.10937 0.30523
# Poissons Ratio (z) = 0.39046 0.20312
#
# Static dielectric constant tensor:
#      x y z
#    x 3.736070 0.000000 0.000000 
#    y 0.000000 3.734740 0.000000 
#    z 0.000000 0.000000 4.249420 
# 
# 
# High freq. dielectric constant tensor:
#      x y z
#    x 1.837490 0.000000 0.000000 
#    y 0.000000 1.833560 0.000000 
#    z 0.000000 0.000000 1.866480 
# 
# From -- ./inp_files/15044.got.cif
#   From: 2010.03.12/outbox.cif.g09.slc.cpg/sg60_8_cif.got.tgz:15044.got - 2010.04.10 18:46:24.
