data_PCOD8248435
_publ_section_title
;
Structure prediction by ZEFSAII (Michael W. Deem and Ramdas Pophale) SiO2 
 PCOD8248435
Probable space group: P B C N
;
_chemical_formula_sum "Si O2"
_cell_formula_units_Z 40
_cell_length_a 7.279368
_cell_length_b 9.224319
_cell_length_c 24.718254
_cell_angle_alpha 90.000000
_cell_angle_beta 90.000000
_cell_angle_gamma 90.000000
_cell_volume 1659.761855
_symmetry_space_group_name_H-M "P B C N"
_symmetry_group_IT_number 60
_symmetry_cell_setting 'orthorhombic'
loop_
_space_group_symop_operation_xyz
x,y,z
1/2-x,1/2-y,1/2+z
1/2+x,1/2-y,-z
-x,y,1/2-z
-x,-y,-z
1/2+x,1/2+y,1/2-z
1/2-x,1/2+y,z
x,-y,1/2+z
loop_
_atom_site_type_symbol
_atom_site_label
_atom_site_fract_x
_atom_site_fract_y
_atom_site_fract_z
Si Si1 0.581342 0.051270 0.657879
Si Si2 0.097632 0.761269 0.304704
Si Si3 0.189377 0.885760 0.115211
Si Si4 0.140219 0.412672 0.461942
Si Si5 0.609118 0.339336 0.950487
O O1 0.697060 0.176369 0.687962
O O2 0.367922 0.097513 0.654081
O O3 0.655172 0.015626 0.597039
O O4 0.609586 0.911748 0.695133
O O5 0.000000 0.815862 0.250000
O O6 0.976081 0.811079 0.354584
O O7 0.240861 0.785120 0.064252
O O8 0.114523 0.041652 0.096476
O O9 0.338290 0.410147 0.491250
O O10 0.000000 0.500000 0.500000
O O11 0.084648 0.242730 0.454104
#
# Coordination Sequence:
#
# PCOD8248435 Si02
#       5
#     8   8   8   8   8
#     4  11  28  48  74 111 144 188 248 301 365 447
#     4  12  30  49  78 104 138 193 248 313 376 427
#     4  11  24  48  69 107 150 186 240 305 357 442
#     4  11  23  41  68 107 148 190 236 290 359 443
#     4  11  23  40  69 102 148 196 232 292 360 436
#
# _framework density 24.099841000000001
#
# number of rings (size 3 to 8) (size 9 to 14) (size 15 to 20)
#    0.000    0.800    6.000    0.000   14.000    0.800 
#    0.000    0.000    0.000    0.000    0.000    0.000 
#    0.000    0.000    0.000    0.000    0.000    0.000 
#
# Total GULP energy -496085.496361 kJ/mol
# GULP energy per Si atom -12402.137409 kJ/mol
# Density = 2.404499 g / cm^3
# Si number density = 24.099841 Si / 1000 Ang^3
#
#
#
# Elastic Constant Matrix: (Units=GPa)
#
#
# Indices 1 2 3 4 5 6 
#
# 1 71.7126 -1.0857 -3.2868 0.0000 0.0000 0.0000
# 2 -1.0857 74.2111 -6.2010 0.0000 0.0000 0.0000
# 3 -3.2868 -6.2010 69.0519 0.0000 0.0000 0.0000
# 4 0.0000 0.0000 0.0000 31.4096 0.0000 0.0000
# 5 0.0000 0.0000 0.0000 0.0000 32.3393 0.0000
# 6 0.0000 0.0000 0.0000 0.0000 0.0000 34.5993
#
#
#
# Elastic Compliance Matrix: (Units=1/GPa)
#
#
# Indices 1 2 3 4 5 6 
#
# 1 0.013980 0.000262 0.000689 0.000000 0.000000 0.000000
# 2 0.000262 0.013582 0.001232 0.000000 0.000000 0.000000
# 3 0.000689 0.001232 0.014625 0.000000 0.000000 0.000000
# 4 0.000000 0.000000 0.000000 0.031837 0.000000 0.000000
# 5 0.000000 0.000000 0.000000 0.000000 0.030922 0.000000
# 6 0.000000 0.000000 0.000000 0.000000 0.000000 0.028902
#
#
# Mechanical properties :
#
#
# Convention : Reuss Voigt Hill
#
# Bulk Modulus (GPa) = 21.48054 21.53649 21.50852
# Shear Modulus (GPa) = 34.48263 34.70625 34.59444
#
# Velocity S-wave (km/s) = 3.78673 3.79899 3.79286
# Velocity P-wave (km/s) = 5.29637 5.31026 5.30332
#
# Compressibility (1/GPa) = 0.04655377
#
# Stress axis : x y z
#
# Youngs Moduli (GPa) = 71.53029 73.62754 68.37463
#
# Poissons Ratio (x) = -0.01930 -0.04711
# Poissons Ratio (y) = -0.01875 -0.08425
# Poissons Ratio (z) = -0.04928 -0.09072
#
# Static dielectric constant tensor:
#      x y z
#    x 4.322340 0.000000 0.000000 
#    y 0.000000 4.495850 0.000000 
#    z 0.000000 0.000000 4.257030 
# 
# 
# High freq. dielectric constant tensor:
#      x y z
#    x 1.953870 0.000000 0.000000 
#    y 0.000000 1.966550 0.000000 
#    z 0.000000 0.000000 1.943520 
# 
# From -- ./inp_files/25116.got.cif
#   From: 2010.03.12/outbox.cif.g09.slc.cpg/sg60_13_cif.got.tgz:25116.got - 2010.04.10 18:46:24.
