data_PCOD8248222
_publ_section_title
;
Structure prediction by ZEFSAII (Michael W. Deem and Ramdas Pophale) SiO2 
 PCOD8248222
Probable space group: P B C N
;
_chemical_formula_sum "Si O2"
_cell_formula_units_Z 32
_cell_length_a 7.421218
_cell_length_b 10.302195
_cell_length_c 17.314034
_cell_angle_alpha 90.000000
_cell_angle_beta 90.000000
_cell_angle_gamma 90.000000
_cell_volume 1323.741612
_symmetry_space_group_name_H-M "P B C N"
_symmetry_group_IT_number 60
_symmetry_cell_setting 'orthorhombic'
loop_
_space_group_symop_operation_xyz
x,y,z
1/2-x,1/2-y,1/2+z
1/2+x,1/2-y,-z
-x,y,1/2-z
-x,-y,-z
1/2+x,1/2+y,1/2-z
1/2-x,1/2+y,z
x,-y,1/2+z
loop_
_atom_site_type_symbol
_atom_site_label
_atom_site_fract_x
_atom_site_fract_y
_atom_site_fract_z
Si Si1 0.297742 0.596402 0.261493
Si Si2 0.683951 0.759900 0.100692
Si Si3 0.832293 0.360387 0.325395
Si Si4 0.954953 0.872260 0.454515
O O1 0.500000 0.545745 0.250000
O O2 0.271323 0.626642 0.352804
O O3 0.168195 0.481183 0.233756
O O4 0.257990 0.728120 0.212949
O O5 0.540744 0.841591 0.151095
O O6 0.871159 0.835091 0.094984
O O7 0.600341 0.737531 0.016152
O O8 0.712807 0.397605 0.398894
O O9 0.000000 0.000000 0.500000
#
# Coordination Sequence:
#
# PCOD8248222 Si02
#       4
#     8   8   8   8
#     4  10  25  48  74 110 151 192 258 308 372 455
#     4  11  26  49  72 115 146 201 252 311 385 453
#     4  11  25  50  76 107 152 198 249 314 378 453
#     4  12  26  46  77 107 154 194 250 316 381 459
#
# _framework density 24.173901000000001
#
# number of rings (size 3 to 8) (size 9 to 14) (size 15 to 20)
#    0.000    1.000    2.500    3.000    7.000    3.000 
#    9.000    0.000    0.000    0.000    0.000    0.000 
#    0.000    0.000    0.000    0.000    0.000    0.000 
#
# Total GULP energy -396909.108401 kJ/mol
# GULP energy per Si atom -12403.409638 kJ/mol
# Density = 2.411888 g / cm^3
# Si number density = 24.173901 Si / 1000 Ang^3
#
#
#
# Elastic Constant Matrix: (Units=GPa)
#
#
# Indices 1 2 3 4 5 6 
#
# 1 118.1129 54.7908 58.5034 0.0000 0.0000 0.0000
# 2 54.7908 120.5028 47.2836 0.0000 0.0000 0.0000
# 3 58.5034 47.2836 94.0613 0.0000 0.0000 0.0000
# 4 0.0000 0.0000 0.0000 41.8290 0.0000 0.0000
# 5 0.0000 0.0000 0.0000 0.0000 56.4243 0.0000
# 6 0.0000 0.0000 0.0000 0.0000 0.0000 25.3151
#
#
#
# Elastic Compliance Matrix: (Units=1/GPa)
#
#
# Indices 1 2 3 4 5 6 
#
# 1 0.013322 -0.003495 -0.006529 0.000000 0.000000 0.000000
# 2 -0.003495 0.011255 -0.003484 0.000000 0.000000 0.000000
# 3 -0.006529 -0.003484 0.016443 0.000000 0.000000 0.000000
# 4 0.000000 0.000000 0.000000 0.023907 0.000000 0.000000
# 5 0.000000 0.000000 0.000000 0.000000 0.017723 0.000000
# 6 0.000000 0.000000 0.000000 0.000000 0.000000 0.039502
#
#
# Mechanical properties :
#
#
# Convention : Reuss Voigt Hill
#
# Bulk Modulus (GPa) = 71.40636 72.64807 72.02721
# Shear Modulus (GPa) = 32.50238 36.18695 34.34467
#
# Velocity S-wave (km/s) = 3.67075 3.87323 3.77335
# Velocity P-wave (km/s) = 6.89700 7.07955 6.98887
#
# Compressibility (1/GPa) = 0.01400436
#
# Stress axis : x y z
#
# Youngs Moduli (GPa) = 75.06556 88.85095 60.81565
#
# Poissons Ratio (x) = 0.31057 0.39704
# Poissons Ratio (y) = 0.26239 0.21186
# Poissons Ratio (z) = 0.49007 0.30952
#
# Static dielectric constant tensor:
#      x y z
#    x 3.911860 0.000000 0.000000 
#    y 0.000000 4.210090 0.000000 
#    z 0.000000 0.000000 4.968180 
# 
# 
# High freq. dielectric constant tensor:
#      x y z
#    x 1.966310 0.000000 0.000000 
#    y 0.000000 1.952760 0.000000 
#    z 0.000000 0.000000 1.981660 
# 
# From -- ./inp_files/18950.got.cif
#   From: 2010.03.12/outbox.cif.g09.slc.cpg/sg60_10_cif.got.tgz:18950.got - 2010.04.10 18:46:24.
