data_PCOD8248150
_publ_section_title
;
Structure prediction by ZEFSAII (Michael W. Deem and Ramdas Pophale) SiO2 
 PCOD8248150
Probable space group: P B C N
;
_chemical_formula_sum "Si O2"
_cell_formula_units_Z 48
_cell_length_a 8.521106
_cell_length_b 20.504326
_cell_length_c 12.694186
_cell_angle_alpha 90.000000
_cell_angle_beta 90.000000
_cell_angle_gamma 90.000000
_cell_volume 2217.922279
_symmetry_space_group_name_H-M "P B C N"
_symmetry_group_IT_number 60
_symmetry_cell_setting 'orthorhombic'
loop_
_space_group_symop_operation_xyz
x,y,z
1/2-x,1/2-y,1/2+z
1/2+x,1/2-y,-z
-x,y,1/2-z
-x,-y,-z
1/2+x,1/2+y,1/2-z
1/2-x,1/2+y,z
x,-y,1/2+z
loop_
_atom_site_type_symbol
_atom_site_label
_atom_site_fract_x
_atom_site_fract_y
_atom_site_fract_z
Si Si1 0.811494 0.031997 0.259979
Si Si2 0.663244 0.370075 0.043112
Si Si3 0.339701 0.670819 0.186620
Si Si4 0.175844 0.089685 0.602226
Si Si5 0.324180 0.997468 0.957439
Si Si6 0.185129 0.306797 0.255787
O O1 0.746076 0.104357 0.286167
O O2 0.000000 0.033554 0.250000
O O3 0.781592 0.981461 0.352612
O O4 0.704561 0.001948 0.167419
O O5 0.505115 0.391412 0.102438
O O6 0.745992 0.435410 0.001867
O O7 0.761873 0.328816 0.128239
O O8 0.630558 0.325532 0.940205
O O9 0.500000 0.668834 0.250000
O O10 0.244933 0.735190 0.225635
O O11 0.266386 0.144762 0.663848
O O12 0.242619 0.073035 0.486394
O O13 0.500000 0.000000 0.000000
O O14 0.000000 0.302422 0.250000
#
# Coordination Sequence:
#
# PCOD8248150 Si02
#       6
#     8   8   8   8   8   8
#     4  11  20  40  69  98 134 177 238 286 343 426
#     4  12  23  45  72 100 135 189 235 284 358 426
#     4  10  24  43  69 101 139 175 231 292 345 421
#     4  12  22  41  73  99 132 185 244 285 343 438
#     4  12  25  39  65 106 141 178 224 300 367 407
#     4  11  25  44  66  99 142 181 226 290 354 420
#
# _framework density 21.641877000000001
#
# number of rings (size 3 to 8) (size 9 to 14) (size 15 to 20)
#    0.000    0.667    5.000    4.000    0.000    4.000 
#    0.000    3.333    0.000    0.000    0.000    0.000 
#    0.000    0.000    0.000    0.000    0.000    0.000 
#
# Total GULP energy -594733.316620 kJ/mol
# GULP energy per Si atom -12390.277430 kJ/mol
# Density = 2.159262 g / cm^3
# Si number density = 21.641877 Si / 1000 Ang^3
#
#
#
# Elastic Constant Matrix: (Units=GPa)
#
#
# Indices 1 2 3 4 5 6 
#
# 1 83.0268 28.8145 25.7919 0.0000 0.0000 0.0000
# 2 28.8145 152.4060 38.1950 0.0000 0.0000 0.0000
# 3 25.7919 38.1950 115.3726 0.0000 0.0000 0.0000
# 4 0.0000 0.0000 0.0000 -30.6289 0.0000 0.0000
# 5 0.0000 0.0000 0.0000 0.0000 38.3183 0.0000
# 6 0.0000 0.0000 0.0000 0.0000 0.0000 19.5195
#
#
#
# Elastic Compliance Matrix: (Units=1/GPa)
#
#
# Indices 1 2 3 4 5 6 
#
# 1 0.013455 -0.001952 -0.002362 0.000000 0.000000 0.000000
# 2 -0.001952 0.007438 -0.002026 0.000000 0.000000 0.000000
# 3 -0.002362 -0.002026 0.009866 0.000000 0.000000 0.000000
# 4 0.000000 0.000000 0.000000 -0.032649 0.000000 0.000000
# 5 0.000000 0.000000 0.000000 0.000000 0.026097 0.000000
# 6 0.000000 0.000000 0.000000 0.000000 0.000000 0.051231
#
#
# Mechanical properties :
#
#
# Convention : Reuss Voigt Hill
#
# Bulk Modulus (GPa) = 55.30924 59.60090 57.45507
# Shear Modulus (GPa) = 53.10922 22.64206 37.87564
#
# Velocity S-wave (km/s) = 4.95916 3.23803 4.18797
# Velocity P-wave (km/s) = 7.64219 6.44820 7.07044
#
# Compressibility (1/GPa) = 0.01808016
#
# Stress axis : x y z
#
# Youngs Moduli (GPa) = 74.31945 134.44014 101.35510
#
# Poissons Ratio (x) = 0.26243 0.23938
# Poissons Ratio (y) = 0.14508 0.20536
# Poissons Ratio (z) = 0.17552 0.27239
#
# Static dielectric constant tensor:
#      x y z
#    x 3.592200 0.000000 0.000000 
#    y 0.000000 4.816150 0.000000 
#    z 0.000000 0.000000 3.942900 
# 
# 
# High freq. dielectric constant tensor:
#      x y z
#    x 1.822200 0.000000 0.000000 
#    y 0.000000 1.864360 0.000000 
#    z 0.000000 0.000000 1.869370 
# 
# From -- ./inp_files/10087.got.cif
#   From: 2010.03.12/outbox.cif.g09.slc.cpg/sg60_6_cif.got.tgz:10087.got - 2010.04.10 18:46:24.
