data_PCOD8248885
_publ_section_title
;
Structure prediction by ZEFSAII (Michael W. Deem and Ramdas Pophale) SiO2 
 PCOD8248885
Probable space group: P B C A
;
_chemical_formula_sum "Si O2"
_cell_formula_units_Z 64
_cell_length_a 9.260260
_cell_length_b 18.528963
_cell_length_c 17.489633
_cell_angle_alpha 90.000000
_cell_angle_beta 90.000000
_cell_angle_gamma 90.000000
_cell_volume 3000.923960
_symmetry_space_group_name_H-M "P B C A"
_symmetry_group_IT_number 61
_symmetry_cell_setting 'orthorhombic'
loop_
_space_group_symop_operation_xyz
x,y,z
1/2-x,-y,1/2+z
1/2+x,1/2-y,-z
-x,1/2+y,1/2-z
-x,-y,-z
1/2+x,y,1/2-z
1/2-x,1/2+y,z
x,1/2-y,1/2+z
loop_
_atom_site_type_symbol
_atom_site_label
_atom_site_fract_x
_atom_site_fract_y
_atom_site_fract_z
Si Si1 0.856537 0.462132 0.841319
Si Si2 0.457292 0.865008 0.319827
Si Si3 0.795535 0.743307 0.571859
Si Si4 0.398394 0.637735 0.185359
Si Si5 0.208396 0.380347 0.161646
Si Si6 0.455675 0.764403 0.078034
Si Si7 0.106508 0.979991 0.830327
Si Si8 0.125021 0.390870 0.858228
O O1 0.758556 0.391853 0.832996
O O2 0.780099 0.536231 0.868529
O O3 0.925263 0.483694 0.759985
O O4 0.985305 0.431159 0.894919
O O5 0.372508 0.801564 0.361883
O O6 0.630276 0.851076 0.319731
O O7 0.394197 0.869648 0.234721
O O8 0.426944 0.940808 0.364196
O O9 0.881774 0.725364 0.494299
O O10 0.626534 0.722759 0.564593
O O11 0.811236 0.828681 0.588323
O O12 0.428118 0.716857 0.153326
O O13 0.503454 0.583224 0.139206
O O14 0.419297 0.643800 0.276494
O O15 0.131201 0.338541 0.092201
O O16 0.268512 0.958208 0.848824
#
# Coordination Sequence:
#
# PCOD8248885 Si02
#       8
#     8   8   8   8   8   8   8   8
#     4   9  20  33  65  97 127 151 202 259 314 368
#     4  11  23  40  68  96 131 160 206 253 318 369
#     4  12  27  45  61  89 125 174 213 262 310 374
#     4  10  19  40  65  94 120 161 202 257 309 374
#     4  11  23  41  66 100 127 164 202 256 312 375
#     4  12  27  44  63  85 130 169 217 258 315 369
#     4   9  18  37  61  95 124 156 199 258 310 368
#     4  10  21  38  67  94 124 156 211 254 314 371
#
# _framework density 21.326765000000002
#
# number of rings (size 3 to 8) (size 9 to 14) (size 15 to 20)
#    0.000    1.500    2.500    2.250   10.500    0.000 
#    0.000    2.500    0.000    0.000    0.000    0.000 
#    0.000    0.000    0.000    0.000    0.000    0.000 
#
# Total GULP energy -793196.715934 kJ/mol
# GULP energy per Si atom -12393.698686 kJ/mol
# Density = 2.127822 g / cm^3
# Si number density = 21.326765 Si / 1000 Ang^3
#
#
#
# Elastic Constant Matrix: (Units=GPa)
#
#
# Indices 1 2 3 4 5 6 
#
# 1 159.9579 25.3549 22.4124 0.0000 0.0000 0.0000
# 2 25.3549 79.4690 8.7066 0.0000 0.0000 0.0000
# 3 22.4124 8.7066 39.2590 0.0000 0.0000 0.0000
# 4 0.0000 0.0000 0.0000 10.3388 0.0000 0.0000
# 5 0.0000 0.0000 0.0000 0.0000 25.8217 0.0000
# 6 0.0000 0.0000 0.0000 0.0000 0.0000 37.0047
#
#
#
# Elastic Compliance Matrix: (Units=1/GPa)
#
#
# Indices 1 2 3 4 5 6 
#
# 1 0.007052 -0.001854 -0.003615 0.000000 0.000000 0.000000
# 2 -0.001854 0.013384 -0.001910 0.000000 0.000000 0.000000
# 3 -0.003615 -0.001910 0.027959 0.000000 0.000000 0.000000
# 4 0.000000 0.000000 0.000000 0.096723 0.000000 0.000000
# 5 0.000000 0.000000 0.000000 0.000000 0.038727 0.000000
# 6 0.000000 0.000000 0.000000 0.000000 0.000000 0.027024
#
#
# Mechanical properties :
#
#
# Convention : Reuss Voigt Hill
#
# Bulk Modulus (GPa) = 29.72811 43.51487 36.62149
# Shear Modulus (GPa) = 21.11138 29.44718 25.27928
#
# Velocity S-wave (km/s) = 3.14968 3.71989 3.44660
# Velocity P-wave (km/s) = 5.21507 6.23685 5.74871
#
# Compressibility (1/GPa) = 0.03363820
#
# Stress axis : x y z
#
# Youngs Moduli (GPa) = 141.80393 74.71459 35.76660
#
# Poissons Ratio (x) = 0.13852 0.12929
# Poissons Ratio (y) = 0.26290 0.06831
# Poissons Ratio (z) = 0.51258 0.14270
#
# Static dielectric constant tensor:
#      x y z
#    x 3.963290 0.000000 0.000000 
#    y 0.000000 4.148630 0.000000 
#    z 0.000000 0.000000 3.394910 
# 
# 
# High freq. dielectric constant tensor:
#      x y z
#    x 1.855370 0.000000 0.000000 
#    y 0.000000 1.847070 0.000000 
#    z 0.000000 0.000000 1.785750 
# 
# From -- ./inp_files/10202.got.cif
#   From: 2010.03.12/outbox.cif.g09.slc.cpg/sg61_6_cif.got.tgz:10202.got - 2010.04.10 19:05:03.
