data_PCOD8248188
_publ_section_title
;
Structure prediction by ZEFSAII (Michael W. Deem and Ramdas Pophale) SiO2 
 PCOD8248188
Probable space group: P B C N
;
_chemical_formula_sum "Si O2"
_cell_formula_units_Z 40
_cell_length_a 8.779903
_cell_length_b 22.776928
_cell_length_c 8.097944
_cell_angle_alpha 90.000000
_cell_angle_beta 90.000000
_cell_angle_gamma 90.000000
_cell_volume 1619.420512
_symmetry_space_group_name_H-M "P B C N"
_symmetry_group_IT_number 60
_symmetry_cell_setting 'orthorhombic'
loop_
_space_group_symop_operation_xyz
x,y,z
1/2-x,1/2-y,1/2+z
1/2+x,1/2-y,-z
-x,y,1/2-z
-x,-y,-z
1/2+x,1/2+y,1/2-z
1/2-x,1/2+y,z
x,-y,1/2+z
loop_
_atom_site_type_symbol
_atom_site_label
_atom_site_fract_x
_atom_site_fract_y
_atom_site_fract_z
Si Si1 0.592032 0.883927 0.419465
Si Si2 0.346704 0.679154 0.175345
Si Si3 0.319433 0.542135 0.753719
Si Si4 0.821868 0.567694 0.404770
Si Si5 0.374370 0.235745 0.389620
O O1 0.500000 0.882391 0.250000
O O2 0.761465 0.909758 0.381740
O O3 0.501349 0.927925 0.546379
O O4 0.598670 0.818804 0.489430
O O5 0.500000 0.652316 0.250000
O O6 0.218655 0.629105 0.182717
O O7 0.288241 0.730453 0.298027
O O8 0.371294 0.704097 0.992076
O O9 0.500000 0.530837 0.750000
O O10 0.217546 0.484248 0.721009
O O11 0.287071 0.562955 0.937599
O O12 0.500000 0.241805 0.250000
#
# Coordination Sequence:
#
# PCOD8248188 Si02
#       5
#     8   8   8   8   8
#     4  10  24  46  73 104 146 194 248 298 370 447
#     4  12  28  45  73 107 146 188 249 305 381 437
#     4  11  25  42  73 103 149 187 250 300 370 429
#     4  11  25  46  68 106 145 198 239 307 362 451
#     4  12  26  48  75 104 147 191 245 305 371 451
#
# _framework density 24.700194
#
# number of rings (size 3 to 8) (size 9 to 14) (size 15 to 20)
#    0.000    0.800    2.000    3.600   11.200    0.800 
#    0.000    0.000    0.000    0.000    0.000    0.000 
#    0.000    0.000    0.000    0.000    0.000    0.000 
#
# Total GULP energy -496104.865465 kJ/mol
# GULP energy per Si atom -12402.621637 kJ/mol
# Density = 2.464398 g / cm^3
# Si number density = 24.700194 Si / 1000 Ang^3
#
#
#
# Elastic Constant Matrix: (Units=GPa)
#
#
# Indices 1 2 3 4 5 6 
#
# 1 112.4676 0.5429 16.3429 0.0000 0.0000 0.0000
# 2 0.5429 68.5755 9.6213 0.0000 0.0000 0.0000
# 3 16.3429 9.6213 48.6990 0.0000 0.0000 0.0000
# 4 0.0000 0.0000 0.0000 37.2145 0.0000 0.0000
# 5 0.0000 0.0000 0.0000 0.0000 36.7893 0.0000
# 6 0.0000 0.0000 0.0000 0.0000 0.0000-2383.4957
#
#
#
# Elastic Compliance Matrix: (Units=1/GPa)
#
#
# Indices 1 2 3 4 5 6 
#
# 1 0.009357 0.000377 -0.003214 0.000000 0.000000 0.000000
# 2 0.000377 0.015013 -0.003093 0.000000 0.000000 0.000000
# 3 -0.003214 -0.003093 0.022224 0.000000 0.000000 0.000000
# 4 0.000000 0.000000 0.000000 0.026871 0.000000 0.000000
# 5 0.000000 0.000000 0.000000 0.000000 0.027182 0.000000
# 6 0.000000 0.000000 0.000000 0.000000 0.000000 -0.000420
#
#
# Mechanical properties :
#
#
# Convention : Reuss Voigt Hill
#
# Bulk Modulus (GPa) = 28.79044 31.41738 30.10391
# Shear Modulus (GPa) = 40.43151 -448.34936 -203.95893
#
# Velocity S-wave (km/s) = 4.05024 -13.48742 -9.09687
# Velocity P-wave (km/s) = 5.79257 15.15917 9.90572
#
# Compressibility (1/GPa) = 0.03473376
#
# Stress axis : x y z
#
# Youngs Moduli (GPa) = 106.87492 66.60726 44.99630
#
# Poissons Ratio (x) = -0.02511 0.14464
# Poissons Ratio (y) = -0.04028 0.13916
# Poissons Ratio (z) = 0.34355 0.20599
#
# Static dielectric constant tensor:
#      x y z
#    x 4.498270 0.000000 0.000000 
#    y 0.000000 4.403590 0.000000 
#    z 0.000000 0.000000 4.622390 
# 
# 
# High freq. dielectric constant tensor:
#      x y z
#    x 1.985170 0.000000 0.000000 
#    y 0.000000 1.977140 0.000000 
#    z 0.000000 0.000000 2.002880 
# 
# From -- ./inp_files/3815.got.cif
#   From: 2010.03.12/outbox.cif.g09.slc.cpg/sg60_2_cif.got.tgz:3815.got - 2010.04.10 18:46:24.
