data_PCOD8248813
_publ_section_title
;
Structure prediction by ZEFSAII (Michael W. Deem and Ramdas Pophale) SiO2 
 PCOD8248813
Probable space group: P B C A
;
_chemical_formula_sum "Si O2"
_cell_formula_units_Z 64
_cell_length_a 14.602534
_cell_length_b 19.611820
_cell_length_c 10.648306
_cell_angle_alpha 90.000000
_cell_angle_beta 90.000000
_cell_angle_gamma 90.000000
_cell_volume 3049.486026
_symmetry_space_group_name_H-M "P B C A"
_symmetry_group_IT_number 61
_symmetry_cell_setting 'orthorhombic'
loop_
_space_group_symop_operation_xyz
x,y,z
1/2-x,-y,1/2+z
1/2+x,1/2-y,-z
-x,1/2+y,1/2-z
-x,-y,-z
1/2+x,y,1/2-z
1/2-x,1/2+y,z
x,1/2-y,1/2+z
loop_
_atom_site_type_symbol
_atom_site_label
_atom_site_fract_x
_atom_site_fract_y
_atom_site_fract_z
Si Si1 0.996959 0.600785 0.594193
Si Si2 0.473292 0.065188 0.862759
Si Si3 0.815505 0.808684 0.721726
Si Si4 0.142279 0.618015 0.227236
Si Si5 0.459788 0.908482 0.873080
Si Si6 0.130501 0.976840 0.951748
Si Si7 0.356900 0.697815 0.988702
Si Si8 0.278260 0.078027 0.975913
O O1 0.992146 0.608334 0.744054
O O2 0.101127 0.579846 0.556165
O O3 0.932035 0.543188 0.535767
O O4 0.961742 0.671250 0.530555
O O5 0.369189 0.084513 0.894045
O O6 0.478718 0.985474 0.826686
O O7 0.542109 0.086803 0.975026
O O8 0.705117 0.821286 0.715196
O O9 0.867404 0.879700 0.689172
O O10 0.842273 0.759970 0.606835
O O11 0.841754 0.782745 0.863433
O O12 0.116220 0.558597 0.320515
O O13 0.044070 0.641458 0.170225
O O14 0.203726 0.583000 0.122394
O O15 0.235053 0.002423 0.961860
O O16 0.288652 0.639565 0.937305
#
# Coordination Sequence:
#
# PCOD8248813 Si02
#       8
#     8   8   8   8   8   8   8   8
#     4  10  21  36  62  89 126 157 207 258 312 385
#     4  10  20  37  62  99 130 155 198 265 324 389
#     4  11  24  44  67  84 125 172 218 263 315 372
#     4  10  20  39  58  87 122 156 202 252 312 376
#     4  10  21  38  65  94 126 163 205 257 329 378
#     4  10  19  34  59  90 118 158 198 252 318 381
#     4  10  24  44  60  86 121 171 220 263 309 376
#     4   9  21  36  58  88 127 158 196 259 318 377
#
# _framework density 20.987144000000001
#
# number of rings (size 3 to 8) (size 9 to 14) (size 15 to 20)
#    0.000    2.000    1.250    1.500    8.750    0.000 
#    4.500    3.750    0.000    0.000    0.000    0.000 
#    0.000    0.000    0.000    0.000    0.000    0.000 
#
# Total GULP energy -793020.432153 kJ/mol
# GULP energy per Si atom -12390.944252 kJ/mol
# Density = 2.093938 g / cm^3
# Si number density = 20.987144 Si / 1000 Ang^3
#
#
#
# Elastic Constant Matrix: (Units=GPa)
#
#
# Indices 1 2 3 4 5 6 
#
# 1 53.9909 13.7782 12.3958 0.0000 0.0000 0.0000
# 2 13.7782 57.5024 31.6106 0.0000 0.0000 0.0000
# 3 12.3958 31.6106 86.4572 0.0000 0.0000 0.0000
# 4 0.0000 0.0000 0.0000 28.9925 0.0000 0.0000
# 5 0.0000 0.0000 0.0000 0.0000 26.8855 0.0000
# 6 0.0000 0.0000 0.0000 0.0000 0.0000 24.0116
#
#
#
# Elastic Compliance Matrix: (Units=1/GPa)
#
#
# Indices 1 2 3 4 5 6 
#
# 1 0.019860 -0.003997 -0.001386 0.000000 0.000000 0.000000
# 2 -0.003997 0.022570 -0.007679 0.000000 0.000000 0.000000
# 3 -0.001386 -0.007679 0.014573 0.000000 0.000000 0.000000
# 4 0.000000 0.000000 0.000000 0.034492 0.000000 0.000000
# 5 0.000000 0.000000 0.000000 0.000000 0.037195 0.000000
# 6 0.000000 0.000000 0.000000 0.000000 0.000000 0.041647
#
#
# Mechanical properties :
#
#
# Convention : Reuss Voigt Hill
#
# Bulk Modulus (GPa) = 32.38477 34.83553 33.61015
# Shear Modulus (GPa) = 24.18364 25.32230 24.75297
#
# Velocity S-wave (km/s) = 3.39825 3.47733 3.43802
# Velocity P-wave (km/s) = 5.55533 5.72337 5.63998
#
# Compressibility (1/GPa) = 0.03087871
#
# Stress axis : x y z
#
# Youngs Moduli (GPa) = 50.35294 44.30753 68.62132
#
# Poissons Ratio (x) = 0.17708 0.09512
# Poissons Ratio (y) = 0.20124 0.52694
# Poissons Ratio (z) = 0.06980 0.34023
#
# Static dielectric constant tensor:
#      x y z
#    x 4.220160 0.000000 0.000000 
#    y 0.000000 3.535110 0.000000 
#    z 0.000000 0.000000 3.793240 
# 
# 
# High freq. dielectric constant tensor:
#      x y z
#    x 1.824440 0.000000 0.000000 
#    y 0.000000 1.784260 0.000000 
#    z 0.000000 0.000000 1.831430 
# 
# From -- ./inp_files/5999.got.cif
#   From: 2010.03.12/outbox.cif.g09.slc.cpg/sg61_3_cif.got.tgz:5999.got - 2010.04.10 19:05:03.
