data_PCOD8248727
_publ_section_title
;
Structure prediction by ZEFSAII (Michael W. Deem and Ramdas Pophale) SiO2 
 PCOD8248727
Probable space group: P B C A
;
_chemical_formula_sum "Si O2"
_cell_formula_units_Z 64
_cell_length_a 29.702565
_cell_length_b 21.767387
_cell_length_c 5.450718
_cell_angle_alpha 90.000000
_cell_angle_beta 90.000000
_cell_angle_gamma 90.000000
_cell_volume 3524.146609
_symmetry_space_group_name_H-M "P B C A"
_symmetry_group_IT_number 61
_symmetry_cell_setting 'orthorhombic'
loop_
_space_group_symop_operation_xyz
x,y,z
1/2-x,-y,1/2+z
1/2+x,1/2-y,-z
-x,1/2+y,1/2-z
-x,-y,-z
1/2+x,y,1/2-z
1/2-x,1/2+y,z
x,1/2-y,1/2+z
loop_
_atom_site_type_symbol
_atom_site_label
_atom_site_fract_x
_atom_site_fract_y
_atom_site_fract_z
Si Si1 0.575889 0.099583 0.388597
Si Si2 0.771280 0.589558 0.753673
Si Si3 0.397114 0.015479 0.313492
Si Si4 0.307571 0.023099 0.540670
Si Si5 0.007481 0.537834 0.250069
Si Si6 0.602323 0.217183 0.605647
Si Si7 0.350288 0.935644 0.926925
Si Si8 0.208659 0.216130 0.916535
O O1 0.526768 0.096038 0.256483
O O2 0.577061 0.151049 0.599167
O O3 0.587339 0.031211 0.475938
O O4 0.618611 0.114937 0.210815
O O5 0.780523 0.523827 0.631436
O O6 0.723925 0.581155 0.895377
O O7 0.813991 0.605139 0.927157
O O8 0.768389 0.648121 0.573680
O O9 0.352109 0.050807 0.405040
O O10 0.439714 0.059732 0.251608
O O11 0.385703 0.974623 0.080651
O O12 0.321634 0.984358 0.774881
O O13 0.000000 0.500000 0.500000
O O14 0.000000 0.500000 0.000000
O O15 0.585841 0.247214 0.859785
O O16 0.655410 0.208719 0.593097
O O17 0.224952 0.249486 0.166654
#
# Coordination Sequence:
#
# PCOD8248727 Si02
#       8
#     8   8   8   8   8   8   8   8
#     4  10  20  32  52  74 103 142 171 214 265 317
#     4  11  21  33  51  75 108 140 188 220 280 329
#     4   9  19  32  49  76 104 136 171 212 269 330
#     4  10  20  32  50  78 103 144 173 230 276 336
#     4  10  19  33  52  77 104 136 170 207 259 324
#     4  10  22  34  50  73 104 139 183 214 255 310
#     4  10  18  30  49  71 109 133 172 207 276 316
#     4  10  23  37  53  74 105 147 184 225 264 319
#
# _framework density 18.160426999999999
#
# number of rings (size 3 to 8) (size 9 to 14) (size 15 to 20)
#    0.000    2.000    2.500    2.250    8.750    0.000 
#    0.000    0.000    0.000    0.000    0.000    1.750 
#    0.000    0.000    0.000    0.000    0.000    0.000 
#
# Total GULP energy -792891.196651 kJ/mol
# GULP energy per Si atom -12388.924948 kJ/mol
# Density = 1.811909 g / cm^3
# Si number density = 18.160427 Si / 1000 Ang^3
#
#
#
# Elastic Constant Matrix: (Units=GPa)
#
#
# Indices 1 2 3 4 5 6 
#
# 1 112.8515 35.6751 28.7504 0.0000 0.0000 0.0000
# 2 35.6751 48.9044 16.3502 0.0000 0.0000 0.0000
# 3 28.7504 16.3502 93.8611 0.0000 0.0000 0.0000
# 4 0.0000 0.0000 0.0000 16.0364 0.0000 0.0000
# 5 0.0000 0.0000 0.0000 0.0000 20.0814 0.0000
# 6 0.0000 0.0000 0.0000 0.0000 0.0000 15.2409
#
#
#
# Elastic Compliance Matrix: (Units=1/GPa)
#
#
# Indices 1 2 3 4 5 6 
#
# 1 0.011958 -0.007962 -0.002276 0.000000 0.000000 0.000000
# 2 -0.007962 0.027014 -0.002267 0.000000 0.000000 0.000000
# 3 -0.002276 -0.002267 0.011746 0.000000 0.000000 0.000000
# 4 0.000000 0.000000 0.000000 0.062358 0.000000 0.000000
# 5 0.000000 0.000000 0.000000 0.000000 0.049797 0.000000
# 6 0.000000 0.000000 0.000000 0.000000 0.000000 0.065613
#
#
# Mechanical properties :
#
#
# Convention : Reuss Voigt Hill
#
# Bulk Modulus (GPa) = 38.89787 46.35204 42.62496
# Shear Modulus (GPa) = 19.07912 21.92782 20.50347
#
# Velocity S-wave (km/s) = 3.24479 3.47861 3.36373
# Velocity P-wave (km/s) = 5.95850 6.45859 6.21358
#
# Compressibility (1/GPa) = 0.02570835
#
# Stress axis : x y z
#
# Youngs Moduli (GPa) = 83.62523 37.01732 85.13514
#
# Poissons Ratio (x) = 0.29475 0.19376
# Poissons Ratio (y) = 0.66586 0.19299
# Poissons Ratio (z) = 0.19032 0.08391
#
# Static dielectric constant tensor:
#      x y z
#    x 3.934180 0.000000 0.000000 
#    y 0.000000 2.945940 0.000000 
#    z 0.000000 0.000000 3.668910 
# 
# 
# High freq. dielectric constant tensor:
#      x y z
#    x 1.693010 0.000000 0.000000 
#    y 0.000000 1.648570 0.000000 
#    z 0.000000 0.000000 1.722830 
# 
# From -- ./inp_files/1502.got.cif
#   From: 2010.03.12/outbox.cif.g09.slc.cpg/sg61_1_cif.got.tgz:1502.got - 2010.04.10 19:05:03.
