data_PCOD8248212
_publ_section_title
;
Structure prediction by ZEFSAII (Michael W. Deem and Ramdas Pophale) SiO2 
 PCOD8248212
Probable space group: P B C N
;
_chemical_formula_sum "Si O2"
_cell_formula_units_Z 40
_cell_length_a 10.786912
_cell_length_b 18.409724
_cell_length_c 9.530369
_cell_angle_alpha 90.000000
_cell_angle_beta 90.000000
_cell_angle_gamma 90.000000
_cell_volume 1892.579491
_symmetry_space_group_name_H-M "P B C N"
_symmetry_group_IT_number 60
_symmetry_cell_setting 'orthorhombic'
loop_
_space_group_symop_operation_xyz
x,y,z
1/2-x,1/2-y,1/2+z
1/2+x,1/2-y,-z
-x,y,1/2-z
-x,-y,-z
1/2+x,1/2+y,1/2-z
1/2-x,1/2+y,z
x,-y,1/2+z
loop_
_atom_site_type_symbol
_atom_site_label
_atom_site_fract_x
_atom_site_fract_y
_atom_site_fract_z
Si Si1 0.724586 0.526240 0.233747
Si Si2 0.136844 0.673085 0.817077
Si Si3 0.128575 0.460994 0.506644
Si Si4 0.390127 0.668203 0.353998
Si Si5 0.881671 0.883871 0.333142
O O1 0.764800 0.503536 0.078299
O O2 0.844940 0.530733 0.330057
O O3 0.680296 0.608557 0.235866
O O4 0.624052 0.470492 0.300616
O O5 0.129499 0.621811 0.953588
O O6 0.176097 0.753420 0.871493
O O7 0.246932 0.648451 0.711032
O O8 0.000000 0.667883 0.750000
O O9 0.000000 0.500000 0.500000
O O10 0.500000 0.688615 0.250000
O O11 0.416155 0.633762 0.506151
O O12 0.000000 0.851067 0.250000
#
# Coordination Sequence:
#
# PCOD8248212 Si02
#       5
#     8   8   8   8   8
#     4  11  23  41  68  95 132 176 228 284 336 410
#     4  10  25  45  69  96 145 176 221 286 344 407
#     4  11  22  42  67  99 132 181 232 279 341 409
#     4  11  26  43  67 100 137 181 227 279 350 407
#     4  11  25  45  69 100 134 178 229 281 338 405
#
# _framework density 21.135176000000001
#
# number of rings (size 3 to 8) (size 9 to 14) (size 15 to 20)
#    0.000    1.200    2.000    3.600    8.400    3.200 
#    0.000    0.000    0.000    0.000    0.000    0.000 
#    0.000    0.000    0.000    0.000    0.000    0.000 
#
# Total GULP energy -495548.990286 kJ/mol
# GULP energy per Si atom -12388.724757 kJ/mol
# Density = 2.108707 g / cm^3
# Si number density = 21.135176 Si / 1000 Ang^3
#
#
#
# Elastic Constant Matrix: (Units=GPa)
#
#
# Indices 1 2 3 4 5 6 
#
# 1 101.9489 28.6278 33.7436 0.0000 0.0000 0.0000
# 2 28.6278 161.7293 19.0067 0.0000 0.0000 0.0000
# 3 33.7436 19.0067 94.6032 0.0000 0.0000 0.0000
# 4 0.0000 0.0000 0.0000 21.1773 0.0000 0.0000
# 5 0.0000 0.0000 0.0000 0.0000 30.7699 0.0000
# 6 0.0000 0.0000 0.0000 0.0000 0.0000 25.6551
#
#
#
# Elastic Compliance Matrix: (Units=1/GPa)
#
#
# Indices 1 2 3 4 5 6 
#
# 1 0.011509 -0.001592 -0.003785 0.000000 0.000000 0.000000
# 2 -0.001592 0.006553 -0.000749 0.000000 0.000000 0.000000
# 3 -0.003785 -0.000749 0.012071 0.000000 0.000000 0.000000
# 4 0.000000 0.000000 0.000000 0.047220 0.000000 0.000000
# 5 0.000000 0.000000 0.000000 0.000000 0.032499 0.000000
# 6 0.000000 0.000000 0.000000 0.000000 0.000000 0.038979
#
#
# Mechanical properties :
#
#
# Convention : Reuss Voigt Hill
#
# Bulk Modulus (GPa) = 55.92632 57.89307 56.90969
# Shear Modulus (GPa) = 29.93233 33.98067 31.95650
#
# Velocity S-wave (km/s) = 3.76737 4.01406 3.89267
# Velocity P-wave (km/s) = 6.74113 6.99534 6.86941
#
# Compressibility (1/GPa) = 0.01788067
#
# Stress axis : x y z
#
# Youngs Moduli (GPa) = 86.89012 152.60162 82.84345
#
# Poissons Ratio (x) = 0.24299 0.31357
# Poissons Ratio (y) = 0.13836 0.06202
# Poissons Ratio (z) = 0.32889 0.11424
#
# Static dielectric constant tensor:
#      x y z
#    x 3.521850 0.000000 0.000000 
#    y 0.000000 4.222370 0.000000 
#    z 0.000000 0.000000 3.876310 
# 
# 
# High freq. dielectric constant tensor:
#      x y z
#    x 1.823160 0.000000 0.000000 
#    y 0.000000 1.842620 0.000000 
#    z 0.000000 0.000000 1.833080 
# 
# From -- ./inp_files/4750.got.cif
#   From: 2010.03.12/outbox.cif.g09.slc.cpg/sg60_3_cif.got.tgz:4750.got - 2010.04.10 18:46:24.
