data_PCOD8248017
_publ_section_title
;
Structure prediction by ZEFSAII (Michael W. Deem and Ramdas Pophale) SiO2 
 PCOD8248017
Probable space group: P B C N
;
_chemical_formula_sum "Si O2"
_cell_formula_units_Z 48
_cell_length_a 25.520188
_cell_length_b 5.598230
_cell_length_c 13.421170
_cell_angle_alpha 90.000000
_cell_angle_beta 90.000000
_cell_angle_gamma 90.000000
_cell_volume 1917.454133
_symmetry_space_group_name_H-M "P B C N"
_symmetry_group_IT_number 60
_symmetry_cell_setting 'orthorhombic'
loop_
_space_group_symop_operation_xyz
x,y,z
1/2-x,1/2-y,1/2+z
1/2+x,1/2-y,-z
-x,y,1/2-z
-x,-y,-z
1/2+x,1/2+y,1/2-z
1/2-x,1/2+y,z
x,-y,1/2+z
loop_
_atom_site_type_symbol
_atom_site_label
_atom_site_fract_x
_atom_site_fract_y
_atom_site_fract_z
Si Si1 0.045841 0.320264 0.972211
Si Si2 0.049187 0.022018 0.305897
Si Si3 0.273385 0.664531 0.131481
Si Si4 0.620810 0.802448 0.056439
Si Si5 0.229372 0.177250 0.361919
Si Si6 0.111329 0.031626 0.115910
O O1 0.104920 0.423071 0.954559
O O2 0.028799 0.208003 0.866908
O O3 0.000000 0.500000 0.000000
O O4 0.059107 0.143651 0.063926
O O5 0.069461 0.197352 0.390435
O O6 0.000000 0.140217 0.250000
O O7 0.095023 0.955799 0.227342
O O8 0.252559 0.407804 0.083553
O O9 0.255594 0.653773 0.246563
O O10 0.336157 0.693384 0.120644
O O11 0.669380 0.750496 0.126581
O O12 0.628191 0.701949 0.945444
O O13 0.260528 0.409152 0.409821
#
# Coordination Sequence:
#
# PCOD8248017 Si02
#       6
#     8   8   8   8   8   8
#     4  11  26  46  70 107 143 189 249 310 371 452
#     4  11  24  45  71 100 140 188 238 304 371 438
#     4  10  23  43  71 107 145 192 249 305 369 452
#     4  11  25  43  70 103 143 187 242 301 370 445
#     4  10  23  43  72 104 146 191 244 305 369 443
#     4  11  25  44  71 103 144 190 242 304 373 452
#
# _framework density 25.033192
#
# number of rings (size 3 to 8) (size 9 to 14) (size 15 to 20)
#    0.000    1.333    1.667    2.000    7.000    8.667 
#    0.000    0.000    0.000    0.000    0.000    0.000 
#    0.000    0.000    0.000    0.000    0.000    0.000 
#
# Total GULP energy -594747.423089 kJ/mol
# GULP energy per Si atom -12390.571314 kJ/mol
# Density = 2.497622 g / cm^3
# Si number density = 25.033192 Si / 1000 Ang^3
#
#
#
# Elastic Constant Matrix: (Units=GPa)
#
#
# Indices 1 2 3 4 5 6 
#
# 1 106.4125 24.2759 14.9664 0.0000 0.0000 0.0000
# 2 24.2759 114.8221 24.0257 0.0000 0.0000 0.0000
# 3 14.9664 24.0257 77.8744 0.0000 0.0000 0.0000
# 4 0.0000 0.0000 0.0000 74.9034 0.0000 0.0000
# 5 0.0000 0.0000 0.0000 0.0000 40.4719 0.0000
# 6 0.0000 0.0000 0.0000 0.0000 0.0000 45.6431
#
#
#
# Elastic Compliance Matrix: (Units=1/GPa)
#
#
# Indices 1 2 3 4 5 6 
#
# 1 0.010006 -0.001831 -0.001358 0.000000 0.000000 0.000000
# 2 -0.001831 0.009645 -0.002624 0.000000 0.000000 0.000000
# 3 -0.001358 -0.002624 0.013912 0.000000 0.000000 0.000000
# 4 0.000000 0.000000 0.000000 0.013351 0.000000 0.000000
# 5 0.000000 0.000000 0.000000 0.000000 0.024709 0.000000
# 6 0.000000 0.000000 0.000000 0.000000 0.000000 0.021909
#
#
# Mechanical properties :
#
#
# Convention : Reuss Voigt Hill
#
# Bulk Modulus (GPa) = 45.58553 47.29387 46.43970
# Shear Modulus (GPa) = 44.45628 47.92640 46.19134
#
# Velocity S-wave (km/s) = 4.21871 4.38026 4.30024
# Velocity P-wave (km/s) = 6.47916 6.67201 6.57629
#
# Compressibility (1/GPa) = 0.02193679
#
# Stress axis : x y z
#
# Youngs Moduli (GPa) = 99.93816 103.67713 71.88201
#
# Poissons Ratio (x) = 0.18987 0.09762
# Poissons Ratio (y) = 0.18302 0.18860
# Poissons Ratio (z) = 0.13572 0.27203
#
# Static dielectric constant tensor:
#      x y z
#    x 4.382910 0.000000 0.000000 
#    y 0.000000 4.772100 0.000000 
#    z 0.000000 0.000000 4.447050 
# 
# 
# High freq. dielectric constant tensor:
#      x y z
#    x 2.002540 0.000000 0.000000 
#    y 0.000000 1.985370 0.000000 
#    z 0.000000 0.000000 2.010800 
# 
# From -- ./inp_files/18070.got.cif
#   From: 2010.03.12/outbox.cif.g09.slc.cpg/sg60_10_cif.got.tgz:18070.got - 2010.04.10 18:46:24.
