data_PCOD8248791
_publ_section_title
;
Structure prediction by ZEFSAII (Michael W. Deem and Ramdas Pophale) SiO2 
 PCOD8248791
Probable space group: P B C A
;
_chemical_formula_sum "Si O2"
_cell_formula_units_Z 40
_cell_length_a 5.180274
_cell_length_b 20.240804
_cell_length_c 18.517335
_cell_angle_alpha 90.000000
_cell_angle_beta 90.000000
_cell_angle_gamma 90.000000
_cell_volume 1941.596473
_symmetry_space_group_name_H-M "P B C A"
_symmetry_group_IT_number 61
_symmetry_cell_setting 'orthorhombic'
loop_
_space_group_symop_operation_xyz
x,y,z
1/2-x,-y,1/2+z
1/2+x,1/2-y,-z
-x,1/2+y,1/2-z
-x,-y,-z
1/2+x,y,1/2-z
1/2-x,1/2+y,z
x,1/2-y,1/2+z
loop_
_atom_site_type_symbol
_atom_site_label
_atom_site_fract_x
_atom_site_fract_y
_atom_site_fract_z
Si Si1 0.777552 0.793534 0.702850
Si Si2 0.184299 0.054706 0.290765
Si Si3 0.747989 0.083805 0.975570
Si Si4 0.707428 0.222664 0.039079
Si Si5 0.248409 0.461816 0.420509
O O1 0.524411 0.773460 0.748679
O O2 0.774011 0.870757 0.682902
O O3 0.781694 0.757813 0.624344
O O4 0.381388 0.043279 0.224330
O O5 0.277194 0.001457 0.347368
O O6 0.500682 0.084793 0.922629
O O7 0.006706 0.087993 0.927559
O O8 0.738733 0.143776 0.031792
O O9 0.746802 0.013626 0.014658
O O10 0.432244 0.241868 0.005655
#
# Coordination Sequence:
#
# PCOD8248791 Si02
#       5
#     8   8   8   8   8
#     4  10  21  38  60  87 119 151 198 255 306 350
#     4  10  19  32  56  86 116 148 186 239 297 353
#     4  10  21  35  56  84 112 151 183 231 300 333
#     4  12  24  40  63  90 122 158 210 257 291 357
#     4  10  19  35  57  81 119 142 181 236 286 365
#
# _framework density 20.601603999999998
#
# number of rings (size 3 to 8) (size 9 to 14) (size 15 to 20)
#    0.000    1.600    2.000    3.600    0.000    0.000 
#    0.000    0.000    0.000   24.000    0.000    0.000 
#    0.000    0.000    0.000    0.000    0.000    0.000 
#
# Total GULP energy -495841.462522 kJ/mol
# GULP energy per Si atom -12396.036563 kJ/mol
# Density = 2.055471 g / cm^3
# Si number density = 20.601604 Si / 1000 Ang^3
#
#
#
# Elastic Constant Matrix: (Units=GPa)
#
#
# Indices 1 2 3 4 5 6 
#
# 1 146.7336 27.5818 39.4338 0.0000 0.0000 0.0000
# 2 27.5818 21.6156 13.2277 0.0000 0.0000 0.0000
# 3 39.4338 13.2277 117.7650 0.0000 0.0000 0.0000
# 4 0.0000 0.0000 0.0000 29.6281 0.0000 0.0000
# 5 0.0000 0.0000 0.0000 0.0000 21.9584 0.0000
# 6 0.0000 0.0000 0.0000 0.0000 0.0000 25.3280
#
#
#
# Elastic Compliance Matrix: (Units=1/GPa)
#
#
# Indices 1 2 3 4 5 6 
#
# 1 0.009355 -0.010759 -0.001924 0.000000 0.000000 0.000000
# 2 -0.010759 0.062052 -0.003367 0.000000 0.000000 0.000000
# 3 -0.001924 -0.003367 0.009514 0.000000 0.000000 0.000000
# 4 0.000000 0.000000 0.000000 0.033752 0.000000 0.000000
# 5 0.000000 0.000000 0.000000 0.000000 0.045541 0.000000
# 6 0.000000 0.000000 0.000000 0.000000 0.000000 0.039482
#
#
# Mechanical properties :
#
#
# Convention : Reuss Voigt Hill
#
# Bulk Modulus (GPa) = 20.48330 49.62231 35.05280
# Shear Modulus (GPa) = 20.15568 29.10763 24.63165
#
# Velocity S-wave (km/s) = 3.13126 3.76291 3.46152
# Velocity P-wave (km/s) = 4.79971 6.55883 5.74698
#
# Compressibility (1/GPa) = 0.04882026
#
# Stress axis : x y z
#
# Youngs Moduli (GPa) = 106.90014 16.11544 105.10930
#
# Poissons Ratio (x) = 0.17339 0.20222
# Poissons Ratio (y) = 1.15016 0.35392
# Poissons Ratio (z) = 0.20566 0.05426
#
# Static dielectric constant tensor:
#      x y z
#    x 4.198530 0.000000 0.000000 
#    y 0.000000 3.396300 0.000000 
#    z 0.000000 0.000000 3.545260 
# 
# 
# High freq. dielectric constant tensor:
#      x y z
#    x 1.830790 0.000000 0.000000 
#    y 0.000000 1.776190 0.000000 
#    z 0.000000 0.000000 1.790700 
# 
# From -- ./inp_files/8714.got.cif
#   From: 2010.03.12/outbox.cif.g09.slc.cpg/sg61_5_cif.got.tgz:8714.got - 2010.04.10 19:05:03.
