data_PCOD8248170
_publ_section_title
;
Structure prediction by ZEFSAII (Michael W. Deem and Ramdas Pophale) SiO2 
 PCOD8248170
Probable space group: P B C N
;
_chemical_formula_sum "Si O2"
_cell_formula_units_Z 64
_cell_length_a 8.868978
_cell_length_b 14.565158
_cell_length_c 24.516782
_cell_angle_alpha 90.000000
_cell_angle_beta 90.000000
_cell_angle_gamma 90.000000
_cell_volume 3167.030480
_symmetry_space_group_name_H-M "P B C N"
_symmetry_group_IT_number 60
_symmetry_cell_setting 'orthorhombic'
loop_
_space_group_symop_operation_xyz
x,y,z
1/2-x,1/2-y,1/2+z
1/2+x,1/2-y,-z
-x,y,1/2-z
-x,-y,-z
1/2+x,1/2+y,1/2-z
1/2-x,1/2+y,z
x,-y,1/2+z
loop_
_atom_site_type_symbol
_atom_site_label
_atom_site_fract_x
_atom_site_fract_y
_atom_site_fract_z
Si Si1 0.055941 0.352362 0.509362
Si Si2 0.099153 0.497711 0.420802
Si Si3 0.815876 0.737982 0.934568
Si Si4 0.804624 0.561526 0.868898
Si Si5 0.678505 0.818970 0.747058
Si Si6 0.312123 0.456885 0.830923
Si Si7 0.320583 0.612015 0.748445
Si Si8 0.358989 0.609804 0.149219
O O1 0.965946 0.408164 0.555061
O O2 0.942534 0.284476 0.478550
O O3 0.134025 0.424273 0.468106
O O4 0.178953 0.288898 0.537056
O O5 0.256729 0.522814 0.392174
O O6 0.983734 0.453281 0.376746
O O7 0.750538 0.645426 0.906907
O O8 0.889990 0.801199 0.887559
O O9 0.755874 0.577941 0.807019
O O10 0.723076 0.467435 0.887970
O O11 0.500000 0.824331 0.750000
O O12 0.725756 0.868633 0.691766
O O13 0.736915 0.714947 0.741405
O O14 0.753869 0.865844 0.799509
O O15 0.264898 0.545570 0.795982
O O16 0.488382 0.434991 0.828418
O O17 0.500000 0.609477 0.750000
#
# Coordination Sequence:
#
# PCOD8248170 Si02
#       8
#     8   8   8   8   8   8   8   8
#     4  10  24  46  66  96 129 167 231 284 332 392
#     4  10  24  45  66  91 132 176 222 278 332 397
#     4  11  25  43  72  94 128 171 219 284 336 396
#     4  11  21  42  67  92 128 179 210 263 341 392
#     4  11  24  40  65  96 134 178 217 258 326 399
#     4  12  25  40  65  97 136 173 216 271 323 394
#     4  11  22  40  62  96 136 166 215 262 318 400
#     4  12  23  43  65  97 136 172 215 275 329 394
#
# _framework density 20.208206000000001
#
# number of rings (size 3 to 8) (size 9 to 14) (size 15 to 20)
#    0.000    1.000    5.000    1.125    1.750    3.000 
#    2.250    1.250    0.000    0.000    0.000    0.000 
#    0.000    0.000    0.000    0.000    0.000    0.000 
#
# Total GULP energy -793733.929498 kJ/mol
# GULP energy per Si atom -12402.092648 kJ/mol
# Density = 2.016221 g / cm^3
# Si number density = 20.208206 Si / 1000 Ang^3
#
#
#
# Elastic Constant Matrix: (Units=GPa)
#
#
# Indices 1 2 3 4 5 6 
#
# 1 78.8103 34.8741 42.2120 0.0000 0.0000 0.0000
# 2 34.8741 127.1571 44.4229 0.0000 0.0000 0.0000
# 3 42.2120 44.4229 106.0124 0.0000 0.0000 0.0000
# 4 0.0000 0.0000 0.0000 23.2855 0.0000 0.0000
# 5 0.0000 0.0000 0.0000 0.0000 36.4168 0.0000
# 6 0.0000 0.0000 0.0000 0.0000 0.0000 31.5449
#
#
#
# Elastic Compliance Matrix: (Units=1/GPa)
#
#
# Indices 1 2 3 4 5 6 
#
# 1 0.016869 -0.002671 -0.005598 0.000000 0.000000 0.000000
# 2 -0.002671 0.009636 -0.002974 0.000000 0.000000 0.000000
# 3 -0.005598 -0.002974 0.012908 0.000000 0.000000 0.000000
# 4 0.000000 0.000000 0.000000 0.042945 0.000000 0.000000
# 5 0.000000 0.000000 0.000000 0.000000 0.027460 0.000000
# 6 0.000000 0.000000 0.000000 0.000000 0.000000 0.031701
#
#
# Mechanical properties :
#
#
# Convention : Reuss Voigt Hill
#
# Bulk Modulus (GPa) = 59.07672 61.66642 60.37157
# Shear Modulus (GPa) = 29.47307 30.94751 30.21029
#
# Velocity S-wave (km/s) = 3.82314 3.91760 3.87065
# Velocity P-wave (km/s) = 6.98470 7.14459 7.06510
#
# Compressibility (1/GPa) = 0.01692714
#
# Stress axis : x y z
#
# Youngs Moduli (GPa) = 59.28129 103.77882 77.47108
#
# Poissons Ratio (x) = 0.27718 0.43365
# Poissons Ratio (y) = 0.15833 0.23042
# Poissons Ratio (z) = 0.33183 0.30867
#
# Static dielectric constant tensor:
#      x y z
#    x 3.508650 0.000000 0.000000 
#    y 0.000000 4.186760 0.000000 
#    z 0.000000 0.000000 3.667950 
# 
# 
# High freq. dielectric constant tensor:
#      x y z
#    x 1.778710 0.000000 0.000000 
#    y 0.000000 1.815110 0.000000 
#    z 0.000000 0.000000 1.788370 
# 
# From -- ./inp_files/24061.got.cif
#   From: 2010.03.12/outbox.cif.g09.slc.cpg/sg60_13_cif.got.tgz:24061.got - 2010.04.10 18:46:24.
