data_PCOD8248060
_publ_section_title
;
Structure prediction by ZEFSAII (Michael W. Deem and Ramdas Pophale) SiO2 
 PCOD8248060
Probable space group: P B C N
;
_chemical_formula_sum "Si O2"
_cell_formula_units_Z 56
_cell_length_a 14.114061
_cell_length_b 11.758469
_cell_length_c 15.157499
_cell_angle_alpha 90.000000
_cell_angle_beta 90.000000
_cell_angle_gamma 90.000000
_cell_volume 2515.534725
_symmetry_space_group_name_H-M "P B C N"
_symmetry_group_IT_number 60
_symmetry_cell_setting 'orthorhombic'
loop_
_space_group_symop_operation_xyz
x,y,z
1/2-x,1/2-y,1/2+z
1/2+x,1/2-y,-z
-x,y,1/2-z
-x,-y,-z
1/2+x,1/2+y,1/2-z
1/2-x,1/2+y,z
x,-y,1/2+z
loop_
_atom_site_type_symbol
_atom_site_label
_atom_site_fract_x
_atom_site_fract_y
_atom_site_fract_z
Si Si1 0.638156 0.769595 0.817042
Si Si2 0.606934 0.468984 0.612492
Si Si3 0.427845 0.275591 0.367760
Si Si4 0.716241 0.590501 0.937429
Si Si5 0.461866 0.723833 0.160584
Si Si6 0.075260 0.398657 0.015683
Si Si7 0.202514 0.921270 0.708451
O O1 0.636241 0.711275 0.719968
O O2 0.531503 0.775324 0.850097
O O3 0.702690 0.714145 0.894038
O O4 0.685285 0.893208 0.799672
O O5 0.570737 0.597428 0.590749
O O6 0.659856 0.418745 0.528166
O O7 0.516978 0.392236 0.636420
O O8 0.679652 0.467645 0.694213
O O9 0.388935 0.179609 0.433894
O O10 0.825819 0.552967 0.947937
O O11 0.669095 0.511645 0.863525
O O12 0.500000 0.780873 0.250000
O O13 0.475353 0.815371 0.084488
O O14 0.353535 0.693892 0.183360
O O15 0.000000 0.500000 0.000000
#
# Coordination Sequence:
#
# PCOD8248060 Si02
#       7
#     8   8   8   8   8   8   8
#     4  11  23  42  68  99 137 182 230 299 361 417
#     4  11  24  42  74 105 131 180 239 307 351 416
#     4  11  24  45  70 103 140 179 244 299 358 423
#     4  12  24  42  68 100 137 181 236 290 356 423
#     4  10  23  45  73  98 138 179 230 291 358 423
#     4  12  26  48  65 104 148 191 232 282 368 450
#     4  11  22  44  67 101 137 179 236 288 359 428
#
# _framework density 22.261668
#
# number of rings (size 3 to 8) (size 9 to 14) (size 15 to 20)
#    0.000    0.857    2.857    4.286    4.000    1.714 
#   12.857    0.000    0.000    0.000    0.000    0.000 
#    0.000    0.000    0.000    0.000    0.000    0.000 
#
# Total GULP energy -694047.351555 kJ/mol
# GULP energy per Si atom -12393.702706 kJ/mol
# Density = 2.221100 g / cm^3
# Si number density = 22.261668 Si / 1000 Ang^3
#
#
#
# Elastic Constant Matrix: (Units=GPa)
#
#
# Indices 1 2 3 4 5 6 
#
# 1 82.9909 14.2832 36.6126 0.0000 0.0000 0.0000
# 2 14.2832 78.5492 39.1006 0.0000 0.0000 0.0000
# 3 36.6126 39.1006 152.9672 0.0000 0.0000 0.0000
# 4 0.0000 0.0000 0.0000 29.9468 0.0000 0.0000
# 5 0.0000 0.0000 0.0000 0.0000 29.8477 0.0000
# 6 0.0000 0.0000 0.0000 0.0000 0.0000 26.2045
#
#
#
# Elastic Compliance Matrix: (Units=1/GPa)
#
#
# Indices 1 2 3 4 5 6 
#
# 1 0.013537 -0.000972 -0.002991 0.000000 0.000000 0.000000
# 2 -0.000972 0.014657 -0.003514 0.000000 0.000000 0.000000
# 3 -0.002991 -0.003514 0.008152 0.000000 0.000000 0.000000
# 4 0.000000 0.000000 0.000000 0.033393 0.000000 0.000000
# 5 0.000000 0.000000 0.000000 0.000000 0.033503 0.000000
# 6 0.000000 0.000000 0.000000 0.000000 0.000000 0.038161
#
#
# Mechanical properties :
#
#
# Convention : Reuss Voigt Hill
#
# Bulk Modulus (GPa) = 46.75131 54.94447 50.84789
# Shear Modulus (GPa) = 30.58342 32.16718 31.37530
#
# Velocity S-wave (km/s) = 3.71052 3.80538 3.75825
# Velocity P-wave (km/s) = 6.27724 6.63647 6.45935
#
# Compressibility (1/GPa) = 0.02138978
#
# Stress axis : x y z
#
# Youngs Moduli (GPa) = 73.87392 68.22779 122.67669
#
# Poissons Ratio (x) = 0.06634 0.36698
# Poissons Ratio (y) = 0.07183 0.43106
# Poissons Ratio (z) = 0.22099 0.23974
#
# Static dielectric constant tensor:
#      x y z
#    x 3.872160 0.000000 0.000000 
#    y 0.000000 3.722910 0.000000 
#    z 0.000000 0.000000 4.310670 
# 
# 
# High freq. dielectric constant tensor:
#      x y z
#    x 1.877100 0.000000 0.000000 
#    y 0.000000 1.861560 0.000000 
#    z 0.000000 0.000000 1.896200 
# 
# From -- ./inp_files/16861.got.cif
#   From: 2010.03.12/outbox.cif.g09.slc.cpg/sg60_9_cif.got.tgz:16861.got - 2010.04.10 18:46:24.
