data_PCOD8248186
_publ_section_title
;
Structure prediction by ZEFSAII (Michael W. Deem and Ramdas Pophale) SiO2 
 PCOD8248186
Probable space group: P B C N
;
_chemical_formula_sum "Si O2"
_cell_formula_units_Z 28
_cell_length_a 5.436687
_cell_length_b 24.237987
_cell_length_c 8.752225
_cell_angle_alpha 90.000000
_cell_angle_beta 90.000000
_cell_angle_gamma 90.000000
_cell_volume 1153.318750
_symmetry_space_group_name_H-M "P B C N"
_symmetry_group_IT_number 60
_symmetry_cell_setting 'orthorhombic'
loop_
_space_group_symop_operation_xyz
x,y,z
1/2-x,1/2-y,1/2+z
1/2+x,1/2-y,-z
-x,y,1/2-z
-x,-y,-z
1/2+x,1/2+y,1/2-z
1/2-x,1/2+y,z
x,-y,1/2+z
loop_
_atom_site_type_symbol
_atom_site_label
_atom_site_fract_x
_atom_site_fract_y
_atom_site_fract_z
Si Si1 0.250848 0.226608 0.347485
Si Si2 0.500000 0.995481 0.250000
Si Si3 0.471773 0.662957 0.923469
Si Si4 0.194644 0.048038 0.016921
O O1 0.500000 0.213362 0.250000
O O2 0.269083 0.288119 0.418942
O O3 0.000000 0.220609 0.250000
O O4 0.220768 0.186495 0.495403
O O5 0.697747 0.037764 0.316276
O O6 0.604282 0.955933 0.118007
O O7 0.500000 0.642066 0.750000
O O8 0.402514 0.609980 0.022459
O O9 0.000000 0.000000 0.000000
#
# Coordination Sequence:
#
# PCOD8248186 Si02
#       4
#     8   4   8   8
#     4  11  26  50  74 115 157 202 259 323 390 459
#     4  10  24  46  72 110 144 192 254 308 390 444
#     4  11  24  47  77 107 152 199 258 315 387 459
#     4  11  24  48  74 108 148 196 250 313 381 457
#
# _framework density 24.277764000000001
#
# number of rings (size 3 to 8) (size 9 to 14) (size 15 to 20)
#    0.000    1.143    0.000    6.000    2.000    2.286 
#   38.571    0.000    0.000    0.000    0.000    0.000 
#    0.000    0.000    0.000    0.000    0.000    0.000 
#
# Total GULP energy -346978.997581 kJ/mol
# GULP energy per Si atom -12392.107056 kJ/mol
# Density = 2.422251 g / cm^3
# Si number density = 24.277764 Si / 1000 Ang^3
#
#
#
# Elastic Constant Matrix: (Units=GPa)
#
#
# Indices 1 2 3 4 5 6 
#
# 1 128.9843 40.9957 42.9834 0.0000 0.0000 0.0000
# 2 40.9957 146.7570 30.0386 0.0000 0.0000 0.0000
# 3 42.9834 30.0386 94.7230 0.0000 0.0000 0.0000
# 4 0.0000 0.0000 0.0000 30.5252 0.0000 0.0000
# 5 0.0000 0.0000 0.0000 0.0000 47.9506 0.0000
# 6 0.0000 0.0000 0.0000 0.0000 0.0000 36.7256
#
#
#
# Elastic Compliance Matrix: (Units=1/GPa)
#
#
# Indices 1 2 3 4 5 6 
#
# 1 0.009613 -0.001917 -0.003754 0.000000 0.000000 0.000000
# 2 -0.001917 0.007669 -0.001562 0.000000 0.000000 0.000000
# 3 -0.003754 -0.001562 0.012756 0.000000 0.000000 0.000000
# 4 0.000000 0.000000 0.000000 0.032760 0.000000 0.000000
# 5 0.000000 0.000000 0.000000 0.000000 0.020855 0.000000
# 6 0.000000 0.000000 0.000000 0.000000 0.000000 0.027229
#
#
# Mechanical properties :
#
#
# Convention : Reuss Voigt Hill
#
# Bulk Modulus (GPa) = 64.21958 66.49998 65.35978
# Shear Modulus (GPa) = 38.30246 40.13672 39.21959
#
# Velocity S-wave (km/s) = 3.97631 4.07040 4.02363
# Velocity P-wave (km/s) = 6.89861 7.03859 6.96895
#
# Compressibility (1/GPa) = 0.01557157
#
# Stress axis : x y z
#
# Youngs Moduli (GPa) = 104.02262 130.39118 78.39341
#
# Poissons Ratio (x) = 0.24995 0.29432
# Poissons Ratio (y) = 0.19941 0.12247
# Poissons Ratio (z) = 0.39054 0.20370
#
# Static dielectric constant tensor:
#      x y z
#    x 4.532590 0.000000 0.000000 
#    y 0.000000 4.197130 0.000000 
#    z 0.000000 0.000000 4.940840 
# 
# 
# High freq. dielectric constant tensor:
#      x y z
#    x 1.957240 0.000000 0.000000 
#    y 0.000000 1.958210 0.000000 
#    z 0.000000 0.000000 1.990640 
# 
# From -- ./inp_files/2984.got.cif
#   From: 2010.03.12/outbox.cif.g09.slc.cpg/sg60_2_cif.got.tgz:2984.got - 2010.04.10 18:46:24.
