data_PCOD8248412
_publ_section_title
;
Structure prediction by ZEFSAII (Michael W. Deem and Ramdas Pophale) SiO2 
 PCOD8248412
Probable space group: P B C N
;
_chemical_formula_sum "Si O2"
_cell_formula_units_Z 44
_cell_length_a 15.476965
_cell_length_b 9.054760
_cell_length_c 13.484840
_cell_angle_alpha 90.000000
_cell_angle_beta 90.000000
_cell_angle_gamma 90.000000
_cell_volume 1889.768223
_symmetry_space_group_name_H-M "P B C N"
_symmetry_group_IT_number 60
_symmetry_cell_setting 'orthorhombic'
loop_
_space_group_symop_operation_xyz
x,y,z
1/2-x,1/2-y,1/2+z
1/2+x,1/2-y,-z
-x,y,1/2-z
-x,-y,-z
1/2+x,1/2+y,1/2-z
1/2-x,1/2+y,z
x,-y,1/2+z
loop_
_atom_site_type_symbol
_atom_site_label
_atom_site_fract_x
_atom_site_fract_y
_atom_site_fract_z
Si Si1 0.500000 0.288509 0.250000
Si Si2 0.634448 0.913080 0.645421
Si Si3 0.080881 0.345501 0.492993
Si Si4 0.892505 0.267099 0.462022
Si Si5 0.693837 0.990060 0.347585
Si Si6 0.112674 0.055044 0.586304
O O1 0.448456 0.179952 0.321225
O O2 0.438654 0.393263 0.183933
O O3 0.672783 0.812086 0.554096
O O4 0.614951 0.078854 0.606992
O O5 0.698760 0.943446 0.736779
O O6 0.129274 0.405916 0.590669
O O7 0.104456 0.171143 0.496265
O O8 0.976560 0.366558 0.491128
O O9 0.847769 0.324643 0.359635
O O10 0.923890 0.099421 0.456086
O O11 0.789482 0.986168 0.388618
#
# Coordination Sequence:
#
# PCOD8248412 Si02
#       6
#     4   8   8   8   8   8
#     4  12  24  44  78  98 148 198 238 296 364 444
#     4  11  22  45  76  96 135 201 244 278 358 450
#     4  11  23  45  75 103 142 192 241 299 362 440
#     4  11  24  44  73 107 141 191 240 306 365 431
#     4  11  24  48  70 102 144 192 247 299 351 437
#     4  12  26  46  68 111 154 182 237 321 360 407
#
# _framework density 23.283276999999998
#
# number of rings (size 3 to 8) (size 9 to 14) (size 15 to 20)
#    0.000    0.727    3.636    4.909    0.000    1.455 
#   13.091    1.818    0.000    0.000    0.000    0.000 
#    0.000    0.000    0.000    0.000    0.000    0.000 
#
# Total GULP energy -545118.532574 kJ/mol
# GULP energy per Si atom -12389.057559 kJ/mol
# Density = 2.323028 g / cm^3
# Si number density = 23.283277 Si / 1000 Ang^3
#
#
#
# Elastic Constant Matrix: (Units=GPa)
#
#
# Indices 1 2 3 4 5 6 
#
# 1 72.7475 11.0905 28.8290 0.0000 0.0000 0.0000
# 2 11.0905 141.1317 46.6623 0.0000 0.0000 0.0000
# 3 28.8290 46.6623 119.5242 0.0000 0.0000 0.0000
# 4 0.0000 0.0000 0.0000 37.8101 0.0000 0.0000
# 5 0.0000 0.0000 0.0000 0.0000 24.1778 0.0000
# 6 0.0000 0.0000 0.0000 0.0000 0.0000 21.9670
#
#
#
# Elastic Compliance Matrix: (Units=1/GPa)
#
#
# Indices 1 2 3 4 5 6 
#
# 1 0.015199 0.000020 -0.003674 0.000000 0.000000 0.000000
# 2 0.000020 0.008136 -0.003181 0.000000 0.000000 0.000000
# 3 -0.003674 -0.003181 0.010495 0.000000 0.000000 0.000000
# 4 0.000000 0.000000 0.000000 0.026448 0.000000 0.000000
# 5 0.000000 0.000000 0.000000 0.000000 0.041360 0.000000
# 6 0.000000 0.000000 0.000000 0.000000 0.000000 0.045523
#
#
# Mechanical properties :
#
#
# Convention : Reuss Voigt Hill
#
# Bulk Modulus (GPa) = 49.60330 56.28521 52.94425
# Shear Modulus (GPa) = 29.84186 33.24573 31.54380
#
# Velocity S-wave (km/s) = 3.58395 3.78283 3.68473
# Velocity P-wave (km/s) = 6.20296 6.58075 6.39465
#
# Compressibility (1/GPa) = 0.02015995
#
# Stress axis : x y z
#
# Youngs Moduli (GPa) = 65.79376 122.91431 95.28760
#
# Poissons Ratio (x) = -0.00250 0.35008
# Poissons Ratio (y) = -0.00134 0.30312
# Poissons Ratio (z) = 0.24172 0.39100
#
# Static dielectric constant tensor:
#      x y z
#    x 3.984610 0.000000 0.000000 
#    y 0.000000 4.595780 0.000000 
#    z 0.000000 0.000000 4.434680 
# 
# 
# High freq. dielectric constant tensor:
#      x y z
#    x 1.908940 0.000000 0.000000 
#    y 0.000000 1.938240 0.000000 
#    z 0.000000 0.000000 1.914530 
# 
# From -- ./inp_files/17283.got.cif
#   From: 2010.03.12/outbox.cif.g09.slc.cpg/sg60_9_cif.got.tgz:17283.got - 2010.04.10 18:46:24.
