data_PCOD8248669
_publ_section_title
;
Structure prediction by ZEFSAII (Michael W. Deem and Ramdas Pophale) SiO2 
 PCOD8248669
Probable space group: P B C N
;
_chemical_formula_sum "Si O2"
_cell_formula_units_Z 40
_cell_length_a 6.563258
_cell_length_b 10.230535
_cell_length_c 25.998716
_cell_angle_alpha 90.000000
_cell_angle_beta 90.000000
_cell_angle_gamma 90.000000
_cell_volume 1745.700443
_symmetry_space_group_name_H-M "P B C N"
_symmetry_group_IT_number 60
_symmetry_cell_setting 'orthorhombic'
loop_
_space_group_symop_operation_xyz
x,y,z
1/2-x,1/2-y,1/2+z
1/2+x,1/2-y,-z
-x,y,1/2-z
-x,-y,-z
1/2+x,1/2+y,1/2-z
1/2-x,1/2+y,z
x,-y,1/2+z
loop_
_atom_site_type_symbol
_atom_site_label
_atom_site_fract_x
_atom_site_fract_y
_atom_site_fract_z
Si Si1 0.452364 0.880719 0.535484
Si Si2 0.188567 0.056476 0.851452
Si Si3 0.323555 0.773792 0.434133
Si Si4 0.539289 0.175559 0.190111
Si Si5 0.660565 0.377618 0.876828
O O1 0.378712 0.770683 0.494633
O O2 0.634208 0.826487 0.571434
O O3 0.276015 0.930421 0.572885
O O4 0.500000 0.000000 0.500000
O O5 0.257488 0.084184 0.911074
O O6 0.177478 0.197993 0.823563
O O7 0.346524 0.959498 0.824113
O O8 0.962060 0.995928 0.850724
O O9 0.505217 0.731939 0.396684
O O10 0.500000 0.175095 0.250000
O O11 0.318715 0.184829 0.163094
#
# Coordination Sequence:
#
# PCOD8248669 Si02
#       5
#     8   8   8   8   8
#     4  12  26  41  70 110 150 207 252 310 374 454
#     4  12  28  53  76 115 154 199 259 321 386 466
#     4  12  25  46  72 111 155 202 258 307 383 458
#     4  12  31  51  83 113 148 202 259 326 394 459
#     4  12  26  48  75 105 155 203 251 318 379 454
#
# _framework density 22.913437999999999
#
# number of rings (size 3 to 8) (size 9 to 14) (size 15 to 20)
#    0.000    0.000    6.000    2.400   11.200    1.600 
#    0.000    0.000    0.000    0.000    0.000    0.000 
#    0.000    0.000    0.000    0.000    0.000    0.000 
#
# Total GULP energy -496039.126220 kJ/mol
# GULP energy per Si atom -12400.978156 kJ/mol
# Density = 2.286129 g / cm^3
# Si number density = 22.913438 Si / 1000 Ang^3
#
#
#
# Elastic Constant Matrix: (Units=GPa)
#
#
# Indices 1 2 3 4 5 6 
#
# 1 129.5194 29.3868 45.9050 0.0000 0.0000 0.0000
# 2 29.3868 95.7989 20.8805 0.0000 0.0000 0.0000
# 3 45.9050 20.8805 130.4508 0.0000 0.0000 0.0000
# 4 0.0000 0.0000 0.0000 30.2324 0.0000 0.0000
# 5 0.0000 0.0000 0.0000 0.0000 33.5053 0.0000
# 6 0.0000 0.0000 0.0000 0.0000 0.0000 39.4630
#
#
#
# Elastic Compliance Matrix: (Units=1/GPa)
#
#
# Indices 1 2 3 4 5 6 
#
# 1 0.009250 -0.002205 -0.002902 0.000000 0.000000 0.000000
# 2 -0.002205 0.011341 -0.001039 0.000000 0.000000 0.000000
# 3 -0.002902 -0.001039 0.008853 0.000000 0.000000 0.000000
# 4 0.000000 0.000000 0.000000 0.033077 0.000000 0.000000
# 5 0.000000 0.000000 0.000000 0.000000 0.029846 0.000000
# 6 0.000000 0.000000 0.000000 0.000000 0.000000 0.025340
#
#
# Mechanical properties :
#
#
# Convention : Reuss Voigt Hill
#
# Bulk Modulus (GPa) = 58.30307 60.90153 59.60230
# Shear Modulus (GPa) = 36.84123 37.94662 37.39393
#
# Velocity S-wave (km/s) = 4.01414 4.07392 4.04414
# Velocity P-wave (km/s) = 6.85453 6.98325 6.91919
#
# Compressibility (1/GPa) = 0.01715175
#
# Stress axis : x y z
#
# Youngs Moduli (GPa) = 108.11222 88.17220 112.95222
#
# Poissons Ratio (x) = 0.19441 0.32779
# Poissons Ratio (y) = 0.23837 0.11741
# Poissons Ratio (z) = 0.31374 0.09165
#
# Static dielectric constant tensor:
#      x y z
#    x 4.562680 0.000000 0.000000 
#    y 0.000000 4.581250 0.000000 
#    z 0.000000 0.000000 37.366340 
# 
# 
# High freq. dielectric constant tensor:
#      x y z
#    x 1.917410 0.000000 0.000000 
#    y 0.000000 1.907010 0.000000 
#    z 0.000000 0.000000 1.907520 
# 
# From -- ./inp_files/24757.got.cif
#   From: 2010.03.12/outbox.cif.g09.slc.cpg/sg60_13_cif.got.tgz:24757.got - 2010.04.10 18:46:24.
