data_PCOD8248899
_publ_section_title
;
Structure prediction by ZEFSAII (Michael W. Deem and Ramdas Pophale) SiO2 
 PCOD8248899
Probable space group: P B C A
;
_chemical_formula_sum "Si O2"
_cell_formula_units_Z 40
_cell_length_a 15.226873
_cell_length_b 8.906356
_cell_length_c 14.289242
_cell_angle_alpha 90.000000
_cell_angle_beta 90.000000
_cell_angle_gamma 90.000000
_cell_volume 1937.849153
_symmetry_space_group_name_H-M "P B C A"
_symmetry_group_IT_number 61
_symmetry_cell_setting 'orthorhombic'
loop_
_space_group_symop_operation_xyz
x,y,z
1/2-x,-y,1/2+z
1/2+x,1/2-y,-z
-x,1/2+y,1/2-z
-x,-y,-z
1/2+x,y,1/2-z
1/2-x,1/2+y,z
x,1/2-y,1/2+z
loop_
_atom_site_type_symbol
_atom_site_label
_atom_site_fract_x
_atom_site_fract_y
_atom_site_fract_z
Si Si1 0.579143 0.095041 0.541600
Si Si2 0.125830 0.432065 0.254635
Si Si3 0.221695 0.539743 0.945535
Si Si4 0.075092 0.414087 0.053169
Si Si5 0.263196 0.298369 0.814470
O O1 0.567224 0.108313 0.654138
O O2 0.675667 0.023664 0.526541
O O3 0.578992 0.249431 0.487131
O O4 0.500000 0.000000 0.500000
O O5 0.062662 0.413091 0.165252
O O6 0.162861 0.604184 0.259919
O O7 0.206636 0.311809 0.247269
O O8 0.198383 0.414990 0.866664
O O9 0.195144 0.698586 0.898937
O O10 0.165208 0.506453 0.037277
O O11 0.000000 0.500000 0.000000
#
# Coordination Sequence:
#
# PCOD8248899 Si02
#       5
#     8   8   8   8   8
#     4  10  24  46  67  94 138 182 218 275 342 402
#     4  10  22  42  65 102 132 176 230 271 342 400
#     4  10  19  43  66  92 131 171 224 276 330 396
#     4  12  27  40  64 104 136 173 231 274 332 404
#     4   8  18  39  68  89 126 173 224 265 333 399
#
# _framework density 20.641441
#
# number of rings (size 3 to 8) (size 9 to 14) (size 15 to 20)
#    0.000    2.400    4.000    0.000    8.400    1.600 
#    0.000    0.000    0.000    0.000    0.000    0.000 
#    0.000    0.000    0.000    0.000    0.000    0.000 
#
# Total GULP energy -495564.304543 kJ/mol
# GULP energy per Si atom -12389.107614 kJ/mol
# Density = 2.059446 g / cm^3
# Si number density = 20.641441 Si / 1000 Ang^3
#
#
#
# Elastic Constant Matrix: (Units=GPa)
#
#
# Indices 1 2 3 4 5 6 
#
# 1 104.4130 42.8250 61.9665 0.0000 0.0000 0.0000
# 2 42.8250 134.9835 51.1579 0.0000 0.0000 0.0000
# 3 61.9665 51.1579 164.7456 0.0000 0.0000 0.0000
# 4 0.0000 0.0000 0.0000 28.2576 0.0000 0.0000
# 5 0.0000 0.0000 0.0000 0.0000 36.6167 0.0000
# 6 0.0000 0.0000 0.0000 0.0000 0.0000 22.6223
#
#
#
# Elastic Compliance Matrix: (Units=1/GPa)
#
#
# Indices 1 2 3 4 5 6 
#
# 1 0.013083 -0.002591 -0.004116 0.000000 0.000000 0.000000
# 2 -0.002591 0.008909 -0.001792 0.000000 0.000000 0.000000
# 3 -0.004116 -0.001792 0.008175 0.000000 0.000000 0.000000
# 4 0.000000 0.000000 0.000000 0.035389 0.000000 0.000000
# 5 0.000000 0.000000 0.000000 0.000000 0.027310 0.000000
# 6 0.000000 0.000000 0.000000 0.000000 0.000000 0.044204
#
#
# Mechanical properties :
#
#
# Convention : Reuss Voigt Hill
#
# Bulk Modulus (GPa) = 75.93796 79.56008 77.74902
# Shear Modulus (GPa) = 31.55407 34.04550 32.79979
#
# Velocity S-wave (km/s) = 3.91407 4.06566 3.99058
# Velocity P-wave (km/s) = 7.56938 7.78890 7.67992
#
# Compressibility (1/GPa) = 0.01316864
#
# Stress axis : x y z
#
# Youngs Moduli (GPa) = 76.43561 112.24058 122.32639
#
# Poissons Ratio (x) = 0.29077 0.50356
# Poissons Ratio (y) = 0.19801 0.21924
# Poissons Ratio (z) = 0.31465 0.20116
#
# Static dielectric constant tensor:
#      x y z
#    x 3.507660 0.000000 0.000000 
#    y 0.000000 4.552490 0.000000 
#    z 0.000000 0.000000 3.745330 
# 
# 
# High freq. dielectric constant tensor:
#      x y z
#    x 1.779230 0.000000 0.000000 
#    y 0.000000 1.828600 0.000000 
#    z 0.000000 0.000000 1.797340 
# 
# From -- ./inp_files/6967.got.cif
#   From: 2010.03.12/outbox.cif.g09.slc.cpg/sg61_4_cif.got.tgz:6967.got - 2010.04.10 19:05:03.
