data_PCOD8248340
_publ_section_title
;
Structure prediction by ZEFSAII (Michael W. Deem and Ramdas Pophale) SiO2 
 PCOD8248340
Probable space group: P B C N
;
_chemical_formula_sum "Si O2"
_cell_formula_units_Z 60
_cell_length_a 5.371226
_cell_length_b 18.332894
_cell_length_c 27.678782
_cell_angle_alpha 90.000000
_cell_angle_beta 90.000000
_cell_angle_gamma 90.000000
_cell_volume 2725.532899
_symmetry_space_group_name_H-M "P B C N"
_symmetry_group_IT_number 60
_symmetry_cell_setting 'orthorhombic'
loop_
_space_group_symop_operation_xyz
x,y,z
1/2-x,1/2-y,1/2+z
1/2+x,1/2-y,-z
-x,y,1/2-z
-x,-y,-z
1/2+x,1/2+y,1/2-z
1/2-x,1/2+y,z
x,-y,1/2+z
loop_
_atom_site_type_symbol
_atom_site_label
_atom_site_fract_x
_atom_site_fract_y
_atom_site_fract_z
Si Si1 0.000000 0.571473 0.750000
Si Si2 0.681338 0.888090 0.879529
Si Si3 0.396934 0.468104 0.700507
Si Si4 0.028926 0.060110 0.459768
Si Si5 0.890140 0.346256 0.159075
Si Si6 0.144943 0.205863 0.512168
Si Si7 0.205680 0.494600 0.371259
Si Si8 0.113120 0.779605 0.121355
O O1 0.831759 0.521072 0.785135
O O2 0.856599 0.625903 0.713967
O O3 0.589482 0.806847 0.885877
O O4 0.776778 0.917024 0.931579
O O5 0.876191 0.897817 0.835435
O O6 0.479913 0.941861 0.855793
O O7 0.500000 0.434512 0.750000
O O8 0.593266 0.518802 0.671616
O O9 0.158848 0.132287 0.480775
O O10 0.204011 0.019334 0.422916
O O11 0.000000 0.000000 0.500000
O O12 0.921474 0.415358 0.122703
O O13 0.640538 0.301864 0.147409
O O14 0.139744 0.298072 0.152007
O O15 0.399404 0.249449 0.502951
O O16 0.128296 0.184132 0.568431
#
# Coordination Sequence:
#
# PCOD8248340 Si02
#       8
#     4   8   8   8   8   8   8   8
#     4  12  24  46  72 112 138 190 242 318 368 444
#     4  11  25  47  70 106 146 194 237 312 367 444
#     4  11  21  42  77 104 138 188 245 298 375 434
#     4  11  26  43  70 108 142 189 252 309 354 434
#     4  12  27  47  76 108 144 196 244 310 369 448
#     4  12  25  48  74 104 148 202 240 296 372 445
#     4  11  24  43  75 100 145 189 250 304 360 433
#     4  12  28  48  73 107 156 195 244 297 384 442
#
# _framework density 22.014042
#
# number of rings (size 3 to 8) (size 9 to 14) (size 15 to 20)
#    0.000    0.533    4.000    3.200    7.467    0.533 
#    1.200    1.333    0.000    0.000    0.000    0.000 
#    0.000    0.000    0.000    0.000    0.000    0.000 
#
# Total GULP energy -743517.785574 kJ/mol
# GULP energy per Si atom -12391.963093 kJ/mol
# Density = 2.196394 g / cm^3
# Si number density = 22.014042 Si / 1000 Ang^3
#
#
#
# Elastic Constant Matrix: (Units=GPa)
#
#
# Indices 1 2 3 4 5 6 
#
# 1 110.0185 47.2875 24.0175 0.0000 0.0000 0.0000
# 2 47.2875 140.3894 50.7548 0.0000 0.0000 0.0000
# 3 24.0175 50.7548 142.6892 0.0000 0.0000 0.0000
# 4 0.0000 0.0000 0.0000 -524.0551 0.0000 0.0000
# 5 0.0000 0.0000 0.0000 0.0000 26.2642 0.0000
# 6 0.0000 0.0000 0.0000 0.0000 0.0000 52.1392
#
#
#
# Elastic Compliance Matrix: (Units=1/GPa)
#
#
# Indices 1 2 3 4 5 6 
#
# 1 0.010672 -0.003380 -0.000594 0.000000 0.000000 0.000000
# 2 -0.003380 0.009245 -0.002719 0.000000 0.000000 0.000000
# 3 -0.000594 -0.002719 0.008076 0.000000 0.000000 0.000000
# 4 0.000000 0.000000 0.000000 -0.001908 0.000000 0.000000
# 5 0.000000 0.000000 0.000000 0.000000 0.038075 0.000000
# 6 0.000000 0.000000 0.000000 0.000000 0.000000 0.019179
#
#
# Mechanical properties :
#
#
# Convention : Reuss Voigt Hill
#
# Bulk Modulus (GPa) = 68.46834 70.80186 69.63510
# Shear Modulus (GPa) = 49.21606 -71.06119 -10.92256
#
# Velocity S-wave (km/s) = 4.73341 -5.68771 -2.22989
# Velocity P-wave (km/s) = 7.81302 3.30173 5.00709
#
# Compressibility (1/GPa) = 0.01460529
#
# Stress axis : x y z
#
# Youngs Moduli (GPa) = 93.70533 108.17098 123.83068
#
# Poissons Ratio (x) = 0.36560 0.07356
# Poissons Ratio (y) = 0.31671 0.33675
# Poissons Ratio (z) = 0.05567 0.29416
#
# Static dielectric constant tensor:
#      x y z
#    x 3.993030 0.000000 0.000000 
#    y 0.000000 3.944480 0.000000 
#    z 0.000000 0.000000 4.083840 
# 
# 
# High freq. dielectric constant tensor:
#      x y z
#    x 1.871960 0.000000 0.000000 
#    y 0.000000 1.862380 0.000000 
#    z 0.000000 0.000000 1.883640 
# 
# From -- ./inp_files/24982.got.cif
#   From: 2010.03.12/outbox.cif.g09.slc.cpg/sg60_13_cif.got.tgz:24982.got - 2010.04.10 18:46:24.
