data_PCOD8248787
_publ_section_title
;
Structure prediction by ZEFSAII (Michael W. Deem and Ramdas Pophale) SiO2 
 PCOD8248787
Probable space group: P B C A
;
_chemical_formula_sum "Si O2"
_cell_formula_units_Z 64
_cell_length_a 20.941097
_cell_length_b 27.014073
_cell_length_c 5.361734
_cell_angle_alpha 90.000000
_cell_angle_beta 90.000000
_cell_angle_gamma 90.000000
_cell_volume 3033.156103
_symmetry_space_group_name_H-M "P B C A"
_symmetry_group_IT_number 61
_symmetry_cell_setting 'orthorhombic'
loop_
_space_group_symop_operation_xyz
x,y,z
1/2-x,-y,1/2+z
1/2+x,1/2-y,-z
-x,1/2+y,1/2-z
-x,-y,-z
1/2+x,y,1/2-z
1/2-x,1/2+y,z
x,1/2-y,1/2+z
loop_
_atom_site_type_symbol
_atom_site_label
_atom_site_fract_x
_atom_site_fract_y
_atom_site_fract_z
Si Si1 0.237873 0.936234 0.798310
Si Si2 0.558783 0.952042 0.251360
Si Si3 0.934488 0.944955 0.930113
Si Si4 0.842512 0.234061 0.949104
Si Si5 0.516652 0.726097 0.519319
Si Si6 0.690584 0.453900 0.199221
Si Si7 0.510286 0.879628 0.861543
Si Si8 0.370413 0.373806 0.973750
O O1 0.274580 0.929746 0.538936
O O2 0.187362 0.891559 0.798740
O O3 0.199031 0.987298 0.804355
O O4 0.285392 0.931791 0.037552
O O5 0.505387 0.951357 0.463215
O O6 0.618358 0.917008 0.323544
O O7 0.583853 0.008972 0.243413
O O8 0.532084 0.931152 0.992344
O O9 0.942615 0.894042 0.770776
O O10 0.884048 0.940731 0.155983
O O11 0.805144 0.258822 0.714227
O O12 0.907591 0.264026 0.016066
O O13 0.852172 0.176528 0.886433
O O14 0.485892 0.751600 0.765119
O O15 0.500569 0.667272 0.543914
O O16 0.564948 0.861696 0.673190
#
# Coordination Sequence:
#
# PCOD8248787 Si02
#       8
#     8   8   8   8   8   8   8   8
#     4  10  23  37  61  81 106 160 197 248 280 340
#     4  10  21  35  53  85 121 157 193 234 297 352
#     4  10  22  37  53  83 120 163 196 242 285 352
#     4  10  19  32  52  81 119 147 175 236 301 361
#     4  10  19  35  53  81 119 151 184 234 295 364
#     4  10  22  42  56  79 115 154 205 237 284 328
#     4  11  22  32  59  86 122 159 189 240 307 367
#     4  11  21  34  56  88 118 149 197 238 304 361
#
# _framework density 21.100135000000002
#
# number of rings (size 3 to 8) (size 9 to 14) (size 15 to 20)
#    0.000    1.750    3.750    1.875    5.250    1.000 
#    0.000    0.000    0.000    0.000    0.000    5.250 
#    0.000    0.000    0.000    0.000    0.000    0.000 
#
# Total GULP energy -793149.099725 kJ/mol
# GULP energy per Si atom -12392.954683 kJ/mol
# Density = 2.105211 g / cm^3
# Si number density = 21.100135 Si / 1000 Ang^3
#
#
#
# Elastic Constant Matrix: (Units=GPa)
#
#
# Indices 1 2 3 4 5 6 
#
# 1 24.9888 16.6970 -4.8599 0.0000 0.0000 0.0000
# 2 16.6970 82.1836 11.5331 0.0000 0.0000 0.0000
# 3 -4.8599 11.5331 99.7668 0.0000 0.0000 0.0000
# 4 0.0000 0.0000 0.0000 23.0561 0.0000 0.0000
# 5 0.0000 0.0000 0.0000 0.0000 14.9717 0.0000
# 6 0.0000 0.0000 0.0000 0.0000 0.0000 15.6810
#
#
#
# Elastic Compliance Matrix: (Units=1/GPa)
#
#
# Indices 1 2 3 4 5 6 
#
# 1 0.047466 -0.010132 0.003483 0.000000 0.000000 0.000000
# 2 -0.010132 0.014531 -0.002173 0.000000 0.000000 0.000000
# 3 0.003483 -0.002173 0.010444 0.000000 0.000000 0.000000
# 4 0.000000 0.000000 0.000000 0.043372 0.000000 0.000000
# 5 0.000000 0.000000 0.000000 0.000000 0.066793 0.000000
# 6 0.000000 0.000000 0.000000 0.000000 0.000000 0.063772
#
#
# Mechanical properties :
#
#
# Convention : Reuss Voigt Hill
#
# Bulk Modulus (GPa) = 18.24923 28.18662 23.21792
# Shear Modulus (GPa) = 17.71240 22.97968 20.34604
#
# Velocity S-wave (km/s) = 2.90046 3.30370 3.10862
# Velocity P-wave (km/s) = 4.45921 5.28584 4.89002
#
# Compressibility (1/GPa) = 0.05479685
#
# Stress axis : x y z
#
# Youngs Moduli (GPa) = 21.06793 68.81641 95.74586
#
# Poissons Ratio (x) = 0.69727 -0.33353
# Poissons Ratio (y) = 0.21347 0.20810
# Poissons Ratio (z) = -0.07339 0.14957
#
# Static dielectric constant tensor:
#      x y z
#    x 3.383120 0.000000 0.000000 
#    y 0.000000 3.818340 0.000000 
#    z 0.000000 0.000000 4.234800 
# 
# 
# High freq. dielectric constant tensor:
#      x y z
#    x 1.763520 0.000000 0.000000 
#    y 0.000000 1.818280 0.000000 
#    z 0.000000 0.000000 1.842060 
# 
# From -- ./inp_files/1109.got.cif
#   From: 2010.03.12/outbox.cif.g09.slc.cpg/sg61_1_cif.got.tgz:1109.got - 2010.04.10 19:05:03.
