data_PCOD8248946
_publ_section_title
;
Structure prediction by ZEFSAII (Michael W. Deem and Ramdas Pophale) SiO2 
 PCOD8248946
Probable space group: P B C A
;
_chemical_formula_sum "Si O2"
_cell_formula_units_Z 56
_cell_length_a 13.199623
_cell_length_b 15.472746
_cell_length_c 13.883154
_cell_angle_alpha 90.000000
_cell_angle_beta 90.000000
_cell_angle_gamma 90.000000
_cell_volume 2835.417821
_symmetry_space_group_name_H-M "P B C A"
_symmetry_group_IT_number 61
_symmetry_cell_setting 'orthorhombic'
loop_
_space_group_symop_operation_xyz
x,y,z
1/2-x,-y,1/2+z
1/2+x,1/2-y,-z
-x,1/2+y,1/2-z
-x,-y,-z
1/2+x,y,1/2-z
1/2-x,1/2+y,z
x,1/2-y,1/2+z
loop_
_atom_site_type_symbol
_atom_site_label
_atom_site_fract_x
_atom_site_fract_y
_atom_site_fract_z
Si Si1 0.254621 0.454475 0.706646
Si Si2 0.874307 0.943261 0.964282
Si Si3 0.533598 0.811658 0.470392
Si Si4 0.579354 0.570888 0.817115
Si Si5 0.966189 0.986083 0.357358
Si Si6 0.208583 0.600615 0.419792
Si Si7 0.567290 0.127857 0.036566
O O1 0.195412 0.401334 0.622090
O O2 0.187732 0.541609 0.727491
O O3 0.354281 0.481177 0.652268
O O4 0.278352 0.401971 0.803910
O O5 0.929869 0.865609 0.016762
O O6 0.952605 0.007723 0.907812
O O7 0.809424 0.003908 0.038082
O O8 0.582942 0.834281 0.365659
O O9 0.616344 0.833742 0.553738
O O10 0.499540 0.713693 0.464658
O O11 0.493412 0.567331 0.737686
O O12 0.040804 0.068659 0.370249
O O13 0.975619 0.920946 0.444602
O O14 0.311596 0.641436 0.464718
#
# Coordination Sequence:
#
# PCOD8248946 Si02
#       7
#     8   8   8   8   8   8   8
#     4  10  20  35  69  88 117 169 211 258 299 403
#     4   9  19  37  65  91 118 165 215 256 319 379
#     4  11  22  40  65  95 129 165 213 282 315 377
#     4   9  19  38  63  90 113 163 216 253 314 381
#     4  11  20  42  61  88 127 175 206 250 330 395
#     4  11  20  42  64  93 126 170 213 260 329 390
#     4  11  24  39  63  91 137 166 209 265 330 387
#
# _framework density 19.750177000000001
#
# number of rings (size 3 to 8) (size 9 to 14) (size 15 to 20)
#    0.857    0.857    2.857    3.429    0.000    1.143 
#    7.714    0.000    0.000    0.000    0.000    0.000 
#    0.000    0.000    0.000    0.000    0.000    0.000 
#
# Total GULP energy -693763.655608 kJ/mol
# GULP energy per Si atom -12388.636707 kJ/mol
# Density = 1.970522 g / cm^3
# Si number density = 19.750177 Si / 1000 Ang^3
#
#
#
# Elastic Constant Matrix: (Units=GPa)
#
#
# Indices 1 2 3 4 5 6 
#
# 1 93.8384 42.4275 18.6041 0.0000 0.0000 0.0000
# 2 42.4275 91.2978 35.7158 0.0000 0.0000 0.0000
# 3 18.6041 35.7158 85.0708 0.0000 0.0000 0.0000
# 4 0.0000 0.0000 0.0000 14.5654 0.0000 0.0000
# 5 0.0000 0.0000 0.0000 0.0000 29.9223 0.0000
# 6 0.0000 0.0000 0.0000 0.0000 0.0000 28.9356
#
#
#
# Elastic Compliance Matrix: (Units=1/GPa)
#
#
# Indices 1 2 3 4 5 6 
#
# 1 0.013502 -0.006125 -0.000381 0.000000 0.000000 0.000000
# 2 -0.006125 0.015885 -0.005329 0.000000 0.000000 0.000000
# 3 -0.000381 -0.005329 0.014076 0.000000 0.000000 0.000000
# 4 0.000000 0.000000 0.000000 0.068656 0.000000 0.000000
# 5 0.000000 0.000000 0.000000 0.000000 0.033420 0.000000
# 6 0.000000 0.000000 0.000000 0.000000 0.000000 0.034560
#
#
# Mechanical properties :
#
#
# Convention : Reuss Voigt Hill
#
# Bulk Modulus (GPa) = 50.52951 51.52242 51.02597
# Shear Modulus (GPa) = 23.76816 26.24862 25.00839
#
# Velocity S-wave (km/s) = 3.47283 3.64954 3.56228
# Velocity P-wave (km/s) = 6.45915 6.62590 6.54306
#
# Compressibility (1/GPa) = 0.01979041
#
# Stress axis : x y z
#
# Youngs Moduli (GPa) = 74.06509 62.95417 71.04438
#
# Poissons Ratio (x) = 0.38562 0.02707
# Poissons Ratio (y) = 0.45368 0.37862
# Poissons Ratio (z) = 0.02822 0.33551
#
# Static dielectric constant tensor:
#      x y z
#    x 3.713020 0.000000 0.000000 
#    y 0.000000 3.259660 0.000000 
#    z 0.000000 0.000000 3.656320 
# 
# 
# High freq. dielectric constant tensor:
#      x y z
#    x 1.780960 0.000000 0.000000 
#    y 0.000000 1.722930 0.000000 
#    z 0.000000 0.000000 1.778170 
# 
# From -- ./inp_files/7914.got.cif
#   From: 2010.03.12/outbox.cif.g09.slc.cpg/sg61_4_cif.got.tgz:7914.got - 2010.04.10 19:05:03.
