data_PCOD8248658
_publ_section_title
;
Structure prediction by ZEFSAII (Michael W. Deem and Ramdas Pophale) SiO2 
 PCOD8248658
Probable space group: P B C N
;
_chemical_formula_sum "Si O2"
_cell_formula_units_Z 28
_cell_length_a 10.340747
_cell_length_b 20.395381
_cell_length_c 5.515289
_cell_angle_alpha 90.000000
_cell_angle_beta 90.000000
_cell_angle_gamma 90.000000
_cell_volume 1163.193615
_symmetry_space_group_name_H-M "P B C N"
_symmetry_group_IT_number 60
_symmetry_cell_setting 'orthorhombic'
loop_
_space_group_symop_operation_xyz
x,y,z
1/2-x,1/2-y,1/2+z
1/2+x,1/2-y,-z
-x,y,1/2-z
-x,-y,-z
1/2+x,1/2+y,1/2-z
1/2-x,1/2+y,z
x,-y,1/2+z
loop_
_atom_site_type_symbol
_atom_site_label
_atom_site_fract_x
_atom_site_fract_y
_atom_site_fract_z
Si Si1 0.500000 0.891019 0.750000
Si Si2 0.122696 0.301209 0.099358
Si Si3 0.370704 0.338667 0.396381
Si Si4 0.270610 0.960548 0.563014
O O1 0.611895 0.843672 0.644570
O O2 0.419850 0.935507 0.559233
O O3 0.258056 0.320198 0.211362
O O4 0.000000 0.325893 0.250000
O O5 0.109817 0.223496 0.069258
O O6 0.500000 0.354752 0.250000
O O7 0.332770 0.401468 0.555958
O O8 0.247466 0.002807 0.319469
#
# Coordination Sequence:
#
# PCOD8248658 Si02
#       4
#     4   8   8   8
#     4  12  24  50  80 114 146 198 278 332 380 442
#     4  12  24  48  78 116 151 194 263 333 396 452
#     4  12  26  47  76 116 159 202 255 323 402 471
#     4  12  28  49  78 112 160 215 260 314 380 474
#
# _framework density 24.071659
#
# number of rings (size 3 to 8) (size 9 to 14) (size 15 to 20)
#    0.000    0.000    4.286    6.000    0.000    3.429 
#    0.000    0.000    0.000    0.000    0.000    0.000 
#    0.000    0.000    0.000    0.000    0.000    0.000 
#
# Total GULP energy -347152.026323 kJ/mol
# GULP energy per Si atom -12398.286654 kJ/mol
# Density = 2.401687 g / cm^3
# Si number density = 24.071659 Si / 1000 Ang^3
#
#
#
# Elastic Constant Matrix: (Units=GPa)
#
#
# Indices 1 2 3 4 5 6 
#
# 1 155.6043 40.6398 45.0124 0.0000 0.0000 0.0000
# 2 40.6398 129.3113 64.7465 0.0000 0.0000 0.0000
# 3 45.0124 64.7465 130.7287 0.0000 0.0000 0.0000
# 4 0.0000 0.0000 0.0000 -653.2327 0.0000 0.0000
# 5 0.0000 0.0000 0.0000 0.0000 28.9718 0.0000
# 6 0.0000 0.0000 0.0000 0.0000 0.0000 47.9491
#
#
#
# Elastic Compliance Matrix: (Units=1/GPa)
#
#
# Indices 1 2 3 4 5 6 
#
# 1 0.007318 -0.001381 -0.001836 0.000000 0.000000 0.000000
# 2 -0.001381 0.010544 -0.004747 0.000000 0.000000 0.000000
# 3 -0.001836 -0.004747 0.010633 0.000000 0.000000 0.000000
# 4 0.000000 0.000000 0.000000 -0.001531 0.000000 0.000000
# 5 0.000000 0.000000 0.000000 0.000000 0.034516 0.000000
# 6 0.000000 0.000000 0.000000 0.000000 0.000000 0.020855
#
#
# Mechanical properties :
#
#
# Convention : Reuss Voigt Hill
#
# Bulk Modulus (GPa) = 79.56796 79.60464 79.58630
# Shear Modulus (GPa) = 48.80349 -97.57932 -24.38791
#
# Velocity S-wave (km/s) = 4.50758 -6.37378 -3.18644
# Velocity P-wave (km/s) = 7.75999 4.58531 4.42676
#
# Compressibility (1/GPa) = 0.01256787
#
# Stress axis : x y z
#
# Youngs Moduli (GPa) = 136.64439 94.84169 94.05103
#
# Poissons Ratio (x) = 0.13095 0.17268
# Poissons Ratio (y) = 0.18866 0.44643
# Poissons Ratio (z) = 0.25088 0.45019
#
# Static dielectric constant tensor:
#      x y z
#    x 3.828920 0.000000 0.000000 
#    y 0.000000 4.746230 0.000000 
#    z 0.000000 0.000000 4.413110 
# 
# 
# High freq. dielectric constant tensor:
#      x y z
#    x 1.961090 0.000000 0.000000 
#    y 0.000000 1.975150 0.000000 
#    z 0.000000 0.000000 1.954700 
# 
# From -- ./inp_files/616.got.cif
#   From: 2010.03.12/outbox.cif.g09.slc.cpg/sg60_1_cif.got.tgz:616.got - 2010.04.10 18:46:24.
