data_PCOD8248165
_publ_section_title
;
Structure prediction by ZEFSAII (Michael W. Deem and Ramdas Pophale) SiO2 
 PCOD8248165
Probable space group: P B C N
;
_chemical_formula_sum "Si O2"
_cell_formula_units_Z 36
_cell_length_a 5.315232
_cell_length_b 19.139638
_cell_length_c 14.831441
_cell_angle_alpha 90.000000
_cell_angle_beta 90.000000
_cell_angle_gamma 90.000000
_cell_volume 1508.826466
_symmetry_space_group_name_H-M "P B C N"
_symmetry_group_IT_number 60
_symmetry_cell_setting 'orthorhombic'
loop_
_space_group_symop_operation_xyz
x,y,z
1/2-x,1/2-y,1/2+z
1/2+x,1/2-y,-z
-x,y,1/2-z
-x,-y,-z
1/2+x,1/2+y,1/2-z
1/2-x,1/2+y,z
x,-y,1/2+z
loop_
_atom_site_type_symbol
_atom_site_label
_atom_site_fract_x
_atom_site_fract_y
_atom_site_fract_z
Si Si1 0.444459 0.044481 0.644943
Si Si2 0.000000 0.837143 0.750000
Si Si3 0.561035 0.616849 0.574946
Si Si4 0.802001 0.604339 0.396709
Si Si5 0.605938 0.231263 0.149110
O O1 0.500000 0.039825 0.750000
O O2 0.666714 0.089377 0.604047
O O3 0.172244 0.079247 0.623689
O O4 0.451826 0.968408 0.598572
O O5 0.202752 0.888896 0.705915
O O6 0.102411 0.788175 0.831929
O O7 0.566842 0.605491 0.466926
O O8 0.556037 0.698516 0.595794
O O9 0.987525 0.669929 0.412865
O O10 0.500000 0.237100 0.250000
#
# Coordination Sequence:
#
# PCOD8248165 Si02
#       5
#     8   4   8   8   8
#     4  12  27  49  74 108 152 202 244 310 379 449
#     4  10  24  44  74 100 146 196 254 298 378 452
#     4  12  29  45  78 112 152 188 256 316 373 432
#     4  11  27  46  75 106 149 196 255 301 377 450
#     4  10  24  45  70 104 142 197 245 306 372 454
#
# _framework density 23.859604999999998
#
# number of rings (size 3 to 8) (size 9 to 14) (size 15 to 20)
#    0.000    0.889    0.000    5.333   20.222    0.000 
#    0.000    0.000    0.000    0.000    0.000    0.000 
#    0.000    0.000    0.000    0.000    0.000    0.000 
#
# Total GULP energy -446216.066646 kJ/mol
# GULP energy per Si atom -12394.890740 kJ/mol
# Density = 2.380530 g / cm^3
# Si number density = 23.859605 Si / 1000 Ang^3
#
#
#
# Elastic Constant Matrix: (Units=GPa)
#
#
# Indices 1 2 3 4 5 6 
#
# 1 124.0831 58.4530 27.8713 0.0000 0.0000 0.0000
# 2 58.4530 184.5795 37.7751 0.0000 0.0000 0.0000
# 3 27.8713 37.7751 91.8414 0.0000 0.0000 0.0000
# 4 0.0000 0.0000 0.0000 28.5943 0.0000 0.0000
# 5 0.0000 0.0000 0.0000 0.0000 46.1397 0.0000
# 6 0.0000 0.0000 0.0000 0.0000 0.0000 30.1894
#
#
#
# Elastic Compliance Matrix: (Units=1/GPa)
#
#
# Indices 1 2 3 4 5 6 
#
# 1 0.009750 -0.002710 -0.001844 0.000000 0.000000 0.000000
# 2 -0.002710 0.006669 -0.001921 0.000000 0.000000 0.000000
# 3 -0.001844 -0.001921 0.012238 0.000000 0.000000 0.000000
# 4 0.000000 0.000000 0.000000 0.034972 0.000000 0.000000
# 5 0.000000 0.000000 0.000000 0.000000 0.021673 0.000000
# 6 0.000000 0.000000 0.000000 0.000000 0.000000 0.033124
#
#
# Mechanical properties :
#
#
# Convention : Reuss Voigt Hill
#
# Bulk Modulus (GPa) = 63.66515 72.07808 67.87161
# Shear Modulus (GPa) = 36.59995 39.41165 38.00580
#
# Velocity S-wave (km/s) = 3.92084 4.06866 3.99544
# Velocity P-wave (km/s) = 6.87303 7.23511 7.05639
#
# Compressibility (1/GPa) = 0.01570718
#
# Stress axis : x y z
#
# Youngs Moduli (GPa) = 102.56310 149.94613 81.71333
#
# Poissons Ratio (x) = 0.40639 0.15069
# Poissons Ratio (y) = 0.27797 0.15693
# Poissons Ratio (z) = 0.18914 0.28798
#
# Static dielectric constant tensor:
#      x y z
#    x 4.632250 0.000000 0.000000 
#    y 0.000000 4.394950 0.000000 
#    z 0.000000 0.000000 4.669090 
# 
# 
# High freq. dielectric constant tensor:
#      x y z
#    x 1.950350 0.000000 0.000000 
#    y 0.000000 1.955020 0.000000 
#    z 0.000000 0.000000 1.954910 
# 
# From -- ./inp_files/13726.got.cif
#   From: 2010.03.12/outbox.cif.g09.slc.cpg/sg60_7_cif.got.tgz:13726.got - 2010.04.10 18:46:24.
