data_PCOD8248561
_publ_section_title
;
Structure prediction by ZEFSAII (Michael W. Deem and Ramdas Pophale) SiO2 
 PCOD8248561
Probable space group: P B C N
;
_chemical_formula_sum "Si O2"
_cell_formula_units_Z 48
_cell_length_a 11.659767
_cell_length_b 10.060447
_cell_length_c 18.295536
_cell_angle_alpha 90.000000
_cell_angle_beta 90.000000
_cell_angle_gamma 90.000000
_cell_volume 2146.111525
_symmetry_space_group_name_H-M "P B C N"
_symmetry_group_IT_number 60
_symmetry_cell_setting 'orthorhombic'
loop_
_space_group_symop_operation_xyz
x,y,z
1/2-x,1/2-y,1/2+z
1/2+x,1/2-y,-z
-x,y,1/2-z
-x,-y,-z
1/2+x,1/2+y,1/2-z
1/2-x,1/2+y,z
x,-y,1/2+z
loop_
_atom_site_type_symbol
_atom_site_label
_atom_site_fract_x
_atom_site_fract_y
_atom_site_fract_z
Si Si1 0.976516 0.216402 0.509976
Si Si2 0.263840 0.051945 0.305071
Si Si3 0.680301 0.532233 0.031211
Si Si4 0.207462 0.791988 0.216585
Si Si5 0.013666 0.628480 0.155464
Si Si6 0.348950 0.101506 0.590203
O O1 0.949293 0.301401 0.437525
O O2 0.097944 0.148457 0.497172
O O3 0.975070 0.313604 0.578386
O O4 0.876770 0.110759 0.524267
O O5 0.215114 0.060438 0.386198
O O6 0.219363 0.178913 0.259064
O O7 0.403262 0.063985 0.304125
O O8 0.212296 0.921958 0.266965
O O9 0.791551 0.532780 0.980148
O O10 0.075839 0.743744 0.203500
O O11 0.258769 0.813232 0.136387
O O12 0.104022 0.510422 0.144199
#
# Coordination Sequence:
#
# PCOD8248561 Si02
#       6
#     8   8   8   8   8   8
#     4  11  25  45  75 107 143 186 253 313 367 441
#     4  12  28  47  77 108 154 199 247 306 380 457
#     4  11  26  45  72 110 142 193 249 304 373 442
#     4  12  27  48  73 107 153 197 239 314 377 448
#     4  12  25  48  74 108 144 196 250 307 381 440
#     4  12  25  45  78 102 144 191 250 305 371 440
#
# _framework density 22.366031
#
# number of rings (size 3 to 8) (size 9 to 14) (size 15 to 20)
#    0.000    0.333    5.000    3.000    2.333    0.000 
#    0.000    1.667    0.000    0.000    0.000    0.000 
#    0.000    0.000    0.000    0.000    0.000    0.000 
#
# Total GULP energy -595348.321331 kJ/mol
# GULP energy per Si atom -12403.090028 kJ/mol
# Density = 2.231513 g / cm^3
# Si number density = 22.366031 Si / 1000 Ang^3
#
#
#
# Elastic Constant Matrix: (Units=GPa)
#
#
# Indices 1 2 3 4 5 6 
#
# 1 78.0640 35.5485 25.4602 0.0000 0.0000 0.0000
# 2 35.5485 109.4314 42.9259 0.0000 0.0000 0.0000
# 3 25.4602 42.9259 132.5752 0.0000 0.0000 0.0000
# 4 0.0000 0.0000 0.0000 44.7610 0.0000 0.0000
# 5 0.0000 0.0000 0.0000 0.0000 40.2071 0.0000
# 6 0.0000 0.0000 0.0000 0.0000 0.0000 -190.3866
#
#
#
# Elastic Compliance Matrix: (Units=1/GPa)
#
#
# Indices 1 2 3 4 5 6 
#
# 1 0.015297 -0.004372 -0.001522 0.000000 0.000000 0.000000
# 2 -0.004372 0.011717 -0.002954 0.000000 0.000000 0.000000
# 3 -0.001522 -0.002954 0.008792 0.000000 0.000000 0.000000
# 4 0.000000 0.000000 0.000000 0.022341 0.000000 0.000000
# 5 0.000000 0.000000 0.000000 0.000000 0.024871 0.000000
# 6 0.000000 0.000000 0.000000 0.000000 0.000000 -0.005252
#
#
# Mechanical properties :
#
#
# Convention : Reuss Voigt Hill
#
# Bulk Modulus (GPa) = 55.22028 58.66000 56.94014
# Shear Modulus (GPa) = 49.26120 -6.67463 21.29328
#
# Velocity S-wave (km/s) = 4.69817 -1.72938 3.08886
# Velocity P-wave (km/s) = 7.36026 4.72192 6.18344
#
# Compressibility (1/GPa) = 0.01810929
#
# Stress axis : x y z
#
# Youngs Moduli (GPa) = 65.37034 85.34389 113.74327
#
# Poissons Ratio (x) = 0.37315 0.17313
# Poissons Ratio (y) = 0.28582 0.33602
# Poissons Ratio (z) = 0.09950 0.25212
#
# Static dielectric constant tensor:
#      x y z
#    x 3.962820 0.000000 0.000000 
#    y 0.000000 4.178940 0.000000 
#    z 0.000000 0.000000 4.305720 
# 
# 
# High freq. dielectric constant tensor:
#      x y z
#    x 1.875770 0.000000 0.000000 
#    y 0.000000 1.890110 0.000000 
#    z 0.000000 0.000000 1.909790 
# 
# From -- ./inp_files/19997.got.cif
#   From: 2010.03.12/outbox.cif.g09.slc.cpg/sg60_10_cif.got.tgz:19997.got - 2010.04.10 18:46:24.
