data_PCOD8248137
_publ_section_title
;
Structure prediction by ZEFSAII (Michael W. Deem and Ramdas Pophale) SiO2 
 PCOD8248137
Probable space group: P B C N
;
_chemical_formula_sum "Si O2"
_cell_formula_units_Z 48
_cell_length_a 13.098689
_cell_length_b 9.432794
_cell_length_c 17.427722
_cell_angle_alpha 90.000000
_cell_angle_beta 90.000000
_cell_angle_gamma 90.000000
_cell_volume 2153.321143
_symmetry_space_group_name_H-M "P B C N"
_symmetry_group_IT_number 60
_symmetry_cell_setting 'orthorhombic'
loop_
_space_group_symop_operation_xyz
x,y,z
1/2-x,1/2-y,1/2+z
1/2+x,1/2-y,-z
-x,y,1/2-z
-x,-y,-z
1/2+x,1/2+y,1/2-z
1/2-x,1/2+y,z
x,-y,1/2+z
loop_
_atom_site_type_symbol
_atom_site_label
_atom_site_fract_x
_atom_site_fract_y
_atom_site_fract_z
Si Si1 0.965983 0.587022 0.572718
Si Si2 0.908521 0.276234 0.309577
Si Si3 0.578605 0.513807 0.883871
Si Si4 0.886338 0.108743 0.047620
Si Si5 0.690645 0.649216 0.748661
Si Si6 0.711770 0.918883 0.654055
O O1 0.944201 0.743277 0.541482
O O2 0.873061 0.520904 0.619670
O O3 0.000000 0.500000 0.500000
O O4 0.058382 0.598392 0.632906
O O5 0.878650 0.135358 0.355350
O O6 0.808000 0.331666 0.270698
O O7 0.000000 0.242357 0.250000
O O8 0.456684 0.502587 0.902561
O O9 0.608555 0.629994 0.818066
O O10 0.635868 0.550616 0.962722
O O11 0.776718 0.142736 0.083612
O O12 0.658775 0.788853 0.700115
O O13 0.700204 0.503252 0.701252
#
# Coordination Sequence:
#
# PCOD8248137 Si02
#       6
#     8   8   8   8   8   8
#     4  11  26  46  69  99 142 193 231 288 362 429
#     4  11  22  45  67  95 146 184 225 298 363 411
#     4  10  24  42  73  99 137 182 237 287 363 423
#     4  10  24  48  68 103 142 186 236 304 353 423
#     4  12  24  41  73 107 134 190 237 293 350 430
#     4  12  24  46  73 103 144 185 240 292 359 423
#
# _framework density 22.291148
#
# number of rings (size 3 to 8) (size 9 to 14) (size 15 to 20)
#    0.000    1.000    5.000    1.000    2.333    6.667 
#    0.000    1.667    0.000    0.000    0.000    0.000 
#    0.000    0.000    0.000    0.000    0.000    0.000 
#
# Total GULP energy -594994.033739 kJ/mol
# GULP energy per Si atom -12395.709036 kJ/mol
# Density = 2.224041 g / cm^3
# Si number density = 22.291148 Si / 1000 Ang^3
#
#
#
# Elastic Constant Matrix: (Units=GPa)
#
#
# Indices 1 2 3 4 5 6 
#
# 1 68.5952 25.0498 40.7312 0.0000 0.0000 0.0000
# 2 25.0498 100.8173 56.4240 0.0000 0.0000 0.0000
# 3 40.7312 56.4240 136.6290 0.0000 0.0000 0.0000
# 4 0.0000 0.0000 0.0000 46.7373 0.0000 0.0000
# 5 0.0000 0.0000 0.0000 0.0000 43.6566 0.0000
# 6 0.0000 0.0000 0.0000 0.0000 0.0000 31.1841
#
#
#
# Elastic Compliance Matrix: (Units=1/GPa)
#
#
# Indices 1 2 3 4 5 6 
#
# 1 0.017992 -0.001910 -0.004575 0.000000 0.000000 0.000000
# 2 -0.001910 0.013103 -0.004842 0.000000 0.000000 0.000000
# 3 -0.004575 -0.004842 0.010683 0.000000 0.000000 0.000000
# 4 0.000000 0.000000 0.000000 0.021396 0.000000 0.000000
# 5 0.000000 0.000000 0.000000 0.000000 0.022906 0.000000
# 6 0.000000 0.000000 0.000000 0.000000 0.000000 0.032068
#
#
# Mechanical properties :
#
#
# Convention : Reuss Voigt Hill
#
# Bulk Modulus (GPa) = 52.28928 61.16128 56.72528
# Shear Modulus (GPa) = 33.97272 36.57138 35.27205
#
# Velocity S-wave (km/s) = 3.90814 4.05486 3.98217
# Velocity P-wave (km/s) = 6.62367 7.02990 6.82981
#
# Compressibility (1/GPa) = 0.01912438
#
# Stress axis : x y z
#
# Youngs Moduli (GPa) = 55.57901 76.31622 93.61056
#
# Poissons Ratio (x) = 0.14577 0.42827
# Poissons Ratio (y) = 0.10616 0.45325
# Poissons Ratio (z) = 0.25428 0.36952
#
# Static dielectric constant tensor:
#      x y z
#    x 3.868190 0.000000 0.000000 
#    y 0.000000 4.146610 0.000000 
#    z 0.000000 0.000000 4.345890 
# 
# 
# High freq. dielectric constant tensor:
#      x y z
#    x 1.867350 0.000000 0.000000 
#    y 0.000000 1.878550 0.000000 
#    z 0.000000 0.000000 1.892460 
# 
# From -- ./inp_files/20487.got.cif
#   From: 2010.03.12/outbox.cif.g09.slc.cpg/sg60_11_cif.got.tgz:20487.got - 2010.04.10 18:46:24.
