data_PCOD8248816
_publ_section_title
;
Structure prediction by ZEFSAII (Michael W. Deem and Ramdas Pophale) SiO2 
 PCOD8248816
Probable space group: P B C A
;
_chemical_formula_sum "Si O2"
_cell_formula_units_Z 64
_cell_length_a 29.591775
_cell_length_b 8.534657
_cell_length_c 12.512207
_cell_angle_alpha 90.000000
_cell_angle_beta 90.000000
_cell_angle_gamma 90.000000
_cell_volume 3160.028567
_symmetry_space_group_name_H-M "P B C A"
_symmetry_group_IT_number 61
_symmetry_cell_setting 'orthorhombic'
loop_
_space_group_symop_operation_xyz
x,y,z
1/2-x,-y,1/2+z
1/2+x,1/2-y,-z
-x,1/2+y,1/2-z
-x,-y,-z
1/2+x,y,1/2-z
1/2-x,1/2+y,z
x,1/2-y,1/2+z
loop_
_atom_site_type_symbol
_atom_site_label
_atom_site_fract_x
_atom_site_fract_y
_atom_site_fract_z
Si Si1 0.952190 0.303043 0.998474
Si Si2 0.235789 0.210899 0.560033
Si Si3 0.697553 0.007613 0.565758
Si Si4 0.046921 0.559998 0.770970
Si Si5 0.030084 0.238880 0.847995
Si Si6 0.705546 0.931025 0.809024
Si Si7 0.892060 0.313180 0.810936
Si Si8 0.406525 0.482288 0.905070
O O1 0.914992 0.377583 0.918662
O O2 0.001262 0.312393 0.944758
O O3 0.951853 0.402506 0.104429
O O4 0.938070 0.122575 0.019316
O O5 0.209486 0.317670 0.474278
O O6 0.253054 0.320724 0.656649
O O7 0.277548 0.126869 0.501321
O O8 0.202565 0.080964 0.611515
O O9 0.712512 0.992098 0.688980
O O10 0.644256 0.981765 0.550339
O O11 0.047659 0.371544 0.765250
O O12 0.090700 0.634729 0.712226
O O13 0.000718 0.618383 0.717883
O O14 0.073309 0.156508 0.901426
O O15 0.661580 0.822147 0.821045
O O16 0.909283 0.420615 0.715327
#
# Coordination Sequence:
#
# PCOD8248816 Si02
#       8
#     8   8   8   8   8   8   8   8
#     4  10  19  35  56  78 108 148 185 227 278 330
#     4  10  21  37  62  87 112 153 197 235 296 362
#     4  10  21  39  59  86 119 151 191 244 292 347
#     4  10  21  36  55  79 109 147 189 228 277 332
#     4  11  21  36  54  79 111 146 186 229 273 332
#     4  10  20  38  59  85 119 151 190 243 293 349
#     4   9  20  37  56  80 111 146 183 232 281 333
#     4  10  21  36  55  82 114 144 185 232 282 335
#
# _framework density 20.252981999999999
#
# number of rings (size 3 to 8) (size 9 to 14) (size 15 to 20)
#    0.000    2.000    0.000    4.500    0.000    2.000 
#    0.000   15.000    0.000    0.000    0.000    0.000 
#    0.000    0.000    0.000    0.000    0.000    0.000 
#
# Total GULP energy -793587.775938 kJ/mol
# GULP energy per Si atom -12399.808999 kJ/mol
# Density = 2.020688 g / cm^3
# Si number density = 20.252982 Si / 1000 Ang^3
#
#
#
# Elastic Constant Matrix: (Units=GPa)
#
#
# Indices 1 2 3 4 5 6 
#
# 1 85.3938 39.2571 25.6865 0.0000 0.0000 0.0000
# 2 39.2571 101.3839 9.7381 0.0000 0.0000 0.0000
# 3 25.6865 9.7381 83.9011 0.0000 0.0000 0.0000
# 4 0.0000 0.0000 0.0000 30.8556 0.0000 0.0000
# 5 0.0000 0.0000 0.0000 0.0000 27.2683 0.0000
# 6 0.0000 0.0000 0.0000 0.0000 0.0000 27.4721
#
#
#
# Elastic Compliance Matrix: (Units=1/GPa)
#
#
# Indices 1 2 3 4 5 6 
#
# 1 0.015527 -0.005618 -0.004102 0.000000 0.000000 0.000000
# 2 -0.005618 0.012008 0.000326 0.000000 0.000000 0.000000
# 3 -0.004102 0.000326 0.013137 0.000000 0.000000 0.000000
# 4 0.000000 0.000000 0.000000 0.032409 0.000000 0.000000
# 5 0.000000 0.000000 0.000000 0.000000 0.036673 0.000000
# 6 0.000000 0.000000 0.000000 0.000000 0.000000 0.036401
#
#
# Mechanical properties :
#
#
# Convention : Reuss Voigt Hill
#
# Bulk Modulus (GPa) = 45.69478 46.67135 46.18307
# Shear Modulus (GPa) = 29.03008 30.18568 29.60788
#
# Velocity S-wave (km/s) = 3.79010 3.86480 3.82763
# Velocity P-wave (km/s) = 6.46252 6.55818 6.51053
#
# Compressibility (1/GPa) = 0.02188434
#
# Stress axis : x y z
#
# Youngs Moduli (GPa) = 64.40382 83.28038 76.12316
#
# Poissons Ratio (x) = 0.46789 0.31222
# Poissons Ratio (y) = 0.36184 -0.02484
# Poissons Ratio (z) = 0.26415 -0.02718
#
# Static dielectric constant tensor:
#      x y z
#    x 3.552250 0.000000 0.000000 
#    y 0.000000 3.667270 0.000000 
#    z 0.000000 0.000000 3.821250 
# 
# 
# High freq. dielectric constant tensor:
#      x y z
#    x 1.779700 0.000000 0.000000 
#    y 0.000000 1.786450 0.000000 
#    z 0.000000 0.000000 1.804190 
# 
# From -- ./inp_files/6772.got.cif
#   From: 2010.03.12/outbox.cif.g09.slc.cpg/sg61_4_cif.got.tgz:6772.got - 2010.04.10 19:05:03.
