data_PCOD8248398
_publ_section_title
;
Structure prediction by ZEFSAII (Michael W. Deem and Ramdas Pophale) SiO2 
 PCOD8248398
Probable space group: P B C N
;
_chemical_formula_sum "Si O2"
_cell_formula_units_Z 48
_cell_length_a 9.125227
_cell_length_b 8.956471
_cell_length_c 26.426081
_cell_angle_alpha 90.000000
_cell_angle_beta 90.000000
_cell_angle_gamma 90.000000
_cell_volume 2159.799134
_symmetry_space_group_name_H-M "P B C N"
_symmetry_group_IT_number 60
_symmetry_cell_setting 'orthorhombic'
loop_
_space_group_symop_operation_xyz
x,y,z
1/2-x,1/2-y,1/2+z
1/2+x,1/2-y,-z
-x,y,1/2-z
-x,-y,-z
1/2+x,1/2+y,1/2-z
1/2-x,1/2+y,z
x,-y,1/2+z
loop_
_atom_site_type_symbol
_atom_site_label
_atom_site_fract_x
_atom_site_fract_y
_atom_site_fract_z
Si Si1 0.608176 0.811920 0.877356
Si Si2 0.653999 0.467956 0.752703
Si Si3 0.610032 0.482769 0.866492
Si Si4 0.327513 0.678493 0.403507
Si Si5 0.415050 0.988419 0.447613
Si Si6 0.864687 0.268405 0.692462
O O1 0.607166 0.639808 0.896867
O O2 0.774726 0.861474 0.885620
O O3 0.515687 0.929498 0.908051
O O4 0.533092 0.815417 0.820820
O O5 0.500000 0.373212 0.750000
O O6 0.671846 0.519454 0.810288
O O7 0.793598 0.376959 0.733608
O O8 0.630165 0.604706 0.714979
O O9 0.450296 0.411764 0.872364
O O10 0.243629 0.571508 0.444117
O O11 0.220028 0.742536 0.360718
O O12 0.397071 0.814323 0.434686
O O13 0.500000 0.000000 0.500000
#
# Coordination Sequence:
#
# PCOD8248398 Si02
#       6
#     8   8   8   8   8   8
#     4  11  24  43  65  96 140 173 226 280 343 393
#     4  12  23  39  63  97 134 179 240 262 321 393
#     4  12  24  42  65 102 138 184 224 279 327 396
#     4  11  23  46  73  96 138 175 219 279 344 398
#     4  11  26  47  73 103 126 175 221 274 348 413
#     4  11  22  43  63  94 136 184 221 280 324 388
#
# _framework density 22.224288000000001
#
# number of rings (size 3 to 8) (size 9 to 14) (size 15 to 20)
#    0.000    0.667    3.333    6.000    0.000    2.667 
#    3.000    2.500    0.000    0.000    0.000    0.000 
#    0.000    0.000    0.000    0.000    0.000    0.000 
#
# Total GULP energy -594712.209480 kJ/mol
# GULP energy per Si atom -12389.837698 kJ/mol
# Density = 2.217370 g / cm^3
# Si number density = 22.224288 Si / 1000 Ang^3
#
#
#
# Elastic Constant Matrix: (Units=GPa)
#
#
# Indices 1 2 3 4 5 6 
#
# 1 111.9492 48.7132 35.9654 0.0000 0.0000 0.0000
# 2 48.7132 123.0773 45.4149 0.0000 0.0000 0.0000
# 3 35.9654 45.4149 81.9829 0.0000 0.0000 0.0000
# 4 0.0000 0.0000 0.0000 10.9844 0.0000 0.0000
# 5 0.0000 0.0000 0.0000 0.0000 34.6943 0.0000
# 6 0.0000 0.0000 0.0000 0.0000 0.0000 46.6557
#
#
#
# Elastic Compliance Matrix: (Units=1/GPa)
#
#
# Indices 1 2 3 4 5 6 
#
# 1 0.011402 -0.003352 -0.003145 0.000000 0.000000 0.000000
# 2 -0.003352 0.011198 -0.004733 0.000000 0.000000 0.000000
# 3 -0.003145 -0.004733 0.016199 0.000000 0.000000 0.000000
# 4 0.000000 0.000000 0.000000 0.091038 0.000000 0.000000
# 5 0.000000 0.000000 0.000000 0.000000 0.028823 0.000000
# 6 0.000000 0.000000 0.000000 0.000000 0.000000 0.021434
#
#
# Mechanical properties :
#
#
# Convention : Reuss Voigt Hill
#
# Bulk Modulus (GPa) = 61.20237 64.13295 62.66766
# Shear Modulus (GPa) = 24.03855 30.92795 27.48325
#
# Velocity S-wave (km/s) = 3.29239 3.73450 3.52039
# Velocity P-wave (km/s) = 6.48470 6.89312 6.69203
#
# Compressibility (1/GPa) = 0.01633924
#
# Stress axis : x y z
#
# Youngs Moduli (GPa) = 87.70667 89.30094 61.73243
#
# Poissons Ratio (x) = 0.29936 0.19414
# Poissons Ratio (y) = 0.29402 0.29216
# Poissons Ratio (z) = 0.27582 0.42263
#
# Static dielectric constant tensor:
#      x y z
#    x 4.221290 0.000000 0.000000 
#    y 0.000000 7.542150 0.000000 
#    z 0.000000 0.000000 3.757160 
# 
# 
# High freq. dielectric constant tensor:
#      x y z
#    x 1.895850 0.000000 0.000000 
#    y 0.000000 1.879710 0.000000 
#    z 0.000000 0.000000 1.852390 
# 
# From -- ./inp_files/25931.got.cif
#   From: 2010.03.12/outbox.cif.g09.slc.cpg/sg60_13_cif.got.tgz:25931.got - 2010.04.10 18:46:24.
