data_PCOD8248370
_publ_section_title
;
Structure prediction by ZEFSAII (Michael W. Deem and Ramdas Pophale) SiO2 
 PCOD8248370
Probable space group: P B C N
;
_chemical_formula_sum "Si O2"
_cell_formula_units_Z 64
_cell_length_a 10.252500
_cell_length_b 15.124706
_cell_length_c 18.632330
_cell_angle_alpha 90.000000
_cell_angle_beta 90.000000
_cell_angle_gamma 90.000000
_cell_volume 2889.241783
_symmetry_space_group_name_H-M "P B C N"
_symmetry_group_IT_number 60
_symmetry_cell_setting 'orthorhombic'
loop_
_space_group_symop_operation_xyz
x,y,z
1/2-x,1/2-y,1/2+z
1/2+x,1/2-y,-z
-x,y,1/2-z
-x,-y,-z
1/2+x,1/2+y,1/2-z
1/2-x,1/2+y,z
x,-y,1/2+z
loop_
_atom_site_type_symbol
_atom_site_label
_atom_site_fract_x
_atom_site_fract_y
_atom_site_fract_z
Si Si1 0.923907 0.645915 0.432852
Si Si2 0.948624 0.027098 0.853937
Si Si3 0.407141 0.714753 0.689755
Si Si4 0.636915 0.990222 0.616383
Si Si5 0.744854 0.507750 0.969803
Si Si6 0.958314 0.646891 0.921343
Si Si7 0.825926 0.941050 0.731859
Si Si8 0.874442 0.744664 0.790365
O O1 0.886100 0.719847 0.376314
O O2 0.796914 0.586622 0.443487
O O3 0.039765 0.585292 0.406509
O O4 0.971807 0.687747 0.508316
O O5 0.984181 0.128923 0.839052
O O6 0.901214 0.015617 0.936417
O O7 0.828021 0.005599 0.800269
O O8 0.064674 0.962755 0.828711
O O9 0.500000 0.758429 0.750000
O O10 0.262949 0.693460 0.722315
O O11 0.563316 0.084243 0.619854
O O12 0.754308 0.993284 0.556806
O O13 0.688600 0.959296 0.693808
O O14 0.831913 0.588740 0.940997
O O15 0.913449 0.731039 0.874116
O O16 0.848131 0.843249 0.762251
O O17 0.000000 0.703316 0.750000
#
# Coordination Sequence:
#
# PCOD8248370 Si02
#       8
#     8   8   8   8   8   8   8   8
#     4   9  20  40  67  98 124 163 222 271 325 392
#     4  11  22  40  59  84 130 173 212 258 334 394
#     4  12  24  42  65  94 134 177 222 273 333 401
#     4   9  20  40  69  95 124 167 225 269 323 398
#     4   9  18  40  66  91 125 166 212 272 321 396
#     4   9  20  40  67  97 125 165 220 276 323 386
#     4  11  23  42  60  91 136 174 213 275 325 403
#     4  12  25  42  65  98 134 171 222 279 333 389
#
# _framework density 22.151140000000002
#
# number of rings (size 3 to 8) (size 9 to 14) (size 15 to 20)
#    0.000    1.750    3.750    3.000    1.750    0.500 
#    2.250    7.500    0.000    0.000    0.000    0.000 
#    0.000    0.000    0.000    0.000    0.000    0.000 
#
# Total GULP energy -792923.254741 kJ/mol
# GULP energy per Si atom -12389.425855 kJ/mol
# Density = 2.210072 g / cm^3
# Si number density = 22.151140 Si / 1000 Ang^3
#
#
#
# Elastic Constant Matrix: (Units=GPa)
#
#
# Indices 1 2 3 4 5 6 
#
# 1 65.2336 10.7836 24.9121 0.0000 0.0000 0.0000
# 2 10.7836 83.7799 33.7880 0.0000 0.0000 0.0000
# 3 24.9121 33.7880 82.7180 0.0000 0.0000 0.0000
# 4 0.0000 0.0000 0.0000 34.0999 0.0000 0.0000
# 5 0.0000 0.0000 0.0000 0.0000 42.1240 0.0000
# 6 0.0000 0.0000 0.0000 0.0000 0.0000 15.2359
#
#
#
# Elastic Compliance Matrix: (Units=1/GPa)
#
#
# Indices 1 2 3 4 5 6 
#
# 1 0.017323 -0.000150 -0.005156 0.000000 0.000000 0.000000
# 2 -0.000150 0.014291 -0.005792 0.000000 0.000000 0.000000
# 3 -0.005156 -0.005792 0.016008 0.000000 0.000000 0.000000
# 4 0.000000 0.000000 0.000000 0.029326 0.000000 0.000000
# 5 0.000000 0.000000 0.000000 0.000000 0.023739 0.000000
# 6 0.000000 0.000000 0.000000 0.000000 0.000000 0.065635
#
#
# Mechanical properties :
#
#
# Convention : Reuss Voigt Hill
#
# Bulk Modulus (GPa) = 39.33036 41.18875 40.25955
# Shear Modulus (GPa) = 25.38139 29.10848 27.24494
#
# Velocity S-wave (km/s) = 3.38868 3.62896 3.51088
# Velocity P-wave (km/s) = 5.75368 6.01614 5.88638
#
# Compressibility (1/GPa) = 0.02542565
#
# Stress axis : x y z
#
# Youngs Moduli (GPa) = 57.72564 69.97203 62.46856
#
# Poissons Ratio (x) = 0.01053 0.32208
# Poissons Ratio (y) = 0.00868 0.36184
# Poissons Ratio (z) = 0.29762 0.40530
#
# Static dielectric constant tensor:
#      x y z
#    x 4.049780 0.000000 0.000000 
#    y 0.000000 3.777450 0.000000 
#    z 0.000000 0.000000 -3.112250 
# 
# 
# High freq. dielectric constant tensor:
#      x y z
#    x 1.867390 0.000000 0.000000 
#    y 0.000000 1.854850 0.000000 
#    z 0.000000 0.000000 1.873510 
# 
# From -- ./inp_files/20224.got.cif
#   From: 2010.03.12/outbox.cif.g09.slc.cpg/sg60_11_cif.got.tgz:20224.got - 2010.04.10 18:46:24.
