data_PCOD8248591
_publ_section_title
;
Structure prediction by ZEFSAII (Michael W. Deem and Ramdas Pophale) SiO2 
 PCOD8248591
Probable space group: P B C N
;
_chemical_formula_sum "Si O2"
_cell_formula_units_Z 32
_cell_length_a 8.406721
_cell_length_b 19.110687
_cell_length_c 8.976033
_cell_angle_alpha 90.000000
_cell_angle_beta 90.000000
_cell_angle_gamma 90.000000
_cell_volume 1442.073428
_symmetry_space_group_name_H-M "P B C N"
_symmetry_group_IT_number 60
_symmetry_cell_setting 'orthorhombic'
loop_
_space_group_symop_operation_xyz
x,y,z
1/2-x,1/2-y,1/2+z
1/2+x,1/2-y,-z
-x,y,1/2-z
-x,-y,-z
1/2+x,1/2+y,1/2-z
1/2-x,1/2+y,z
x,-y,1/2+z
loop_
_atom_site_type_symbol
_atom_site_label
_atom_site_fract_x
_atom_site_fract_y
_atom_site_fract_z
Si Si1 0.104646 0.954334 0.888721
Si Si2 0.229958 0.184873 0.884344
Si Si3 0.895385 0.454267 0.112223
Si Si4 0.639823 0.682930 0.949649
O O1 0.000000 0.928367 0.750000
O O2 0.248026 0.000869 0.825747
O O3 0.186837 0.889075 0.970445
O O4 0.000000 0.000000 0.000000
O O5 0.323782 0.118170 0.954404
O O6 0.235930 0.186371 0.704821
O O7 0.048635 0.182333 0.933245
O O8 0.313015 0.253698 0.944841
O O9 0.000000 0.431071 0.250000
O O10 0.000000 0.500000 0.000000
#
# Coordination Sequence:
#
# PCOD8248591 Si02
#       4
#     8   8   8   8
#     4  12  25  47  75 105 142 196 247 294 372 438
#     4  11  27  48  71 106 142 189 239 298 367 435
#     4  12  27  45  72 107 146 184 239 306 358 427
#     4  11  27  47  74 103 145 190 241 298 363 440
#
# _framework density 22.190272
#
# number of rings (size 3 to 8) (size 9 to 14) (size 15 to 20)
#    0.000    0.500    2.500    4.500   10.500    0.000 
#    0.000    0.000    0.000    0.000    0.000    0.000 
#    0.000    0.000    0.000    0.000    0.000    0.000 
#
# Total GULP energy -396937.920043 kJ/mol
# GULP energy per Si atom -12404.310001 kJ/mol
# Density = 2.213977 g / cm^3
# Si number density = 22.190272 Si / 1000 Ang^3
#
#
#
# Elastic Constant Matrix: (Units=GPa)
#
#
# Indices 1 2 3 4 5 6 
#
# 1 98.7321 49.1358 30.6804 0.0000 0.0000 0.0000
# 2 49.1358 188.3814 49.7353 0.0000 0.0000 0.0000
# 3 30.6804 49.7353 99.8756 0.0000 0.0000 0.0000
# 4 0.0000 0.0000 0.0000 41.5642 0.0000 0.0000
# 5 0.0000 0.0000 0.0000 0.0000 40.2382 0.0000
# 6 0.0000 0.0000 0.0000 0.0000 0.0000 50.4605
#
#
#
# Elastic Compliance Matrix: (Units=1/GPa)
#
#
# Indices 1 2 3 4 5 6 
#
# 1 0.012151 -0.002514 -0.002480 0.000000 0.000000 0.000000
# 2 -0.002514 0.006632 -0.002530 0.000000 0.000000 0.000000
# 3 -0.002480 -0.002530 0.012034 0.000000 0.000000 0.000000
# 4 0.000000 0.000000 0.000000 0.024059 0.000000 0.000000
# 5 0.000000 0.000000 0.000000 0.000000 0.024852 0.000000
# 6 0.000000 0.000000 0.000000 0.000000 0.000000 0.019817
#
#
# Mechanical properties :
#
#
# Convention : Reuss Voigt Hill
#
# Bulk Modulus (GPa) = 63.42335 71.78799 67.60567
# Shear Modulus (GPa) = 41.71827 43.61509 42.66668
#
# Velocity S-wave (km/s) = 4.34063 4.43821 4.38969
# Velocity P-wave (km/s) = 7.33247 7.66061 7.49833
#
# Compressibility (1/GPa) = 0.01576706
#
# Stress axis : x y z
#
# Youngs Moduli (GPa) = 82.30108 150.77864 83.09510
#
# Poissons Ratio (x) = 0.37911 0.20611
# Poissons Ratio (y) = 0.20694 0.21025
# Poissons Ratio (z) = 0.20414 0.38151
#
# Static dielectric constant tensor:
#      x y z
#    x 4.510700 0.000000 0.000000 
#    y 0.000000 4.333100 0.000000 
#    z 0.000000 0.000000 8.040540 
# 
# 
# High freq. dielectric constant tensor:
#      x y z
#    x 1.891840 0.000000 0.000000 
#    y 0.000000 1.888640 0.000000 
#    z 0.000000 0.000000 1.868630 
# 
# From -- ./inp_files/3617.got.cif
#   From: 2010.03.12/outbox.cif.g09.slc.cpg/sg60_2_cif.got.tgz:3617.got - 2010.04.10 18:46:24.
