data_PCOD8248621
_publ_section_title
;
Structure prediction by ZEFSAII (Michael W. Deem and Ramdas Pophale) SiO2 
 PCOD8248621
Probable space group: P B C N
;
_chemical_formula_sum "Si O2"
_cell_formula_units_Z 32
_cell_length_a 8.449316
_cell_length_b 14.892551
_cell_length_c 11.297698
_cell_angle_alpha 90.000000
_cell_angle_beta 90.000000
_cell_angle_gamma 90.000000
_cell_volume 1421.610460
_symmetry_space_group_name_H-M "P B C N"
_symmetry_group_IT_number 60
_symmetry_cell_setting 'orthorhombic'
loop_
_space_group_symop_operation_xyz
x,y,z
1/2-x,1/2-y,1/2+z
1/2+x,1/2-y,-z
-x,y,1/2-z
-x,-y,-z
1/2+x,1/2+y,1/2-z
1/2-x,1/2+y,z
x,-y,1/2+z
loop_
_atom_site_type_symbol
_atom_site_label
_atom_site_fract_x
_atom_site_fract_y
_atom_site_fract_z
Si Si1 0.718253 0.174761 0.543628
Si Si2 0.434567 0.574326 0.132439
Si Si3 0.071025 0.326033 0.873349
Si Si4 0.752340 0.000405 0.670882
O O1 0.861049 0.142734 0.459196
O O2 0.556303 0.189764 0.475279
O O3 0.771297 0.268569 0.600557
O O4 0.689971 0.100216 0.645290
O O5 0.500000 0.628846 0.250000
O O6 0.589462 0.517379 0.087206
O O7 0.297885 0.508340 0.189139
O O8 0.115660 0.430622 0.864842
O O9 0.000000 0.291289 0.750000
#
# Coordination Sequence:
#
# PCOD8248621 Si02
#       4
#     8   8   8   8
#     4  12  23  41  69  92 136 180 219 279 350 390
#     4   8  19  38  65  91 129 165 226 266 329 399
#     4  12  25  44  66 100 138 172 231 279 335 411
#     4   9  21  42  64  95 128 176 217 278 330 402
#
# _framework density 22.509682000000002
#
# number of rings (size 3 to 8) (size 9 to 14) (size 15 to 20)
#    1.500    0.000    2.500    3.000    3.500    0.000 
#    0.000    0.000    0.000    0.000    0.000    0.000 
#    0.000    0.000    0.000    0.000    0.000    0.000 
#
# Total GULP energy -396509.521924 kJ/mol
# GULP energy per Si atom -12390.922560 kJ/mol
# Density = 2.245845 g / cm^3
# Si number density = 22.509682 Si / 1000 Ang^3
#
#
#
# Elastic Constant Matrix: (Units=GPa)
#
#
# Indices 1 2 3 4 5 6 
#
# 1 97.6044 28.7808 18.1857 0.0000 0.0000 0.0000
# 2 28.7808 101.0068 18.1087 0.0000 0.0000 0.0000
# 3 18.1857 18.1087 49.0389 0.0000 0.0000 0.0000
# 4 0.0000 0.0000 0.0000 -9.6131 0.0000 0.0000
# 5 0.0000 0.0000 0.0000 0.0000 46.0200 0.0000
# 6 0.0000 0.0000 0.0000 0.0000 0.0000 145.1829
#
#
#
# Elastic Compliance Matrix: (Units=1/GPa)
#
#
# Indices 1 2 3 4 5 6 
#
# 1 0.011669 -0.002730 -0.003319 0.000000 0.000000 0.000000
# 2 -0.002730 0.011241 -0.003139 0.000000 0.000000 0.000000
# 3 -0.003319 -0.003139 0.022782 0.000000 0.000000 0.000000
# 4 0.000000 0.000000 0.000000 -0.104025 0.000000 0.000000
# 5 0.000000 0.000000 0.000000 0.000000 0.021730 0.000000
# 6 0.000000 0.000000 0.000000 0.000000 0.000000 0.006888
#
#
# Mechanical properties :
#
#
# Convention : Reuss Voigt Hill
#
# Bulk Modulus (GPa) = 36.60829 41.97784 39.29306
# Shear Modulus (GPa) = -2236.98469 48.48963 -1094.24753
#
# Velocity S-wave (km/s) = -31.55860 4.64634 -22.07212
# Velocity P-wave (km/s) = 36.21641 6.89013 25.14115
#
# Compressibility (1/GPa) = 0.02731622
#
# Stress axis : x y z
#
# Youngs Moduli (GPa) = 85.69839 88.96128 43.89456
#
# Poissons Ratio (x) = 0.24285 0.14570
# Poissons Ratio (y) = 0.23394 0.13777
# Poissons Ratio (z) = 0.28445 0.27921
#
# Static dielectric constant tensor:
#      x y z
#    x 4.026500 0.000000 0.000000 
#    y 0.000000 3.621570 0.000000 
#    z 0.000000 0.000000 3.985300 
# 
# 
# High freq. dielectric constant tensor:
#      x y z
#    x 1.894730 0.000000 0.000000 
#    y 0.000000 1.858130 0.000000 
#    z 0.000000 0.000000 1.880100 
# 
# From -- ./inp_files/9470.got.cif
#   From: 2010.03.12/outbox.cif.g09.slc.cpg/sg60_5_cif.got.tgz:9470.got - 2010.04.10 18:46:24.
