data_PCOD8248277
_publ_section_title
;
Structure prediction by ZEFSAII (Michael W. Deem and Ramdas Pophale) SiO2 
 PCOD8248277
Probable space group: P B C N
;
_chemical_formula_sum "Si O2"
_cell_formula_units_Z 56
_cell_length_a 9.000052
_cell_length_b 16.707892
_cell_length_c 19.330722
_cell_angle_alpha 90.000000
_cell_angle_beta 90.000000
_cell_angle_gamma 90.000000
_cell_volume 2906.797334
_symmetry_space_group_name_H-M "P B C N"
_symmetry_group_IT_number 60
_symmetry_cell_setting 'orthorhombic'
loop_
_space_group_symop_operation_xyz
x,y,z
1/2-x,1/2-y,1/2+z
1/2+x,1/2-y,-z
-x,y,1/2-z
-x,-y,-z
1/2+x,1/2+y,1/2-z
1/2-x,1/2+y,z
x,-y,1/2+z
loop_
_atom_site_type_symbol
_atom_site_label
_atom_site_fract_x
_atom_site_fract_y
_atom_site_fract_z
Si Si1 0.494964 0.692558 0.956398
Si Si2 0.478523 0.687857 0.173530
Si Si3 0.150290 0.647581 0.719132
Si Si4 0.762572 0.706974 0.641008
Si Si5 0.680875 0.410740 0.942557
Si Si6 0.947891 0.644276 0.523395
Si Si7 0.744226 0.913549 0.418355
O O1 0.400723 0.722848 0.890067
O O2 0.658010 0.664810 0.934261
O O3 0.416303 0.617689 0.992952
O O4 0.504424 0.764220 0.010812
O O5 0.500000 0.649903 0.250000
O O6 0.390472 0.771599 0.177553
O O7 0.643486 0.709536 0.143974
O O8 0.383786 0.626928 0.127735
O O9 0.259984 0.668292 0.782820
O O10 0.218155 0.585434 0.664530
O O11 0.000000 0.609280 0.750000
O O12 0.848611 0.642944 0.592627
O O13 0.668669 0.506120 0.937354
O O14 0.853597 0.386874 0.957042
O O15 0.093211 0.590444 0.536602
#
# Coordination Sequence:
#
# PCOD8248277 Si02
#       7
#     8   8   8   8   8   8   8
#     4  11  22  36  60  90 117 151 206 246 300 359
#     4   9  17  37  63  81 110 161 208 241 291 365
#     4   9  17  36  63  77 111 157 212 236 282 363
#     4   9  18  35  61  85 107 152 209 248 277 351
#     4  11  23  37  57  91 124 150 197 249 311 354
#     4  11  20  37  63  84 115 161 203 241 294 359
#     4  12  22  37  58  90 124 158 189 258 309 352
#
# _framework density 19.265188999999999
#
# number of rings (size 3 to 8) (size 9 to 14) (size 15 to 20)
#    0.000    2.000    4.286    3.429    0.000    0.571 
#    2.571    0.000    6.286    0.000    0.000    0.000 
#    0.000    0.000    0.000    0.000    0.000    0.000 
#
# Total GULP energy -694201.357339 kJ/mol
# GULP energy per Si atom -12396.452810 kJ/mol
# Density = 1.922134 g / cm^3
# Si number density = 19.265189 Si / 1000 Ang^3
#
#
#
# Elastic Constant Matrix: (Units=GPa)
#
#
# Indices 1 2 3 4 5 6 
#
# 1 86.7452 16.6114 42.2618 0.0000 0.0000 0.0000
# 2 16.6114 65.8545 26.3659 0.0000 0.0000 0.0000
# 3 42.2618 26.3659 106.9913 0.0000 0.0000 0.0000
# 4 0.0000 0.0000 0.0000 25.7315 0.0000 0.0000
# 5 0.0000 0.0000 0.0000 0.0000 29.3251 0.0000
# 6 0.0000 0.0000 0.0000 0.0000 0.0000 25.4813
#
#
#
# Elastic Compliance Matrix: (Units=1/GPa)
#
#
# Indices 1 2 3 4 5 6 
#
# 1 0.014408 -0.001504 -0.005321 0.000000 0.000000 0.000000
# 2 -0.001504 0.017004 -0.003596 0.000000 0.000000 0.000000
# 3 -0.005321 -0.003596 0.012334 0.000000 0.000000 0.000000
# 4 0.000000 0.000000 0.000000 0.038863 0.000000 0.000000
# 5 0.000000 0.000000 0.000000 0.000000 0.034101 0.000000
# 6 0.000000 0.000000 0.000000 0.000000 0.000000 0.039244
#
#
# Mechanical properties :
#
#
# Convention : Reuss Voigt Hill
#
# Bulk Modulus (GPa) = 43.65886 47.78549 45.72217
# Shear Modulus (GPa) = 27.11032 27.73104 27.42068
#
# Velocity S-wave (km/s) = 3.75536 3.79811 3.77679
# Velocity P-wave (km/s) = 6.44320 6.64019 6.54244
#
# Compressibility (1/GPa) = 0.02290486
#
# Stress axis : x y z
#
# Youngs Moduli (GPa) = 69.40477 58.80900 81.07389
#
# Poissons Ratio (x) = 0.08846 0.43136
# Poissons Ratio (y) = 0.10440 0.29156
# Poissons Ratio (z) = 0.36928 0.21149
#
# Static dielectric constant tensor:
#      x y z
#    x 3.553330 0.000000 0.000000 
#    y 0.000000 3.087460 0.000000 
#    z 0.000000 0.000000 3.646700 
# 
# 
# High freq. dielectric constant tensor:
#      x y z
#    x 1.746370 0.000000 0.000000 
#    y 0.000000 1.710050 0.000000 
#    z 0.000000 0.000000 1.759750 
# 
# From -- ./inp_files/22287.got.cif
#   From: 2010.03.12/outbox.cif.g09.slc.cpg/sg60_12_cif.got.tgz:22287.got - 2010.04.10 18:46:24.
