data_PCOD8248510
_publ_section_title
;
Structure prediction by ZEFSAII (Michael W. Deem and Ramdas Pophale) SiO2 
 PCOD8248510
Probable space group: P B C N
;
_chemical_formula_sum "Si O2"
_cell_formula_units_Z 40
_cell_length_a 8.547068
_cell_length_b 9.216170
_cell_length_c 21.383687
_cell_angle_alpha 90.000000
_cell_angle_beta 90.000000
_cell_angle_gamma 90.000000
_cell_volume 1684.419363
_symmetry_space_group_name_H-M "P B C N"
_symmetry_group_IT_number 60
_symmetry_cell_setting 'orthorhombic'
loop_
_space_group_symop_operation_xyz
x,y,z
1/2-x,1/2-y,1/2+z
1/2+x,1/2-y,-z
-x,y,1/2-z
-x,-y,-z
1/2+x,1/2+y,1/2-z
1/2-x,1/2+y,z
x,-y,1/2+z
loop_
_atom_site_type_symbol
_atom_site_label
_atom_site_fract_x
_atom_site_fract_y
_atom_site_fract_z
Si Si1 0.376337 0.777007 0.853408
Si Si2 0.660239 0.704971 0.412793
Si Si3 0.150884 0.423201 0.285893
Si Si4 0.985738 0.664568 0.480422
Si Si5 0.832620 0.921666 0.334025
O O1 0.214244 0.700399 0.833286
O O2 0.384419 0.793549 0.928218
O O3 0.520779 0.683903 0.827887
O O4 0.395579 0.934985 0.824018
O O5 0.515349 0.735165 0.458884
O O6 0.684765 0.839265 0.365510
O O7 0.620388 0.560327 0.374943
O O8 0.815195 0.693603 0.454233
O O9 0.283342 0.468281 0.235530
O O10 0.000000 0.359997 0.250000
O O11 0.000000 0.500000 0.500000
#
# Coordination Sequence:
#
# PCOD8248510 Si02
#       5
#     8   8   8   8   8
#     4  11  28  46  71 106 145 189 245 295 366 442
#     4  11  24  43  76 102 145 192 241 303 364 430
#     4  12  25  45  72 104 145 186 241 305 360 437
#     4  11  25  47  73 108 146 191 246 305 367 436
#     4  11  24  47  69 105 142 191 237 294 368 433
#
# _framework density 23.747055
#
# number of rings (size 3 to 8) (size 9 to 14) (size 15 to 20)
#    0.000    0.800    2.000    5.400    2.800    8.000 
#    0.000    0.000    0.000    0.000    0.000    0.000 
#    0.000    0.000    0.000    0.000    0.000    0.000 
#
# Total GULP energy -496237.064072 kJ/mol
# GULP energy per Si atom -12405.926602 kJ/mol
# Density = 2.369301 g / cm^3
# Si number density = 23.747055 Si / 1000 Ang^3
#
#
#
# Elastic Constant Matrix: (Units=GPa)
#
#
# Indices 1 2 3 4 5 6 
#
# 1 54.3859 15.2063 13.7865 0.0000 0.0000 0.0000
# 2 15.2063 92.4573 32.9038 0.0000 0.0000 0.0000
# 3 13.7865 32.9038 89.9694 0.0000 0.0000 0.0000
# 4 0.0000 0.0000 0.0000 50.5570 0.0000 0.0000
# 5 0.0000 0.0000 0.0000 0.0000 44.4572 0.0000
# 6 0.0000 0.0000 0.0000 0.0000 0.0000 42.8370
#
#
#
# Elastic Compliance Matrix: (Units=1/GPa)
#
#
# Indices 1 2 3 4 5 6 
#
# 1 0.019612 -0.002479 -0.002099 0.000000 0.000000 0.000000
# 2 -0.002479 0.012747 -0.004282 0.000000 0.000000 0.000000
# 3 -0.002099 -0.004282 0.013003 0.000000 0.000000 0.000000
# 4 0.000000 0.000000 0.000000 0.019780 0.000000 0.000000
# 5 0.000000 0.000000 0.000000 0.000000 0.022494 0.000000
# 6 0.000000 0.000000 0.000000 0.000000 0.000000 0.023344
#
#
# Mechanical properties :
#
#
# Convention : Reuss Voigt Hill
#
# Bulk Modulus (GPa) = 36.17563 40.06730 38.12146
# Shear Modulus (GPa) = 36.25466 39.23130 37.74298
#
# Velocity S-wave (km/s) = 3.91154 4.06895 3.99102
# Velocity P-wave (km/s) = 5.97219 6.24374 6.10947
#
# Compressibility (1/GPa) = 0.02764292
#
# Stress axis : x y z
#
# Youngs Moduli (GPa) = 50.98870 78.44722 76.90777
#
# Poissons Ratio (x) = 0.19444 0.16141
# Poissons Ratio (y) = 0.12638 0.32933
# Poissons Ratio (z) = 0.10701 0.33593
#
# Static dielectric constant tensor:
#      x y z
#    x 6.620630 0.000000 0.000000 
#    y 0.000000 4.019410 0.000000 
#    z 0.000000 0.000000 3.949310 
# 
# 
# High freq. dielectric constant tensor:
#      x y z
#    x 1.936840 0.000000 0.000000 
#    y 0.000000 1.942200 0.000000 
#    z 0.000000 0.000000 1.962700 
# 
# From -- ./inp_files/23815.got.cif
#   From: 2010.03.12/outbox.cif.g09.slc.cpg/sg60_12_cif.got.tgz:23815.got - 2010.04.10 18:46:24.
