data_PCOD8248737
_publ_section_title
;
Structure prediction by ZEFSAII (Michael W. Deem and Ramdas Pophale) SiO2 
 PCOD8248737
Probable space group: P B C A
;
_chemical_formula_sum "Si O2"
_cell_formula_units_Z 64
_cell_length_a 20.590060
_cell_length_b 18.618099
_cell_length_c 9.056780
_cell_angle_alpha 90.000000
_cell_angle_beta 90.000000
_cell_angle_gamma 90.000000
_cell_volume 3471.896466
_symmetry_space_group_name_H-M "P B C A"
_symmetry_group_IT_number 61
_symmetry_cell_setting 'orthorhombic'
loop_
_space_group_symop_operation_xyz
x,y,z
1/2-x,-y,1/2+z
1/2+x,1/2-y,-z
-x,1/2+y,1/2-z
-x,-y,-z
1/2+x,y,1/2-z
1/2-x,1/2+y,z
x,1/2-y,1/2+z
loop_
_atom_site_type_symbol
_atom_site_label
_atom_site_fract_x
_atom_site_fract_y
_atom_site_fract_z
Si Si1 0.997523 0.934403 0.394620
Si Si2 0.348202 0.560452 0.649169
Si Si3 0.798371 0.399320 0.865802
Si Si4 0.381435 0.325069 0.100925
Si Si5 0.596717 0.683129 0.552572
Si Si6 0.320167 0.547287 0.978948
Si Si7 0.940148 0.025239 0.906672
Si Si8 0.234816 0.610187 0.464612
O O1 0.923199 0.916531 0.359850
O O2 0.031833 0.864657 0.466013
O O3 0.040201 0.964263 0.260866
O O4 0.000000 0.000000 0.500000
O O5 0.336283 0.475267 0.630105
O O6 0.328217 0.579480 0.815850
O O7 0.308972 0.608359 0.527710
O O8 0.779366 0.368900 0.704728
O O9 0.843900 0.345203 0.954252
O O10 0.728212 0.398638 0.941643
O O11 0.385829 0.313199 0.275334
O O12 0.414657 0.397565 0.037932
O O13 0.417510 0.262114 0.011003
O O14 0.305057 0.332678 0.063102
O O15 0.286946 0.470702 0.983896
O O16 0.386830 0.537819 0.071381
O O17 0.000000 0.000000 0.000000
#
# Coordination Sequence:
#
# PCOD8248737 Si02
#       8
#     8   8   8   8   8   8   8   8
#     4  11  22  33  57  88 119 152 192 240 294 351
#     4  10  18  33  53  83 119 145 182 234 291 339
#     4  10  19  32  55  83 110 145 188 234 283 336
#     4  10  22  37  58  82 110 150 195 240 286 347
#     4  11  22  38  59  81 113 151 195 237 290 352
#     4   9  18  31  53  82 112 146 180 233 283 333
#     4  10  20  36  57  85 116 151 193 237 290 348
#     4   9  19  32  55  81 110 142 186 233 282 331
#
# _framework density 18.433729
#
# number of rings (size 3 to 8) (size 9 to 14) (size 15 to 20)
#    0.000    2.000    2.500    1.500    1.750    4.000 
#    0.000    0.000    2.750    1.500    0.000    0.000 
#    0.000    0.000    0.000    0.000    0.000    0.000 
#
# Total GULP energy -793082.772460 kJ/mol
# GULP energy per Si atom -12391.918320 kJ/mol
# Density = 1.839177 g / cm^3
# Si number density = 18.433729 Si / 1000 Ang^3
#
#
#
# Elastic Constant Matrix: (Units=GPa)
#
#
# Indices 1 2 3 4 5 6 
#
# 1 115.7736 28.2101 36.5004 0.0000 0.0000 0.0000
# 2 28.2101 66.5963 34.3399 0.0000 0.0000 0.0000
# 3 36.5004 34.3399 92.0264 0.0000 0.0000 0.0000
# 4 0.0000 0.0000 0.0000 27.5990 0.0000 0.0000
# 5 0.0000 0.0000 0.0000 0.0000 34.7451 0.0000
# 6 0.0000 0.0000 0.0000 0.0000 0.0000 20.9449
#
#
#
# Elastic Compliance Matrix: (Units=1/GPa)
#
#
# Indices 1 2 3 4 5 6 
#
# 1 0.010273 -0.002787 -0.003035 0.000000 0.000000 0.000000
# 2 -0.002787 0.019350 -0.006115 0.000000 0.000000 0.000000
# 3 -0.003035 -0.006115 0.014352 0.000000 0.000000 0.000000
# 4 0.000000 0.000000 0.000000 0.036233 0.000000 0.000000
# 5 0.000000 0.000000 0.000000 0.000000 0.028781 0.000000
# 6 0.000000 0.000000 0.000000 0.000000 0.000000 0.047744
#
#
# Mechanical properties :
#
#
# Convention : Reuss Voigt Hill
#
# Bulk Modulus (GPa) = 49.74744 52.49967 51.12356
# Shear Modulus (GPa) = 26.69412 28.34755 27.52084
#
# Velocity S-wave (km/s) = 3.80954 3.92574 3.86808
# Velocity P-wave (km/s) = 6.81145 7.00647 6.90965
#
# Compressibility (1/GPa) = 0.02010154
#
# Stress axis : x y z
#
# Youngs Moduli (GPa) = 97.33863 51.68089 69.67703
#
# Poissons Ratio (x) = 0.14403 0.21145
# Poissons Ratio (y) = 0.27128 0.42607
# Poissons Ratio (z) = 0.29540 0.31603
#
# Static dielectric constant tensor:
#      x y z
#    x 3.422980 0.000000 0.000000 
#    y 0.000000 2.722150 0.000000 
#    z 0.000000 0.000000 -4.994530 
# 
# 
# High freq. dielectric constant tensor:
#      x y z
#    x 1.718780 0.000000 0.000000 
#    y 0.000000 1.681660 0.000000 
#    z 0.000000 0.000000 1.728740 
# 
# From -- ./inp_files/4058.got.cif
#   From: 2010.03.12/outbox.cif.g09.slc.cpg/sg61_3_cif.got.tgz:4058.got - 2010.04.10 19:05:03.
