data_PCOD8248631
_publ_section_title
;
Structure prediction by ZEFSAII (Michael W. Deem and Ramdas Pophale) SiO2 
 PCOD8248631
Probable space group: P B C N
;
_chemical_formula_sum "Si O2"
_cell_formula_units_Z 44
_cell_length_a 13.109713
_cell_length_b 8.815533
_cell_length_c 16.984826
_cell_angle_alpha 90.000000
_cell_angle_beta 90.000000
_cell_angle_gamma 90.000000
_cell_volume 1962.921183
_symmetry_space_group_name_H-M "P B C N"
_symmetry_group_IT_number 60
_symmetry_cell_setting 'orthorhombic'
loop_
_space_group_symop_operation_xyz
x,y,z
1/2-x,1/2-y,1/2+z
1/2+x,1/2-y,-z
-x,y,1/2-z
-x,-y,-z
1/2+x,1/2+y,1/2-z
1/2-x,1/2+y,z
x,-y,1/2+z
loop_
_atom_site_type_symbol
_atom_site_label
_atom_site_fract_x
_atom_site_fract_y
_atom_site_fract_z
Si Si1 0.205973 0.918514 0.968576
Si Si2 0.677536 0.974969 0.182620
Si Si3 0.461356 0.722949 0.372201
Si Si4 0.820784 0.231810 0.781937
Si Si5 0.500000 0.521615 0.750000
Si Si6 0.186421 0.196789 0.073309
O O1 0.104357 0.822361 0.948705
O O2 0.250730 0.004614 0.893228
O O3 0.293036 0.806184 0.999852
O O4 0.176554 0.027955 0.040143
O O5 0.574339 0.886742 0.159389
O O6 0.733062 0.869689 0.245117
O O7 0.648553 0.134558 0.221828
O O8 0.440158 0.587105 0.310382
O O9 0.580279 0.743339 0.387798
O O10 0.779011 0.298130 0.864045
O O11 0.919386 0.126394 0.796631
#
# Coordination Sequence:
#
# PCOD8248631 Si02
#       6
#     8   8   8   8   4   8
#     4  12  24  48  70 104 145 193 234 298 374 439
#     4  12  23  47  75  99 146 193 239 300 362 439
#     4  12  25  47  75 103 148 193 244 299 377 432
#     4  12  25  46  72 109 144 188 253 304 361 435
#     4  12  26  46  78 108 138 202 246 310 364 426
#     4  12  27  44  72 107 147 187 244 306 365 438
#
# _framework density 22.415572000000001
#
# number of rings (size 3 to 8) (size 9 to 14) (size 15 to 20)
#    0.000    0.000    5.455    4.909    0.000    4.364 
#    0.000    0.000    0.000    0.000    0.000    0.000 
#    0.000    0.000    0.000    0.000    0.000    0.000 
#
# Total GULP energy -545885.225130 kJ/mol
# GULP energy per Si atom -12406.482389 kJ/mol
# Density = 2.236455 g / cm^3
# Si number density = 22.415572 Si / 1000 Ang^3
#
#
#
# Elastic Constant Matrix: (Units=GPa)
#
#
# Indices 1 2 3 4 5 6 
#
# 1 95.7660 33.5934 19.4534 0.0000 0.0000 0.0000
# 2 33.5934 84.9300 12.3862 0.0000 0.0000 0.0000
# 3 19.4534 12.3862 82.2463 0.0000 0.0000 0.0000
# 4 0.0000 0.0000 0.0000 39.2162 0.0000 0.0000
# 5 0.0000 0.0000 0.0000 0.0000 37.8602 0.0000
# 6 0.0000 0.0000 0.0000 0.0000 0.0000 36.8483
#
#
#
# Elastic Compliance Matrix: (Units=1/GPa)
#
#
# Indices 1 2 3 4 5 6 
#
# 1 0.012524 -0.004623 -0.002266 0.000000 0.000000 0.000000
# 2 -0.004623 0.013746 -0.000977 0.000000 0.000000 0.000000
# 3 -0.002266 -0.000977 0.012842 0.000000 0.000000 0.000000
# 4 0.000000 0.000000 0.000000 0.025500 0.000000 0.000000
# 5 0.000000 0.000000 0.000000 0.000000 0.026413 0.000000
# 6 0.000000 0.000000 0.000000 0.000000 0.000000 0.027138
#
#
# Mechanical properties :
#
#
# Convention : Reuss Voigt Hill
#
# Bulk Modulus (GPa) = 42.77239 43.75649 43.26444
# Shear Modulus (GPa) = 35.28895 35.95223 35.62059
#
# Velocity S-wave (km/s) = 3.97206 4.00921 3.99068
# Velocity P-wave (km/s) = 6.33713 6.40271 6.37001
#
# Compressibility (1/GPa) = 0.02337957
#
# Stress axis : x y z
#
# Youngs Moduli (GPa) = 79.84509 72.75075 77.87167
#
# Poissons Ratio (x) = 0.33636 0.17646
# Poissons Ratio (y) = 0.36916 0.07604
# Poissons Ratio (z) = 0.18093 0.07104
#
# Static dielectric constant tensor:
#      x y z
#    x 3.900160 0.000000 0.000000 
#    y 0.000000 4.324950 0.000000 
#    z 0.000000 0.000000 4.133110 
# 
# 
# High freq. dielectric constant tensor:
#      x y z
#    x 1.878240 0.000000 0.000000 
#    y 0.000000 1.898660 0.000000 
#    z 0.000000 0.000000 1.888970 
# 
# From -- ./inp_files/20449.got.cif
#   From: 2010.03.12/outbox.cif.g09.slc.cpg/sg60_11_cif.got.tgz:20449.got - 2010.04.10 18:46:24.
