data_PCOD8248542
_publ_section_title
;
Structure prediction by ZEFSAII (Michael W. Deem and Ramdas Pophale) SiO2 
 PCOD8248542
Probable space group: P B C N
;
_chemical_formula_sum "Si O2"
_cell_formula_units_Z 28
_cell_length_a 7.804695
_cell_length_b 13.403666
_cell_length_c 11.282038
_cell_angle_alpha 90.000000
_cell_angle_beta 90.000000
_cell_angle_gamma 90.000000
_cell_volume 1180.231200
_symmetry_space_group_name_H-M "P B C N"
_symmetry_group_IT_number 60
_symmetry_cell_setting 'orthorhombic'
loop_
_space_group_symop_operation_xyz
x,y,z
1/2-x,1/2-y,1/2+z
1/2+x,1/2-y,-z
-x,y,1/2-z
-x,-y,-z
1/2+x,1/2+y,1/2-z
1/2-x,1/2+y,z
x,-y,1/2+z
loop_
_atom_site_type_symbol
_atom_site_label
_atom_site_fract_x
_atom_site_fract_y
_atom_site_fract_z
Si Si1 0.102092 0.905352 0.545794
Si Si2 0.000000 0.216616 0.250000
Si Si3 0.466779 0.943299 0.623554
Si Si4 0.647110 0.732930 0.669290
O O1 0.972248 0.846080 0.629565
O O2 0.264068 0.926938 0.628885
O O3 0.175592 0.837420 0.441808
O O4 0.000000 0.000000 0.500000
O O5 0.820331 0.275850 0.249177
O O6 0.500000 0.001475 0.750000
O O7 0.582168 0.842910 0.628107
O O8 0.500000 0.000000 0.500000
O O9 0.500000 0.683957 0.750000
#
# Coordination Sequence:
#
# PCOD8248542 Si02
#       4
#     8   4   8   8
#     4  12  27  46  76 109 151 196 253 320 383 462
#     4  12  24  48  76 106 146 194 254 304 386 466
#     4  11  24  49  73 109 153 194 251 319 382 464
#     4  11  25  50  75 108 149 197 257 312 387 468
#
# _framework density 23.724164999999999
#
# number of rings (size 3 to 8) (size 9 to 14) (size 15 to 20)
#    0.000    0.571    5.714    3.429    2.000    0.000 
#   15.429    0.000    0.000    0.000    0.000    0.000 
#    0.000    0.000    0.000    0.000    0.000    0.000 
#
# Total GULP energy -346904.675725 kJ/mol
# GULP energy per Si atom -12389.452704 kJ/mol
# Density = 2.367017 g / cm^3
# Si number density = 23.724165 Si / 1000 Ang^3
#
#
#
# Elastic Constant Matrix: (Units=GPa)
#
#
# Indices 1 2 3 4 5 6 
#
# 1 185.6490 31.6602 48.5174 0.0000 0.0000 0.0000
# 2 31.6602 57.5488 40.2417 0.0000 0.0000 0.0000
# 3 48.5174 40.2417 187.4496 0.0000 0.0000 0.0000
# 4 0.0000 0.0000 0.0000 -1.7127 0.0000 0.0000
# 5 0.0000 0.0000 0.0000 0.0000 53.7553 0.0000
# 6 0.0000 0.0000 0.0000 0.0000 0.0000 4.7283
#
#
#
# Elastic Compliance Matrix: (Units=1/GPa)
#
#
# Indices 1 2 3 4 5 6 
#
# 1 0.006103 -0.002651 -0.001010 0.000000 0.000000 0.000000
# 2 -0.002651 0.021597 -0.003950 0.000000 0.000000 0.000000
# 3 -0.001010 -0.003950 0.006444 0.000000 0.000000 0.000000
# 4 0.000000 0.000000 0.000000 -0.583857 0.000000 0.000000
# 5 0.000000 0.000000 0.000000 0.000000 0.018603 0.000000
# 6 0.000000 0.000000 0.000000 0.000000 0.000000 0.211494
#
#
# Mechanical properties :
#
#
# Convention : Reuss Voigt Hill
#
# Bulk Modulus (GPa) = 52.85140 74.60955 63.73047
# Shear Modulus (GPa) = -16.77371 32.03605 7.63117
#
# Velocity S-wave (km/s) = -2.66189 3.67870 1.79544
# Velocity P-wave (km/s) = 3.58863 7.03995 5.58745
#
# Compressibility (1/GPa) = 0.01892098
#
# Stress axis : x y z
#
# Youngs Moduli (GPa) = 163.86353 46.30231 155.17404
#
# Poissons Ratio (x) = 0.12274 0.15680
# Poissons Ratio (y) = 0.43436 0.61300
# Poissons Ratio (z) = 0.16558 0.18291
#
# Static dielectric constant tensor:
#      x y z
#    x 4.225010 0.000000 0.000000 
#    y 0.000000 4.062550 0.000000 
#    z 0.000000 0.000000 4.623710 
# 
# 
# High freq. dielectric constant tensor:
#      x y z
#    x 1.967210 0.000000 0.000000 
#    y 0.000000 1.905340 0.000000 
#    z 0.000000 0.000000 1.964170 
# 
# From -- ./inp_files/9424.got.cif
#   From: 2010.03.12/outbox.cif.g09.slc.cpg/sg60_5_cif.got.tgz:9424.got - 2010.04.10 18:46:24.
