data_PCOD8248879
_publ_section_title
;
Structure prediction by ZEFSAII (Michael W. Deem and Ramdas Pophale) SiO2 
 PCOD8248879
Probable space group: P B C A
;
_chemical_formula_sum "Si O2"
_cell_formula_units_Z 56
_cell_length_a 19.906331
_cell_length_b 8.125471
_cell_length_c 16.760434
_cell_angle_alpha 90.000000
_cell_angle_beta 90.000000
_cell_angle_gamma 90.000000
_cell_volume 2710.971962
_symmetry_space_group_name_H-M "P B C A"
_symmetry_group_IT_number 61
_symmetry_cell_setting 'orthorhombic'
loop_
_space_group_symop_operation_xyz
x,y,z
1/2-x,-y,1/2+z
1/2+x,1/2-y,-z
-x,1/2+y,1/2-z
-x,-y,-z
1/2+x,y,1/2-z
1/2-x,1/2+y,z
x,1/2-y,1/2+z
loop_
_atom_site_type_symbol
_atom_site_label
_atom_site_fract_x
_atom_site_fract_y
_atom_site_fract_z
Si Si1 0.925974 0.225420 0.613822
Si Si2 0.964846 0.885720 0.651856
Si Si3 0.557147 0.314466 0.477614
Si Si4 0.378769 0.561640 0.815010
Si Si5 0.320194 0.607373 0.973514
Si Si6 0.681483 0.748407 0.979762
Si Si7 0.612992 0.946539 0.851258
O O1 0.916492 0.392429 0.662898
O O2 0.866741 0.186333 0.550304
O O3 0.995140 0.265068 0.568321
O O4 0.931829 0.065162 0.673644
O O5 0.970157 0.909791 0.555540
O O6 0.925320 0.726908 0.684179
O O7 0.041941 0.872976 0.680849
O O8 0.603040 0.421315 0.420125
O O9 0.605839 0.176280 0.512185
O O10 0.351499 0.534745 0.724857
O O11 0.316784 0.581009 0.876926
O O12 0.258557 0.716701 0.999856
O O13 0.319837 0.445819 0.026413
O O14 0.661010 0.810572 0.891471
#
# Coordination Sequence:
#
# PCOD8248879 Si02
#       7
#     8   8   8   8   8   8   8
#     4  10  20  39  63  89 123 167 214 252 316 387
#     4  10  20  37  63  90 125 172 196 268 319 375
#     4  10  19  39  63  92 119 166 214 261 314 374
#     4  10  25  38  59  97 132 157 209 263 325 375
#     4  10  24  40  65  89 121 171 212 267 310 385
#     4  11  21  40  66  87 120 171 220 257 307 381
#     4  11  21  38  62  94 129 160 212 266 312 378
#
# _framework density 20.656797000000001
#
# number of rings (size 3 to 8) (size 9 to 14) (size 15 to 20)
#    0.000    1.714    2.857    1.714    8.000    1.714 
#    2.571    5.714    0.000    0.000    0.000    0.000 
#    0.000    0.000    0.000    0.000    0.000    0.000 
#
# Total GULP energy -693953.556760 kJ/mol
# GULP energy per Si atom -12392.027799 kJ/mol
# Density = 2.060978 g / cm^3
# Si number density = 20.656797 Si / 1000 Ang^3
#
#
#
# Elastic Constant Matrix: (Units=GPa)
#
#
# Indices 1 2 3 4 5 6 
#
# 1 67.2435 9.4210 2.6225 0.0000 0.0000 0.0000
# 2 9.4210 89.9455 14.9420 0.0000 0.0000 0.0000
# 3 2.6225 14.9420 85.4489 0.0000 0.0000 0.0000
# 4 0.0000 0.0000 0.0000 19.4604 0.0000 0.0000
# 5 0.0000 0.0000 0.0000 0.0000 14.1051 0.0000
# 6 0.0000 0.0000 0.0000 0.0000 0.0000 -0.6586
#
#
#
# Elastic Compliance Matrix: (Units=1/GPa)
#
#
# Indices 1 2 3 4 5 6 
#
# 1 0.015096 -0.001549 -0.000192 0.000000 0.000000 0.000000
# 2 -0.001549 0.011609 -0.001983 0.000000 0.000000 0.000000
# 3 -0.000192 -0.001983 0.012055 0.000000 0.000000 0.000000
# 4 0.000000 0.000000 0.000000 0.051386 0.000000 0.000000
# 5 0.000000 0.000000 0.000000 0.000000 0.070896 0.000000
# 6 0.000000 0.000000 0.000000 0.000000 0.000000 -1.518430
#
#
# Mechanical properties :
#
#
# Convention : Reuss Voigt Hill
#
# Bulk Modulus (GPa) = 31.93609 32.95654 32.44632
# Shear Modulus (GPa) = -3.73273 20.95822 8.61274
#
# Velocity S-wave (km/s) = -1.34571 3.18872 2.04414
# Velocity P-wave (km/s) = 3.61653 5.43564 4.61657
#
# Compressibility (1/GPa) = 0.03131253
#
# Stress axis : x y z
#
# Youngs Moduli (GPa) = 66.24325 86.13674 82.94983
#
# Poissons Ratio (x) = 0.13344 0.01596
# Poissons Ratio (y) = 0.10262 0.16445
# Poissons Ratio (z) = 0.01275 0.17077
#
# Static dielectric constant tensor:
#      x y z
#    x 3.935240 0.000000 0.000000 
#    y 0.000000 3.793480 0.000000 
#    z 0.000000 0.000000 3.756850 
# 
# 
# High freq. dielectric constant tensor:
#      x y z
#    x 1.789050 0.000000 0.000000 
#    y 0.000000 1.819890 0.000000 
#    z 0.000000 0.000000 1.798670 
# 
# From -- ./inp_files/8366.got.cif
#   From: 2010.03.12/outbox.cif.g09.slc.cpg/sg61_5_cif.got.tgz:8366.got - 2010.04.10 19:05:03.
