data_PCOD8248211
_publ_section_title
;
Structure prediction by ZEFSAII (Michael W. Deem and Ramdas Pophale) SiO2 
 PCOD8248211
Probable space group: P B C N
;
_chemical_formula_sum "Si O2"
_cell_formula_units_Z 40
_cell_length_a 11.752394
_cell_length_b 20.343537
_cell_length_c 7.691420
_cell_angle_alpha 90.000000
_cell_angle_beta 90.000000
_cell_angle_gamma 90.000000
_cell_volume 1838.905167
_symmetry_space_group_name_H-M "P B C N"
_symmetry_group_IT_number 60
_symmetry_cell_setting 'orthorhombic'
loop_
_space_group_symop_operation_xyz
x,y,z
1/2-x,1/2-y,1/2+z
1/2+x,1/2-y,-z
-x,y,1/2-z
-x,-y,-z
1/2+x,1/2+y,1/2-z
1/2-x,1/2+y,z
x,-y,1/2+z
loop_
_atom_site_type_symbol
_atom_site_label
_atom_site_fract_x
_atom_site_fract_y
_atom_site_fract_z
Si Si1 0.411828 0.330812 0.599833
Si Si2 0.407192 0.816523 0.108105
Si Si3 0.000000 0.125306 0.750000
Si Si4 0.500000 0.861972 0.750000
Si Si5 0.266545 0.069708 0.203116
Si Si6 0.721974 0.426028 0.406583
O O1 0.500000 0.351658 0.750000
O O2 0.362867 0.257957 0.639079
O O3 0.473824 0.328430 0.413833
O O4 0.309506 0.383232 0.580815
O O5 0.500000 0.835933 0.250000
O O6 0.303226 0.865458 0.143021
O O7 0.461259 0.819120 0.915291
O O8 0.896004 0.078293 0.803467
O O9 0.603991 0.907854 0.803618
O O10 0.204317 0.075712 0.387758
O O11 0.276587 0.995535 0.139096
#
# Coordination Sequence:
#
# PCOD8248211 Si02
#       6
#     8   8   4   4   8   8
#     4  11  24  45  68  99 137 176 227 285 337 405
#     4  10  25  44  68 100 134 178 229 280 342 401
#     4  12  25  44  72  98 137 186 224 280 347 396
#     4  10  25  46  68 100 137 182 228 282 339 402
#     4  11  25  45  69 102 140 179 230 285 334 410
#     4  11  26  42  69 103 135 184 229 279 340 406
#
# _framework density 21.752075000000001
#
# number of rings (size 3 to 8) (size 9 to 14) (size 15 to 20)
#    0.000    1.200    2.000    1.800    8.400    8.000 
#    0.000    0.000    0.000    0.000    0.000    0.000 
#    0.000    0.000    0.000    0.000    0.000    0.000 
#
# Total GULP energy -496074.252664 kJ/mol
# GULP energy per Si atom -12401.856317 kJ/mol
# Density = 2.170257 g / cm^3
# Si number density = 21.752075 Si / 1000 Ang^3
#
#
#
# Elastic Constant Matrix: (Units=GPa)
#
#
# Indices 1 2 3 4 5 6 
#
# 1 121.6954 48.5875 32.2012 0.0000 0.0000 0.0000
# 2 48.5875 115.0304 -1.2726 0.0000 0.0000 0.0000
# 3 32.2012 -1.2726 79.3901 0.0000 0.0000 0.0000
# 4 0.0000 0.0000 0.0000 10.9053 0.0000 0.0000
# 5 0.0000 0.0000 0.0000 0.0000 33.1905 0.0000
# 6 0.0000 0.0000 0.0000 0.0000 0.0000 6.4069
#
#
#
# Elastic Compliance Matrix: (Units=1/GPa)
#
#
# Indices 1 2 3 4 5 6 
#
# 1 0.011406 -0.004870 -0.004705 0.000000 0.000000 0.000000
# 2 -0.004870 0.010774 0.002148 0.000000 0.000000 0.000000
# 3 -0.004705 0.002148 0.014539 0.000000 0.000000 0.000000
# 4 0.000000 0.000000 0.000000 0.091699 0.000000 0.000000
# 5 0.000000 0.000000 0.000000 0.000000 0.030129 0.000000
# 6 0.000000 0.000000 0.000000 0.000000 0.000000 0.156082
#
#
# Mechanical properties :
#
#
# Convention : Reuss Voigt Hill
#
# Bulk Modulus (GPa) = 45.73287 52.79422 49.26355
# Shear Modulus (GPa) = 14.84688 25.87386 20.36037
#
# Velocity S-wave (km/s) = 2.61540 3.45264 3.06276
# Velocity P-wave (km/s) = 5.49460 6.34176 5.93332
#
# Compressibility (1/GPa) = 0.02186611
#
# Stress axis : x y z
#
# Youngs Moduli (GPa) = 87.66949 92.81474 68.78195
#
# Poissons Ratio (x) = 0.45201 0.32359
# Poissons Ratio (y) = 0.42695 -0.14775
# Poissons Ratio (z) = 0.41245 -0.19937
#
# Static dielectric constant tensor:
#      x y z
#    x 3.780720 0.000000 0.000000 
#    y 0.000000 3.829910 0.000000 
#    z 0.000000 0.000000 4.126060 
# 
# 
# High freq. dielectric constant tensor:
#      x y z
#    x 1.852100 0.000000 0.000000 
#    y 0.000000 1.858770 0.000000 
#    z 0.000000 0.000000 1.872270 
# 
# From -- ./inp_files/4830.got.cif
#   From: 2010.03.12/outbox.cif.g09.slc.cpg/sg60_3_cif.got.tgz:4830.got - 2010.04.10 18:46:24.
