data_PCOD8248985
_publ_section_title
;
Structure prediction by ZEFSAII (Michael W. Deem and Ramdas Pophale) SiO2 
 PCOD8248985
Probable space group: P B C A
;
_chemical_formula_sum "Si O2"
_cell_formula_units_Z 48
_cell_length_a 9.173653
_cell_length_b 8.476006
_cell_length_c 30.078341
_cell_angle_alpha 90.000000
_cell_angle_beta 90.000000
_cell_angle_gamma 90.000000
_cell_volume 2338.769614
_symmetry_space_group_name_H-M "P B C A"
_symmetry_group_IT_number 61
_symmetry_cell_setting 'orthorhombic'
loop_
_space_group_symop_operation_xyz
x,y,z
1/2-x,-y,1/2+z
1/2+x,1/2-y,-z
-x,1/2+y,1/2-z
-x,-y,-z
1/2+x,y,1/2-z
1/2-x,1/2+y,z
x,1/2-y,1/2+z
loop_
_atom_site_type_symbol
_atom_site_label
_atom_site_fract_x
_atom_site_fract_y
_atom_site_fract_z
Si Si1 0.951617 0.788310 0.038900
Si Si2 0.836497 0.368022 0.533241
Si Si3 0.936596 0.811296 0.139145
Si Si4 0.558860 0.195382 0.792903
Si Si5 0.624699 0.828151 0.633264
Si Si6 0.627975 0.829921 0.785072
O O1 0.837540 0.648334 0.029952
O O2 0.002959 0.786474 0.089945
O O3 0.865969 0.948351 0.027710
O O4 0.088635 0.768705 0.006371
O O5 0.895874 0.302979 0.580464
O O6 0.789348 0.713390 0.147034
O O7 0.059776 0.752465 0.172090
O O8 0.902507 0.993396 0.148429
O O9 0.492241 0.216023 0.842339
O O10 0.434684 0.250817 0.759056
O O11 0.699144 0.305171 0.786177
O O12 0.599009 0.015209 0.784818
#
# Coordination Sequence:
#
# PCOD8248985 Si02
#       6
#     8   8   8   8   8   8
#     4   9  19  35  55  81 113 149 189 232 278 330
#     4   9  19  35  55  81 113 149 189 232 278 330
#     4  10  20  37  59  84 115 151 191 234 282 334
#     4  12  25  42  62  86 115 148 187 230 280 335
#     4  10  20  37  59  84 115 151 191 234 282 334
#     4  12  25  42  62  86 115 148 187 230 280 335
#
# _framework density 20.523612
#
# number of rings (size 3 to 8) (size 9 to 14) (size 15 to 20)
#    0.000    1.667    0.000    5.000    0.000    3.333 
#    0.000    3.333    0.000    0.000    0.000    0.000 
#    0.000    0.000    0.000    0.000    0.000    0.000 
#
# Total GULP energy -595415.923931 kJ/mol
# GULP energy per Si atom -12404.498415 kJ/mol
# Density = 2.047690 g / cm^3
# Si number density = 20.523612 Si / 1000 Ang^3
#
#
#
# Elastic Constant Matrix: (Units=GPa)
#
#
# Indices 1 2 3 4 5 6 
#
# 1 62.3268 -3.8471 30.6255 0.0000 0.0000 0.0000
# 2 -3.8471 60.7260 20.5326 0.0000 0.0000 0.0000
# 3 30.6255 20.5326 90.3211 0.0000 0.0000 0.0000
# 4 0.0000 0.0000 0.0000 29.6864 0.0000 0.0000
# 5 0.0000 0.0000 0.0000 0.0000 37.6298 0.0000
# 6 0.0000 0.0000 0.0000 0.0000 0.0000 32.2146
#
#
#
# Elastic Compliance Matrix: (Units=1/GPa)
#
#
# Indices 1 2 3 4 5 6 
#
# 1 0.020057 0.003867 -0.007680 0.000000 0.000000 0.000000
# 2 0.003867 0.018584 -0.005536 0.000000 0.000000 0.000000
# 3 -0.007680 -0.005536 0.014934 0.000000 0.000000 0.000000
# 4 0.000000 0.000000 0.000000 0.033685 0.000000 0.000000
# 5 0.000000 0.000000 0.000000 0.000000 0.026575 0.000000
# 6 0.000000 0.000000 0.000000 0.000000 0.000000 0.031042
#
#
# Mechanical properties :
#
#
# Convention : Reuss Voigt Hill
#
# Bulk Modulus (GPa) = 28.67132 34.22176 31.44654
# Shear Modulus (GPa) = 28.53876 30.97704 29.75790
#
# Velocity S-wave (km/s) = 3.73303 3.88923 3.81193
# Velocity P-wave (km/s) = 5.70797 6.07278 5.89320
#
# Compressibility (1/GPa) = 0.03487806
#
# Stress axis : x y z
#
# Youngs Moduli (GPa) = 49.85834 53.80898 66.96063
#
# Poissons Ratio (x) = -0.20810 0.51425
# Poissons Ratio (y) = -0.19282 0.37070
# Poissons Ratio (z) = 0.38291 0.29789
#
# Static dielectric constant tensor:
#      x y z
#    x 3.677180 0.000000 0.000000 
#    y 0.000000 3.751900 0.000000 
#    z 0.000000 0.000000 3.910740 
# 
# 
# High freq. dielectric constant tensor:
#      x y z
#    x 1.794970 0.000000 0.000000 
#    y 0.000000 1.807950 0.000000 
#    z 0.000000 0.000000 1.813920 
# 
# From -- ./inp_files/1874.got.cif
#   From: 2010.03.12/outbox.cif.g09.slc.cpg/sg61_1_cif.got.tgz:1874.got - 2010.04.10 19:05:03.
