data_PCOD8248790
_publ_section_title
;
Structure prediction by ZEFSAII (Michael W. Deem and Ramdas Pophale) SiO2 
 PCOD8248790
Probable space group: P B C A
;
_chemical_formula_sum "Si O2"
_cell_formula_units_Z 48
_cell_length_a 21.726398
_cell_length_b 19.963428
_cell_length_c 5.005385
_cell_angle_alpha 90.000000
_cell_angle_beta 90.000000
_cell_angle_gamma 90.000000
_cell_volume 2171.002565
_symmetry_space_group_name_H-M "P B C A"
_symmetry_group_IT_number 61
_symmetry_cell_setting 'orthorhombic'
loop_
_space_group_symop_operation_xyz
x,y,z
1/2-x,-y,1/2+z
1/2+x,1/2-y,-z
-x,1/2+y,1/2-z
-x,-y,-z
1/2+x,y,1/2-z
1/2-x,1/2+y,z
x,1/2-y,1/2+z
loop_
_atom_site_type_symbol
_atom_site_label
_atom_site_fract_x
_atom_site_fract_y
_atom_site_fract_z
Si Si1 0.134518 0.793208 0.243199
Si Si2 0.935632 0.054605 0.296591
Si Si3 0.482891 0.124416 0.711217
Si Si4 0.808556 0.084644 0.490510
Si Si5 0.109265 0.411811 0.302508
Si Si6 0.312627 0.936568 0.807316
O O1 0.148207 0.732689 0.446621
O O2 0.062321 0.813311 0.270562
O O3 0.181156 0.854574 0.302210
O O4 0.965023 0.064950 0.586378
O O5 0.865496 0.081465 0.287781
O O6 0.933649 0.976256 0.243326
O O7 0.973872 0.096777 0.085690
O O8 0.555967 0.145504 0.731342
O O9 0.749780 0.096383 0.300938
O O10 0.803028 0.016614 0.667073
O O11 0.134490 0.416362 0.600565
O O12 0.165956 0.405759 0.093036
#
# Coordination Sequence:
#
# PCOD8248790 Si02
#       6
#     8   8   8   8   8   8
#     4  11  24  40  62  86 114 159 207 257 303 354
#     4  10  19  32  56  84 115 152 185 239 299 351
#     4  11  21  36  56  81 116 150 194 245 293 352
#     4  10  22  40  60  91 126 157 208 255 311 376
#     4  11  21  34  54  87 119 151 188 229 302 378
#     4  11  23  36  61  89 122 161 190 249 317 369
#
# _framework density 22.109601000000001
#
# number of rings (size 3 to 8) (size 9 to 14) (size 15 to 20)
#    0.000    1.333    0.000    9.000    0.000    6.667 
#    0.000    0.000    0.000    6.000    0.000    0.000 
#    0.000    0.000    0.000    0.000    0.000    0.000 
#
# Total GULP energy -595068.402351 kJ/mol
# GULP energy per Si atom -12397.258382 kJ/mol
# Density = 2.205928 g / cm^3
# Si number density = 22.109601 Si / 1000 Ang^3
#
#
#
# Elastic Constant Matrix: (Units=GPa)
#
#
# Indices 1 2 3 4 5 6 
#
# 1 125.1896 14.3032 18.9421 0.0000 0.0000 0.0000
# 2 14.3032 34.3651 6.9370 0.0000 0.0000 0.0000
# 3 18.9421 6.9370 84.8571 0.0000 0.0000 0.0000
# 4 0.0000 0.0000 0.0000 25.4801 0.0000 0.0000
# 5 0.0000 0.0000 0.0000 0.0000 39.8193 0.0000
# 6 0.0000 0.0000 0.0000 0.0000 0.0000 19.6790
#
#
#
# Elastic Compliance Matrix: (Units=1/GPa)
#
#
# Indices 1 2 3 4 5 6 
#
# 1 0.008610 -0.003249 -0.001656 0.000000 0.000000 0.000000
# 2 -0.003249 0.030814 -0.001794 0.000000 0.000000 0.000000
# 3 -0.001656 -0.001794 0.012301 0.000000 0.000000 0.000000
# 4 0.000000 0.000000 0.000000 0.039246 0.000000 0.000000
# 5 0.000000 0.000000 0.000000 0.000000 0.025113 0.000000
# 6 0.000000 0.000000 0.000000 0.000000 0.000000 0.050816
#
#
# Mechanical properties :
#
#
# Convention : Reuss Voigt Hill
#
# Bulk Modulus (GPa) = 26.09193 36.08628 31.08910
# Shear Modulus (GPa) = 25.89691 30.61099 28.25395
#
# Velocity S-wave (km/s) = 3.42613 3.72494 3.57866
# Velocity P-wave (km/s) = 5.24195 5.90400 5.58279
#
# Compressibility (1/GPa) = 0.03832603
#
# Stress axis : x y z
#
# Youngs Moduli (GPa) = 116.14788 32.45310 81.29510
#
# Poissons Ratio (x) = 0.10544 0.13465
# Poissons Ratio (y) = 0.37738 0.14582
# Poissons Ratio (z) = 0.19237 0.05821
#
# Static dielectric constant tensor:
#      x y z
#    x 4.197720 0.000000 0.000000 
#    y 0.000000 3.633410 0.000000 
#    z 0.000000 0.000000 4.006390 
# 
# 
# High freq. dielectric constant tensor:
#      x y z
#    x 1.881930 0.000000 0.000000 
#    y 0.000000 1.812360 0.000000 
#    z 0.000000 0.000000 1.886240 
# 
# From -- ./inp_files/971.got.cif
#   From: 2010.03.12/outbox.cif.g09.slc.cpg/sg61_1_cif.got.tgz:971.got - 2010.04.10 19:05:03.
