data_PCOD8248504
_publ_section_title
;
Structure prediction by ZEFSAII (Michael W. Deem and Ramdas Pophale) SiO2 
 PCOD8248504
Probable space group: P B C N
;
_chemical_formula_sum "Si O2"
_cell_formula_units_Z 64
_cell_length_a 8.444019
_cell_length_b 15.333780
_cell_length_c 23.530332
_cell_angle_alpha 90.000000
_cell_angle_beta 90.000000
_cell_angle_gamma 90.000000
_cell_volume 3046.677496
_symmetry_space_group_name_H-M "P B C N"
_symmetry_group_IT_number 60
_symmetry_cell_setting 'orthorhombic'
loop_
_space_group_symop_operation_xyz
x,y,z
1/2-x,1/2-y,1/2+z
1/2+x,1/2-y,-z
-x,y,1/2-z
-x,-y,-z
1/2+x,1/2+y,1/2-z
1/2-x,1/2+y,z
x,-y,1/2+z
loop_
_atom_site_type_symbol
_atom_site_label
_atom_site_fract_x
_atom_site_fract_y
_atom_site_fract_z
Si Si1 0.065382 0.582158 0.622935
Si Si2 0.434674 0.402279 0.892431
Si Si3 0.563236 0.255702 0.188307
Si Si4 0.934618 0.917842 0.377065
Si Si5 0.934969 0.346194 0.007587
Si Si6 0.436764 0.244298 0.811693
Si Si7 0.934969 0.153806 0.507587
Si Si8 0.434673 0.097721 0.392431
O O1 0.250000 0.565311 0.629261
O O2 0.025843 0.609215 0.559008
O O3 0.013871 0.654870 0.667695
O O4 0.974153 0.492953 0.638847
O O5 0.474153 0.492953 0.861153
O O6 0.489205 0.322241 0.853213
O O7 0.533903 0.400789 0.950698
O O8 0.250000 0.395864 0.906895
O O9 0.500000 0.231283 0.250000
O O10 0.486129 0.345130 0.167695
O O11 0.750000 0.266929 0.189309
O O12 0.510795 0.177759 0.146787
O O13 0.974157 0.890786 0.440992
O O14 0.750000 0.343678 0.022259
O O15 0.966097 0.400789 0.950698
O O16 1.000000 0.250000 1.000000
O O17 0.500000 0.268717 0.750000
#
# Coordination Sequence:
#
# PCOD8248504 Si02
#       8
#     8   8   8   8   8   8   8   8
#     4  12  25  42  67  97 133 172 215 265 323 385
#     4  11  24  43  67  96 132 172 216 265 323 384
#     4  11  25  45  69  94 127 169 218 271 323 382
#     4  12  25  42  67  97 133 172 215 265 323 385
#     4  12  23  39  65  97 133 171 214 261 324 388
#     4  11  25  45  69  94 127 169 218 271 323 382
#     4  12  23  39  65  97 133 171 214 261 324 388
#     4  11  24  43  67  96 132 172 216 265 323 384
#
# _framework density 21.006488999999998
#
# number of rings (size 3 to 8) (size 9 to 14) (size 15 to 20)
#    0.000    0.500    2.500    6.750    0.000    4.000 
#    0.000    2.500    0.000    0.000    0.000    0.000 
#    0.000    0.000    0.000    0.000    0.000    0.000 
#
# Total GULP energy -794152.261099 kJ/mol
# GULP energy per Si atom -12408.629080 kJ/mol
# Density = 2.095868 g / cm^3
# Si number density = 21.006489 Si / 1000 Ang^3
#
#
#
# Elastic Constant Matrix: (Units=GPa)
#
#
# Indices 1 2 3 4 5 6 
#
# 1 69.5415 14.5468 16.5776 0.0000 0.0000 0.0000
# 2 14.5468 112.4560 3.8401 0.0000 0.0000 0.0000
# 3 16.5776 3.8401 85.2047 0.0000 0.0000 0.0000
# 4 0.0000 0.0000 0.0000 21.7016 0.0000 0.0000
# 5 0.0000 0.0000 0.0000 0.0000 35.1210 0.0000
# 6 0.0000 0.0000 0.0000 0.0000 0.0000 37.6239
#
#
#
# Elastic Compliance Matrix: (Units=1/GPa)
#
#
# Indices 1 2 3 4 5 6 
#
# 1 0.015475 -0.001902 -0.002925 0.000000 0.000000 0.000000
# 2 -0.001902 0.009140 -0.000042 0.000000 0.000000 0.000000
# 3 -0.002925 -0.000042 0.012307 0.000000 0.000000 0.000000
# 4 0.000000 0.000000 0.000000 0.046079 0.000000 0.000000
# 5 0.000000 0.000000 0.000000 0.000000 0.028473 0.000000
# 6 0.000000 0.000000 0.000000 0.000000 0.000000 0.026579
#
#
# Mechanical properties :
#
#
# Convention : Reuss Voigt Hill
#
# Bulk Modulus (GPa) = 36.78570 37.45902 37.12236
# Shear Modulus (GPa) = 31.87699 34.37182 33.12440
#
# Velocity S-wave (km/s) = 3.89971 4.04944 3.97528
# Velocity P-wave (km/s) = 6.15034 6.30356 6.22742
#
# Compressibility (1/GPa) = 0.02718448
#
# Stress axis : x y z
#
# Youngs Moduli (GPa) = 64.62012 109.41133 81.25157
#
# Poissons Ratio (x) = 0.20809 0.23767
# Poissons Ratio (y) = 0.12290 0.00340
# Poissons Ratio (z) = 0.18902 0.00458
#
# Static dielectric constant tensor:
#      x y z
#    x 3.898720 0.000000 0.000000 
#    y 0.000000 4.011950 0.000000 
#    z 0.000000 0.000000 3.777020 
# 
# 
# High freq. dielectric constant tensor:
#      x y z
#    x 1.836810 0.000000 0.000000 
#    y 0.000000 1.842550 0.000000 
#    z 0.000000 0.000000 1.817590 
# 
# From -- ./inp_files/24115.got.cif
#   From: 2010.03.12/outbox.cif.g09.slc.cpg/sg60_13_cif.got.tgz:24115.got - 2010.04.10 18:46:24.
