data_PCOD8248221
_publ_section_title
;
Structure prediction by ZEFSAII (Michael W. Deem and Ramdas Pophale) SiO2 
 PCOD8248221
Probable space group: P B C N
;
_chemical_formula_sum "Si O2"
_cell_formula_units_Z 24
_cell_length_a 8.201337
_cell_length_b 21.430470
_cell_length_c 5.353422
_cell_angle_alpha 90.000000
_cell_angle_beta 90.000000
_cell_angle_gamma 90.000000
_cell_volume 940.909456
_symmetry_space_group_name_H-M "P B C N"
_symmetry_group_IT_number 60
_symmetry_cell_setting 'orthorhombic'
loop_
_space_group_symop_operation_xyz
x,y,z
1/2-x,1/2-y,1/2+z
1/2+x,1/2-y,-z
-x,y,1/2-z
-x,-y,-z
1/2+x,1/2+y,1/2-z
1/2-x,1/2+y,z
x,-y,1/2+z
loop_
_atom_site_type_symbol
_atom_site_label
_atom_site_fract_x
_atom_site_fract_y
_atom_site_fract_z
Si Si1 0.815495 0.525686 0.518818
Si Si2 0.400175 0.219610 0.495905
Si Si3 0.679245 0.350838 0.195309
O O1 0.728341 0.507182 0.258238
O O2 0.798876 0.599837 0.560103
O O3 0.000000 0.500000 0.500000
O O4 0.500000 0.200831 0.250000
O O5 0.251583 0.170666 0.534645
O O6 0.329336 0.289532 0.479652
O O7 0.500000 0.213235 0.750000
O O8 0.500000 0.379030 0.250000
#
# Coordination Sequence:
#
# PCOD8248221 Si02
#       3
#     8   8   8
#     4  10  25  48  71 107 146 209 258 310 380 459
#     4  11  26  47  75 118 157 209 249 326 412 469
#     4  11  25  48  77 115 159 196 266 325 388 465
#
# _framework density 25.507238000000001
#
# number of rings (size 3 to 8) (size 9 to 14) (size 15 to 20)
#    0.000    1.333    0.000    4.000    4.667   12.000 
#   12.000    0.000    0.000    0.000    0.000    0.000 
#    0.000    0.000    0.000    0.000    0.000    0.000 
#
# Total GULP energy -297410.126007 kJ/mol
# GULP energy per Si atom -12392.088584 kJ/mol
# Density = 2.544918 g / cm^3
# Si number density = 25.507238 Si / 1000 Ang^3
#
#
#
# Elastic Constant Matrix: (Units=GPa)
#
#
# Indices 1 2 3 4 5 6 
#
# 1 131.5640 65.3328 55.2881 0.0000 0.0000 0.0000
# 2 65.3328 145.9526 65.3088 0.0000 0.0000 0.0000
# 3 55.2881 65.3088 231.2101 0.0000 0.0000 0.0000
# 4 0.0000 0.0000 0.0000 48.9793 0.0000 0.0000
# 5 0.0000 0.0000 0.0000 0.0000 25.8193 0.0000
# 6 0.0000 0.0000 0.0000 0.0000 0.0000 43.9155
#
#
#
# Elastic Compliance Matrix: (Units=1/GPa)
#
#
# Indices 1 2 3 4 5 6 
#
# 1 0.010105 -0.003940 -0.001303 0.000000 0.000000 0.000000
# 2 -0.003940 0.009379 -0.001707 0.000000 0.000000 0.000000
# 3 -0.001303 -0.001707 0.005119 0.000000 0.000000 0.000000
# 4 0.000000 0.000000 0.000000 0.020417 0.000000 0.000000
# 5 0.000000 0.000000 0.000000 0.000000 0.038731 0.000000
# 6 0.000000 0.000000 0.000000 0.000000 0.000000 0.022771
#
#
# Mechanical properties :
#
#
# Convention : Reuss Voigt Hill
#
# Bulk Modulus (GPa) = 93.44113 97.84289 95.64201
# Shear Modulus (GPa) = 40.32564 45.26262 42.79413
#
# Velocity S-wave (km/s) = 3.98043 4.21705 4.10045
# Velocity P-wave (km/s) = 7.60512 7.88375 7.74569
#
# Compressibility (1/GPa) = 0.01070193
#
# Stress axis : x y z
#
# Youngs Moduli (GPa) = 98.95847 106.61956 195.35245
#
# Poissons Ratio (x) = 0.42010 0.25463
# Poissons Ratio (y) = 0.38991 0.33348
# Poissons Ratio (z) = 0.12899 0.18201
#
# Static dielectric constant tensor:
#      x y z
#    x 5.126220 0.000000 0.000000 
#    y 0.000000 4.434640 0.000000 
#    z 0.000000 0.000000 6.578390 
# 
# 
# High freq. dielectric constant tensor:
#      x y z
#    x 2.008930 0.000000 0.000000 
#    y 0.000000 2.006150 0.000000 
#    z 0.000000 0.000000 2.037180 
# 
# From -- ./inp_files/217.got.cif
#   From: 2010.03.12/outbox.cif.g09.slc.cpg/sg60_1_cif.got.tgz:217.got - 2010.04.10 18:46:24.
