data_PCOD8248958
_publ_section_title
;
Structure prediction by ZEFSAII (Michael W. Deem and Ramdas Pophale) SiO2 
 PCOD8248958
Probable space group: P B C A
;
_chemical_formula_sum "Si O2"
_cell_formula_units_Z 64
_cell_length_a 8.679402
_cell_length_b 10.810286
_cell_length_c 33.512125
_cell_angle_alpha 90.000000
_cell_angle_beta 90.000000
_cell_angle_gamma 90.000000
_cell_volume 3144.336051
_symmetry_space_group_name_H-M "P B C A"
_symmetry_group_IT_number 61
_symmetry_cell_setting 'orthorhombic'
loop_
_space_group_symop_operation_xyz
x,y,z
1/2-x,-y,1/2+z
1/2+x,1/2-y,-z
-x,1/2+y,1/2-z
-x,-y,-z
1/2+x,y,1/2-z
1/2-x,1/2+y,z
x,1/2-y,1/2+z
loop_
_atom_site_type_symbol
_atom_site_label
_atom_site_fract_x
_atom_site_fract_y
_atom_site_fract_z
Si Si1 0.481682 0.776635 0.199080
Si Si2 0.688407 0.353301 0.075332
Si Si3 0.518865 0.728067 0.611485
Si Si4 0.422693 0.496629 0.109448
Si Si5 0.269232 0.891412 0.258352
Si Si6 0.944767 0.502983 0.300195
Si Si7 0.336915 0.910628 0.965130
Si Si8 0.359972 0.545174 0.554527
O O1 0.445179 0.815243 0.153464
O O2 0.328451 0.793909 0.225349
O O3 0.631672 0.846491 0.214210
O O4 0.526019 0.634403 0.199775
O O5 0.520557 0.379200 0.093701
O O6 0.731725 0.480025 0.052596
O O7 0.696354 0.229943 0.048271
O O8 0.806795 0.324289 0.111174
O O9 0.427276 0.667231 0.575186
O O10 0.518394 0.876023 0.606060
O O11 0.382859 0.468220 0.155743
O O12 0.270433 0.512381 0.082862
O O13 0.198417 0.001564 0.230985
O O14 0.415063 0.916446 0.286299
O O15 0.513485 0.938897 0.953421
O O16 0.297621 0.910157 0.011978
#
# Coordination Sequence:
#
# PCOD8248958 Si02
#       8
#     8   8   8   8   8   8   8   8
#     4  10  20  36  59  83 118 155 194 250 295 352
#     4  11  22  43  62  92 121 170 201 257 305 376
#     4  10  22  40  59  87 126 158 203 254 307 363
#     4  11  23  37  64  90 122 161 207 255 307 367
#     4  10  20  36  59  84 117 157 194 245 294 365
#     4  10  21  37  57  89 118 154 202 243 299 361
#     4  10  24  42  65  88 127 159 210 248 318 363
#     4  10  24  41  61  91 124 160 204 257 301 371
#
# _framework density 20.35406
#
# number of rings (size 3 to 8) (size 9 to 14) (size 15 to 20)
#    0.000    1.750    1.250    2.250    3.500    2.500 
#    0.000    0.000    8.250    0.000    0.000    0.000 
#    0.000    0.000    0.000    0.000    0.000    0.000 
#
# Total GULP energy -793155.530512 kJ/mol
# GULP energy per Si atom -12393.055164 kJ/mol
# Density = 2.030773 g / cm^3
# Si number density = 20.354060 Si / 1000 Ang^3
#
#
#
# Elastic Constant Matrix: (Units=GPa)
#
#
# Indices 1 2 3 4 5 6 
#
# 1 69.3103 16.1117 30.4942 0.0000 0.0000 0.0000
# 2 16.1117 88.7477 46.4248 0.0000 0.0000 0.0000
# 3 30.4942 46.4248 137.7932 0.0000 0.0000 0.0000
# 4 0.0000 0.0000 0.0000 29.6507 0.0000 0.0000
# 5 0.0000 0.0000 0.0000 0.0000 29.6342 0.0000
# 6 0.0000 0.0000 0.0000 0.0000 0.0000 23.7064
#
#
#
# Elastic Compliance Matrix: (Units=1/GPa)
#
#
# Indices 1 2 3 4 5 6 
#
# 1 0.016104 -0.001286 -0.003131 0.000000 0.000000 0.000000
# 2 -0.001286 0.013781 -0.004359 0.000000 0.000000 0.000000
# 3 -0.003131 -0.004359 0.009419 0.000000 0.000000 0.000000
# 4 0.000000 0.000000 0.000000 0.033726 0.000000 0.000000
# 5 0.000000 0.000000 0.000000 0.000000 0.033745 0.000000
# 6 0.000000 0.000000 0.000000 0.000000 0.000000 0.042183
#
#
# Mechanical properties :
#
#
# Convention : Reuss Voigt Hill
#
# Bulk Modulus (GPa) = 45.96914 53.54583 49.75748
# Shear Modulus (GPa) = 28.77545 30.11963 29.44754
#
# Velocity S-wave (km/s) = 3.76406 3.85097 3.80776
# Velocity P-wave (km/s) = 6.44396 6.79247 6.62051
#
# Compressibility (1/GPa) = 0.02175372
#
# Stress axis : x y z
#
# Youngs Moduli (GPa) = 62.09562 72.56174 106.17337
#
# Poissons Ratio (x) = 0.09331 0.33239
# Poissons Ratio (y) = 0.07985 0.46277
# Poissons Ratio (z) = 0.19440 0.31627
#
# Static dielectric constant tensor:
#      x y z
#    x 3.663630 0.000000 0.000000 
#    y 0.000000 3.565080 0.000000 
#    z 0.000000 0.000000 3.903040 
# 
# 
# High freq. dielectric constant tensor:
#      x y z
#    x 1.792630 0.000000 0.000000 
#    y 0.000000 1.788740 0.000000 
#    z 0.000000 0.000000 1.809610 
# 
# From -- ./inp_files/2431.got.cif
#   From: 2010.03.12/outbox.cif.g09.slc.cpg/sg61_2_cif.got.tgz:2431.got - 2010.04.10 19:05:03.
