data_PCOD8248098
_publ_section_title
;
Structure prediction by ZEFSAII (Michael W. Deem and Ramdas Pophale) SiO2 
 PCOD8248098
Probable space group: P B C N
;
_chemical_formula_sum "Si O2"
_cell_formula_units_Z 64
_cell_length_a 11.384377
_cell_length_b 15.313629
_cell_length_c 17.320772
_cell_angle_alpha 90.000000
_cell_angle_beta 90.000000
_cell_angle_gamma 90.000000
_cell_volume 3019.636286
_symmetry_space_group_name_H-M "P B C N"
_symmetry_group_IT_number 60
_symmetry_cell_setting 'orthorhombic'
loop_
_space_group_symop_operation_xyz
x,y,z
1/2-x,1/2-y,1/2+z
1/2+x,1/2-y,-z
-x,y,1/2-z
-x,-y,-z
1/2+x,1/2+y,1/2-z
1/2-x,1/2+y,z
x,-y,1/2+z
loop_
_atom_site_type_symbol
_atom_site_label
_atom_site_fract_x
_atom_site_fract_y
_atom_site_fract_z
Si Si1 0.882411 0.737689 0.056255
Si Si2 0.417166 0.247416 0.177212
Si Si3 0.236698 0.095847 0.624860
Si Si4 0.522799 0.175328 0.898465
Si Si5 0.752072 0.400853 0.868542
Si Si6 0.792473 0.913222 0.556051
Si Si7 0.211801 0.601920 0.955862
Si Si8 0.001151 0.849206 0.837691
O O1 0.808740 0.653073 0.083652
O O2 0.800657 0.821926 0.068646
O O3 0.002449 0.744682 0.102390
O O4 0.922445 0.730645 0.968610
O O5 0.500000 0.253679 0.250000
O O6 0.337205 0.334319 0.173921
O O7 0.336749 0.159974 0.183947
O O8 0.373959 0.116295 0.634895
O O9 0.188781 0.097800 0.536328
O O10 0.229634 0.999288 0.662606
O O11 0.416893 0.113050 0.921219
O O12 0.471995 0.245441 0.837137
O O13 0.626503 0.356730 0.874542
O O14 0.808493 0.403916 0.952949
O O15 0.909742 0.898005 0.605318
O O16 0.758396 0.011270 0.577585
O O17 0.000000 0.885959 0.750000
#
# Coordination Sequence:
#
# PCOD8248098 Si02
#       8
#     8   8   8   8   8   8   8   8
#     4  11  22  39  66  94 132 166 222 276 331 400
#     4  12  26  43  65  96 138 181 218 270 340 410
#     4  10  24  43  69  96 129 173 228 277 334 401
#     4  11  21  43  70  94 129 171 222 276 336 396
#     4  11  24  43  67  97 131 174 220 278 342 391
#     4  10  24  40  66 102 130 171 225 279 339 395
#     4  11  22  40  71 101 128 167 224 286 332 398
#     4  12  25  42  64  90 137 177 218 272 333 408
#
# _framework density 21.194606
#
# number of rings (size 3 to 8) (size 9 to 14) (size 15 to 20)
#    0.000    1.000    5.000    1.500    5.250    3.000 
#    0.000    0.625    0.000    0.000    0.000    0.000 
#    0.000    0.000    0.000    0.000    0.000    0.000 
#
# Total GULP energy -793529.749501 kJ/mol
# GULP energy per Si atom -12398.902336 kJ/mol
# Density = 2.114637 g / cm^3
# Si number density = 21.194606 Si / 1000 Ang^3
#
#
#
# Elastic Constant Matrix: (Units=GPa)
#
#
# Indices 1 2 3 4 5 6 
#
# 1 133.6564 56.6816 38.3462 0.0000 0.0000 0.0000
# 2 56.6816 157.6432 43.3922 0.0000 0.0000 0.0000
# 3 38.3462 43.3922 44.9454 0.0000 0.0000 0.0000
# 4 0.0000 0.0000 0.0000 35.1681 0.0000 0.0000
# 5 0.0000 0.0000 0.0000 0.0000 25.1175 0.0000
# 6 0.0000 0.0000 0.0000 0.0000 0.0000 27.7582
#
#
#
# Elastic Compliance Matrix: (Units=1/GPa)
#
#
# Indices 1 2 3 4 5 6 
#
# 1 0.010246 -0.001740 -0.007061 0.000000 0.000000 0.000000
# 2 -0.001740 0.008935 -0.007141 0.000000 0.000000 0.000000
# 3 -0.007061 -0.007141 0.035168 0.000000 0.000000 0.000000
# 4 0.000000 0.000000 0.000000 0.028435 0.000000 0.000000
# 5 0.000000 0.000000 0.000000 0.000000 0.039813 0.000000
# 6 0.000000 0.000000 0.000000 0.000000 0.000000 0.036025
#
#
# Mechanical properties :
#
#
# Convention : Reuss Voigt Hill
#
# Bulk Modulus (GPa) = 44.51740 68.12056 56.31898
# Shear Modulus (GPa) = 25.25307 30.79709 28.02508
#
# Velocity S-wave (km/s) = 3.45554 3.81604 3.64025
# Velocity P-wave (km/s) = 6.08035 7.18516 6.65572
#
# Compressibility (1/GPa) = 0.02246313
#
# Stress axis : x y z
#
# Youngs Moduli (GPa) = 97.60104 111.92112 28.43466
#
# Poissons Ratio (x) = 0.19477 0.20079
# Poissons Ratio (y) = 0.16985 0.20306
# Poissons Ratio (z) = 0.68919 0.79927
#
# Static dielectric constant tensor:
#      x y z
#    x 4.777640 0.000000 0.000000 
#    y 0.000000 4.083460 0.000000 
#    z 0.000000 0.000000 3.771160 
# 
# 
# High freq. dielectric constant tensor:
#      x y z
#    x 1.845430 0.000000 0.000000 
#    y 0.000000 1.845040 0.000000 
#    z 0.000000 0.000000 1.799250 
# 
# From -- ./inp_files/20225.got.cif
#   From: 2010.03.12/outbox.cif.g09.slc.cpg/sg60_11_cif.got.tgz:20225.got - 2010.04.10 18:46:24.
