data_PCOD8248869
_publ_section_title
;
Structure prediction by ZEFSAII (Michael W. Deem and Ramdas Pophale) SiO2 
 PCOD8248869
Probable space group: P B C A
;
_chemical_formula_sum "Si O2"
_cell_formula_units_Z 56
_cell_length_a 14.803351
_cell_length_b 12.151055
_cell_length_c 15.081710
_cell_angle_alpha 90.000000
_cell_angle_beta 90.000000
_cell_angle_gamma 90.000000
_cell_volume 2712.842678
_symmetry_space_group_name_H-M "P B C A"
_symmetry_group_IT_number 61
_symmetry_cell_setting 'orthorhombic'
loop_
_space_group_symop_operation_xyz
x,y,z
1/2-x,-y,1/2+z
1/2+x,1/2-y,-z
-x,1/2+y,1/2-z
-x,-y,-z
1/2+x,y,1/2-z
1/2-x,1/2+y,z
x,1/2-y,1/2+z
loop_
_atom_site_type_symbol
_atom_site_label
_atom_site_fract_x
_atom_site_fract_y
_atom_site_fract_z
Si Si1 0.540438 0.375500 0.431756
Si Si2 0.307510 0.875513 0.497240
Si Si3 0.527318 0.220233 0.595798
Si Si4 0.368207 0.449341 0.136371
Si Si5 0.863237 0.018200 0.568183
Si Si6 0.205339 0.288426 0.152980
Si Si7 0.127197 0.130617 0.280110
O O1 0.507072 0.289417 0.506654
O O2 0.450260 0.423472 0.386606
O O3 0.603780 0.469714 0.474482
O O4 0.600751 0.328462 0.351897
O O5 0.380617 0.845764 0.422847
O O6 0.216453 0.897060 0.444438
O O7 0.279560 0.774811 0.560674
O O8 0.342808 0.982854 0.548772
O O9 0.445998 0.137393 0.614459
O O10 0.541639 0.298741 0.682231
O O11 0.278900 0.383315 0.168499
O O12 0.402857 0.535507 0.210732
O O13 0.827027 0.923598 0.633587
O O14 0.205489 0.205682 0.236317
#
# Coordination Sequence:
#
# PCOD8248869 Si02
#       7
#     8   8   8   8   8   8   8
#     4   9  19  37  66  84 117 157 206 248 293 355
#     4  10  21  39  66  89 119 158 214 254 291 363
#     4  10  22  41  61  92 124 153 209 256 290 364
#     4  11  22  42  63  89 123 170 194 247 319 357
#     4  10  19  38  61  91 115 161 201 247 303 350
#     4  10  21  40  61  90 126 158 201 253 297 371
#     4  10  25  39  55  95 127 153 207 246 305 371
#
# _framework density 20.642552999999999
#
# number of rings (size 3 to 8) (size 9 to 14) (size 15 to 20)
#    0.000    2.000    1.429    1.286    4.000    0.000 
#    2.571    0.000    0.000    0.000    0.000    0.000 
#    0.000    0.000    0.000    0.000    0.000    0.000 
#
# Total GULP energy -694157.141879 kJ/mol
# GULP energy per Si atom -12395.663248 kJ/mol
# Density = 2.059557 g / cm^3
# Si number density = 20.642553 Si / 1000 Ang^3
#
#
#
# Elastic Constant Matrix: (Units=GPa)
#
#
# Indices 1 2 3 4 5 6 
#
# 1 103.5135 57.7475 45.6207 0.0000 0.0000 0.0000
# 2 57.7475 102.7442 26.8500 0.0000 0.0000 0.0000
# 3 45.6207 26.8500 64.6411 0.0000 0.0000 0.0000
# 4 0.0000 0.0000 0.0000 29.6919 0.0000 0.0000
# 5 0.0000 0.0000 0.0000 0.0000 9.9497 0.0000
# 6 0.0000 0.0000 0.0000 0.0000 0.0000 42.2368
#
#
#
# Elastic Compliance Matrix: (Units=1/GPa)
#
#
# Indices 1 2 3 4 5 6 
#
# 1 0.018221 -0.007718 -0.009654 0.000000 0.000000 0.000000
# 2 -0.007718 0.014188 -0.000446 0.000000 0.000000 0.000000
# 3 -0.009654 -0.000446 0.022468 0.000000 0.000000 0.000000
# 4 0.000000 0.000000 0.000000 0.033679 0.000000 0.000000
# 5 0.000000 0.000000 0.000000 0.000000 0.100506 0.000000
# 6 0.000000 0.000000 0.000000 0.000000 0.000000 0.023676
#
#
# Mechanical properties :
#
#
# Convention : Reuss Voigt Hill
#
# Bulk Modulus (GPa) = 51.97154 59.03724 55.50439
# Shear Modulus (GPa) = 19.62422 25.75438 22.68930
#
# Velocity S-wave (km/s) = 3.08664 3.53602 3.31894
# Velocity P-wave (km/s) = 6.15911 6.73299 6.45243
#
# Compressibility (1/GPa) = 0.01924130
#
# Stress axis : x y z
#
# Youngs Moduli (GPa) = 54.88178 70.48438 44.50732
#
# Poissons Ratio (x) = 0.54403 0.42965
# Poissons Ratio (y) = 0.42360 0.01984
# Poissons Ratio (z) = 0.52980 0.03142
#
# Static dielectric constant tensor:
#      x y z
#    x 3.575310 0.000000 0.000000 
#    y 0.000000 4.041750 0.000000 
#    z 0.000000 0.000000 3.591570 
# 
# 
# High freq. dielectric constant tensor:
#      x y z
#    x 1.790800 0.000000 0.000000 
#    y 0.000000 1.822840 0.000000 
#    z 0.000000 0.000000 1.797900 
# 
# From -- ./inp_files/5811.got.cif
#   From: 2010.03.12/outbox.cif.g09.slc.cpg/sg61_3_cif.got.tgz:5811.got - 2010.04.10 19:05:03.
