data_PCOD8248125
_publ_section_title
;
Structure prediction by ZEFSAII (Michael W. Deem and Ramdas Pophale) SiO2 
 PCOD8248125
Probable space group: P B C N
;
_chemical_formula_sum "Si O2"
_cell_formula_units_Z 28
_cell_length_a 13.711284
_cell_length_b 5.231761
_cell_length_c 15.871649
_cell_angle_alpha 90.000000
_cell_angle_beta 90.000000
_cell_angle_gamma 90.000000
_cell_volume 1138.539423
_symmetry_space_group_name_H-M "P B C N"
_symmetry_group_IT_number 60
_symmetry_cell_setting 'orthorhombic'
loop_
_space_group_symop_operation_xyz
x,y,z
1/2-x,1/2-y,1/2+z
1/2+x,1/2-y,-z
-x,y,1/2-z
-x,-y,-z
1/2+x,1/2+y,1/2-z
1/2-x,1/2+y,z
x,-y,1/2+z
loop_
_atom_site_type_symbol
_atom_site_label
_atom_site_fract_x
_atom_site_fract_y
_atom_site_fract_z
Si Si1 0.577543 0.691484 0.421749
Si Si2 0.622008 0.807605 0.990973
Si Si3 0.306922 0.912548 0.327677
Si Si4 0.000000 0.711220 0.750000
O O1 0.490921 0.743167 0.488166
O O2 0.653105 0.467441 0.450756
O O3 0.537187 0.618344 0.328745
O O4 0.633680 0.965204 0.421918
O O5 0.683368 0.896255 0.071584
O O6 0.262255 0.642471 0.298215
O O7 0.411396 0.962517 0.284318
#
# Coordination Sequence:
#
# PCOD8248125 Si02
#       4
#     8   8   8   4
#     4   9  18  34  60  86 114 157 197 246 312 368
#     4   9  18  35  57  83 114 154 206 248 296 374
#     4  11  24  42  64  92 127 173 221 270 330 391
#     4  10  24  42  66  96 138 170 208 274 336 392
#
# _framework density 24.592912999999999
#
# number of rings (size 3 to 8) (size 9 to 14) (size 15 to 20)
#    0.000    2.286    0.000    1.714    0.000   11.429 
#    0.000    8.571    0.000    0.000    0.000    0.000 
#    0.000    0.000    0.000    0.000    0.000    0.000 
#
# Total GULP energy -346930.714521 kJ/mol
# GULP energy per Si atom -12390.382661 kJ/mol
# Density = 2.453694 g / cm^3
# Si number density = 24.592913 Si / 1000 Ang^3
#
#
#
# Elastic Constant Matrix: (Units=GPa)
#
#
# Indices 1 2 3 4 5 6 
#
# 1 85.3931 29.1044 25.1844 0.0000 0.0000 0.0000
# 2 29.1044 206.9498 46.8009 0.0000 0.0000 0.0000
# 3 25.1844 46.8009 110.2463 0.0000 0.0000 0.0000
# 4 0.0000 0.0000 0.0000 12.5001 0.0000 0.0000
# 5 0.0000 0.0000 0.0000 0.0000 37.3430 0.0000
# 6 0.0000 0.0000 0.0000 0.0000 0.0000 8.5898
#
#
#
# Elastic Compliance Matrix: (Units=1/GPa)
#
#
# Indices 1 2 3 4 5 6 
#
# 1 0.012849 -0.001265 -0.002398 0.000000 0.000000 0.000000
# 2 -0.001265 0.005470 -0.002033 0.000000 0.000000 0.000000
# 3 -0.002398 -0.002033 0.010482 0.000000 0.000000 0.000000
# 4 0.000000 0.000000 0.000000 0.080000 0.000000 0.000000
# 5 0.000000 0.000000 0.000000 0.000000 0.026779 0.000000
# 6 0.000000 0.000000 0.000000 0.000000 0.000000 0.116418
#
#
# Mechanical properties :
#
#
# Convention : Reuss Voigt Hill
#
# Bulk Modulus (GPa) = 57.44455 67.19650 62.32052
# Shear Modulus (GPa) = 18.57419 31.78654 25.18036
#
# Velocity S-wave (km/s) = 2.75119 3.59905 3.20329
# Velocity P-wave (km/s) = 5.78800 6.68234 6.25119
#
# Compressibility (1/GPa) = 0.01740809
#
# Stress axis : x y z
#
# Youngs Moduli (GPa) = 77.82779 182.82502 95.40595
#
# Poissons Ratio (x) = 0.23121 0.22881
# Poissons Ratio (y) = 0.09842 0.19397
# Poissons Ratio (z) = 0.18666 0.37170
#
# Static dielectric constant tensor:
#      x y z
#    x 4.165020 0.000000 0.000000 
#    y 0.000000 4.669070 0.000000 
#    z 0.000000 0.000000 4.186330 
# 
# 
# High freq. dielectric constant tensor:
#      x y z
#    x 1.963000 0.000000 0.000000 
#    y 0.000000 1.972740 0.000000 
#    z 0.000000 0.000000 1.960160 
# 
# From -- ./inp_files/17100.got.cif
#   From: 2010.03.12/outbox.cif.g09.slc.cpg/sg60_9_cif.got.tgz:17100.got - 2010.04.10 18:46:24.
