data_PCOD8248826
_publ_section_title
;
Structure prediction by ZEFSAII (Michael W. Deem and Ramdas Pophale) SiO2 
 PCOD8248826
Probable space group: P B C A
;
_chemical_formula_sum "Si O2"
_cell_formula_units_Z 56
_cell_length_a 5.212602
_cell_length_b 16.964421
_cell_length_c 29.856738
_cell_angle_alpha 90.000000
_cell_angle_beta 90.000000
_cell_angle_gamma 90.000000
_cell_volume 2640.194762
_symmetry_space_group_name_H-M "P B C A"
_symmetry_group_IT_number 61
_symmetry_cell_setting 'orthorhombic'
loop_
_space_group_symop_operation_xyz
x,y,z
1/2-x,-y,1/2+z
1/2+x,1/2-y,-z
-x,1/2+y,1/2-z
-x,-y,-z
1/2+x,y,1/2-z
1/2-x,1/2+y,z
x,1/2-y,1/2+z
loop_
_atom_site_type_symbol
_atom_site_label
_atom_site_fract_x
_atom_site_fract_y
_atom_site_fract_z
Si Si1 0.771003 0.969557 0.133551
Si Si2 0.749694 0.052968 0.993842
Si Si3 0.720984 0.997150 0.233730
Si Si4 0.769273 0.615418 0.894218
Si Si5 0.788470 0.828564 0.772406
Si Si6 0.780426 0.626868 0.083205
Si Si7 0.218258 0.297189 0.622626
O O1 0.733340 0.012378 0.181051
O O2 0.547035 0.906496 0.125287
O O3 0.047341 0.928498 0.133357
O O4 0.762207 0.036218 0.096277
O O5 0.752736 0.094442 0.946038
O O6 0.742809 0.125274 0.029379
O O7 0.500000 0.000000 0.000000
O O8 0.000000 0.000000 0.000000
O O9 0.465863 0.948667 0.247624
O O10 0.700444 0.078630 0.261544
O O11 0.724056 0.707191 0.887383
O O12 0.544036 0.788541 0.748054
O O13 0.771856 0.815924 0.825082
O O14 0.563065 0.682163 0.104141
O O15 0.064139 0.652185 0.097934
#
# Coordination Sequence:
#
# PCOD8248826 Si02
#       7
#     8   8   8   8   8   8   8
#     4  12  23  42  70  97 128 184 227 273 336 399
#     4  12  23  45  68 102 136 179 229 281 338 395
#     4  10  19  35  60  92 123 158 221 281 309 381
#     4  12  26  45  66 100 147 173 219 291 349 402
#     4  10  20  39  62  90 129 169 215 279 324 391
#     4  12  23  41  73  98 130 185 237 270 322 418
#     4  12  26  43  67 105 137 178 224 281 352 398
#
# _framework density 21.210557999999999
#
# number of rings (size 3 to 8) (size 9 to 14) (size 15 to 20)
#    0.000    0.571    2.857    7.714    0.000    1.143 
#    0.000    4.286    0.000    0.000    0.000    0.000 
#    0.000    0.000    0.000    0.000    0.000    0.000 
#
# Total GULP energy -694464.724055 kJ/mol
# GULP energy per Si atom -12401.155787 kJ/mol
# Density = 2.116228 g / cm^3
# Si number density = 21.210558 Si / 1000 Ang^3
#
#
#
# Elastic Constant Matrix: (Units=GPa)
#
#
# Indices 1 2 3 4 5 6 
#
# 1 141.1221 9.4777 30.6478 0.0000 0.0000 0.0000
# 2 9.4777 74.7581 27.5456 0.0000 0.0000 0.0000
# 3 30.6478 27.5456 162.4791 0.0000 0.0000 0.0000
# 4 0.0000 0.0000 0.0000 49.7217 0.0000 0.0000
# 5 0.0000 0.0000 0.0000 0.0000 35.6583 0.0000
# 6 0.0000 0.0000 0.0000 0.0000 0.0000 25.0665
#
#
#
# Elastic Compliance Matrix: (Units=1/GPa)
#
#
# Indices 1 2 3 4 5 6 
#
# 1 0.007403 -0.000452 -0.001320 0.000000 0.000000 0.000000
# 2 -0.000452 0.014295 -0.002338 0.000000 0.000000 0.000000
# 3 -0.001320 -0.002338 0.006800 0.000000 0.000000 0.000000
# 4 0.000000 0.000000 0.000000 0.020112 0.000000 0.000000
# 5 0.000000 0.000000 0.000000 0.000000 0.028044 0.000000
# 6 0.000000 0.000000 0.000000 0.000000 0.000000 0.039894
#
#
# Mechanical properties :
#
#
# Convention : Reuss Voigt Hill
#
# Bulk Modulus (GPa) = 49.31471 57.07794 53.19633
# Shear Modulus (GPa) = 38.01476 42.80186 40.40831
#
# Velocity S-wave (km/s) = 4.23810 4.49703 4.36948
# Velocity P-wave (km/s) = 6.87380 7.34391 7.11274
#
# Compressibility (1/GPa) = 0.02027792
#
# Stress axis : x y z
#
# Youngs Moduli (GPa) = 135.07951 69.95279 147.05930
#
# Poissons Ratio (x) = 0.03164 0.19408
# Poissons Ratio (y) = 0.06109 0.34386
# Poissons Ratio (z) = 0.17827 0.16357
#
# Static dielectric constant tensor:
#      x y z
#    x 6.758740 0.000000 0.000000 
#    y 0.000000 3.242630 0.000000 
#    z 0.000000 0.000000 4.022310 
# 
# 
# High freq. dielectric constant tensor:
#      x y z
#    x 1.867840 0.000000 0.000000 
#    y 0.000000 1.794580 0.000000 
#    z 0.000000 0.000000 1.850380 
# 
# From -- ./inp_files/599.got.cif
#   From: 2010.03.12/outbox.cif.g09.slc.cpg/sg61_1_cif.got.tgz:599.got - 2010.04.10 19:05:03.
