data_PCOD8248894
_publ_section_title
;
Structure prediction by ZEFSAII (Michael W. Deem and Ramdas Pophale) SiO2 
 PCOD8248894
Probable space group: P B C A
;
_chemical_formula_sum "Si O2"
_cell_formula_units_Z 64
_cell_length_a 11.001740
_cell_length_b 23.054933
_cell_length_c 10.651564
_cell_angle_alpha 90.000000
_cell_angle_beta 90.000000
_cell_angle_gamma 90.000000
_cell_volume 2701.709332
_symmetry_space_group_name_H-M "P B C A"
_symmetry_group_IT_number 61
_symmetry_cell_setting 'orthorhombic'
loop_
_space_group_symop_operation_xyz
x,y,z
1/2-x,-y,1/2+z
1/2+x,1/2-y,-z
-x,1/2+y,1/2-z
-x,-y,-z
1/2+x,y,1/2-z
1/2-x,1/2+y,z
x,1/2-y,1/2+z
loop_
_atom_site_type_symbol
_atom_site_label
_atom_site_fract_x
_atom_site_fract_y
_atom_site_fract_z
Si Si1 0.821495 0.348140 0.298073
Si Si2 0.314973 0.286628 0.698804
Si Si3 0.695521 0.503154 0.158717
Si Si4 0.428581 0.609783 0.828805
Si Si5 0.382718 0.644444 0.091860
Si Si6 0.726059 0.871188 0.581417
Si Si7 0.194081 0.958134 0.581618
Si Si8 0.996931 0.625316 0.152242
O O1 0.836692 0.280246 0.275640
O O2 0.701057 0.372430 0.231684
O O3 0.819589 0.362556 0.442987
O O4 0.949111 0.377404 0.246884
O O5 0.185333 0.295192 0.627565
O O6 0.312335 0.316886 0.834676
O O7 0.423461 0.317110 0.618249
O O8 0.581220 0.459182 0.139675
O O9 0.663151 0.570568 0.137413
O O10 0.735442 0.497256 0.306241
O O11 0.799513 0.487475 0.055912
O O12 0.446108 0.647518 0.956371
O O13 0.278129 0.597223 0.089269
O O14 0.479616 0.626579 0.196741
O O15 0.871470 0.874508 0.578307
O O16 0.058549 0.935164 0.609425
#
# Coordination Sequence:
#
# PCOD8248894 Si02
#       8
#     8   8   8   8   8   8   8   8
#     4  12  29  47  68 110 148 191 248 315 378 444
#     4  10  23  42  70  99 140 186 239 308 364 446
#     4  11  22  46  71 104 152 195 246 312 377 465
#     4  11  28  46  69 108 151 190 239 310 382 443
#     4   9  20  43  67  97 132 187 243 293 368 445
#     4  11  24  46  73 106 138 197 254 296 378 457
#     4  10  21  39  68 105 144 192 247 303 372 444
#     4  10  19  41  74 102 131 191 258 294 364 457
#
# _framework density 23.688707999999998
#
# number of rings (size 3 to 8) (size 9 to 14) (size 15 to 20)
#    0.000    1.500    3.750    1.500    5.250    5.000 
#    2.250    0.000    0.000    0.000    0.000    0.000 
#    0.000    0.000    0.000    0.000    0.000    0.000 
#
# Total GULP energy -793082.374171 kJ/mol
# GULP energy per Si atom -12391.912096 kJ/mol
# Density = 2.363479 g / cm^3
# Si number density = 23.688708 Si / 1000 Ang^3
#
#
#
# Elastic Constant Matrix: (Units=GPa)
#
#
# Indices 1 2 3 4 5 6 
#
# 1 150.0503 42.4946 35.2688 0.0000 0.0000 0.0000
# 2 42.4946 108.7738 35.1140 0.0000 0.0000 0.0000
# 3 35.2688 35.1140 72.5993 0.0000 0.0000 0.0000
# 4 0.0000 0.0000 0.0000 15.4076 0.0000 0.0000
# 5 0.0000 0.0000 0.0000 0.0000 20.0562 0.0000
# 6 0.0000 0.0000 0.0000 0.0000 0.0000 24.2703
#
#
#
# Elastic Compliance Matrix: (Units=1/GPa)
#
#
# Indices 1 2 3 4 5 6 
#
# 1 0.007945 -0.002202 -0.002795 0.000000 0.000000 0.000000
# 2 -0.002202 0.011505 -0.004495 0.000000 0.000000 0.000000
# 3 -0.002795 -0.004495 0.017306 0.000000 0.000000 0.000000
# 4 0.000000 0.000000 0.000000 0.064903 0.000000 0.000000
# 5 0.000000 0.000000 0.000000 0.000000 0.049860 0.000000
# 6 0.000000 0.000000 0.000000 0.000000 0.000000 0.041203
#
#
# Mechanical properties :
#
#
# Convention : Reuss Voigt Hill
#
# Bulk Modulus (GPa) = 56.26549 61.90871 59.08710
# Shear Modulus (GPa) = 22.97505 26.51655 24.74580
#
# Velocity S-wave (km/s) = 3.11766 3.34934 3.23557
# Velocity P-wave (km/s) = 6.06328 6.41470 6.24146
#
# Compressibility (1/GPa) = 0.01777288
#
# Stress axis : x y z
#
# Youngs Moduli (GPa) = 125.86793 86.92250 57.78367
#
# Poissons Ratio (x) = 0.19137 0.16149
# Poissons Ratio (y) = 0.27711 0.25973
# Poissons Ratio (z) = 0.35177 0.39070
#
# Static dielectric constant tensor:
#      x y z
#    x 4.611700 0.000000 0.000000 
#    y 0.000000 4.281070 0.000000 
#    z 0.000000 0.000000 4.640140 
# 
# 
# High freq. dielectric constant tensor:
#      x y z
#    x 1.946710 0.000000 0.000000 
#    y 0.000000 1.927300 0.000000 
#    z 0.000000 0.000000 1.933080 
# 
# From -- ./inp_files/5474.got.cif
#   From: 2010.03.12/outbox.cif.g09.slc.cpg/sg61_3_cif.got.tgz:5474.got - 2010.04.10 19:05:03.
