data_PCOD8248481
_publ_section_title
;
Structure prediction by ZEFSAII (Michael W. Deem and Ramdas Pophale) SiO2 
 PCOD8248481
Probable space group: P B C N
;
_chemical_formula_sum "Si O2"
_cell_formula_units_Z 40
_cell_length_a 10.918024
_cell_length_b 7.537250
_cell_length_c 21.625646
_cell_angle_alpha 90.000000
_cell_angle_beta 90.000000
_cell_angle_gamma 90.000000
_cell_volume 1779.614988
_symmetry_space_group_name_H-M "P B C N"
_symmetry_group_IT_number 60
_symmetry_cell_setting 'orthorhombic'
loop_
_space_group_symop_operation_xyz
x,y,z
1/2-x,1/2-y,1/2+z
1/2+x,1/2-y,-z
-x,y,1/2-z
-x,-y,-z
1/2+x,1/2+y,1/2-z
1/2-x,1/2+y,z
x,-y,1/2+z
loop_
_atom_site_type_symbol
_atom_site_label
_atom_site_fract_x
_atom_site_fract_y
_atom_site_fract_z
Si Si1 0.615719 0.026042 0.089801
Si Si2 0.370508 0.936825 0.772326
Si Si3 0.380297 0.558924 0.724339
Si Si4 0.961922 0.139229 0.910179
Si Si5 0.362139 0.644375 0.458230
O O1 0.658970 0.989939 0.159803
O O2 0.498026 0.153308 0.090183
O O3 0.718008 0.136792 0.053240
O O4 0.584330 0.838949 0.057821
O O5 0.500000 0.024512 0.750000
O O6 0.385933 0.725363 0.771475
O O7 0.252026 0.968891 0.729591
O O8 0.500000 0.446218 0.750000
O O9 0.387279 0.603712 0.652039
O O10 0.075916 0.004102 0.914782
O O11 0.877675 0.101945 0.969510
#
# Coordination Sequence:
#
# PCOD8248481 Si02
#       5
#     8   8   8   8   8
#     4  12  21  46  69  95 141 181 233 292 350 426
#     4  11  24  43  69 101 134 187 234 287 360 420
#     4  11  23  45  69  98 144 179 232 299 344 425
#     4  11  24  46  65 102 141 176 237 289 349 426
#     4  11  25  40  72 100 132 187 231 288 360 413
#
# _framework density 22.476772
#
# number of rings (size 3 to 8) (size 9 to 14) (size 15 to 20)
#    0.000    0.800    6.000    3.000    0.000    4.000 
#    3.600    0.000    0.000    0.000    0.000    0.000 
#    0.000    0.000    0.000    0.000    0.000    0.000 
#
# Total GULP energy -495936.099744 kJ/mol
# GULP energy per Si atom -12398.402494 kJ/mol
# Density = 2.242561 g / cm^3
# Si number density = 22.476772 Si / 1000 Ang^3
#
#
#
# Elastic Constant Matrix: (Units=GPa)
#
#
# Indices 1 2 3 4 5 6 
#
# 1 146.2604 12.3857 39.2523 0.0000 0.0000 0.0000
# 2 12.3857 79.7930 5.3022 0.0000 0.0000 0.0000
# 3 39.2523 5.3022 110.9935 0.0000 0.0000 0.0000
# 4 0.0000 0.0000 0.0000 25.2301 0.0000 0.0000
# 5 0.0000 0.0000 0.0000 0.0000 34.3767 0.0000
# 6 0.0000 0.0000 0.0000 0.0000 0.0000 19.2452
#
#
#
# Elastic Compliance Matrix: (Units=1/GPa)
#
#
# Indices 1 2 3 4 5 6 
#
# 1 0.007634 -0.001009 -0.002652 0.000000 0.000000 0.000000
# 2 -0.001009 0.012706 -0.000250 0.000000 0.000000 0.000000
# 3 -0.002652 -0.000250 0.009959 0.000000 0.000000 0.000000
# 4 0.000000 0.000000 0.000000 0.039635 0.000000 0.000000
# 5 0.000000 0.000000 0.000000 0.000000 0.029090 0.000000
# 6 0.000000 0.000000 0.000000 0.000000 0.000000 0.051961
#
#
# Mechanical properties :
#
#
# Convention : Reuss Voigt Hill
#
# Bulk Modulus (GPa) = 44.48828 50.10305 47.29567
# Shear Modulus (GPa) = 30.06638 34.44415 32.25527
#
# Velocity S-wave (km/s) = 3.66138 3.91888 3.79231
# Velocity P-wave (km/s) = 6.14086 6.54341 6.34533
#
# Compressibility (1/GPa) = 0.02247783
#
# Stress axis : x y z
#
# Youngs Moduli (GPa) = 130.99007 78.70518 100.40959
#
# Poissons Ratio (x) = 0.07940 0.26625
# Poissons Ratio (y) = 0.13214 0.02512
# Poissons Ratio (z) = 0.34733 0.01969
#
# Static dielectric constant tensor:
#      x y z
#    x 4.155990 0.000000 0.000000 
#    y 0.000000 3.908260 0.000000 
#    z 0.000000 0.000000 4.060520 
# 
# 
# High freq. dielectric constant tensor:
#      x y z
#    x 1.885210 0.000000 0.000000 
#    y 0.000000 1.873810 0.000000 
#    z 0.000000 0.000000 1.896660 
# 
# From -- ./inp_files/22536.got.cif
#   From: 2010.03.12/outbox.cif.g09.slc.cpg/sg60_12_cif.got.tgz:22536.got - 2010.04.10 18:46:24.
