data_PCOD8248239
_publ_section_title
;
Structure prediction by ZEFSAII (Michael W. Deem and Ramdas Pophale) SiO2 
 PCOD8248239
Probable space group: P B C N
;
_chemical_formula_sum "Si O2"
_cell_formula_units_Z 36
_cell_length_a 10.056649
_cell_length_b 19.345058
_cell_length_c 8.199736
_cell_angle_alpha 90.000000
_cell_angle_beta 90.000000
_cell_angle_gamma 90.000000
_cell_volume 1595.229597
_symmetry_space_group_name_H-M "P B C N"
_symmetry_group_IT_number 60
_symmetry_cell_setting 'orthorhombic'
loop_
_space_group_symop_operation_xyz
x,y,z
1/2-x,1/2-y,1/2+z
1/2+x,1/2-y,-z
-x,y,1/2-z
-x,-y,-z
1/2+x,1/2+y,1/2-z
1/2-x,1/2+y,z
x,-y,1/2+z
loop_
_atom_site_type_symbol
_atom_site_label
_atom_site_fract_x
_atom_site_fract_y
_atom_site_fract_z
Si Si1 0.250929 0.930708 0.067977
Si Si2 0.855998 0.705245 0.783022
Si Si3 0.651304 0.938026 0.785430
Si Si4 0.000000 0.094743 0.750000
Si Si5 0.811337 0.169128 0.499831
O O1 0.279399 0.851288 0.109835
O O2 0.107463 0.950787 0.148422
O O3 0.357129 0.984033 0.144869
O O4 0.255177 0.937136 0.873685
O O5 0.782461 0.716427 0.612128
O O6 0.000000 0.674124 0.750000
O O7 0.870554 0.779983 0.865292
O O8 0.500000 0.912545 0.750000
O O9 0.721314 0.890888 0.921431
O O10 0.929901 0.140091 0.610078
#
# Coordination Sequence:
#
# PCOD8248239 Si02
#       5
#     8   8   8   4   8
#     4  11  24  45  70 101 140 182 230 289 348 411
#     4  11  24  42  66  98 136 179 229 283 343 407
#     4  12  25  45  74 103 138 184 239 289 348 411
#     4  10  26  46  66 104 144 178 234 280 350 430
#     4  11  26  42  69 102 138 185 227 287 348 414
#
# _framework density 22.567284000000001
#
# number of rings (size 3 to 8) (size 9 to 14) (size 15 to 20)
#    0.000    0.889    0.000    6.667    9.333    3.556 
#    4.000    0.000    0.000    0.000    0.000    0.000 
#    0.000    0.000    0.000    0.000    0.000    0.000 
#
# Total GULP energy -446393.653352 kJ/mol
# GULP energy per Si atom -12399.823704 kJ/mol
# Density = 2.251592 g / cm^3
# Si number density = 22.567284 Si / 1000 Ang^3
#
#
#
# Elastic Constant Matrix: (Units=GPa)
#
#
# Indices 1 2 3 4 5 6 
#
# 1 116.8365 25.4265 52.7792 0.0000 0.0000 0.0000
# 2 25.4265 94.3666 38.6998 0.0000 0.0000 0.0000
# 3 52.7792 38.6998 142.4027 0.0000 0.0000 0.0000
# 4 0.0000 0.0000 0.0000 33.2007 0.0000 0.0000
# 5 0.0000 0.0000 0.0000 0.0000 45.1842 0.0000
# 6 0.0000 0.0000 0.0000 0.0000 0.0000 1.5909
#
#
#
# Elastic Compliance Matrix: (Units=1/GPa)
#
#
# Indices 1 2 3 4 5 6 
#
# 1 0.010437 -0.001380 -0.003494 0.000000 0.000000 0.000000
# 2 -0.001380 0.012108 -0.002779 0.000000 0.000000 0.000000
# 3 -0.003494 -0.002779 0.009072 0.000000 0.000000 0.000000
# 4 0.000000 0.000000 0.000000 0.030120 0.000000 0.000000
# 5 0.000000 0.000000 0.000000 0.000000 0.022132 0.000000
# 6 0.000000 0.000000 0.000000 0.000000 0.000000 0.628559
#
#
# Mechanical properties :
#
#
# Convention : Reuss Voigt Hill
#
# Bulk Modulus (GPa) = 61.29904 65.26854 63.28379
# Shear Modulus (GPa) = 6.81969 31.77519 19.29744
#
# Velocity S-wave (km/s) = 1.74026 3.75643 2.92739
# Velocity P-wave (km/s) = 5.59104 6.91367 6.28724
#
# Compressibility (1/GPa) = 0.01631347
#
# Stress axis : x y z
#
# Youngs Moduli (GPa) = 95.80979 82.58669 110.22364
#
# Poissons Ratio (x) = 0.11394 0.38507
# Poissons Ratio (y) = 0.13218 0.30635
# Poissons Ratio (z) = 0.33471 0.22953
#
# Static dielectric constant tensor:
#      x y z
#    x 4.120990 0.000000 0.000000 
#    y 0.000000 3.758750 0.000000 
#    z 0.000000 0.000000 4.281850 
# 
# 
# High freq. dielectric constant tensor:
#      x y z
#    x 1.893970 0.000000 0.000000 
#    y 0.000000 1.880730 0.000000 
#    z 0.000000 0.000000 1.909720 
# 
# From -- ./inp_files/3687.got.cif
#   From: 2010.03.12/outbox.cif.g09.slc.cpg/sg60_2_cif.got.tgz:3687.got - 2010.04.10 18:46:24.
