data_PCOD8248976
_publ_section_title
;
Structure prediction by ZEFSAII (Michael W. Deem and Ramdas Pophale) SiO2 
 PCOD8248976
Probable space group: P B C A
;
_chemical_formula_sum "Si O2"
_cell_formula_units_Z 64
_cell_length_a 8.335985
_cell_length_b 12.074304
_cell_length_c 30.765666
_cell_angle_alpha 90.000000
_cell_angle_beta 90.000000
_cell_angle_gamma 90.000000
_cell_volume 3096.601726
_symmetry_space_group_name_H-M "P B C A"
_symmetry_group_IT_number 61
_symmetry_cell_setting 'orthorhombic'
loop_
_space_group_symop_operation_xyz
x,y,z
1/2-x,-y,1/2+z
1/2+x,1/2-y,-z
-x,1/2+y,1/2-z
-x,-y,-z
1/2+x,y,1/2-z
1/2-x,1/2+y,z
x,1/2-y,1/2+z
loop_
_atom_site_type_symbol
_atom_site_label
_atom_site_fract_x
_atom_site_fract_y
_atom_site_fract_z
Si Si1 0.556832 0.732687 0.202574
Si Si2 0.673571 0.338739 0.043438
Si Si3 0.568450 0.746945 0.604165
Si Si4 0.477446 0.507315 0.093921
Si Si5 0.281798 0.861686 0.242718
Si Si6 0.996859 0.485673 0.304823
Si Si7 0.531707 0.854874 0.981472
Si Si8 0.371426 0.556588 0.563095
O O1 0.620252 0.746801 0.153950
O O2 0.423247 0.825302 0.211067
O O3 0.701202 0.752777 0.236233
O O4 0.482848 0.612511 0.209619
O O5 0.617701 0.455324 0.064011
O O6 0.513025 0.270249 0.031325
O O7 0.767321 0.263812 0.078066
O O8 0.790638 0.360998 0.002820
O O9 0.456055 0.639958 0.596717
O O10 0.478178 0.859476 0.589159
O O11 0.508986 0.470960 0.143469
O O12 0.310314 0.458060 0.077523
O O13 0.162195 0.927946 0.212209
O O14 0.344241 0.935974 0.282718
O O15 0.539580 0.936043 0.939278
O O16 0.391314 0.894123 0.014443
#
# Coordination Sequence:
#
# PCOD8248976 Si02
#       8
#     8   8   8   8   8   8   8   8
#     4  10  20  38  59  87 121 155 197 245 293 353
#     4  11  24  41  63  88 120 158 205 249 307 357
#     4  10  24  40  61  89 125 159 200 250 305 359
#     4  11  24  39  64  87 125 160 198 249 306 357
#     4  10  20  36  63  85 120 157 194 246 290 349
#     4  10  21  38  59  91 116 156 200 237 295 357
#     4  10  24  42  64  88 120 157 208 253 301 361
#     4  10  23  42  60  88 121 156 203 246 301 358
#
# _framework density 20.667815999999998
#
# number of rings (size 3 to 8) (size 9 to 14) (size 15 to 20)
#    0.000    1.750    0.000    3.000   10.500    0.500 
#    0.000    0.000    5.500    0.000    0.000    0.000 
#    0.000    0.000    0.000    0.000    0.000    0.000 
#
# Total GULP energy -793553.279273 kJ/mol
# GULP energy per Si atom -12399.269989 kJ/mol
# Density = 2.062078 g / cm^3
# Si number density = 20.667816 Si / 1000 Ang^3
#
#
#
# Elastic Constant Matrix: (Units=GPa)
#
#
# Indices 1 2 3 4 5 6 
#
# 1 73.0117 24.3819 28.9581 0.0000 0.0000 0.0000
# 2 24.3819 105.1883 40.4327 0.0000 0.0000 0.0000
# 3 28.9581 40.4327 73.1748 0.0000 0.0000 0.0000
# 4 0.0000 0.0000 0.0000 33.2691 0.0000 0.0000
# 5 0.0000 0.0000 0.0000 0.0000 30.3200 0.0000
# 6 0.0000 0.0000 0.0000 0.0000 0.0000 25.2114
#
#
#
# Elastic Compliance Matrix: (Units=1/GPa)
#
#
# Indices 1 2 3 4 5 6 
#
# 1 0.016473 -0.001667 -0.005598 0.000000 0.000000 0.000000
# 2 -0.001667 0.012239 -0.006103 0.000000 0.000000 0.000000
# 3 -0.005598 -0.006103 0.019254 0.000000 0.000000 0.000000
# 4 0.000000 0.000000 0.000000 0.030058 0.000000 0.000000
# 5 0.000000 0.000000 0.000000 0.000000 0.032982 0.000000
# 6 0.000000 0.000000 0.000000 0.000000 0.000000 0.039665
#
#
# Mechanical properties :
#
#
# Convention : Reuss Voigt Hill
#
# Bulk Modulus (GPa) = 47.10299 48.76893 47.93596
# Shear Modulus (GPa) = 27.10278 28.26689 27.68484
#
# Velocity S-wave (km/s) = 3.62519 3.70222 3.66391
# Velocity P-wave (km/s) = 6.35316 6.47480 6.41427
#
# Compressibility (1/GPa) = 0.02123007
#
# Stress axis : x y z
#
# Youngs Moduli (GPa) = 60.70400 81.70597 51.93809
#
# Poissons Ratio (x) = 0.13616 0.29077
# Poissons Ratio (y) = 0.10116 0.31699
# Poissons Ratio (z) = 0.33984 0.49866
#
# Static dielectric constant tensor:
#      x y z
#    x 3.611600 0.000000 0.000000 
#    y 0.000000 3.903050 0.000000 
#    z 0.000000 0.000000 3.699020 
# 
# 
# High freq. dielectric constant tensor:
#      x y z
#    x 1.806560 0.000000 0.000000 
#    y 0.000000 1.819570 0.000000 
#    z 0.000000 0.000000 1.805510 
# 
# From -- ./inp_files/11742.got.cif
#   From: 2010.03.12/outbox.cif.g09.slc.cpg/sg61_6_cif.got.tgz:11742.got - 2010.04.10 19:05:03.
