data_PCOD8248926
_publ_section_title
;
Structure prediction by ZEFSAII (Michael W. Deem and Ramdas Pophale) SiO2 
 PCOD8248926
Probable space group: P B C A
;
_chemical_formula_sum "Si O2"
_cell_formula_units_Z 32
_cell_length_a 8.951014
_cell_length_b 19.105190
_cell_length_c 10.010750
_cell_angle_alpha 90.000000
_cell_angle_beta 90.000000
_cell_angle_gamma 90.000000
_cell_volume 1711.946598
_symmetry_space_group_name_H-M "P B C A"
_symmetry_group_IT_number 61
_symmetry_cell_setting 'orthorhombic'
loop_
_space_group_symop_operation_xyz
x,y,z
1/2-x,-y,1/2+z
1/2+x,1/2-y,-z
-x,1/2+y,1/2-z
-x,-y,-z
1/2+x,y,1/2-z
1/2-x,1/2+y,z
x,1/2-y,1/2+z
loop_
_atom_site_type_symbol
_atom_site_label
_atom_site_fract_x
_atom_site_fract_y
_atom_site_fract_z
Si Si1 0.809586 0.054440 0.411627
Si Si2 0.648234 0.040576 0.148036
Si Si3 0.841983 0.214327 0.382533
Si Si4 0.310482 0.700004 0.391568
O O1 0.692983 0.027347 0.301210
O O2 0.796340 0.137410 0.434182
O O3 0.971132 0.032921 0.357132
O O4 0.774514 0.016607 0.551697
O O5 0.702114 0.116492 0.099851
O O6 0.781337 0.228378 0.234515
O O7 0.765737 0.271149 0.476114
O O8 0.019280 0.225411 0.381479
#
# Coordination Sequence:
#
# PCOD8248926 Si02
#       4
#     8   8   8   8
#     4   9  19  35  53  75 102 132 168 208 250 298
#     4   9  19  35  53  75 102 132 168 208 250 298
#     4  10  20  35  54  76 104 136 171 211 254 302
#     4  10  20  35  54  76 104 136 171 211 254 302
#
# _framework density 18.692173
#
# number of rings (size 3 to 8) (size 9 to 14) (size 15 to 20)
#    0.000    2.500    0.000    1.500    0.000    5.000 
#    0.000    5.000    0.000    0.000    0.000    0.000 
#    0.000    0.000    0.000    0.000    0.000    0.000 
#
# Total GULP energy -396916.302256 kJ/mol
# GULP energy per Si atom -12403.634445 kJ/mol
# Density = 1.864963 g / cm^3
# Si number density = 18.692173 Si / 1000 Ang^3
#
#
#
# Elastic Constant Matrix: (Units=GPa)
#
#
# Indices 1 2 3 4 5 6 
#
# 1 57.3073 8.6044 5.4940 0.0000 0.0000 0.0000
# 2 8.6044 34.4914 9.8086 0.0000 0.0000 0.0000
# 3 5.4940 9.8086 29.8146 0.0000 0.0000 0.0000
# 4 0.0000 0.0000 0.0000 39.7964 0.0000 0.0000
# 5 0.0000 0.0000 0.0000 0.0000 35.4843 0.0000
# 6 0.0000 0.0000 0.0000 0.0000 0.0000 21.7677
#
#
#
# Elastic Compliance Matrix: (Units=1/GPa)
#
#
# Indices 1 2 3 4 5 6 
#
# 1 0.018242 -0.003966 -0.002057 0.000000 0.000000 0.000000
# 2 -0.003966 0.032847 -0.010075 0.000000 0.000000 0.000000
# 3 -0.002057 -0.010075 0.037234 0.000000 0.000000 0.000000
# 4 0.000000 0.000000 0.000000 0.025128 0.000000 0.000000
# 5 0.000000 0.000000 0.000000 0.000000 0.028181 0.000000
# 6 0.000000 0.000000 0.000000 0.000000 0.000000 0.045940
#
#
# Mechanical properties :
#
#
# Convention : Reuss Voigt Hill
#
# Bulk Modulus (GPa) = 17.81657 18.82526 18.32091
# Shear Modulus (GPa) = 20.96623 25.92344 23.44484
#
# Velocity S-wave (km/s) = 3.35275 3.72810 3.54539
# Velocity P-wave (km/s) = 4.95380 5.35020 5.15581
#
# Compressibility (1/GPa) = 0.05612753
#
# Stress axis : x y z
#
# Youngs Moduli (GPa) = 54.81718 30.44389 26.85698
#
# Poissons Ratio (x) = 0.12074 0.05524
# Poissons Ratio (y) = 0.21740 0.27060
# Poissons Ratio (z) = 0.11275 0.30674
#
# Static dielectric constant tensor:
#      x y z
#    x 3.484380 0.000000 0.000000 
#    y 0.000000 3.388890 0.000000 
#    z 0.000000 0.000000 3.424820 
# 
# 
# High freq. dielectric constant tensor:
#      x y z
#    x 1.730070 0.000000 0.000000 
#    y 0.000000 1.718690 0.000000 
#    z 0.000000 0.000000 1.728340 
# 
# From -- ./inp_files/1646.got.cif
#   From: 2010.03.12/outbox.cif.g09.slc.cpg/sg61_1_cif.got.tgz:1646.got - 2010.04.10 19:05:03.
