data_PCOD8248489
_publ_section_title
;
Structure prediction by ZEFSAII (Michael W. Deem and Ramdas Pophale) SiO2 
 PCOD8248489
Probable space group: P B C N
;
_chemical_formula_sum "Si O2"
_cell_formula_units_Z 28
_cell_length_a 5.536832
_cell_length_b 19.195084
_cell_length_c 11.136907
_cell_angle_alpha 90.000000
_cell_angle_beta 90.000000
_cell_angle_gamma 90.000000
_cell_volume 1183.629979
_symmetry_space_group_name_H-M "P B C N"
_symmetry_group_IT_number 60
_symmetry_cell_setting 'orthorhombic'
loop_
_space_group_symop_operation_xyz
x,y,z
1/2-x,1/2-y,1/2+z
1/2+x,1/2-y,-z
-x,y,1/2-z
-x,-y,-z
1/2+x,1/2+y,1/2-z
1/2-x,1/2+y,z
x,-y,1/2+z
loop_
_atom_site_type_symbol
_atom_site_label
_atom_site_fract_x
_atom_site_fract_y
_atom_site_fract_z
Si Si1 0.713802 0.289422 0.972903
Si Si2 0.500000 0.646944 0.250000
Si Si3 0.938808 0.406101 0.117682
Si Si4 0.206252 0.955410 0.939077
O O1 0.679641 0.306375 0.831423
O O2 0.469899 0.250079 0.014747
O O3 0.730364 0.359434 0.054584
O O4 0.351804 0.597149 0.334834
O O5 0.877983 0.487910 0.123449
O O6 0.000000 0.376998 0.250000
O O7 0.177907 0.403588 0.036853
O O8 0.000000 0.000000 0.000000
#
# Coordination Sequence:
#
# PCOD8248489 Si02
#       4
#     8   4   8   8
#     4  12  30  55  78 116 159 223 270 320 397 482
#     4  12  26  54  82 110 162 202 270 340 398 476
#     4  11  26  47  76 116 157 199 263 327 399 483
#     4  11  23  47  78 119 151 201 256 335 417 466
#
# _framework density 23.656044000000001
#
# number of rings (size 3 to 8) (size 9 to 14) (size 15 to 20)
#    0.000    0.571    2.857    3.429    6.000    3.429 
#    5.143    0.000    0.000    0.000    0.000    0.000 
#    0.000    0.000    0.000    0.000    0.000    0.000 
#
# Total GULP energy -347017.837107 kJ/mol
# GULP energy per Si atom -12393.494182 kJ/mol
# Density = 2.360220 g / cm^3
# Si number density = 23.656044 Si / 1000 Ang^3
#
#
#
# Elastic Constant Matrix: (Units=GPa)
#
#
# Indices 1 2 3 4 5 6 
#
# 1 147.4235 65.9044 85.0648 0.0000 0.0000 0.0000
# 2 65.9044 114.0707 71.0489 0.0000 0.0000 0.0000
# 3 85.0648 71.0489 217.2255 0.0000 0.0000 0.0000
# 4 0.0000 0.0000 0.0000 56.5772 0.0000 0.0000
# 5 0.0000 0.0000 0.0000 0.0000 47.9545 0.0000
# 6 0.0000 0.0000 0.0000 0.0000 0.0000 53.5041
#
#
#
# Elastic Compliance Matrix: (Units=1/GPa)
#
#
# Indices 1 2 3 4 5 6 
#
# 1 0.010189 -0.004272 -0.002593 0.000000 0.000000 0.000000
# 2 -0.004272 0.012800 -0.002514 0.000000 0.000000 0.000000
# 3 -0.002593 -0.002514 0.006441 0.000000 0.000000 0.000000
# 4 0.000000 0.000000 0.000000 0.017675 0.000000 0.000000
# 5 0.000000 0.000000 0.000000 0.000000 0.020853 0.000000
# 6 0.000000 0.000000 0.000000 0.000000 0.000000 0.018690
#
#
# Mechanical properties :
#
#
# Convention : Reuss Voigt Hill
#
# Bulk Modulus (GPa) = 93.68999 102.52844 98.10921
# Shear Modulus (GPa) = 45.88722 48.72060 47.30391
#
# Velocity S-wave (km/s) = 4.40906 4.54314 4.47660
# Velocity P-wave (km/s) = 8.10005 8.42351 8.26336
#
# Compressibility (1/GPa) = 0.01067350
#
# Stress axis : x y z
#
# Youngs Moduli (GPa) = 98.14641 78.12362 155.25462
#
# Poissons Ratio (x) = 0.33372 0.40254
# Poissons Ratio (y) = 0.41925 0.39028
# Poissons Ratio (z) = 0.25447 0.19639
#
# Static dielectric constant tensor:
#      x y z
#    x 4.309790 0.000000 0.000000 
#    y 0.000000 4.930810 0.000000 
#    z 0.000000 0.000000 4.503030 
# 
# 
# High freq. dielectric constant tensor:
#      x y z
#    x 1.939700 0.000000 0.000000 
#    y 0.000000 1.956450 0.000000 
#    z 0.000000 0.000000 1.944830 
# 
# From -- ./inp_files/8751.got.cif
#   From: 2010.03.12/outbox.cif.g09.slc.cpg/sg60_5_cif.got.tgz:8751.got - 2010.04.10 18:46:24.
