data_PCOD8248042
_publ_section_title
;
Structure prediction by ZEFSAII (Michael W. Deem and Ramdas Pophale) SiO2 
 PCOD8248042
Probable space group: P B C N
;
_chemical_formula_sum "Si O2"
_cell_formula_units_Z 36
_cell_length_a 14.339071
_cell_length_b 11.726689
_cell_length_c 9.861069
_cell_angle_alpha 90.000000
_cell_angle_beta 90.000000
_cell_angle_gamma 90.000000
_cell_volume 1658.137038
_symmetry_space_group_name_H-M "P B C N"
_symmetry_group_IT_number 60
_symmetry_cell_setting 'orthorhombic'
loop_
_space_group_symop_operation_xyz
x,y,z
1/2-x,1/2-y,1/2+z
1/2+x,1/2-y,-z
-x,y,1/2-z
-x,-y,-z
1/2+x,1/2+y,1/2-z
1/2-x,1/2+y,z
x,-y,1/2+z
loop_
_atom_site_type_symbol
_atom_site_label
_atom_site_fract_x
_atom_site_fract_y
_atom_site_fract_z
Si Si1 0.834249 0.047562 0.150027
Si Si2 0.214855 0.456304 0.583904
Si Si3 0.912896 0.243275 0.979102
Si Si4 0.958961 0.411306 0.395646
Si Si5 0.000000 0.906743 0.250000
O O1 0.933264 0.985664 0.160762
O O2 0.787502 0.063162 0.295796
O O3 0.768879 0.970162 0.056385
O O4 0.851221 0.171258 0.084471
O O5 0.147928 0.348027 0.574249
O O6 0.153046 0.571524 0.609400
O O7 0.937811 0.169447 0.848695
O O8 0.007952 0.285986 0.054390
O O9 0.000000 0.440057 0.250000
O O10 0.000000 0.500000 0.500000
#
# Coordination Sequence:
#
# PCOD8248042 Si02
#       5
#     8   8   8   8   4
#     4  12  27  50  67 108 146 184 241 293 358 423
#     4  11  26  45  76 107 142 181 248 299 336 429
#     4  11  27  43  78 100 146 195 228 290 368 418
#     4  10  23  44  71 109 143 181 232 294 355 421
#     4  12  28  50  68 104 146 198 228 298 360 434
#
# _framework density 21.711112
#
# number of rings (size 3 to 8) (size 9 to 14) (size 15 to 20)
#    0.000    0.889    2.222    3.333   14.000    1.778 
#    0.000    0.000    0.000    0.000    0.000    0.000 
#    0.000    0.000    0.000    0.000    0.000    0.000 
#
# Total GULP energy -446535.011917 kJ/mol
# GULP energy per Si atom -12403.750331 kJ/mol
# Density = 2.166170 g / cm^3
# Si number density = 21.711112 Si / 1000 Ang^3
#
#
#
# Elastic Constant Matrix: (Units=GPa)
#
#
# Indices 1 2 3 4 5 6 
#
# 1 107.3017 37.2550 20.8865 0.0000 0.0000 0.0000
# 2 37.2550 83.9967 22.9396 0.0000 0.0000 0.0000
# 3 20.8865 22.9396 105.6145 0.0000 0.0000 0.0000
# 4 0.0000 0.0000 0.0000 12.6196 0.0000 0.0000
# 5 0.0000 0.0000 0.0000 0.0000 44.0450 0.0000
# 6 0.0000 0.0000 0.0000 0.0000 0.0000 48.2740
#
#
#
# Elastic Compliance Matrix: (Units=1/GPa)
#
#
# Indices 1 2 3 4 5 6 
#
# 1 0.011158 -0.004620 -0.001203 0.000000 0.000000 0.000000
# 2 -0.004620 0.014569 -0.002251 0.000000 0.000000 0.000000
# 3 -0.001203 -0.002251 0.010195 0.000000 0.000000 0.000000
# 4 0.000000 0.000000 0.000000 0.079242 0.000000 0.000000
# 5 0.000000 0.000000 0.000000 0.000000 0.022704 0.000000
# 6 0.000000 0.000000 0.000000 0.000000 0.000000 0.020715
#
#
# Mechanical properties :
#
#
# Convention : Reuss Voigt Hill
#
# Bulk Modulus (GPa) = 50.57138 51.00836 50.78987
# Shear Modulus (GPa) = 27.57521 35.37651 31.47586
#
# Velocity S-wave (km/s) = 3.56771 4.04099 3.81170
# Velocity P-wave (km/s) = 6.34939 6.73186 6.54342
#
# Compressibility (1/GPa) = 0.01977403
#
# Stress axis : x y z
#
# Youngs Moduli (GPa) = 89.62302 68.63822 98.08554
#
# Poissons Ratio (x) = 0.31713 0.11800
# Poissons Ratio (y) = 0.41408 0.22076
# Poissons Ratio (z) = 0.10782 0.15449
#
# Static dielectric constant tensor:
#      x y z
#    x 4.323160 0.000000 0.000000 
#    y 0.000000 4.101300 0.000000 
#    z 0.000000 0.000000 4.020920 
# 
# 
# High freq. dielectric constant tensor:
#      x y z
#    x 1.863800 0.000000 0.000000 
#    y 0.000000 1.850590 0.000000 
#    z 0.000000 0.000000 1.871080 
# 
# From -- ./inp_files/11638.got.cif
#   From: 2010.03.12/outbox.cif.g09.slc.cpg/sg60_6_cif.got.tgz:11638.got - 2010.04.10 18:46:24.
