data_PCOD8248469
_publ_section_title
;
Structure prediction by ZEFSAII (Michael W. Deem and Ramdas Pophale) SiO2 
 PCOD8248469
Probable space group: P B C N
;
_chemical_formula_sum "Si O2"
_cell_formula_units_Z 48
_cell_length_a 9.231699
_cell_length_b 9.206127
_cell_length_c 27.080372
_cell_angle_alpha 90.000000
_cell_angle_beta 90.000000
_cell_angle_gamma 90.000000
_cell_volume 2301.511893
_symmetry_space_group_name_H-M "P B C N"
_symmetry_group_IT_number 60
_symmetry_cell_setting 'orthorhombic'
loop_
_space_group_symop_operation_xyz
x,y,z
1/2-x,1/2-y,1/2+z
1/2+x,1/2-y,-z
-x,y,1/2-z
-x,-y,-z
1/2+x,1/2+y,1/2-z
1/2-x,1/2+y,z
x,-y,1/2+z
loop_
_atom_site_type_symbol
_atom_site_label
_atom_site_fract_x
_atom_site_fract_y
_atom_site_fract_z
Si Si1 0.904329 0.885220 0.974218
Si Si2 0.405978 0.193792 0.131473
Si Si3 0.099800 0.801984 0.797136
Si Si4 0.619771 0.467102 0.862991
Si Si5 0.417362 0.858580 0.514610
Si Si6 0.605534 0.034764 0.203481
O O1 0.874575 0.942538 0.920549
O O2 0.750309 0.863962 0.001418
O O3 0.999950 0.743206 0.976337
O O4 0.000000 0.000000 0.000000
O O5 0.271107 0.103664 0.154650
O O6 0.386493 0.361210 0.148605
O O7 0.428057 0.185391 0.072360
O O8 0.546232 0.122240 0.156200
O O9 0.130961 0.634030 0.810956
O O10 0.243605 0.889599 0.783164
O O11 0.000000 0.810782 0.750000
O O12 0.018443 0.883294 0.841630
O O13 0.500000 0.000000 0.500000
O O14 0.500000 0.050935 0.250000
#
# Coordination Sequence:
#
# PCOD8248469 Si02
#       6
#     8   8   8   8   8   8
#     4  11  23  44  63  95 133 173 225 272 336 392
#     4  11  24  43  66  96 129 174 220 266 332 388
#     4  11  25  44  68  99 131 170 215 267 327 389
#     4  11  24  42  68  93 132 174 216 272 324 395
#     4  11  25  40  67  95 131 179 221 279 331 400
#     4  11  25  44  68  98 132 169 215 268 326 391
#
# _framework density 20.855855999999999
#
# number of rings (size 3 to 8) (size 9 to 14) (size 15 to 20)
#    0.000    1.000    1.667    4.000    9.333    8.000 
#    0.000    0.000    0.000    0.000    0.000    0.000 
#    0.000    0.000    0.000    0.000    0.000    0.000 
#
# Total GULP energy -595043.414400 kJ/mol
# GULP energy per Si atom -12396.737800 kJ/mol
# Density = 2.080839 g / cm^3
# Si number density = 20.855856 Si / 1000 Ang^3
#
#
#
# Elastic Constant Matrix: (Units=GPa)
#
#
# Indices 1 2 3 4 5 6 
#
# 1 153.8240 73.9609 24.1727 0.0000 0.0000 0.0000
# 2 73.9609 199.2372 20.9621 0.0000 0.0000 0.0000
# 3 24.1727 20.9621 27.6007 0.0000 0.0000 0.0000
# 4 0.0000 0.0000 0.0000 29.4069 0.0000 0.0000
# 5 0.0000 0.0000 0.0000 0.0000 36.4525 0.0000
# 6 0.0000 0.0000 0.0000 0.0000 0.0000 46.2318
#
#
#
# Elastic Compliance Matrix: (Units=1/GPa)
#
#
# Indices 1 2 3 4 5 6 
#
# 1 0.008636 -0.002620 -0.005574 0.000000 0.000000 0.000000
# 2 -0.002620 0.006250 -0.002452 0.000000 0.000000 0.000000
# 3 -0.005574 -0.002452 0.042975 0.000000 0.000000 0.000000
# 4 0.000000 0.000000 0.000000 0.034006 0.000000 0.000000
# 5 0.000000 0.000000 0.000000 0.000000 0.027433 0.000000
# 6 0.000000 0.000000 0.000000 0.000000 0.000000 0.021630
#
#
# Mechanical properties :
#
#
# Convention : Reuss Voigt Hill
#
# Bulk Modulus (GPa) = 27.34540 68.76147 48.05344
# Shear Modulus (GPa) = 28.66777 39.85598 34.26187
#
# Velocity S-wave (km/s) = 3.71154 4.37626 4.05754
# Velocity P-wave (km/s) = 5.61315 7.65356 6.71135
#
# Compressibility (1/GPa) = 0.03656922
#
# Stress axis : x y z
#
# Youngs Moduli (GPa) = 115.78871 160.01106 23.26917
#
# Poissons Ratio (x) = 0.41915 0.12971
# Poissons Ratio (y) = 0.30331 0.05706
# Poissons Ratio (z) = 0.64544 0.39238
#
# Static dielectric constant tensor:
#      x y z
#    x 4.409170 0.000000 0.000000 
#    y 0.000000 3.979810 0.000000 
#    z 0.000000 0.000000 3.521520 
# 
# 
# High freq. dielectric constant tensor:
#      x y z
#    x 1.833050 0.000000 0.000000 
#    y 0.000000 1.840150 0.000000 
#    z 0.000000 0.000000 1.809500 
# 
# From -- ./inp_files/25941.got.cif
#   From: 2010.03.12/outbox.cif.g09.slc.cpg/sg60_13_cif.got.tgz:25941.got - 2010.04.10 18:46:24.
