data_PCOD8248824
_publ_section_title
;
Structure prediction by ZEFSAII (Michael W. Deem and Ramdas Pophale) SiO2 
 PCOD8248824
Probable space group: P B C A
;
_chemical_formula_sum "Si O2"
_cell_formula_units_Z 64
_cell_length_a 9.175475
_cell_length_b 23.948754
_cell_length_c 14.345387
_cell_angle_alpha 90.000000
_cell_angle_beta 90.000000
_cell_angle_gamma 90.000000
_cell_volume 3152.272462
_symmetry_space_group_name_H-M "P B C A"
_symmetry_group_IT_number 61
_symmetry_cell_setting 'orthorhombic'
loop_
_space_group_symop_operation_xyz
x,y,z
1/2-x,-y,1/2+z
1/2+x,1/2-y,-z
-x,1/2+y,1/2-z
-x,-y,-z
1/2+x,y,1/2-z
1/2-x,1/2+y,z
x,1/2-y,1/2+z
loop_
_atom_site_type_symbol
_atom_site_label
_atom_site_fract_x
_atom_site_fract_y
_atom_site_fract_z
Si Si1 0.871397 0.144820 0.678387
Si Si2 0.852070 0.669245 0.324957
Si Si3 0.178130 0.066193 0.297518
Si Si4 0.338173 0.225291 0.327346
Si Si5 0.111855 0.516708 0.153259
Si Si6 0.320068 0.852998 0.955633
Si Si7 0.847092 0.119378 0.472742
Si Si8 0.686032 0.390849 0.346098
O O1 0.824570 0.208720 0.676648
O O2 0.817167 0.115720 0.582934
O O3 0.805730 0.112113 0.766101
O O4 0.044026 0.140758 0.691058
O O5 0.895340 0.612793 0.269900
O O6 0.727982 0.701814 0.267962
O O7 0.780528 0.655311 0.424809
O O8 0.994620 0.706523 0.339445
O O9 0.309011 0.034582 0.248097
O O10 0.239137 0.097027 0.389716
O O11 0.059365 0.020177 0.325706
O O12 0.243219 0.205009 0.416091
O O13 0.154547 0.556622 0.067407
O O14 0.150946 0.454234 0.125044
O O15 0.496274 0.851589 0.954170
O O16 0.257722 0.861221 0.059578
#
# Coordination Sequence:
#
# PCOD8248824 Si02
#       8
#     8   8   8   8   8   8   8   8
#     4  11  25  40  55  82 115 151 192 233 282 341
#     4  10  19  36  60  88 114 144 190 233 277 338
#     4   9  17  33  58  86 110 140 188 229 275 338
#     4  11  21  36  60  83 114 152 183 234 288 325
#     4  10  19  35  60  83 113 150 179 231 286 325
#     4   9  20  38  58  83 112 149 194 232 275 337
#     4   9  21  38  58  86 114 146 193 233 276 338
#     4  11  24  40  57  83 116 149 191 232 281 342
#
# _framework density 20.302813
#
# number of rings (size 3 to 8) (size 9 to 14) (size 15 to 20)
#    0.000    2.000    0.000    5.250    0.000    9.500 
#    0.000    0.000    0.000    5.250    0.000    0.000 
#    0.000    0.000    0.000    0.000    0.000    0.000 
#
# Total GULP energy -793748.323842 kJ/mol
# GULP energy per Si atom -12402.317560 kJ/mol
# Density = 2.025660 g / cm^3
# Si number density = 20.302813 Si / 1000 Ang^3
#
#
#
# Elastic Constant Matrix: (Units=GPa)
#
#
# Indices 1 2 3 4 5 6 
#
# 1 55.6130 15.9065 27.1036 0.0000 0.0000 0.0000
# 2 15.9065 81.0021 8.2652 0.0000 0.0000 0.0000
# 3 27.1036 8.2652 118.3273 0.0000 0.0000 0.0000
# 4 0.0000 0.0000 0.0000 20.5246 0.0000 0.0000
# 5 0.0000 0.0000 0.0000 0.0000 31.9149 0.0000
# 6 0.0000 0.0000 0.0000 0.0000 0.0000 28.6234
#
#
#
# Elastic Compliance Matrix: (Units=1/GPa)
#
#
# Indices 1 2 3 4 5 6 
#
# 1 0.021293 -0.003710 -0.004618 0.000000 0.000000 0.000000
# 2 -0.003710 0.013080 -0.000064 0.000000 0.000000 0.000000
# 3 -0.004618 -0.000064 0.009513 0.000000 0.000000 0.000000
# 4 0.000000 0.000000 0.000000 0.048722 0.000000 0.000000
# 5 0.000000 0.000000 0.000000 0.000000 0.031333 0.000000
# 6 0.000000 0.000000 0.000000 0.000000 0.000000 0.034936
#
#
# Mechanical properties :
#
#
# Convention : Reuss Voigt Hill
#
# Bulk Modulus (GPa) = 36.89663 39.72146 38.30904
# Shear Modulus (GPa) = 27.07125 29.79038 28.43082
#
# Velocity S-wave (km/s) = 3.65550 3.83469 3.74617
# Velocity P-wave (km/s) = 6.00246 6.26207 6.13364
#
# Compressibility (1/GPa) = 0.02710275
#
# Stress axis : x y z
#
# Youngs Moduli (GPa) = 46.96311 76.45004 105.11463
#
# Poissons Ratio (x) = 0.28364 0.48544
# Poissons Ratio (y) = 0.17424 0.00671
# Poissons Ratio (z) = 0.21689 0.00488
#
# Static dielectric constant tensor:
#      x y z
#    x 3.561960 0.000000 0.000000 
#    y 0.000000 3.603750 0.000000 
#    z 0.000000 0.000000 3.779550 
# 
# 
# High freq. dielectric constant tensor:
#      x y z
#    x 1.782920 0.000000 0.000000 
#    y 0.000000 1.788400 0.000000 
#    z 0.000000 0.000000 1.797610 
# 
# From -- ./inp_files/7229.got.cif
#   From: 2010.03.12/outbox.cif.g09.slc.cpg/sg61_4_cif.got.tgz:7229.got - 2010.04.10 19:05:03.
