data_PCOD8248394
_publ_section_title
;
Structure prediction by ZEFSAII (Michael W. Deem and Ramdas Pophale) SiO2 
 PCOD8248394
Probable space group: P B C N
;
_chemical_formula_sum "Si O2"
_cell_formula_units_Z 64
_cell_length_a 19.531596
_cell_length_b 17.210756
_cell_length_c 9.400635
_cell_angle_alpha 90.000000
_cell_angle_beta 90.000000
_cell_angle_gamma 90.000000
_cell_volume 3160.056668
_symmetry_space_group_name_H-M "P B C N"
_symmetry_group_IT_number 60
_symmetry_cell_setting 'orthorhombic'
loop_
_space_group_symop_operation_xyz
x,y,z
1/2-x,1/2-y,1/2+z
1/2+x,1/2-y,-z
-x,y,1/2-z
-x,-y,-z
1/2+x,1/2+y,1/2-z
1/2-x,1/2+y,z
x,-y,1/2+z
loop_
_atom_site_type_symbol
_atom_site_label
_atom_site_fract_x
_atom_site_fract_y
_atom_site_fract_z
Si Si1 0.728324 0.679546 0.901058
Si Si2 0.222561 0.911842 0.816613
Si Si3 0.051588 0.717551 0.460106
Si Si4 0.957598 0.447619 0.393872
Si Si5 0.595415 0.776089 0.857770
Si Si6 0.841173 0.566765 0.401358
Si Si7 0.337676 0.685699 0.088948
Si Si8 0.270774 0.420280 0.370954
O O1 0.651087 0.711184 0.895027
O O2 0.778642 0.750516 0.929257
O O3 0.749883 0.636364 0.757046
O O4 0.735975 0.616871 0.024801
O O5 0.293334 0.909681 0.730224
O O6 0.166982 0.854808 0.743227
O O7 0.194545 0.000151 0.815008
O O8 0.055886 0.634379 0.533731
O O9 0.092227 0.713755 0.311915
O O10 0.087674 0.777784 0.567721
O O11 0.975797 0.749612 0.429393
O O12 0.884846 0.489848 0.364346
O O13 0.000000 0.436395 0.250000
O O14 0.000000 0.500000 0.500000
O O15 0.610033 0.859640 0.928081
O O16 0.797550 0.554437 0.544479
O O17 0.326354 0.620366 0.970129
#
# Coordination Sequence:
#
# PCOD8248394 Si02
#       8
#     8   8   8   8   8   8   8   8
#     4  12  22  41  70  95 130 175 229 283 347 406
#     4  11  25  40  64  96 133 171 222 294 338 407
#     4  11  25  42  67  97 141 182 226 278 344 411
#     4  12  27  43  63  96 146 194 223 263 333 429
#     4  11  22  42  68  96 134 179 222 286 343 408
#     4  11  24  40  62  97 139 176 225 267 338 408
#     4  11  23  41  64  96 131 170 230 282 339 402
#     4  11  24  42  65  96 131 175 221 285 345 399
#
# _framework density 20.252801999999999
#
# number of rings (size 3 to 8) (size 9 to 14) (size 15 to 20)
#    0.000    0.750    5.000    3.750    7.000    1.000 
#    0.000    0.000    0.000    4.500    0.000    0.000 
#    0.000    0.000    0.000    0.000    0.000    0.000 
#
# Total GULP energy -793865.419164 kJ/mol
# GULP energy per Si atom -12404.147174 kJ/mol
# Density = 2.020671 g / cm^3
# Si number density = 20.252802 Si / 1000 Ang^3
#
#
#
# Elastic Constant Matrix: (Units=GPa)
#
#
# Indices 1 2 3 4 5 6 
#
# 1 104.8055 45.8709 35.7491 0.0000 0.0000 0.0000
# 2 45.8709 99.5853 14.8246 0.0000 0.0000 0.0000
# 3 35.7491 14.8246 81.3482 0.0000 0.0000 0.0000
# 4 0.0000 0.0000 0.0000 44.1099 0.0000 0.0000
# 5 0.0000 0.0000 0.0000 0.0000 29.0454 0.0000
# 6 0.0000 0.0000 0.0000 0.0000 0.0000 26.2221
#
#
#
# Elastic Compliance Matrix: (Units=1/GPa)
#
#
# Indices 1 2 3 4 5 6 
#
# 1 0.013678 -0.005556 -0.004998 0.000000 0.000000 0.000000
# 2 -0.005556 0.012579 0.000150 0.000000 0.000000 0.000000
# 3 -0.004998 0.000150 0.014462 0.000000 0.000000 0.000000
# 4 0.000000 0.000000 0.000000 0.022671 0.000000 0.000000
# 5 0.000000 0.000000 0.000000 0.000000 0.034429 0.000000
# 6 0.000000 0.000000 0.000000 0.000000 0.000000 0.038136
#
#
# Mechanical properties :
#
#
# Convention : Reuss Voigt Hill
#
# Bulk Modulus (GPa) = 50.22968 53.18092 51.70530
# Shear Modulus (GPa) = 30.59944 32.49511 31.54728
#
# Velocity S-wave (km/s) = 3.89121 4.00994 3.95102
# Velocity P-wave (km/s) = 6.71148 6.91050 6.81171
#
# Compressibility (1/GPa) = 0.01990855
#
# Stress axis : x y z
#
# Youngs Moduli (GPa) = 73.10801 79.49891 69.14572
#
# Poissons Ratio (x) = 0.44173 0.34562
# Poissons Ratio (y) = 0.40622 -0.01034
# Poissons Ratio (z) = 0.36543 -0.01189
#
# Static dielectric constant tensor:
#      x y z
#    x 3.488720 0.000000 0.000000 
#    y 0.000000 4.333650 0.000000 
#    z 0.000000 0.000000 3.834380 
# 
# 
# High freq. dielectric constant tensor:
#      x y z
#    x 1.772020 0.000000 0.000000 
#    y 0.000000 1.798100 0.000000 
#    z 0.000000 0.000000 1.804380 
# 
# From -- ./inp_files/7570.got.cif
#   From: 2010.03.12/outbox.cif.g09.slc.cpg/sg60_4_cif.got.tgz:7570.got - 2010.04.10 18:46:24.
