data_PCOD8248281
_publ_section_title
;
Structure prediction by ZEFSAII (Michael W. Deem and Ramdas Pophale) SiO2 
 PCOD8248281
Probable space group: P B C N
;
_chemical_formula_sum "Si O2"
_cell_formula_units_Z 32
_cell_length_a 7.380735
_cell_length_b 9.651712
_cell_length_c 19.646808
_cell_angle_alpha 90.000000
_cell_angle_beta 90.000000
_cell_angle_gamma 90.000000
_cell_volume 1399.574329
_symmetry_space_group_name_H-M "P B C N"
_symmetry_group_IT_number 60
_symmetry_cell_setting 'orthorhombic'
loop_
_space_group_symop_operation_xyz
x,y,z
1/2-x,1/2-y,1/2+z
1/2+x,1/2-y,-z
-x,y,1/2-z
-x,-y,-z
1/2+x,1/2+y,1/2-z
1/2-x,1/2+y,z
x,-y,1/2+z
loop_
_atom_site_type_symbol
_atom_site_label
_atom_site_fract_x
_atom_site_fract_y
_atom_site_fract_z
Si Si1 0.339222 0.450809 0.550897
Si Si2 0.719852 0.750457 0.608875
Si Si3 0.441484 0.502371 0.326374
Si Si4 0.045870 0.664694 0.518295
O O1 0.500000 0.500000 0.500000
O O2 0.380655 0.505316 0.626509
O O3 0.142870 0.513779 0.529648
O O4 0.330836 0.284061 0.553686
O O5 0.662427 0.643386 0.667357
O O6 0.549297 0.803550 0.563495
O O7 0.848809 0.672125 0.553388
O O8 0.813225 0.875505 0.647617
O O9 0.500000 0.530847 0.250000
#
# Coordination Sequence:
#
# PCOD8248281 Si02
#       4
#     8   8   8   8
#     4  11  21  40  61  98 129 168 220 276 315 381
#     4  11  22  41  67  98 129 176 220 275 331 384
#     4  11  25  43  62  93 140 169 215 272 329 403
#     4  11  20  38  68  96 126 164 226 273 322 373
#
# _framework density 22.864094000000001
#
# number of rings (size 3 to 8) (size 9 to 14) (size 15 to 20)
#    0.000    1.000    7.500    0.000    0.000   10.000 
#    0.000    1.250    0.000    0.000    0.000    0.000 
#    0.000    0.000    0.000    0.000    0.000    0.000 
#
# Total GULP energy -396725.492281 kJ/mol
# GULP energy per Si atom -12397.671634 kJ/mol
# Density = 2.281205 g / cm^3
# Si number density = 22.864094 Si / 1000 Ang^3
#
#
#
# Elastic Constant Matrix: (Units=GPa)
#
#
# Indices 1 2 3 4 5 6 
#
# 1 84.4199 -3.3451 26.7818 0.0000 0.0000 0.0000
# 2 -3.3451 110.9788 12.1527 0.0000 0.0000 0.0000
# 3 26.7818 12.1527 158.1413 0.0000 0.0000 0.0000
# 4 0.0000 0.0000 0.0000 31.6105 0.0000 0.0000
# 5 0.0000 0.0000 0.0000 0.0000 34.0149 0.0000
# 6 0.0000 0.0000 0.0000 0.0000 0.0000 32.9067
#
#
#
# Elastic Compliance Matrix: (Units=1/GPa)
#
#
# Indices 1 2 3 4 5 6 
#
# 1 0.012560 0.000617 -0.002174 0.000000 0.000000 0.000000
# 2 0.000617 0.009117 -0.000805 0.000000 0.000000 0.000000
# 3 -0.002174 -0.000805 0.006754 0.000000 0.000000 0.000000
# 4 0.000000 0.000000 0.000000 0.031635 0.000000 0.000000
# 5 0.000000 0.000000 0.000000 0.000000 0.029399 0.000000
# 6 0.000000 0.000000 0.000000 0.000000 0.000000 0.030389
#
#
# Mechanical properties :
#
#
# Convention : Reuss Voigt Hill
#
# Bulk Modulus (GPa) = 42.18486 47.19098 44.68792
# Shear Modulus (GPa) = 37.74121 40.90313 39.32217
#
# Velocity S-wave (km/s) = 4.06726 4.23421 4.15157
# Velocity P-wave (km/s) = 6.36766 6.67752 6.52443
#
# Compressibility (1/GPa) = 0.02370518
#
# Stress axis : x y z
#
# Youngs Moduli (GPa) = 79.61903 109.67948 148.06969
#
# Poissons Ratio (x) = -0.06764 0.32197
# Poissons Ratio (y) = -0.04910 0.11921
# Poissons Ratio (z) = 0.17313 0.08830
#
# Static dielectric constant tensor:
#      x y z
#    x 4.200100 0.000000 0.000000 
#    y 0.000000 4.695280 0.000000 
#    z 0.000000 0.000000 4.036940 
# 
# 
# High freq. dielectric constant tensor:
#      x y z
#    x 1.907160 0.000000 0.000000 
#    y 0.000000 1.943660 0.000000 
#    z 0.000000 0.000000 1.869390 
# 
# From -- ./inp_files/18947.got.cif
#   From: 2010.03.12/outbox.cif.g09.slc.cpg/sg60_10_cif.got.tgz:18947.got - 2010.04.10 18:46:24.
