data_PCOD8248923
_publ_section_title
;
Structure prediction by ZEFSAII (Michael W. Deem and Ramdas Pophale) SiO2 
 PCOD8248923
Probable space group: P B C A
;
_chemical_formula_sum "Si O2"
_cell_formula_units_Z 56
_cell_length_a 13.676865
_cell_length_b 9.072019
_cell_length_c 20.308110
_cell_angle_alpha 90.000000
_cell_angle_beta 90.000000
_cell_angle_gamma 90.000000
_cell_volume 2519.764879
_symmetry_space_group_name_H-M "P B C A"
_symmetry_group_IT_number 61
_symmetry_cell_setting 'orthorhombic'
loop_
_space_group_symop_operation_xyz
x,y,z
1/2-x,-y,1/2+z
1/2+x,1/2-y,-z
-x,1/2+y,1/2-z
-x,-y,-z
1/2+x,y,1/2-z
1/2-x,1/2+y,z
x,1/2-y,1/2+z
loop_
_atom_site_type_symbol
_atom_site_label
_atom_site_fract_x
_atom_site_fract_y
_atom_site_fract_z
Si Si1 0.052339 0.247607 0.173823
Si Si2 0.278869 0.196272 0.650275
Si Si3 0.702039 0.309922 0.527217
Si Si4 0.946100 0.414585 0.284849
Si Si5 0.471136 0.665056 0.922171
Si Si6 0.577157 0.667691 0.052879
Si Si7 0.741878 0.559500 0.438257
O O1 0.163006 0.296504 0.160778
O O2 0.006399 0.369869 0.221301
O O3 0.988956 0.249642 0.107153
O O4 0.049886 0.090094 0.209626
O O5 0.334583 0.151685 0.718101
O O6 0.318694 0.350314 0.617980
O O7 0.307422 0.064069 0.598714
O O8 0.618921 0.281526 0.581208
O O9 0.808417 0.292359 0.560461
O O10 0.681332 0.470681 0.494026
O O11 0.687723 0.182486 0.471145
O O12 0.983328 0.332020 0.350307
O O13 0.428647 0.506161 0.939467
O O14 0.545363 0.717542 0.979605
#
# Coordination Sequence:
#
# PCOD8248923 Si02
#       7
#     8   8   8   8   8   8   8
#     4  11  26  46  69  97 133 179 223 271 332 400
#     4  11  22  43  66  98 126 180 220 272 322 402
#     4  11  20  37  60 104 132 170 210 286 334 386
#     4  11  26  46  69  97 133 179 223 271 332 400
#     4  10  21  40  66  93 129 171 216 268 331 389
#     4  10  21  40  66  93 129 171 216 268 331 389
#     4  10  20  34  66  94 134 168 218 260 334 392
#
# _framework density 22.224295999999999
#
# number of rings (size 3 to 8) (size 9 to 14) (size 15 to 20)
#    0.000    1.429    2.857    3.429    6.000    1.143 
#    2.571    5.000    0.000    0.000    0.000    0.000 
#    0.000    0.000    0.000    0.000    0.000    0.000 
#
# Total GULP energy -694000.747101 kJ/mol
# GULP energy per Si atom -12392.870484 kJ/mol
# Density = 2.217371 g / cm^3
# Si number density = 22.224296 Si / 1000 Ang^3
#
#
#
# Elastic Constant Matrix: (Units=GPa)
#
#
# Indices 1 2 3 4 5 6 
#
# 1 99.4984 9.2815 21.8566 0.0000 0.0000 0.0000
# 2 9.2815 88.0853 16.7588 0.0000 0.0000 0.0000
# 3 21.8566 16.7588 73.2260 0.0000 0.0000 0.0000
# 4 0.0000 0.0000 0.0000 35.0144 0.0000 0.0000
# 5 0.0000 0.0000 0.0000 0.0000 24.8318 0.0000
# 6 0.0000 0.0000 0.0000 0.0000 0.0000 23.8232
#
#
#
# Elastic Compliance Matrix: (Units=1/GPa)
#
#
# Indices 1 2 3 4 5 6 
#
# 1 0.010781 -0.000548 -0.003093 0.000000 0.000000 0.000000
# 2 -0.000548 0.011897 -0.002559 0.000000 0.000000 0.000000
# 3 -0.003093 -0.002559 0.015165 0.000000 0.000000 0.000000
# 4 0.000000 0.000000 0.000000 0.028560 0.000000 0.000000
# 5 0.000000 0.000000 0.000000 0.000000 0.040271 0.000000
# 6 0.000000 0.000000 0.000000 0.000000 0.000000 0.041976
#
#
# Mechanical properties :
#
#
# Convention : Reuss Voigt Hill
#
# Bulk Modulus (GPa) = 39.30173 39.62261 39.46217
# Shear Modulus (GPa) = 29.49327 30.92808 30.21067
#
# Velocity S-wave (km/s) = 3.64685 3.73451 3.69094
# Velocity P-wave (km/s) = 5.95443 6.03843 5.99658
#
# Compressibility (1/GPa) = 0.02544417
#
# Stress axis : x y z
#
# Youngs Moduli (GPa) = 92.75728 84.05290 65.94051
#
# Poissons Ratio (x) = 0.04603 0.20392
# Poissons Ratio (y) = 0.05079 0.16877
# Poissons Ratio (z) = 0.28686 0.21513
#
# Static dielectric constant tensor:
#      x y z
#    x 3.955700 0.000000 0.000000 
#    y 0.000000 4.155260 0.000000 
#    z 0.000000 0.000000 3.842170 
# 
# 
# High freq. dielectric constant tensor:
#      x y z
#    x 1.872210 0.000000 0.000000 
#    y 0.000000 1.882550 0.000000 
#    z 0.000000 0.000000 1.848130 
# 
# From -- ./inp_files/10447.got.cif
#   From: 2010.03.12/outbox.cif.g09.slc.cpg/sg61_6_cif.got.tgz:10447.got - 2010.04.10 19:05:03.
