data_PCOD8248084
_publ_section_title
;
Structure prediction by ZEFSAII (Michael W. Deem and Ramdas Pophale) SiO2 
 PCOD8248084
Probable space group: P B C N
;
_chemical_formula_sum "Si O2"
_cell_formula_units_Z 44
_cell_length_a 11.144935
_cell_length_b 21.959541
_cell_length_c 9.167042
_cell_angle_alpha 90.000000
_cell_angle_beta 90.000000
_cell_angle_gamma 90.000000
_cell_volume 2243.520381
_symmetry_space_group_name_H-M "P B C N"
_symmetry_group_IT_number 60
_symmetry_cell_setting 'orthorhombic'
loop_
_space_group_symop_operation_xyz
x,y,z
1/2-x,1/2-y,1/2+z
1/2+x,1/2-y,-z
-x,y,1/2-z
-x,-y,-z
1/2+x,1/2+y,1/2-z
1/2-x,1/2+y,z
x,-y,1/2+z
loop_
_atom_site_type_symbol
_atom_site_label
_atom_site_fract_x
_atom_site_fract_y
_atom_site_fract_z
Si Si1 0.103989 0.807417 0.357614
Si Si2 0.000000 0.510375 0.750000
Si Si3 0.944853 0.765586 0.600378
Si Si4 0.675079 0.852975 0.994914
Si Si5 0.208686 0.323261 0.824513
Si Si6 0.939351 0.579707 0.008305
O O1 0.215013 0.854282 0.386894
O O2 0.151037 0.743139 0.295337
O O3 0.000000 0.833766 0.250000
O O4 0.052788 0.798027 0.518151
O O5 0.093656 0.550459 0.649851
O O6 0.076945 0.468228 0.860342
O O7 0.892637 0.711024 0.506708
O O8 0.843685 0.816910 0.619941
O O9 0.000000 0.739915 0.750000
O O10 0.714558 0.859626 0.826735
O O11 0.580901 0.906679 0.021081
O O12 0.134860 0.359845 0.949731
#
# Coordination Sequence:
#
# PCOD8248084 Si02
#       6
#     8   4   8   8   8   8
#     4  11  21  35  52  84 119 155 188 221 273 361
#     4  10  24  36  60  84 110 140 198 248 294 338
#     4  11  22  33  51  84 116 155 192 212 269 369
#     4  11  21  34  58  77 119 156 184 233 288 334
#     4  11  20  35  57  78 119 158 181 235 286 337
#     4  11  21  40  58  87 111 145 190 245 297 334
#
# _framework density 19.612034999999999
#
# number of rings (size 3 to 8) (size 9 to 14) (size 15 to 20)
#    0.000    1.091    7.273    0.000    1.273    1.455 
#    0.000    0.000    0.000    0.000    0.000   25.455 
#    0.000    0.000    0.000    0.000    0.000    0.000 
#
# Total GULP energy -545274.672740 kJ/mol
# GULP energy per Si atom -12392.606199 kJ/mol
# Density = 1.956740 g / cm^3
# Si number density = 19.612035 Si / 1000 Ang^3
#
#
#
# Elastic Constant Matrix: (Units=GPa)
#
#
# Indices 1 2 3 4 5 6 
#
# 1 81.9997 20.0581 16.6997 0.0000 0.0000 0.0000
# 2 20.0581 51.0012 19.2478 0.0000 0.0000 0.0000
# 3 16.6997 19.2478 102.9589 0.0000 0.0000 0.0000
# 4 0.0000 0.0000 0.0000 24.0056 0.0000 0.0000
# 5 0.0000 0.0000 0.0000 0.0000 33.7446 0.0000
# 6 0.0000 0.0000 0.0000 0.0000 0.0000 8.6306
#
#
#
# Elastic Compliance Matrix: (Units=1/GPa)
#
#
# Indices 1 2 3 4 5 6 
#
# 1 0.013654 -0.004878 -0.001303 0.000000 0.000000 0.000000
# 2 -0.004878 0.022839 -0.003478 0.000000 0.000000 0.000000
# 3 -0.001303 -0.003478 0.010574 0.000000 0.000000 0.000000
# 4 0.000000 0.000000 0.000000 0.041657 0.000000 0.000000
# 5 0.000000 0.000000 0.000000 0.000000 0.029634 0.000000
# 6 0.000000 0.000000 0.000000 0.000000 0.000000 0.115866
#
#
# Mechanical properties :
#
#
# Convention : Reuss Voigt Hill
#
# Bulk Modulus (GPa) = 36.03853 38.66346 37.35100
# Shear Modulus (GPa) = 19.02646 25.27312 22.14979
#
# Velocity S-wave (km/s) = 3.11809 3.59368 3.36430
# Velocity P-wave (km/s) = 5.60169 6.08081 5.84616
#
# Compressibility (1/GPa) = 0.02774808
#
# Stress axis : x y z
#
# Youngs Moduli (GPa) = 73.24009 43.78543 94.57013
#
# Poissons Ratio (x) = 0.21359 0.12319
# Poissons Ratio (y) = 0.35728 0.32895
# Poissons Ratio (z) = 0.09541 0.15230
#
# Static dielectric constant tensor:
#      x y z
#    x 3.628100 0.000000 0.000000 
#    y 0.000000 3.319990 0.000000 
#    z 0.000000 0.000000 3.702650 
# 
# 
# High freq. dielectric constant tensor:
#      x y z
#    x 1.747080 0.000000 0.000000 
#    y 0.000000 1.719940 0.000000 
#    z 0.000000 0.000000 1.786440 
# 
# From -- ./inp_files/4999.got.cif
#   From: 2010.03.12/outbox.cif.g09.slc.cpg/sg60_3_cif.got.tgz:4999.got - 2010.04.10 18:46:24.
