data_PCOD8248453
_publ_section_title
;
Structure prediction by ZEFSAII (Michael W. Deem and Ramdas Pophale) SiO2 
 PCOD8248453
Probable space group: P B C N
;
_chemical_formula_sum "Si O2"
_cell_formula_units_Z 32
_cell_length_a 8.566108
_cell_length_b 9.941772
_cell_length_c 16.793043
_cell_angle_alpha 90.000000
_cell_angle_beta 90.000000
_cell_angle_gamma 90.000000
_cell_volume 1430.134043
_symmetry_space_group_name_H-M "P B C N"
_symmetry_group_IT_number 60
_symmetry_cell_setting 'orthorhombic'
loop_
_space_group_symop_operation_xyz
x,y,z
1/2-x,1/2-y,1/2+z
1/2+x,1/2-y,-z
-x,y,1/2-z
-x,-y,-z
1/2+x,1/2+y,1/2-z
1/2-x,1/2+y,z
x,-y,1/2+z
loop_
_atom_site_type_symbol
_atom_site_label
_atom_site_fract_x
_atom_site_fract_y
_atom_site_fract_z
Si Si1 0.890833 0.405537 0.913493
Si Si2 0.398272 0.144332 0.906232
Si Si3 0.455985 0.570491 0.083259
Si Si4 0.930674 0.171553 0.665009
O O1 0.718549 0.429110 0.881000
O O2 0.995488 0.522857 0.872256
O O3 0.972060 0.262388 0.897204
O O4 0.851667 0.415400 0.007841
O O5 0.499513 0.275285 0.919731
O O6 0.255461 0.188343 0.848644
O O7 0.545432 0.486404 0.150479
O O8 0.500000 0.500000 0.000000
O O9 0.000000 0.215375 0.750000
#
# Coordination Sequence:
#
# PCOD8248453 Si02
#       4
#     8   8   8   8
#     4  11  23  42  71 103 136 186 240 291 349 426
#     4  11  23  42  73 102 138 187 240 288 349 430
#     4  12  23  41  71 104 137 182 241 292 347 422
#     4  12  27  45  67 104 149 188 233 299 362 413
#
# _framework density 22.375526000000001
#
# number of rings (size 3 to 8) (size 9 to 14) (size 15 to 20)
#    0.000    0.500    5.000    3.000    3.500    4.000 
#    0.000    3.750    0.000    0.000    0.000    0.000 
#    0.000    0.000    0.000    0.000    0.000    0.000 
#
# Total GULP energy -396452.912948 kJ/mol
# GULP energy per Si atom -12389.153530 kJ/mol
# Density = 2.232460 g / cm^3
# Si number density = 22.375526 Si / 1000 Ang^3
#
#
#
# Elastic Constant Matrix: (Units=GPa)
#
#
# Indices 1 2 3 4 5 6 
#
# 1 149.3960 27.3760 42.3693 0.0000 0.0000 0.0000
# 2 27.3760 116.5011 15.8797 0.0000 0.0000 0.0000
# 3 42.3693 15.8797 68.7622 0.0000 0.0000 0.0000
# 4 0.0000 0.0000 0.0000 16.6555 0.0000 0.0000
# 5 0.0000 0.0000 0.0000 0.0000 26.7734 0.0000
# 6 0.0000 0.0000 0.0000 0.0000 0.0000 45.9441
#
#
#
# Elastic Compliance Matrix: (Units=1/GPa)
#
#
# Indices 1 2 3 4 5 6 
#
# 1 0.008296 -0.001293 -0.004813 0.000000 0.000000 0.000000
# 2 -0.001293 0.009064 -0.001296 0.000000 0.000000 0.000000
# 3 -0.004813 -0.001296 0.017808 0.000000 0.000000 0.000000
# 4 0.000000 0.000000 0.000000 0.060040 0.000000 0.000000
# 5 0.000000 0.000000 0.000000 0.000000 0.037350 0.000000
# 6 0.000000 0.000000 0.000000 0.000000 0.000000 0.021766
#
#
# Mechanical properties :
#
#
# Convention : Reuss Voigt Hill
#
# Bulk Modulus (GPa) = 49.10970 56.21215 52.66092
# Shear Modulus (GPa) = 28.42262 34.47690 31.44976
#
# Velocity S-wave (km/s) = 3.56793 3.92960 3.75312
# Velocity P-wave (km/s) = 6.24252 6.76504 6.50902
#
# Compressibility (1/GPa) = 0.02036258
#
# Stress axis : x y z
#
# Youngs Moduli (GPa) = 120.54667 110.32394 56.15524
#
# Poissons Ratio (x) = 0.14268 0.27026
# Poissons Ratio (y) = 0.15590 0.07280
# Poissons Ratio (z) = 0.58017 0.14302
#
# Static dielectric constant tensor:
#      x y z
#    x 4.301190 0.000000 0.000000 
#    y 0.000000 4.120040 0.000000 
#    z 0.000000 0.000000 3.848100 
# 
# 
# High freq. dielectric constant tensor:
#      x y z
#    x 1.895940 0.000000 0.000000 
#    y 0.000000 1.898900 0.000000 
#    z 0.000000 0.000000 1.842550 
# 
# From -- ./inp_files/18945.got.cif
#   From: 2010.03.12/outbox.cif.g09.slc.cpg/sg60_10_cif.got.tgz:18945.got - 2010.04.10 18:46:24.
