data_PCOD8248921
_publ_section_title
;
Structure prediction by ZEFSAII (Michael W. Deem and Ramdas Pophale) SiO2 
 PCOD8248921
Probable space group: P B C A
;
_chemical_formula_sum "Si O2"
_cell_formula_units_Z 56
_cell_length_a 17.141866
_cell_length_b 18.430198
_cell_length_c 8.577556
_cell_angle_alpha 90.000000
_cell_angle_beta 90.000000
_cell_angle_gamma 90.000000
_cell_volume 2709.889979
_symmetry_space_group_name_H-M "P B C A"
_symmetry_group_IT_number 61
_symmetry_cell_setting 'orthorhombic'
loop_
_space_group_symop_operation_xyz
x,y,z
1/2-x,-y,1/2+z
1/2+x,1/2-y,-z
-x,1/2+y,1/2-z
-x,-y,-z
1/2+x,y,1/2-z
1/2-x,1/2+y,z
x,1/2-y,1/2+z
loop_
_atom_site_type_symbol
_atom_site_label
_atom_site_fract_x
_atom_site_fract_y
_atom_site_fract_z
Si Si1 0.575900 0.573467 0.140952
Si Si2 0.642272 0.147802 0.738819
Si Si3 0.457469 0.847096 0.821859
Si Si4 0.609760 0.236458 0.462521
Si Si5 0.483792 0.426215 0.186509
Si Si6 0.210780 0.996323 0.699459
Si Si7 0.362895 0.990236 0.866705
O O1 0.544127 0.626966 0.276509
O O2 0.528791 0.499108 0.146043
O O3 0.665749 0.558527 0.183668
O O4 0.563747 0.603805 0.965050
O O5 0.663201 0.190553 0.580393
O O6 0.662431 0.202080 0.880373
O O7 0.548284 0.131797 0.742460
O O8 0.696263 0.078474 0.747270
O O9 0.422664 0.821672 0.657456
O O10 0.407232 0.914120 0.892876
O O11 0.458367 0.779954 0.941900
O O12 0.423073 0.444865 0.325254
O O13 0.183156 0.986040 0.521938
O O14 0.302423 0.980626 0.722272
#
# Coordination Sequence:
#
# PCOD8248921 Si02
#       7
#     8   8   8   8   8   8   8
#     4   9  18  33  56  82 110 137 175 229 275 319
#     4  10  20  36  59  86 110 142 188 227 283 328
#     4  10  20  36  59  86 110 142 188 227 283 328
#     4  10  20  34  58  84 112 146 184 230 264 346
#     4   9  18  33  56  82 110 137 175 229 275 319
#     4  11  23  36  57  83 113 147 187 237 283 330
#     4  11  23  36  57  83 113 147 187 237 283 330
#
# _framework density 20.665044999999999
#
# number of rings (size 3 to 8) (size 9 to 14) (size 15 to 20)
#    0.000    2.000    2.857    0.857    6.000    1.714 
#    0.000    0.000    0.000   10.286    0.000    0.000 
#    0.000    0.000    0.000    0.000    0.000    0.000 
#
# Total GULP energy -694043.364372 kJ/mol
# GULP energy per Si atom -12393.631507 kJ/mol
# Density = 2.061801 g / cm^3
# Si number density = 20.665045 Si / 1000 Ang^3
#
#
#
# Elastic Constant Matrix: (Units=GPa)
#
#
# Indices 1 2 3 4 5 6 
#
# 1 49.9090 -0.6546 -2.3738 0.0000 0.0000 0.0000
# 2 -0.6546 37.9876 2.5155 0.0000 0.0000 0.0000
# 3 -2.3738 2.5155 78.1204 0.0000 0.0000 0.0000
# 4 0.0000 0.0000 0.0000 38.5278 0.0000 0.0000
# 5 0.0000 0.0000 0.0000 0.0000 25.1099 0.0000
# 6 0.0000 0.0000 0.0000 0.0000 0.0000 11.4778
#
#
#
# Elastic Compliance Matrix: (Units=1/GPa)
#
#
# Indices 1 2 3 4 5 6 
#
# 1 0.020069 0.000306 0.000600 0.000000 0.000000 0.000000
# 2 0.000306 0.026385 -0.000840 0.000000 0.000000 0.000000
# 3 0.000600 -0.000840 0.012846 0.000000 0.000000 0.000000
# 4 0.000000 0.000000 0.000000 0.025955 0.000000 0.000000
# 5 0.000000 0.000000 0.000000 0.000000 0.039825 0.000000
# 6 0.000000 0.000000 0.000000 0.000000 0.000000 0.087124
#
#
# Mechanical properties :
#
#
# Convention : Reuss Voigt Hill
#
# Bulk Modulus (GPa) = 16.82599 18.33235 17.57917
# Shear Modulus (GPa) = 21.56249 26.12510 23.84380
#
# Velocity S-wave (km/s) = 3.23372 3.55944 3.40048
# Velocity P-wave (km/s) = 4.70133 5.07772 4.89315
#
# Compressibility (1/GPa) = 0.05943188
#
# Stress axis : x y z
#
# Youngs Moduli (GPa) = 49.82808 37.89991 77.84495
#
# Poissons Ratio (x) = -0.01160 -0.04670
# Poissons Ratio (y) = -0.01525 0.06541
# Poissons Ratio (z) = -0.02990 0.03185
#
# Static dielectric constant tensor:
#      x y z
#    x 3.452690 0.000000 0.000000 
#    y 0.000000 3.744320 0.000000 
#    z 0.000000 0.000000 4.001620 
# 
# 
# High freq. dielectric constant tensor:
#      x y z
#    x 1.759940 0.000000 0.000000 
#    y 0.000000 1.796790 0.000000 
#    z 0.000000 0.000000 1.830270 
# 
# From -- ./inp_files/3657.got.cif
#   From: 2010.03.12/outbox.cif.g09.slc.cpg/sg61_2_cif.got.tgz:3657.got - 2010.04.10 19:05:03.
