data_PCOD8248659
_publ_section_title
;
Structure prediction by ZEFSAII (Michael W. Deem and Ramdas Pophale) SiO2 
 PCOD8248659
Probable space group: P B C N
;
_chemical_formula_sum "Si O2"
_cell_formula_units_Z 24
_cell_length_a 9.037227
_cell_length_b 12.188540
_cell_length_c 8.189907
_cell_angle_alpha 90.000000
_cell_angle_beta 90.000000
_cell_angle_gamma 90.000000
_cell_volume 902.123193
_symmetry_space_group_name_H-M "P B C N"
_symmetry_group_IT_number 60
_symmetry_cell_setting 'orthorhombic'
loop_
_space_group_symop_operation_xyz
x,y,z
1/2-x,1/2-y,1/2+z
1/2+x,1/2-y,-z
-x,y,1/2-z
-x,-y,-z
1/2+x,1/2+y,1/2-z
1/2-x,1/2+y,z
x,-y,1/2+z
loop_
_atom_site_type_symbol
_atom_site_label
_atom_site_fract_x
_atom_site_fract_y
_atom_site_fract_z
Si Si1 0.142348 0.746403 0.136870
Si Si2 0.392293 0.064336 0.887049
Si Si3 0.347562 0.383510 0.839091
O O1 0.282619 0.729255 0.256244
O O2 0.000000 0.728158 0.250000
O O3 0.174670 0.658569 0.996995
O O4 0.134030 0.861307 0.035775
O O5 0.500000 0.114987 0.750000
O O6 0.262299 0.986707 0.814265
O O7 0.500000 0.000000 0.000000
O O8 0.500000 0.414515 0.750000
#
# Coordination Sequence:
#
# PCOD8248659 Si02
#       3
#     8   8   8
#     4  12  26  50  75 107 149 200 245 302 385 454
#     4  12  24  50  78 103 148 204 247 293 382 461
#     4  12  27  44  74 114 147 189 255 317 368 437
#
# _framework density 26.603905000000001
#
# number of rings (size 3 to 8) (size 9 to 14) (size 15 to 20)
#    0.000    0.000    6.667    3.000    4.667    1.333 
#    0.000    5.000    0.000    0.000    0.000    0.000 
#    0.000    0.000    0.000    0.000    0.000    0.000 
#
# Total GULP energy -297367.320631 kJ/mol
# GULP energy per Si atom -12390.305026 kJ/mol
# Density = 2.654335 g / cm^3
# Si number density = 26.603905 Si / 1000 Ang^3
#
#
#
# Elastic Constant Matrix: (Units=GPa)
#
#
# Indices 1 2 3 4 5 6 
#
# 1 190.2511 36.4407 64.2410 0.0000 0.0000 0.0000
# 2 36.4407 48.3267 38.0861 0.0000 0.0000 0.0000
# 3 64.2410 38.0861 146.0687 0.0000 0.0000 0.0000
# 4 0.0000 0.0000 0.0000 53.8258 0.0000 0.0000
# 5 0.0000 0.0000 0.0000 0.0000 57.2844 0.0000
# 6 0.0000 0.0000 0.0000 0.0000 0.0000 33.0498
#
#
#
# Elastic Compliance Matrix: (Units=1/GPa)
#
#
# Indices 1 2 3 4 5 6 
#
# 1 0.006583 -0.003376 -0.002015 0.000000 0.000000 0.000000
# 2 -0.003376 0.027776 -0.005757 0.000000 0.000000 0.000000
# 3 -0.002015 -0.005757 0.009234 0.000000 0.000000 0.000000
# 4 0.000000 0.000000 0.000000 0.018578 0.000000 0.000000
# 5 0.000000 0.000000 0.000000 0.000000 0.017457 0.000000
# 6 0.000000 0.000000 0.000000 0.000000 0.000000 0.030257
#
#
# Mechanical properties :
#
#
# Convention : Reuss Voigt Hill
#
# Bulk Modulus (GPa) = 46.95868 73.57578 60.26723
# Shear Modulus (GPa) = 35.89874 45.22389 40.56131
#
# Velocity S-wave (km/s) = 3.67737 4.12745 3.90890
# Velocity P-wave (km/s) = 5.97663 7.10145 6.56318
#
# Compressibility (1/GPa) = 0.02129532
#
# Stress axis : x y z
#
# Youngs Moduli (GPa) = 151.90025 36.00273 108.30107
#
# Poissons Ratio (x) = 0.12155 0.21823
# Poissons Ratio (y) = 0.51282 0.62354
# Poissons Ratio (z) = 0.30609 0.20728
#
# Static dielectric constant tensor:
#      x y z
#    x 4.487270 0.000000 0.000000 
#    y 0.000000 3.589090 0.000000 
#    z 0.000000 0.000000 5.443780 
# 
# 
# High freq. dielectric constant tensor:
#      x y z
#    x 2.068890 0.000000 0.000000 
#    y 0.000000 2.056160 0.000000 
#    z 0.000000 0.000000 2.103980 
# 
# From -- ./inp_files/3306.got.cif
#   From: 2010.03.12/outbox.cif.g09.slc.cpg/sg60_2_cif.got.tgz:3306.got - 2010.04.10 18:46:24.
