data_PCOD8248605
_publ_section_title
;
Structure prediction by ZEFSAII (Michael W. Deem and Ramdas Pophale) SiO2 
 PCOD8248605
Probable space group: P B C N
;
_chemical_formula_sum "Si O2"
_cell_formula_units_Z 48
_cell_length_a 4.983256
_cell_length_b 22.002168
_cell_length_c 21.442311
_cell_angle_alpha 90.000000
_cell_angle_beta 90.000000
_cell_angle_gamma 90.000000
_cell_volume 2350.987205
_symmetry_space_group_name_H-M "P B C N"
_symmetry_group_IT_number 60
_symmetry_cell_setting 'orthorhombic'
loop_
_space_group_symop_operation_xyz
x,y,z
1/2-x,1/2-y,1/2+z
1/2+x,1/2-y,-z
-x,y,1/2-z
-x,-y,-z
1/2+x,1/2+y,1/2-z
1/2-x,1/2+y,z
x,-y,1/2+z
loop_
_atom_site_type_symbol
_atom_site_label
_atom_site_fract_x
_atom_site_fract_y
_atom_site_fract_z
Si Si1 0.249644 0.989672 0.044130
Si Si2 0.867668 0.292450 0.121286
Si Si3 0.500000 0.849779 0.750000
Si Si4 0.500000 0.261365 0.750000
Si Si5 0.377060 0.664612 0.430484
Si Si6 0.122094 0.397177 0.619891
Si Si7 0.124346 0.144810 0.569968
O O1 0.221894 0.924447 0.076843
O O2 0.265330 0.036684 0.101740
O O3 0.500000 0.000000 0.000000
O O4 0.000000 0.000000 0.000000
O O5 0.966355 0.283960 0.191868
O O6 0.765173 0.229808 0.090523
O O7 0.620255 0.340163 0.117307
O O8 0.120012 0.313789 0.081741
O O9 0.251017 0.805318 0.748377
O O10 0.509967 0.894214 0.809665
O O11 0.630295 0.649588 0.386445
O O12 0.483065 0.660450 0.500948
O O13 0.127614 0.618344 0.425151
#
# Coordination Sequence:
#
# PCOD8248605 Si02
#       7
#     8   8   4   4   8   8   8
#     4  12  23  43  66  93 133 176 221 270 329 404
#     4  12  24  41  63  98 133 175 221 270 337 404
#     4  12  22  42  67  96 129 168 226 278 330 388
#     4  12  24  44  67  90 135 178 220 270 330 412
#     4  12  22  40  65 100 136 165 213 285 334 396
#     4  12  22  40  68  99 128 170 224 276 333 385
#     4  12  24  40  64  97 139 174 214 269 342 408
#
# _framework density 20.416955999999999
#
# number of rings (size 3 to 8) (size 9 to 14) (size 15 to 20)
#    0.000    0.000    6.667    5.000    0.000    0.000 
#    0.000    0.833    0.000    4.000    0.000    0.000 
#    0.000    0.000    0.000    0.000    0.000    0.000 
#
# Total GULP energy -595382.232968 kJ/mol
# GULP energy per Si atom -12403.796520 kJ/mol
# Density = 2.037049 g / cm^3
# Si number density = 20.416956 Si / 1000 Ang^3
#
#
#
# Elastic Constant Matrix: (Units=GPa)
#
#
# Indices 1 2 3 4 5 6 
#
# 1 142.5917 40.5181 41.0093 0.0000 0.0000 0.0000
# 2 40.5181 112.4422 73.4040 0.0000 0.0000 0.0000
# 3 41.0093 73.4040 114.1965 0.0000 0.0000 0.0000
# 4 0.0000 0.0000 0.0000 33.9187 0.0000 0.0000
# 5 0.0000 0.0000 0.0000 0.0000 35.1387 0.0000
# 6 0.0000 0.0000 0.0000 0.0000 0.0000 36.4412
#
#
#
# Elastic Compliance Matrix: (Units=1/GPa)
#
#
# Indices 1 2 3 4 5 6 
#
# 1 0.008013 -0.001738 -0.001760 0.000000 0.000000 0.000000
# 2 -0.001738 0.015701 -0.009468 0.000000 0.000000 0.000000
# 3 -0.001760 -0.009468 0.015475 0.000000 0.000000 0.000000
# 4 0.000000 0.000000 0.000000 0.029482 0.000000 0.000000
# 5 0.000000 0.000000 0.000000 0.000000 0.028459 0.000000
# 6 0.000000 0.000000 0.000000 0.000000 0.000000 0.027441
#
#
# Mechanical properties :
#
#
# Convention : Reuss Voigt Hill
#
# Bulk Modulus (GPa) = 75.43969 75.45481 75.44725
# Shear Modulus (GPa) = 32.27418 35.38635 33.83026
#
# Velocity S-wave (km/s) = 3.98018 4.16767 4.07500
# Velocity P-wave (km/s) = 7.62576 7.75864 7.69249
#
# Compressibility (1/GPa) = 0.01325562
#
# Stress axis : x y z
#
# Youngs Moduli (GPa) = 124.79326 63.69151 64.62129
#
# Poissons Ratio (x) = 0.11073 0.11375
# Poissons Ratio (y) = 0.21695 0.61183
# Poissons Ratio (z) = 0.21966 0.60302
#
# Static dielectric constant tensor:
#      x y z
#    x 3.804560 0.000000 0.000000 
#    y 0.000000 4.094700 0.000000 
#    z 0.000000 0.000000 4.984560 
# 
# 
# High freq. dielectric constant tensor:
#      x y z
#    x 1.822540 0.000000 0.000000 
#    y 0.000000 1.790610 0.000000 
#    z 0.000000 0.000000 1.790540 
# 
# From -- ./inp_files/21637.got.cif
#   From: 2010.03.12/outbox.cif.g09.slc.cpg/sg60_11_cif.got.tgz:21637.got - 2010.04.10 18:46:24.
