data_PCOD8248942
_publ_section_title
;
Structure prediction by ZEFSAII (Michael W. Deem and Ramdas Pophale) SiO2 
 PCOD8248942
Probable space group: P B C A
;
_chemical_formula_sum "Si O2"
_cell_formula_units_Z 64
_cell_length_a 20.304274
_cell_length_b 4.939727
_cell_length_c 28.528086
_cell_angle_alpha 90.000000
_cell_angle_beta 90.000000
_cell_angle_gamma 90.000000
_cell_volume 2861.297717
_symmetry_space_group_name_H-M "P B C A"
_symmetry_group_IT_number 61
_symmetry_cell_setting 'orthorhombic'
loop_
_space_group_symop_operation_xyz
x,y,z
1/2-x,-y,1/2+z
1/2+x,1/2-y,-z
-x,1/2+y,1/2-z
-x,-y,-z
1/2+x,y,1/2-z
1/2-x,1/2+y,z
x,1/2-y,1/2+z
loop_
_atom_site_type_symbol
_atom_site_label
_atom_site_fract_x
_atom_site_fract_y
_atom_site_fract_z
Si Si1 0.707545 0.234751 0.962039
Si Si2 0.484751 0.414455 0.688384
Si Si3 0.420046 0.592806 0.228270
Si Si4 0.575058 0.017552 0.452318
Si Si5 0.793120 0.669561 0.626898
Si Si6 0.119024 0.290873 0.455170
Si Si7 0.497900 0.482249 0.581595
Si Si8 0.791530 0.825334 0.234108
O O1 0.769643 0.430258 0.950522
O O2 0.645106 0.358335 0.933343
O O3 0.685402 0.206787 0.016692
O O4 0.549499 0.378703 0.719906
O O5 0.458240 0.717239 0.692271
O O6 0.505435 0.384455 0.634897
O O7 0.427649 0.207073 0.706372
O O8 0.345917 0.701919 0.231360
O O9 0.576177 0.017377 0.509639
O O10 0.520162 0.206522 0.427820
O O11 0.560477 0.707442 0.439445
O O12 0.732184 0.471382 0.616575
O O13 0.854888 0.584656 0.593848
O O14 0.817030 0.672378 0.680627
O O15 0.068764 0.049300 0.443022
O O16 0.727273 0.637442 0.243642
#
# Coordination Sequence:
#
# PCOD8248942 Si02
#       8
#     8   8   8   8   8   8   8   8
#     4  10  21  37  58  81 106 150 194 232 281 331
#     4  10  22  36  66  81 121 148 191 245 280 354
#     4  10  20  40  58  94 111 154 191 226 301 354
#     4  10  25  36  62  79 121 151 197 236 279 341
#     4  10  21  35  54  88 121 151 190 230 289 351
#     4  10  23  35  62  82 122 154 189 243 278 361
#     4  12  22  42  55  92 114 154 193 242 298 322
#     4  10  20  35  59  87 120 150 181 234 286 352
#
# _framework density 22.367474000000001
#
# number of rings (size 3 to 8) (size 9 to 14) (size 15 to 20)
#    0.750    1.000    0.000    4.500    0.000    3.000 
#    0.000    5.000    0.000   15.000    0.000    0.000 
#    0.000    0.000    0.000    0.000    0.000    0.000 
#
# Total GULP energy -792868.160984 kJ/mol
# GULP energy per Si atom -12388.565015 kJ/mol
# Density = 2.231656 g / cm^3
# Si number density = 22.367474 Si / 1000 Ang^3
#
#
#
# Elastic Constant Matrix: (Units=GPa)
#
#
# Indices 1 2 3 4 5 6 
#
# 1 52.0790 -0.4358 -3.8062 0.0000 0.0000 0.0000
# 2 -0.4358 70.0981 9.5208 0.0000 0.0000 0.0000
# 3 -3.8062 9.5208 36.7056 0.0000 0.0000 0.0000
# 4 0.0000 0.0000 0.0000 11.0726 0.0000 0.0000
# 5 0.0000 0.0000 0.0000 0.0000 20.9162 0.0000
# 6 0.0000 0.0000 0.0000 0.0000 0.0000 11.1163
#
#
#
# Elastic Compliance Matrix: (Units=1/GPa)
#
#
# Indices 1 2 3 4 5 6 
#
# 1 0.019350 -0.000158 0.002047 0.000000 0.000000 0.000000
# 2 -0.000158 0.014788 -0.003852 0.000000 0.000000 0.000000
# 3 0.002047 -0.003852 0.028455 0.000000 0.000000 0.000000
# 4 0.000000 0.000000 0.000000 0.090313 0.000000 0.000000
# 5 0.000000 0.000000 0.000000 0.000000 0.047810 0.000000
# 6 0.000000 0.000000 0.000000 0.000000 0.000000 0.089958
#
#
# Mechanical properties :
#
#
# Convention : Reuss Voigt Hill
#
# Bulk Modulus (GPa) = 17.04503 18.82672 17.93588
# Shear Modulus (GPa) = 15.91570 18.86128 17.38849
#
# Velocity S-wave (km/s) = 2.67039 2.90702 2.79122
# Velocity P-wave (km/s) = 4.14065 4.43880 4.29232
#
# Compressibility (1/GPa) = 0.05866814
#
# Stress axis : x y z
#
# Youngs Moduli (GPa) = 51.67985 67.62272 35.14287
#
# Poissons Ratio (x) = 0.01067 -0.07195
# Poissons Ratio (y) = 0.00815 0.13537
# Poissons Ratio (z) = -0.10581 0.26049
#
# Static dielectric constant tensor:
#      x y z
#    x 3.867420 0.000000 0.000000 
#    y 0.000000 3.843930 0.000000 
#    z 0.000000 0.000000 3.791730 
# 
# 
# High freq. dielectric constant tensor:
#      x y z
#    x 1.876920 0.000000 0.000000 
#    y 0.000000 1.880560 0.000000 
#    z 0.000000 0.000000 1.855020 
# 
# From -- ./inp_files/11855.got.cif
#   From: 2010.03.12/outbox.cif.g09.slc.cpg/sg61_6_cif.got.tgz:11855.got - 2010.04.10 19:05:03.
