data_PCOD8248309
_publ_section_title
;
Structure prediction by ZEFSAII (Michael W. Deem and Ramdas Pophale) SiO2 
 PCOD8248309
Probable space group: P B C N
;
_chemical_formula_sum "Si O2"
_cell_formula_units_Z 48
_cell_length_a 13.845651
_cell_length_b 13.890256
_cell_length_c 12.184220
_cell_angle_alpha 90.000000
_cell_angle_beta 90.000000
_cell_angle_gamma 90.000000
_cell_volume 2343.264766
_symmetry_space_group_name_H-M "P B C N"
_symmetry_group_IT_number 60
_symmetry_cell_setting 'orthorhombic'
loop_
_space_group_symop_operation_xyz
x,y,z
1/2-x,1/2-y,1/2+z
1/2+x,1/2-y,-z
-x,y,1/2-z
-x,-y,-z
1/2+x,1/2+y,1/2-z
1/2-x,1/2+y,z
x,-y,1/2+z
loop_
_atom_site_type_symbol
_atom_site_label
_atom_site_fract_x
_atom_site_fract_y
_atom_site_fract_z
Si Si1 0.115328 0.332815 0.868410
Si Si2 0.927586 0.935088 0.424834
Si Si3 0.784224 0.170568 0.493959
Si Si4 0.101608 0.900402 0.717528
Si Si5 0.090260 0.280028 0.621867
Si Si6 0.227061 0.968138 0.912477
O O1 0.129945 0.292673 0.745120
O O2 0.162086 0.437699 0.892377
O O3 0.002517 0.348341 0.895951
O O4 0.170231 0.262038 0.949858
O O5 0.957128 0.825379 0.401777
O O6 0.819063 0.931265 0.473818
O O7 0.923120 0.988739 0.309510
O O8 0.000000 0.000000 0.500000
O O9 0.848102 0.150020 0.386044
O O10 0.673648 0.191776 0.462239
O O11 0.782970 0.083885 0.583446
O O12 0.170588 0.907323 0.820713
O O13 0.000000 0.847501 0.750000
#
# Coordination Sequence:
#
# PCOD8248309 Si02
#       6
#     8   8   8   8   8   8
#     4  11  24  41  64  93 128 168 216 261 326 394
#     4  11  21  36  62  93 122 162 210 267 327 371
#     4  11  24  41  65  92 129 170 214 268 325 383
#     4  11  22  36  61  94 126 161 210 267 328 378
#     4  11  23  41  64  91 129 170 211 262 326 391
#     4  11  22  39  60  90 125 164 212 264 311 389
#
# _framework density 20.484241000000001
#
# number of rings (size 3 to 8) (size 9 to 14) (size 15 to 20)
#    0.000    1.000    5.000    3.000    2.333    0.667 
#    0.000    0.000    0.000    0.000    0.000    0.000 
#    0.000    0.000    0.000    0.000    0.000    0.000 
#
# Total GULP energy -594766.544867 kJ/mol
# GULP energy per Si atom -12390.969685 kJ/mol
# Density = 2.043762 g / cm^3
# Si number density = 20.484241 Si / 1000 Ang^3
#
#
#
# Elastic Constant Matrix: (Units=GPa)
#
#
# Indices 1 2 3 4 5 6 
#
# 1 130.2970 18.7367 34.8054 0.0000 0.0000 0.0000
# 2 18.7367 48.9545 11.2078 0.0000 0.0000 0.0000
# 3 34.8054 11.2078 73.8472 0.0000 0.0000 0.0000
# 4 0.0000 0.0000 0.0000 26.5827 0.0000 0.0000
# 5 0.0000 0.0000 0.0000 0.0000 36.2033 0.0000
# 6 0.0000 0.0000 0.0000 0.0000 0.0000 32.9894
#
#
#
# Elastic Compliance Matrix: (Units=1/GPa)
#
#
# Indices 1 2 3 4 5 6 
#
# 1 0.009086 -0.002587 -0.003890 0.000000 0.000000 0.000000
# 2 -0.002587 0.021899 -0.002104 0.000000 0.000000 0.000000
# 3 -0.003890 -0.002104 0.015694 0.000000 0.000000 0.000000
# 4 0.000000 0.000000 0.000000 0.037618 0.000000 0.000000
# 5 0.000000 0.000000 0.000000 0.000000 0.027622 0.000000
# 6 0.000000 0.000000 0.000000 0.000000 0.000000 0.030313
#
#
# Mechanical properties :
#
#
# Convention : Reuss Voigt Hill
#
# Bulk Modulus (GPa) = 33.87875 42.51094 38.19484
# Shear Modulus (GPa) = 29.54509 31.71167 30.62838
#
# Velocity S-wave (km/s) = 3.80193 3.93886 3.87100
# Velocity P-wave (km/s) = 5.98729 6.44082 6.21820
#
# Compressibility (1/GPa) = 0.02951703
#
# Stress axis : x y z
#
# Youngs Moduli (GPa) = 110.06188 45.66412 63.71815
#
# Poissons Ratio (x) = 0.11813 0.24784
# Poissons Ratio (y) = 0.28473 0.13408
# Poissons Ratio (z) = 0.42810 0.09609
#
# Static dielectric constant tensor:
#      x y z
#    x 4.028960 0.000000 0.000000 
#    y 0.000000 3.646180 0.000000 
#    z 0.000000 0.000000 3.776690 
# 
# 
# High freq. dielectric constant tensor:
#      x y z
#    x 1.814680 0.000000 0.000000 
#    y 0.000000 1.776700 0.000000 
#    z 0.000000 0.000000 1.804740 
# 
# From -- ./inp_files/11897.got.cif
#   From: 2010.03.12/outbox.cif.g09.slc.cpg/sg60_6_cif.got.tgz:11897.got - 2010.04.10 18:46:24.
