data_PCOD8248523
_publ_section_title
;
Structure prediction by ZEFSAII (Michael W. Deem and Ramdas Pophale) SiO2 
 PCOD8248523
Probable space group: P B C N
;
_chemical_formula_sum "Si O2"
_cell_formula_units_Z 60
_cell_length_a 11.161909
_cell_length_b 21.050092
_cell_length_c 11.851984
_cell_angle_alpha 90.000000
_cell_angle_beta 90.000000
_cell_angle_gamma 90.000000
_cell_volume 2784.732814
_symmetry_space_group_name_H-M "P B C N"
_symmetry_group_IT_number 60
_symmetry_cell_setting 'orthorhombic'
loop_
_space_group_symop_operation_xyz
x,y,z
1/2-x,1/2-y,1/2+z
1/2+x,1/2-y,-z
-x,y,1/2-z
-x,-y,-z
1/2+x,1/2+y,1/2-z
1/2-x,1/2+y,z
x,-y,1/2+z
loop_
_atom_site_type_symbol
_atom_site_label
_atom_site_fract_x
_atom_site_fract_y
_atom_site_fract_z
Si Si1 0.709827 0.824602 0.741904
Si Si2 0.500000 0.508862 0.250000
Si Si3 0.686417 0.575416 0.866590
Si Si4 0.865577 0.817325 0.210129
Si Si5 0.055797 0.438017 0.858319
Si Si6 0.831022 0.862958 0.964056
Si Si7 0.328132 0.023859 0.022901
Si Si8 0.404596 0.615022 0.394659
O O1 0.664401 0.753428 0.744998
O O2 0.610563 0.870457 0.682874
O O3 0.731920 0.839763 0.873928
O O4 0.832957 0.830500 0.672595
O O5 0.431111 0.464350 0.163258
O O6 0.403906 0.550749 0.320105
O O7 0.716593 0.630815 0.775868
O O8 0.799107 0.527298 0.877635
O O9 0.660021 0.607429 0.986540
O O10 0.000000 0.833283 0.250000
O O11 0.841773 0.820928 0.076454
O O12 0.000000 0.472488 0.750000
O O13 0.946467 0.433745 0.949632
O O14 0.157459 0.483509 0.908040
O O15 0.958944 0.862889 0.904586
O O16 0.788813 0.933384 0.999493
#
# Coordination Sequence:
#
# PCOD8248523 Si02
#       8
#     8   4   8   8   8   8   8   8
#     4  12  26  48  72 100 142 201 241 287 354 436
#     4  12  22  38  70 110 146 168 224 296 372 426
#     4  12  24  42  70 106 145 179 228 303 364 415
#     4  12  29  45  70 103 146 191 243 290 352 434
#     4  11  24  45  67 101 144 190 241 283 354 426
#     4  12  25  45  74 108 139 183 241 303 371 421
#     4  11  25  41  74 107 143 183 236 298 363 427
#     4  12  23  43  72 106 138 181 235 305 364 422
#
# _framework density 21.546052
#
# number of rings (size 3 to 8) (size 9 to 14) (size 15 to 20)
#    0.000    0.267    7.333    0.800    5.600    0.000 
#    0.000    0.000    5.867    0.000    0.000    0.000 
#    0.000    0.000    0.000    0.000    0.000    0.000 
#
# Total GULP energy -743804.331043 kJ/mol
# GULP energy per Si atom -12396.738851 kJ/mol
# Density = 2.149701 g / cm^3
# Si number density = 21.546052 Si / 1000 Ang^3
#
#
#
# Elastic Constant Matrix: (Units=GPa)
#
#
# Indices 1 2 3 4 5 6 
#
# 1 88.5505 43.8380 27.1070 0.0000 0.0000 0.0000
# 2 43.8380 114.6345 43.1418 0.0000 0.0000 0.0000
# 3 27.1070 43.1418 110.0350 0.0000 0.0000 0.0000
# 4 0.0000 0.0000 0.0000 20.7688 0.0000 0.0000
# 5 0.0000 0.0000 0.0000 0.0000 39.4121 0.0000
# 6 0.0000 0.0000 0.0000 0.0000 0.0000 18.3614
#
#
#
# Elastic Compliance Matrix: (Units=1/GPa)
#
#
# Indices 1 2 3 4 5 6 
#
# 1 0.014167 -0.004815 -0.001602 0.000000 0.000000 0.000000
# 2 -0.004815 0.011870 -0.003468 0.000000 0.000000 0.000000
# 3 -0.001602 -0.003468 0.010842 0.000000 0.000000 0.000000
# 4 0.000000 0.000000 0.000000 0.048149 0.000000 0.000000
# 5 0.000000 0.000000 0.000000 0.000000 0.025373 0.000000
# 6 0.000000 0.000000 0.000000 0.000000 0.000000 0.054462
#
#
# Mechanical properties :
#
#
# Convention : Reuss Voigt Hill
#
# Bulk Modulus (GPa) = 58.44655 60.15484 59.30070
# Shear Modulus (GPa) = 26.26937 28.98401 27.62669
#
# Velocity S-wave (km/s) = 3.49552 3.67169 3.58469
# Velocity P-wave (km/s) = 6.59369 6.77900 6.68699
#
# Compressibility (1/GPa) = 0.01710965
#
# Stress axis : x y z
#
# Youngs Moduli (GPa) = 70.58634 84.24881 92.23106
#
# Poissons Ratio (x) = 0.40563 0.14779
# Poissons Ratio (y) = 0.33985 0.31983
# Poissons Ratio (z) = 0.11310 0.29215
#
# Static dielectric constant tensor:
#      x y z
#    x 4.127490 0.000000 0.000000 
#    y 0.000000 3.738880 0.000000 
#    z 0.000000 0.000000 4.136450 
# 
# 
# High freq. dielectric constant tensor:
#      x y z
#    x 1.848280 0.000000 0.000000 
#    y 0.000000 1.824890 0.000000 
#    z 0.000000 0.000000 1.861280 
# 
# From -- ./inp_files/11262.got.cif
#   From: 2010.03.12/outbox.cif.g09.slc.cpg/sg60_6_cif.got.tgz:11262.got - 2010.04.10 18:46:24.
