data_PCOD8248288
_publ_section_title
;
Structure prediction by ZEFSAII (Michael W. Deem and Ramdas Pophale) SiO2 
 PCOD8248288
Probable space group: P B C N
;
_chemical_formula_sum "Si O2"
_cell_formula_units_Z 56
_cell_length_a 16.994611
_cell_length_b 15.302776
_cell_length_c 9.945723
_cell_angle_alpha 90.000000
_cell_angle_beta 90.000000
_cell_angle_gamma 90.000000
_cell_volume 2586.531720
_symmetry_space_group_name_H-M "P B C N"
_symmetry_group_IT_number 60
_symmetry_cell_setting 'orthorhombic'
loop_
_space_group_symop_operation_xyz
x,y,z
1/2-x,1/2-y,1/2+z
1/2+x,1/2-y,-z
-x,y,1/2-z
-x,-y,-z
1/2+x,1/2+y,1/2-z
1/2-x,1/2+y,z
x,-y,1/2+z
loop_
_atom_site_type_symbol
_atom_site_label
_atom_site_fract_x
_atom_site_fract_y
_atom_site_fract_z
Si Si1 0.843458 0.063772 0.149077
Si Si2 0.407587 0.138564 0.765754
Si Si3 0.205670 0.656915 0.001469
Si Si4 0.325759 0.661607 0.609592
Si Si5 0.788221 0.505032 0.808397
Si Si6 0.077060 0.184777 0.156808
Si Si7 0.624282 0.626675 0.615658
O O1 0.752425 0.034914 0.173336
O O2 0.867150 0.106309 0.292526
O O3 0.892858 0.977038 0.114308
O O4 0.861851 0.135534 0.035144
O O5 0.500000 0.126247 0.750000
O O6 0.382718 0.220161 0.670643
O O7 0.372580 0.045396 0.724251
O O8 0.373904 0.163455 0.912800
O O9 0.211086 0.741848 0.097508
O O10 0.198016 0.569346 0.084868
O O11 0.284416 0.652072 0.912412
O O12 0.263713 0.584787 0.636232
O O13 0.390047 0.662289 0.731771
O O14 0.000000 0.181782 0.250000
O O15 0.065923 0.168792 0.996105
#
# Coordination Sequence:
#
# PCOD8248288 Si02
#       7
#     8   8   8   8   8   8   8
#     4  11  20  40  66  96 133 171 225 278 336 394
#     4  11  24  44  66  92 137 182 219 274 351 411
#     4  12  22  39  66  98 126 177 231 280 331 404
#     4  11  22  36  64  97 133 163 225 290 323 385
#     4  11  22  40  65 103 129 172 228 286 330 399
#     4  11  24  44  68  95 136 183 219 268 353 418
#     4  11  22  39  61 103 130 169 230 281 337 396
#
# _framework density 21.650614000000001
#
# number of rings (size 3 to 8) (size 9 to 14) (size 15 to 20)
#    0.000    0.857    7.143    1.714    2.000    1.143 
#    2.571    0.714    0.000    0.000    0.000    0.000 
#    0.000    0.000    0.000    0.000    0.000    0.000 
#
# Total GULP energy -693896.690069 kJ/mol
# GULP energy per Si atom -12391.012323 kJ/mol
# Density = 2.160134 g / cm^3
# Si number density = 21.650614 Si / 1000 Ang^3
#
#
#
# Elastic Constant Matrix: (Units=GPa)
#
#
# Indices 1 2 3 4 5 6 
#
# 1 57.9672 13.7383 10.5135 0.0000 0.0000 0.0000
# 2 13.7383 128.7829 39.0912 0.0000 0.0000 0.0000
# 3 10.5135 39.0912 108.1665 0.0000 0.0000 0.0000
# 4 0.0000 0.0000 0.0000 29.1678 0.0000 0.0000
# 5 0.0000 0.0000 0.0000 0.0000 33.0129 0.0000
# 6 0.0000 0.0000 0.0000 0.0000 0.0000 23.0777
#
#
#
# Elastic Compliance Matrix: (Units=1/GPa)
#
#
# Indices 1 2 3 4 5 6 
#
# 1 0.017830 -0.001546 -0.001174 0.000000 0.000000 0.000000
# 2 -0.001546 0.008856 -0.003050 0.000000 0.000000 0.000000
# 3 -0.001174 -0.003050 0.010462 0.000000 0.000000 0.000000
# 4 0.000000 0.000000 0.000000 0.034284 0.000000 0.000000
# 5 0.000000 0.000000 0.000000 0.000000 0.030291 0.000000
# 6 0.000000 0.000000 0.000000 0.000000 0.000000 0.043332
#
#
# Mechanical properties :
#
#
# Convention : Reuss Voigt Hill
#
# Bulk Modulus (GPa) = 39.05170 46.84473 42.94821
# Shear Modulus (GPa) = 30.27890 32.48993 31.38441
#
# Velocity S-wave (km/s) = 3.74374 3.87802 3.81147
# Velocity P-wave (km/s) = 6.06332 6.46032 6.26496
#
# Compressibility (1/GPa) = 0.02560708
#
# Stress axis : x y z
#
# Youngs Moduli (GPa) = 56.08375 112.92079 95.58847
#
# Poissons Ratio (x) = 0.17453 0.11227
# Poissons Ratio (y) = 0.08668 0.29157
# Poissons Ratio (z) = 0.06587 0.34443
#
# Static dielectric constant tensor:
#      x y z
#    x 3.497260 0.000000 0.000000 
#    y 0.000000 4.289190 0.000000 
#    z 0.000000 0.000000 4.224860 
# 
# 
# High freq. dielectric constant tensor:
#      x y z
#    x 1.806640 0.000000 0.000000 
#    y 0.000000 1.868540 0.000000 
#    z 0.000000 0.000000 1.861020 
# 
# From -- ./inp_files/7431.got.cif
#   From: 2010.03.12/outbox.cif.g09.slc.cpg/sg60_4_cif.got.tgz:7431.got - 2010.04.10 18:46:24.
