data_PCOD8248043
_publ_section_title
;
Structure prediction by ZEFSAII (Michael W. Deem and Ramdas Pophale) SiO2 
 PCOD8248043
Probable space group: P B C N
;
_chemical_formula_sum "Si O2"
_cell_formula_units_Z 56
_cell_length_a 28.019216
_cell_length_b 5.111353
_cell_length_c 15.242432
_cell_angle_alpha 90.000000
_cell_angle_beta 90.000000
_cell_angle_gamma 90.000000
_cell_volume 2182.961723
_symmetry_space_group_name_H-M "P B C N"
_symmetry_group_IT_number 60
_symmetry_cell_setting 'orthorhombic'
loop_
_space_group_symop_operation_xyz
x,y,z
1/2-x,1/2-y,1/2+z
1/2+x,1/2-y,-z
-x,y,1/2-z
-x,-y,-z
1/2+x,1/2+y,1/2-z
1/2-x,1/2+y,z
x,-y,1/2+z
loop_
_atom_site_type_symbol
_atom_site_label
_atom_site_fract_x
_atom_site_fract_y
_atom_site_fract_z
Si Si1 0.440218 0.507786 0.413686
Si Si2 0.780433 0.008080 0.958944
Si Si3 0.142262 0.666447 0.467911
Si Si4 0.603182 0.931647 0.352919
Si Si5 0.280041 0.528756 0.742682
Si Si6 0.142225 0.284844 0.322974
Si Si7 0.544809 0.411818 0.390027
O O1 0.409829 0.246219 0.432113
O O2 0.410625 0.699805 0.351483
O O3 0.489325 0.441047 0.363741
O O4 0.451700 0.647717 0.506029
O O5 0.738415 0.797840 0.980274
O O6 0.796691 0.990272 0.857755
O O7 0.825958 0.930254 0.018756
O O8 0.136668 0.519195 0.561674
O O9 0.165597 0.469026 0.397710
O O10 0.638032 0.939358 0.269020
O O11 0.575245 0.660675 0.361344
O O12 0.565416 0.162974 0.339396
O O13 0.262078 0.819952 0.762872
O O14 0.324213 0.468510 0.807368
#
# Coordination Sequence:
#
# PCOD8248043 Si02
#       7
#     8   8   8   8   8   8   8
#     4  10  25  44  71 104 137 189 235 297 343 426
#     4  10  23  44  71  99 134 186 230 282 358 426
#     4  11  25  45  70 104 141 179 239 286 356 416
#     4  11  25  46  72 101 140 194 223 298 345 419
#     4  10  24  45  69 100 142 183 229 291 350 415
#     4  12  26  44  72 108 141 183 245 285 356 423
#     4  10  24  48  72  96 147 184 237 285 364 402
#
# _framework density 25.653220000000001
#
# number of rings (size 3 to 8) (size 9 to 14) (size 15 to 20)
#    0.000    1.429    2.857    0.000    8.000    3.429 
#    0.000    0.000    0.000    0.000    0.000    0.000 
#    0.000    0.000    0.000    0.000    0.000    0.000 
#
# Total GULP energy -694752.368853 kJ/mol
# GULP energy per Si atom -12406.292301 kJ/mol
# Density = 2.559483 g / cm^3
# Si number density = 25.653220 Si / 1000 Ang^3
#
#
#
# Elastic Constant Matrix: (Units=GPa)
#
#
# Indices 1 2 3 4 5 6 
#
# 1 69.1974 -24.3246 16.9737 0.0000 0.0000 0.0000
# 2 -24.3246 55.3749 11.7234 0.0000 0.0000 0.0000
# 3 16.9737 11.7234 98.5212 0.0000 0.0000 0.0000
# 4 0.0000 0.0000 0.0000 24.6117 0.0000 0.0000
# 5 0.0000 0.0000 0.0000 0.0000 24.7719 0.0000
# 6 0.0000 0.0000 0.0000 0.0000 0.0000 36.1464
#
#
#
# Elastic Compliance Matrix: (Units=1/GPa)
#
#
# Indices 1 2 3 4 5 6 
#
# 1 0.018721 0.009137 -0.004313 0.000000 0.000000 0.000000
# 2 0.009137 0.022984 -0.004309 0.000000 0.000000 0.000000
# 3 -0.004313 -0.004309 0.011406 0.000000 0.000000 0.000000
# 4 0.000000 0.000000 0.000000 0.040631 0.000000 0.000000
# 5 0.000000 0.000000 0.000000 0.000000 0.040368 0.000000
# 6 0.000000 0.000000 0.000000 0.000000 0.000000 0.027665
#
#
# Mechanical properties :
#
#
# Convention : Reuss Voigt Hill
#
# Bulk Modulus (GPa) = 18.47025 25.75987 22.11506
# Shear Modulus (GPa) = 27.96528 31.68739 29.82634
#
# Velocity S-wave (km/s) = 3.30529 3.51838 3.41350
# Velocity P-wave (km/s) = 4.66714 5.15449 4.91686
#
# Compressibility (1/GPa) = 0.05414112
#
# Stress axis : x y z
#
# Youngs Moduli (GPa) = 53.41603 43.50769 87.67438
#
# Poissons Ratio (x) = -0.39751 0.37810
# Poissons Ratio (y) = -0.48804 0.37780
# Poissons Ratio (z) = 0.23036 0.18748
#
# Static dielectric constant tensor:
#      x y z
#    x 4.539710 0.000000 0.000000 
#    y 0.000000 4.335590 0.000000 
#    z 0.000000 0.000000 4.709990 
# 
# 
# High freq. dielectric constant tensor:
#      x y z
#    x 2.022750 0.000000 0.000000 
#    y 0.000000 2.019620 0.000000 
#    z 0.000000 0.000000 2.027460 
# 
# From -- ./inp_files/18166.got.cif
#   From: 2010.03.12/outbox.cif.g09.slc.cpg/sg60_10_cif.got.tgz:18166.got - 2010.04.10 18:46:24.
