data_PCOD8248623
_publ_section_title
;
Structure prediction by ZEFSAII (Michael W. Deem and Ramdas Pophale) SiO2 
 PCOD8248623
Probable space group: P B C N
;
_chemical_formula_sum "Si O2"
_cell_formula_units_Z 32
_cell_length_a 7.492361
_cell_length_b 9.597383
_cell_length_c 20.412946
_cell_angle_alpha 90.000000
_cell_angle_beta 90.000000
_cell_angle_gamma 90.000000
_cell_volume 1467.834894
_symmetry_space_group_name_H-M "P B C N"
_symmetry_group_IT_number 60
_symmetry_cell_setting 'orthorhombic'
loop_
_space_group_symop_operation_xyz
x,y,z
1/2-x,1/2-y,1/2+z
1/2+x,1/2-y,-z
-x,y,1/2-z
-x,-y,-z
1/2+x,1/2+y,1/2-z
1/2-x,1/2+y,z
x,-y,1/2+z
loop_
_atom_site_type_symbol
_atom_site_label
_atom_site_fract_x
_atom_site_fract_y
_atom_site_fract_z
Si Si1 0.149447 0.066361 0.631738
Si Si2 0.945368 0.240071 0.323164
Si Si3 0.304890 0.945364 0.989909
Si Si4 0.702257 0.316840 0.099412
O O1 0.297498 0.137814 0.678135
O O2 0.208754 0.095856 0.557069
O O3 0.964484 0.148314 0.647196
O O4 0.131764 0.900870 0.644136
O O5 0.000000 0.201120 0.250000
O O6 0.114643 0.303547 0.361044
O O7 0.331020 0.818499 0.941808
O O8 0.190202 0.058596 0.952317
O O9 0.500000 0.000000 0.000000
#
# Coordination Sequence:
#
# PCOD8248623 Si02
#       4
#     8   8   8   8
#     4  12  27  49  74 108 145 191 239 303 363 430
#     4  12  30  49  72 104 143 198 246 290 355 430
#     4  12  23  43  74 109 148 181 236 298 372 423
#     4  12  25  45  73 110 144 187 237 299 363 431
#
# _framework density 21.800819000000001
#
# number of rings (size 3 to 8) (size 9 to 14) (size 15 to 20)
#    0.000    0.000    5.000    5.250    3.500    0.000 
#    0.000    0.000    0.000    0.000    0.000    0.000 
#    0.000    0.000    0.000    0.000    0.000    0.000 
#
# Total GULP energy -396857.025781 kJ/mol
# GULP energy per Si atom -12401.782056 kJ/mol
# Density = 2.175120 g / cm^3
# Si number density = 21.800819 Si / 1000 Ang^3
#
#
#
# Elastic Constant Matrix: (Units=GPa)
#
#
# Indices 1 2 3 4 5 6 
#
# 1 153.0577 42.0311 17.3985 0.0000 0.0000 0.0000
# 2 42.0311 125.0840 16.8481 0.0000 0.0000 0.0000
# 3 17.3985 16.8481 67.8211 0.0000 0.0000 0.0000
# 4 0.0000 0.0000 0.0000 24.2086 0.0000 0.0000
# 5 0.0000 0.0000 0.0000 0.0000 21.6538 0.0000
# 6 0.0000 0.0000 0.0000 0.0000 0.0000 49.4963
#
#
#
# Elastic Compliance Matrix: (Units=1/GPa)
#
#
# Indices 1 2 3 4 5 6 
#
# 1 0.007308 -0.002279 -0.001309 0.000000 0.000000 0.000000
# 2 -0.002279 0.008982 -0.001647 0.000000 0.000000 0.000000
# 3 -0.001309 -0.001647 0.015489 0.000000 0.000000 0.000000
# 4 0.000000 0.000000 0.000000 0.041308 0.000000 0.000000
# 5 0.000000 0.000000 0.000000 0.000000 0.046181 0.000000
# 6 0.000000 0.000000 0.000000 0.000000 0.000000 0.020204
#
#
# Mechanical properties :
#
#
# Convention : Reuss Voigt Hill
#
# Bulk Modulus (GPa) = 46.92480 55.39093 51.15787
# Shear Modulus (GPa) = 31.83794 37.05073 34.44434
#
# Velocity S-wave (km/s) = 3.82567 4.12699 3.97918
# Velocity P-wave (km/s) = 6.40978 6.94062 6.68048
#
# Compressibility (1/GPa) = 0.02131069
#
# Stress axis : x y z
#
# Youngs Moduli (GPa) = 136.83274 111.32918 64.56015
#
# Poissons Ratio (x) = 0.25377 0.08448
# Poissons Ratio (y) = 0.31191 0.10631
# Poissons Ratio (z) = 0.17905 0.18332
#
# Static dielectric constant tensor:
#      x y z
#    x 4.304750 0.000000 0.000000 
#    y 0.000000 4.284280 0.000000 
#    z 0.000000 0.000000 4.234670 
# 
# 
# High freq. dielectric constant tensor:
#      x y z
#    x 1.883530 0.000000 0.000000 
#    y 0.000000 1.873090 0.000000 
#    z 0.000000 0.000000 1.842900 
# 
# From -- ./inp_files/21887.got.cif
#   From: 2010.03.12/outbox.cif.g09.slc.cpg/sg60_11_cif.got.tgz:21887.got - 2010.04.10 18:46:24.
