data_PCOD8248775
_publ_section_title
;
Structure prediction by ZEFSAII (Michael W. Deem and Ramdas Pophale) SiO2 
 PCOD8248775
Probable space group: P B C A
;
_chemical_formula_sum "Si O2"
_cell_formula_units_Z 56
_cell_length_a 20.385613
_cell_length_b 25.618308
_cell_length_c 5.112759
_cell_angle_alpha 90.000000
_cell_angle_beta 90.000000
_cell_angle_gamma 90.000000
_cell_volume 2670.112377
_symmetry_space_group_name_H-M "P B C A"
_symmetry_group_IT_number 61
_symmetry_cell_setting 'orthorhombic'
loop_
_space_group_symop_operation_xyz
x,y,z
1/2-x,-y,1/2+z
1/2+x,1/2-y,-z
-x,1/2+y,1/2-z
-x,-y,-z
1/2+x,y,1/2-z
1/2-x,1/2+y,z
x,1/2-y,1/2+z
loop_
_atom_site_type_symbol
_atom_site_label
_atom_site_fract_x
_atom_site_fract_y
_atom_site_fract_z
Si Si1 0.997390 0.222187 0.408698
Si Si2 0.842052 0.220399 0.449678
Si Si3 0.263093 0.531555 0.333177
Si Si4 0.980551 0.953961 0.224720
Si Si5 0.605753 0.995916 0.111970
Si Si6 0.487014 0.108855 0.243521
Si Si7 0.657130 0.896527 0.861875
O O1 0.026128 0.237766 0.691531
O O2 0.018498 0.164577 0.321931
O O3 0.919739 0.226147 0.436224
O O4 0.812012 0.253112 0.690313
O O5 0.822452 0.159409 0.481824
O O6 0.262321 0.511891 0.631328
O O7 0.341761 0.538259 0.276263
O O8 0.219508 0.583848 0.309393
O O9 0.005161 0.926206 0.489430
O O10 0.044127 0.993318 0.177009
O O11 0.916695 0.986331 0.316854
O O12 0.971953 0.913217 0.990352
O O13 0.641574 0.939359 0.087591
O O14 0.409030 0.112047 0.313504
#
# Coordination Sequence:
#
# PCOD8248775 Si02
#       7
#     8   8   8   8   8   8   8
#     4   9  16  27  44  67  94 121 155 203 250 292
#     4   9  18  30  46  70  97 124 157 195 243 298
#     4  10  20  33  50  73 100 130 163 199 241 290
#     4  10  20  32  48  70 102 137 165 200 240 295
#     4   9  20  34  50  73 102 133 169 201 241 294
#     4  10  19  31  48  72  99 130 164 198 249 299
#     4   9  19  33  52  74 102 131 159 203 250 290
#
# _framework density 20.972898000000001
#
# number of rings (size 3 to 8) (size 9 to 14) (size 15 to 20)
#    0.000    2.571    0.000    1.714    0.000   16.571 
#    0.000    0.000    0.000    0.000    0.000    6.000 
#    0.000    2.286    0.000    0.000    0.000    0.000 
#
# Total GULP energy -693816.008997 kJ/mol
# GULP energy per Si atom -12389.571589 kJ/mol
# Density = 2.092516 g / cm^3
# Si number density = 20.972898 Si / 1000 Ang^3
#
#
#
# Elastic Constant Matrix: (Units=GPa)
#
#
# Indices 1 2 3 4 5 6 
#
# 1 55.0884 24.7199 -0.6658 0.0000 0.0000 0.0000
# 2 24.7199 93.4850 -1.1454 0.0000 0.0000 0.0000
# 3 -0.6658 -1.1454 49.2480 0.0000 0.0000 0.0000
# 4 0.0000 0.0000 0.0000 20.3646 0.0000 0.0000
# 5 0.0000 0.0000 0.0000 0.0000 18.0062 0.0000
# 6 0.0000 0.0000 0.0000 0.0000 0.0000 17.9435
#
#
#
# Elastic Compliance Matrix: (Units=1/GPa)
#
#
# Indices 1 2 3 4 5 6 
#
# 1 0.020598 -0.005445 0.000152 0.000000 0.000000 0.000000
# 2 -0.005445 0.012139 0.000209 0.000000 0.000000 0.000000
# 3 0.000152 0.000209 0.020312 0.000000 0.000000 0.000000
# 4 0.000000 0.000000 0.000000 0.049105 0.000000 0.000000
# 5 0.000000 0.000000 0.000000 0.000000 0.055537 0.000000
# 6 0.000000 0.000000 0.000000 0.000000 0.000000 0.055731
#
#
# Mechanical properties :
#
#
# Convention : Reuss Voigt Hill
#
# Bulk Modulus (GPa) = 23.32042 27.07098 25.19570
# Shear Modulus (GPa) = 21.01874 22.92370 21.97122
#
# Velocity S-wave (km/s) = 3.16917 3.30966 3.24018
# Velocity P-wave (km/s) = 4.95327 5.24793 5.10273
#
# Compressibility (1/GPa) = 0.04288088
#
# Stress axis : x y z
#
# Youngs Moduli (GPa) = 48.54914 82.37783 49.23123
#
# Poissons Ratio (x) = 0.44852 -0.00748
# Poissons Ratio (y) = 0.26434 -0.01028
# Poissons Ratio (z) = -0.00737 -0.01719
#
# Static dielectric constant tensor:
#      x y z
#    x 3.791120 0.000000 0.000000 
#    y 0.000000 3.916930 0.000000 
#    z 0.000000 0.000000 3.893300 
# 
# 
# High freq. dielectric constant tensor:
#      x y z
#    x 1.768190 0.000000 0.000000 
#    y 0.000000 1.814470 0.000000 
#    z 0.000000 0.000000 1.828490 
# 
# From -- ./inp_files/1032.got.cif
#   From: 2010.03.12/outbox.cif.g09.slc.cpg/sg61_1_cif.got.tgz:1032.got - 2010.04.10 19:05:03.
