data_PCOD8248413
_publ_section_title
;
Structure prediction by ZEFSAII (Michael W. Deem and Ramdas Pophale) SiO2 
 PCOD8248413
Probable space group: P B C N
;
_chemical_formula_sum "Si O2"
_cell_formula_units_Z 44
_cell_length_a 12.454918
_cell_length_b 15.915957
_cell_length_c 9.703781
_cell_angle_alpha 90.000000
_cell_angle_beta 90.000000
_cell_angle_gamma 90.000000
_cell_volume 1923.599326
_symmetry_space_group_name_H-M "P B C N"
_symmetry_group_IT_number 60
_symmetry_cell_setting 'orthorhombic'
loop_
_space_group_symop_operation_xyz
x,y,z
1/2-x,1/2-y,1/2+z
1/2+x,1/2-y,-z
-x,y,1/2-z
-x,-y,-z
1/2+x,1/2+y,1/2-z
1/2-x,1/2+y,z
x,-y,1/2+z
loop_
_atom_site_type_symbol
_atom_site_label
_atom_site_fract_x
_atom_site_fract_y
_atom_site_fract_z
Si Si1 0.271968 0.667906 0.095489
Si Si2 0.297216 0.920031 0.339007
Si Si3 0.958044 0.252460 0.524801
Si Si4 0.661633 0.666123 0.870503
Si Si5 0.785692 0.609526 0.120771
Si Si6 0.500000 0.158738 0.750000
O O1 0.247608 0.760370 0.153772
O O2 0.265512 0.608662 0.227055
O O3 0.191701 0.636448 0.976688
O O4 0.388373 0.672621 0.024744
O O5 0.185216 0.900059 0.254868
O O6 0.394038 0.898528 0.234430
O O7 0.318650 0.013113 0.395897
O O8 0.044493 0.210674 0.629664
O O9 0.885353 0.324646 0.601641
O O10 0.015086 0.287726 0.388578
O O11 0.686851 0.624784 0.017517
#
# Coordination Sequence:
#
# PCOD8248413 Si02
#       6
#     8   8   8   8   8   4
#     4  11  23  41  67 100 136 183 232 287 347 423
#     4  12  25  43  68 103 147 177 228 304 361 414
#     4  11  24  43  74  99 134 190 246 286 343 440
#     4  11  22  46  69  98 139 189 240 282 351 432
#     4  11  25  44  68 105 142 181 231 299 364 412
#     4  12  22  42  68 102 136 178 234 292 354 406
#
# _framework density 22.873785000000002
#
# number of rings (size 3 to 8) (size 9 to 14) (size 15 to 20)
#    0.000    0.727    5.455    4.364    0.000    5.091 
#    0.000    5.455    0.000    0.000    0.000    0.000 
#    0.000    0.000    0.000    0.000    0.000    0.000 
#
# Total GULP energy -545176.562981 kJ/mol
# GULP energy per Si atom -12390.376431 kJ/mol
# Density = 2.282172 g / cm^3
# Si number density = 22.873785 Si / 1000 Ang^3
#
#
#
# Elastic Constant Matrix: (Units=GPa)
#
#
# Indices 1 2 3 4 5 6 
#
# 1 90.1974 46.1743 36.0992 0.0000 0.0000 0.0000
# 2 46.1743 90.6005 34.5991 0.0000 0.0000 0.0000
# 3 36.0992 34.5991 125.6020 0.0000 0.0000 0.0000
# 4 0.0000 0.0000 0.0000 35.0932 0.0000 0.0000
# 5 0.0000 0.0000 0.0000 0.0000 20.7513 0.0000
# 6 0.0000 0.0000 0.0000 0.0000 0.0000 24.6408
#
#
#
# Elastic Compliance Matrix: (Units=1/GPa)
#
#
# Indices 1 2 3 4 5 6 
#
# 1 0.015716 -0.007023 -0.002582 0.000000 0.000000 0.000000
# 2 -0.007023 0.015474 -0.002244 0.000000 0.000000 0.000000
# 3 -0.002582 -0.002244 0.009322 0.000000 0.000000 0.000000
# 4 0.000000 0.000000 0.000000 0.028496 0.000000 0.000000
# 5 0.000000 0.000000 0.000000 0.000000 0.048190 0.000000
# 6 0.000000 0.000000 0.000000 0.000000 0.000000 0.040583
#
#
# Mechanical properties :
#
#
# Convention : Reuss Voigt Hill
#
# Bulk Modulus (GPa) = 59.47940 60.01614 59.74777
# Shear Modulus (GPa) = 26.72613 28.73221 27.72917
#
# Velocity S-wave (km/s) = 3.42192 3.54802 3.48554
# Velocity P-wave (km/s) = 6.45542 6.56350 6.50969
#
# Compressibility (1/GPa) = 0.01681254
#
# Stress axis : x y z
#
# Youngs Moduli (GPa) = 63.63076 64.62521 107.27408
#
# Poissons Ratio (x) = 0.45389 0.27700
# Poissons Ratio (y) = 0.44690 0.24072
# Poissons Ratio (z) = 0.16430 0.14502
#
# Static dielectric constant tensor:
#      x y z
#    x 4.104980 0.000000 0.000000 
#    y 0.000000 3.958040 0.000000 
#    z 0.000000 0.000000 4.214900 
# 
# 
# High freq. dielectric constant tensor:
#      x y z
#    x 1.887330 0.000000 0.000000 
#    y 0.000000 1.882600 0.000000 
#    z 0.000000 0.000000 1.924590 
# 
# From -- ./inp_files/5846.got.cif
#   From: 2010.03.12/outbox.cif.g09.slc.cpg/sg60_3_cif.got.tgz:5846.got - 2010.04.10 18:46:24.
