data_PCOD8248209
_publ_section_title
;
Structure prediction by ZEFSAII (Michael W. Deem and Ramdas Pophale) SiO2 
 PCOD8248209
Probable space group: P B C N
;
_chemical_formula_sum "Si O2"
_cell_formula_units_Z 48
_cell_length_a 13.434520
_cell_length_b 10.354136
_cell_length_c 16.281135
_cell_angle_alpha 90.000000
_cell_angle_beta 90.000000
_cell_angle_gamma 90.000000
_cell_volume 2264.752234
_symmetry_space_group_name_H-M "P B C N"
_symmetry_group_IT_number 60
_symmetry_cell_setting 'orthorhombic'
loop_
_space_group_symop_operation_xyz
x,y,z
1/2-x,1/2-y,1/2+z
1/2+x,1/2-y,-z
-x,y,1/2-z
-x,-y,-z
1/2+x,1/2+y,1/2-z
1/2-x,1/2+y,z
x,-y,1/2+z
loop_
_atom_site_type_symbol
_atom_site_label
_atom_site_fract_x
_atom_site_fract_y
_atom_site_fract_z
Si Si1 0.027933 0.648574 0.997499
Si Si2 0.146478 0.831018 0.447321
Si Si3 0.098494 0.007053 0.798665
Si Si4 0.277038 0.129762 0.094873
Si Si5 0.342717 0.767292 0.351968
Si Si6 0.766088 0.378489 0.301211
O O1 0.062242 0.694598 0.906948
O O2 0.118370 0.678494 0.058832
O O3 0.000000 0.500000 0.000000
O O4 0.928772 0.722554 0.022380
O O5 0.084496 0.926581 0.387976
O O6 0.194629 0.905442 0.525352
O O7 0.238779 0.767385 0.400355
O O8 0.157446 0.099873 0.736925
O O9 0.000000 0.973458 0.750000
O O10 0.154798 0.874996 0.815194
O O11 0.232847 0.245569 0.148577
O O12 0.299314 0.999413 0.144410
O O13 0.342160 0.866759 0.275456
#
# Coordination Sequence:
#
# PCOD8248209 Si02
#       6
#     8   8   8   8   8   8
#     4  11  25  42  68 100 133 177 230 279 339 409
#     4  10  25  43  68  97 138 177 227 283 337 402
#     4  11  24  42  68  99 136 177 230 278 343 403
#     4  11  24  42  70  98 134 180 227 278 341 404
#     4  10  25  43  68  98 140 179 223 284 343 403
#     4  11  23  44  67  99 137 181 220 282 342 405
#
# _framework density 21.194369999999999
#
# number of rings (size 3 to 8) (size 9 to 14) (size 15 to 20)
#    0.000    1.333    1.667    2.000   14.000    2.000 
#    0.000    3.333    0.000    0.000    0.000    0.000 
#    0.000    0.000    0.000    0.000    0.000    0.000 
#
# Total GULP energy -595185.854284 kJ/mol
# GULP energy per Si atom -12399.705298 kJ/mol
# Density = 2.114613 g / cm^3
# Si number density = 21.194370 Si / 1000 Ang^3
#
#
#
# Elastic Constant Matrix: (Units=GPa)
#
#
# Indices 1 2 3 4 5 6 
#
# 1 83.3390 35.9042 56.8302 0.0000 0.0000 0.0000
# 2 35.9042 110.5177 59.0845 0.0000 0.0000 0.0000
# 3 56.8302 59.0845 147.2031 0.0000 0.0000 0.0000
# 4 0.0000 0.0000 0.0000 40.8011 0.0000 0.0000
# 5 0.0000 0.0000 0.0000 0.0000 20.6699 0.0000
# 6 0.0000 0.0000 0.0000 0.0000 0.0000 32.6665
#
#
#
# Elastic Compliance Matrix: (Units=1/GPa)
#
#
# Indices 1 2 3 4 5 6 
#
# 1 0.016828 -0.002538 -0.005478 0.000000 0.000000 0.000000
# 2 -0.002538 0.011903 -0.003798 0.000000 0.000000 0.000000
# 3 -0.005478 -0.003798 0.010433 0.000000 0.000000 0.000000
# 4 0.000000 0.000000 0.000000 0.024509 0.000000 0.000000
# 5 0.000000 0.000000 0.000000 0.000000 0.048380 0.000000
# 6 0.000000 0.000000 0.000000 0.000000 0.000000 0.030612
#
#
# Mechanical properties :
#
#
# Convention : Reuss Voigt Hill
#
# Bulk Modulus (GPa) = 64.36728 71.63306 68.00017
# Shear Modulus (GPa) = 29.15924 31.44356 30.30140
#
# Velocity S-wave (km/s) = 3.71320 3.85591 3.78523
# Velocity P-wave (km/s) = 6.98711 7.32772 7.15944
#
# Compressibility (1/GPa) = 0.01553584
#
# Stress axis : x y z
#
# Youngs Moduli (GPa) = 59.42366 84.00999 95.85393
#
# Poissons Ratio (x) = 0.21326 0.52508
# Poissons Ratio (y) = 0.15084 0.36403
# Poissons Ratio (z) = 0.32552 0.31905
#
# Static dielectric constant tensor:
#      x y z
#    x 3.798770 0.000000 0.000000 
#    y 0.000000 3.747530 0.000000 
#    z 0.000000 0.000000 4.194920 
# 
# 
# High freq. dielectric constant tensor:
#      x y z
#    x 1.826910 0.000000 0.000000 
#    y 0.000000 1.830420 0.000000 
#    z 0.000000 0.000000 1.854760 
# 
# From -- ./inp_files/20491.got.cif
#   From: 2010.03.12/outbox.cif.g09.slc.cpg/sg60_11_cif.got.tgz:20491.got - 2010.04.10 18:46:24.
